# generated using pymatgen
data_W(OF)2
_symmetry_space_group_name_H-M   'P 1'
_cell_length_a   3.88079694
_cell_length_b   3.88079694
_cell_length_c   9.49349197
_cell_angle_alpha   90.00000000
_cell_angle_beta   90.00000000
_cell_angle_gamma   90.11233816
_symmetry_Int_Tables_number   1
_chemical_formula_structural   W(OF)2
_chemical_formula_sum   'W2 O4 F4'
_cell_volume   142.97726699
_cell_formula_units_Z   2
loop_
 _symmetry_equiv_pos_site_id
 _symmetry_equiv_pos_as_xyz
  1  'x, y, z'
loop_
 _atom_site_type_symbol
 _atom_site_label
 _atom_site_symmetry_multiplicity
 _atom_site_fract_x
 _atom_site_fract_y
 _atom_site_fract_z
 _atom_site_occupancy
  W  W0  1  0.279816  0.279816  0.250000  1
  W  W1  1  0.720184  0.720184  0.750000  1
  O  O2  1  0.743234  0.245939  0.750000  1
  O  O3  1  0.754061  0.256766  0.250000  1
  O  O4  1  0.245939  0.743234  0.750000  1
  O  O5  1  0.256766  0.754061  0.250000  1
  F  F6  1  0.241215  0.241215  0.051551  1
  F  F7  1  0.241215  0.241215  0.448449  1
  F  F8  1  0.758785  0.758785  0.551551  1
  F  F9  1  0.758785  0.758785  0.948449  1
