# generated using pymatgen
data_Li2V3CuO8
_symmetry_space_group_name_H-M   'P 1'
_cell_length_a   5.88713898
_cell_length_b   5.88713898
_cell_length_c   9.82098163
_cell_angle_alpha   88.85350647
_cell_angle_beta   91.14649353
_cell_angle_gamma   59.74953305
_symmetry_Int_Tables_number   1
_chemical_formula_structural   Li2V3CuO8
_chemical_formula_sum   'Li4 V6 Cu2 O16'
_cell_volume   293.79323371
_cell_formula_units_Z   2
loop_
 _symmetry_equiv_pos_site_id
 _symmetry_equiv_pos_as_xyz
  1  'x, y, z'
loop_
 _atom_site_type_symbol
 _atom_site_label
 _atom_site_symmetry_multiplicity
 _atom_site_fract_x
 _atom_site_fract_y
 _atom_site_fract_z
 _atom_site_occupancy
  Li  Li0  1  0.340297  0.318787  0.898940  1
  Li  Li1  1  0.991441  0.020324  0.994826  1
  Li  Li2  1  0.979676  0.008559  0.494826  1
  Li  Li3  1  0.681213  0.659703  0.398940  1
  V  V4  1  0.199205  0.667712  0.215464  1
  V  V5  1  0.665328  0.149820  0.215104  1
  V  V6  1  0.153506  0.196844  0.211437  1
  V  V7  1  0.803156  0.846494  0.711437  1
  V  V8  1  0.332288  0.800795  0.715464  1
  V  V9  1  0.850180  0.334672  0.715104  1
  Cu  Cu10  1  0.321841  0.332501  0.499166  1
  Cu  Cu11  1  0.667499  0.678159  0.999166  1
  O  O12  1  0.127068  0.687719  0.607414  1
  O  O13  1  0.488941  0.492433  0.324838  1
  O  O14  1  0.333329  0.344987  0.101507  1
  O  O15  1  0.011922  0.001256  0.311818  1
  O  O16  1  0.998744  0.988078  0.811818  1
  O  O17  1  0.664225  0.172602  0.607091  1
  O  O18  1  0.051421  0.466843  0.333372  1
  O  O19  1  0.511576  0.026824  0.325489  1
  O  O20  1  0.858139  0.839885  0.107454  1
  O  O21  1  0.160115  0.141861  0.607454  1
  O  O22  1  0.533157  0.948579  0.833372  1
  O  O23  1  0.973176  0.488424  0.825489  1
  O  O24  1  0.655013  0.666671  0.601507  1
  O  O25  1  0.312281  0.872932  0.107414  1
  O  O26  1  0.507567  0.511059  0.824838  1
  O  O27  1  0.827398  0.335775  0.107091  1
