# generated using pymatgen
data_Li5(CuO2)3
_symmetry_space_group_name_H-M   'P 1'
_cell_length_a   4.77966524
_cell_length_b   5.27823013
_cell_length_c   6.59584690
_cell_angle_alpha   67.80508732
_cell_angle_beta   80.01809027
_cell_angle_gamma   83.17015065
_symmetry_Int_Tables_number   1
_chemical_formula_structural   Li5(CuO2)3
_chemical_formula_sum   'Li5 Cu3 O6'
_cell_volume   151.47846874
_cell_formula_units_Z   1
loop_
 _symmetry_equiv_pos_site_id
 _symmetry_equiv_pos_as_xyz
  1  'x, y, z'
loop_
 _atom_site_type_symbol
 _atom_site_label
 _atom_site_symmetry_multiplicity
 _atom_site_fract_x
 _atom_site_fract_y
 _atom_site_fract_z
 _atom_site_occupancy
  Li  Li0  1  0.901643  0.878651  0.689349  1
  Li  Li1  1  0.743674  0.449332  0.973040  1
  Li  Li2  1  0.241634  0.573399  0.997426  1
  Li  Li3  1  0.569356  0.189995  0.383048  1
  Li  Li4  1  0.114098  0.116104  0.304771  1
  Cu  Cu5  1  0.676500  0.840398  0.165144  1
  Cu  Cu6  1  0.998434  0.501931  0.500813  1
  Cu  Cu7  1  0.325313  0.161232  0.837779  1
  O  O8  1  0.553013  0.820425  0.912919  1
  O  O9  1  0.826129  0.861248  0.409160  1
  O  O10  1  0.084240  0.498354  0.771286  1
  O  O11  1  0.885236  0.479949  0.242680  1
  O  O12  1  0.197030  0.155688  0.576231  1
  O  O13  1  0.453813  0.192839  0.096127  1
