# generated using pymatgen
data_Tb3TaO7
_symmetry_space_group_name_H-M   'P 1'
_cell_length_a   6.49466859
_cell_length_b   6.49466859
_cell_length_c   7.55691326
_cell_angle_alpha   90.00000000
_cell_angle_beta   90.00000000
_cell_angle_gamma   110.37935370
_symmetry_Int_Tables_number   1
_chemical_formula_structural   Tb3TaO7
_chemical_formula_sum   'Tb6 Ta2 O14'
_cell_volume   298.80431644
_cell_formula_units_Z   2
loop_
 _symmetry_equiv_pos_site_id
 _symmetry_equiv_pos_as_xyz
  1  'x, y, z'
loop_
 _atom_site_type_symbol
 _atom_site_label
 _atom_site_symmetry_multiplicity
 _atom_site_fract_x
 _atom_site_fract_y
 _atom_site_fract_z
 _atom_site_occupancy
  Tb  Tb0  1  0.515222  0.055205  0.250000  1
  Tb  Tb1  1  0.944795  0.484778  0.750000  1
  Tb  Tb2  1  0.000000  0.000000  0.000000  1
  Tb  Tb3  1  0.000000  0.000000  0.500000  1
  Tb  Tb4  1  0.055205  0.515222  0.250000  1
  Tb  Tb5  1  0.484778  0.944795  0.750000  1
  Ta  Ta6  1  0.500000  0.500000  1.000000  1
  Ta  Ta7  1  0.500000  0.500000  0.500000  1
  O  O8  1  0.886967  0.151929  0.250000  1
  O  O9  1  0.848071  0.113033  0.750000  1
  O  O10  1  0.821161  0.563357  0.034093  1
  O  O11  1  0.821161  0.563357  0.465907  1
  O  O12  1  0.436643  0.178839  0.965907  1
  O  O13  1  0.436643  0.178839  0.534093  1
  O  O14  1  0.575661  0.575661  0.750000  1
  O  O15  1  0.424339  0.424339  0.250000  1
  O  O16  1  0.563357  0.821161  0.034093  1
  O  O17  1  0.178839  0.436643  0.534093  1
  O  O18  1  0.563357  0.821161  0.465907  1
  O  O19  1  0.178839  0.436643  0.965907  1
  O  O20  1  0.113033  0.848071  0.750000  1
  O  O21  1  0.151929  0.886967  0.250000  1
