# generated using pymatgen
data_CaTb2O4
_symmetry_space_group_name_H-M   'P 1'
_cell_length_a   5.81315840
_cell_length_b   5.81315840
_cell_length_c   11.03454925
_cell_angle_alpha   90.00000000
_cell_angle_beta   90.00000000
_cell_angle_gamma   146.57146121
_symmetry_Int_Tables_number   1
_chemical_formula_structural   CaTb2O4
_chemical_formula_sum   'Ca2 Tb4 O8'
_cell_volume   205.42293462
_cell_formula_units_Z   2
loop_
 _symmetry_equiv_pos_site_id
 _symmetry_equiv_pos_as_xyz
  1  'x, y, z'
loop_
 _atom_site_type_symbol
 _atom_site_label
 _atom_site_symmetry_multiplicity
 _atom_site_fract_x
 _atom_site_fract_y
 _atom_site_fract_z
 _atom_site_occupancy
  Ca  Ca0  1  0.110414  0.889586  0.750000  1
  Ca  Ca1  1  0.889586  0.110414  0.250000  1
  Tb  Tb2  1  0.367470  0.632530  0.574622  1
  Tb  Tb3  1  0.367470  0.632530  0.925378  1
  Tb  Tb4  1  0.632530  0.367470  0.425378  1
  Tb  Tb5  1  0.632530  0.367470  0.074622  1
  O  O6  1  0.000000  0.000000  0.000000  1
  O  O7  1  0.000000  0.000000  0.500000  1
  O  O8  1  0.266349  0.733651  0.386795  1
  O  O9  1  0.468373  0.531627  0.750000  1
  O  O10  1  0.531627  0.468373  0.250000  1
  O  O11  1  0.733651  0.266349  0.613205  1
  O  O12  1  0.266349  0.733651  0.113205  1
  O  O13  1  0.733651  0.266349  0.886795  1
