# generated using pymatgen
data_CuReO4
_symmetry_space_group_name_H-M   'P 1'
_cell_length_a   6.63285120
_cell_length_b   7.85954226
_cell_length_c   9.74705779
_cell_angle_alpha   101.49398084
_cell_angle_beta   104.66059869
_cell_angle_gamma   94.04548963
_symmetry_Int_Tables_number   1
_chemical_formula_structural   CuReO4
_chemical_formula_sum   'Cu6 Re6 O24'
_cell_volume   477.78520200
_cell_formula_units_Z   6
loop_
 _symmetry_equiv_pos_site_id
 _symmetry_equiv_pos_as_xyz
  1  'x, y, z'
loop_
 _atom_site_type_symbol
 _atom_site_label
 _atom_site_symmetry_multiplicity
 _atom_site_fract_x
 _atom_site_fract_y
 _atom_site_fract_z
 _atom_site_occupancy
  Cu  Cu0  1  0.116638  0.210686  0.984708  1
  Cu  Cu1  1  0.461298  0.542150  0.325395  1
  Cu  Cu2  1  0.739121  0.212725  0.440223  1
  Cu  Cu3  1  0.260879  0.787275  0.559777  1
  Cu  Cu4  1  0.538702  0.457850  0.674605  1
  Cu  Cu5  1  0.883362  0.789314  0.015292  1
  Re  Re6  1  0.403581  0.879776  0.103771  1
  Re  Re7  1  0.949444  0.452032  0.235768  1
  Re  Re8  1  0.227449  0.133547  0.341717  1
  Re  Re9  1  0.772551  0.866453  0.658283  1
  Re  Re10  1  0.050556  0.547968  0.764232  1
  Re  Re11  1  0.596419  0.120224  0.896229  1
  O  O12  1  0.636225  0.900752  0.037782  1
  O  O13  1  0.905877  0.594253  0.115369  1
  O  O14  1  0.789779  0.243022  0.059780  1
  O  O15  1  0.134601  0.962861  0.151451  1
  O  O16  1  0.453227  0.713493  0.199228  1
  O  O17  1  0.192862  0.331287  0.199966  1
  O  O18  1  0.713339  0.444232  0.292987  1
  O  O19  1  0.978270  0.217930  0.346790  1
  O  O20  1  0.490613  0.078154  0.268082  1
  O  O21  1  0.218321  0.977071  0.447754  1
  O  O22  1  0.129878  0.591252  0.391716  1
  O  O23  1  0.576770  0.698244  0.528764  1
  O  O24  1  0.423230  0.301756  0.471236  1
  O  O25  1  0.870121  0.408748  0.608284  1
  O  O26  1  0.781679  0.022929  0.552246  1
  O  O27  1  0.509387  0.921846  0.731918  1
  O  O28  1  0.021730  0.782070  0.653210  1
  O  O29  1  0.286661  0.555768  0.707013  1
  O  O30  1  0.807138  0.668713  0.800034  1
  O  O31  1  0.546773  0.286507  0.800772  1
  O  O32  1  0.865399  0.037139  0.848549  1
  O  O33  1  0.210221  0.756978  0.940220  1
  O  O34  1  0.094123  0.405747  0.884631  1
  O  O35  1  0.363775  0.099248  0.962218  1
