# generated using pymatgen
data_Na3NiO2
_symmetry_space_group_name_H-M   'P 1'
_cell_length_a   5.91864111
_cell_length_b   8.54185675
_cell_length_c   7.98974996
_cell_angle_alpha   90.00000000
_cell_angle_beta   112.83020119
_cell_angle_gamma   90.00000000
_symmetry_Int_Tables_number   1
_chemical_formula_structural   Na3NiO2
_chemical_formula_sum   'Na12 Ni4 O8'
_cell_volume   372.28679652
_cell_formula_units_Z   4
loop_
 _symmetry_equiv_pos_site_id
 _symmetry_equiv_pos_as_xyz
  1  'x, y, z'
loop_
 _atom_site_type_symbol
 _atom_site_label
 _atom_site_symmetry_multiplicity
 _atom_site_fract_x
 _atom_site_fract_y
 _atom_site_fract_z
 _atom_site_occupancy
  Na  Na0  1  0.264500  0.286045  0.188566  1
  Na  Na1  1  0.760003  0.031999  0.625100  1
  Na  Na2  1  0.748299  0.465184  0.499822  1
  Na  Na3  1  0.735500  0.786045  0.311434  1
  Na  Na4  1  0.760003  0.468001  0.125100  1
  Na  Na5  1  0.748299  0.034816  0.999822  1
  Na  Na6  1  0.251701  0.965184  0.000178  1
  Na  Na7  1  0.239997  0.531999  0.874900  1
  Na  Na8  1  0.264500  0.213955  0.688566  1
  Na  Na9  1  0.251701  0.534816  0.500178  1
  Na  Na10  1  0.239997  0.968001  0.374900  1
  Na  Na11  1  0.735500  0.713955  0.811434  1
  Ni  Ni12  1  0.205045  0.672791  0.172210  1
  Ni  Ni13  1  0.794955  0.172791  0.327790  1
  Ni  Ni14  1  0.205045  0.827209  0.672210  1
  Ni  Ni15  1  0.794955  0.327209  0.827790  1
  O  O16  1  0.455792  0.539717  0.221674  1
  O  O17  1  0.544208  0.039717  0.278326  1
  O  O18  1  0.037065  0.186976  0.882090  1
  O  O19  1  0.962935  0.686976  0.617910  1
  O  O20  1  0.037065  0.313024  0.382090  1
  O  O21  1  0.962935  0.813024  0.117910  1
  O  O22  1  0.455792  0.960283  0.721674  1
  O  O23  1  0.544208  0.460283  0.778326  1
