# generated using pymatgen
data_MnH8(NO5)2
_symmetry_space_group_name_H-M   'P 1'
_cell_length_a   5.45637335
_cell_length_b   27.69944409
_cell_length_c   6.22066656
_cell_angle_alpha   90.00000000
_cell_angle_beta   120.00356879
_cell_angle_gamma   90.00000000
_symmetry_Int_Tables_number   1
_chemical_formula_structural   MnH8(NO5)2
_chemical_formula_sum   'Mn4 H32 N8 O40'
_cell_volume   814.19244411
_cell_formula_units_Z   4
loop_
 _symmetry_equiv_pos_site_id
 _symmetry_equiv_pos_as_xyz
  1  'x, y, z'
loop_
 _atom_site_type_symbol
 _atom_site_label
 _atom_site_symmetry_multiplicity
 _atom_site_fract_x
 _atom_site_fract_y
 _atom_site_fract_z
 _atom_site_occupancy
  Mn  Mn0  1  0.300211  0.625891  0.779810  1
  Mn  Mn1  1  0.300211  0.874109  0.279810  1
  Mn  Mn2  1  0.699789  0.374109  0.220190  1
  Mn  Mn3  1  0.699789  0.125891  0.720190  1
  H  H4  1  0.244948  0.630663  0.207429  1
  H  H5  1  0.244948  0.869337  0.707429  1
  H  H6  1  0.755052  0.369337  0.792571  1
  H  H7  1  0.755052  0.130663  0.292571  1
  H  H8  1  0.325443  0.682012  0.153185  1
  H  H9  1  0.325443  0.817988  0.653185  1
  H  H10  1  0.674557  0.317988  0.846815  1
  H  H11  1  0.674557  0.182012  0.346815  1
  H  H12  1  0.685353  0.552343  0.112177  1
  H  H13  1  0.685353  0.947657  0.612177  1
  H  H14  1  0.314647  0.447657  0.887823  1
  H  H15  1  0.314647  0.052343  0.387823  1
  H  H16  1  0.751950  0.605133  0.237956  1
  H  H17  1  0.751950  0.894867  0.737956  1
  H  H18  1  0.248050  0.394867  0.762044  1
  H  H19  1  0.248050  0.105133  0.262044  1
  H  H20  1  0.583064  0.585747  0.566577  1
  H  H21  1  0.583064  0.914253  0.066577  1
  H  H22  1  0.416936  0.414253  0.433423  1
  H  H23  1  0.416936  0.085747  0.933423  1
  H  H24  1  0.294634  0.557647  0.431801  1
  H  H25  1  0.294634  0.942353  0.931801  1
  H  H26  1  0.705366  0.442353  0.568199  1
  H  H27  1  0.705366  0.057647  0.068199  1
  H  H28  1  0.605334  0.712690  0.828868  1
  H  H29  1  0.605334  0.787310  0.328868  1
  H  H30  1  0.394666  0.287310  0.171132  1
  H  H31  1  0.394666  0.212690  0.671132  1
  H  H32  1  0.819404  0.668357  0.920924  1
  H  H33  1  0.819404  0.831643  0.420924  1
  H  H34  1  0.180596  0.331643  0.079076  1
  H  H35  1  0.180596  0.168357  0.579076  1
  N  N36  1  0.993053  0.526995  0.735723  1
  N  N37  1  0.993053  0.973005  0.235723  1
  N  N38  1  0.006947  0.473005  0.264277  1
  N  N39  1  0.006947  0.026995  0.764277  1
  N  N40  1  0.877795  0.705127  0.481293  1
  N  N41  1  0.877795  0.794873  0.981293  1
  N  N42  1  0.122205  0.294873  0.518707  1
  N  N43  1  0.122205  0.205127  0.018707  1
  O  O44  1  0.950201  0.573272  0.698664  1
  O  O45  1  0.950201  0.926728  0.198664  1
  O  O46  1  0.049799  0.426728  0.301336  1
  O  O47  1  0.049799  0.073272  0.801336  1
  O  O48  1  0.227285  0.510246  0.779210  1
  O  O49  1  0.227285  0.989754  0.279210  1
  O  O50  1  0.772715  0.489754  0.220790  1
  O  O51  1  0.772715  0.010246  0.720790  1
  O  O52  1  0.797912  0.501611  0.724226  1
  O  O53  1  0.797912  0.998389  0.224226  1
  O  O54  1  0.202088  0.498389  0.275774  1
  O  O55  1  0.202088  0.001611  0.775774  1
  O  O56  1  0.923776  0.659285  0.470170  1
  O  O57  1  0.923776  0.840715  0.970170  1
  O  O58  1  0.076224  0.340715  0.529830  1
  O  O59  1  0.076224  0.159285  0.029830  1
  O  O60  1  0.637457  0.721752  0.324716  1
  O  O61  1  0.637457  0.778248  0.824716  1
  O  O62  1  0.362543  0.278248  0.675284  1
  O  O63  1  0.362543  0.221752  0.175284  1
  O  O64  1  0.066607  0.730581  0.642952  1
  O  O65  1  0.066607  0.769419  0.142952  1
  O  O66  1  0.933393  0.269419  0.357048  1
  O  O67  1  0.933393  0.230581  0.857048  1
  O  O68  1  0.201208  0.653700  0.070768  1
  O  O69  1  0.201208  0.846300  0.570768  1
  O  O70  1  0.798792  0.346300  0.929232  1
  O  O71  1  0.798792  0.153700  0.429232  1
  O  O72  1  0.654720  0.587419  0.080449  1
  O  O73  1  0.654720  0.912581  0.580449  1
  O  O74  1  0.345280  0.412581  0.919551  1
  O  O75  1  0.345280  0.087419  0.419551  1
  O  O76  1  0.374095  0.590459  0.487314  1
  O  O77  1  0.374095  0.909541  0.987314  1
  O  O78  1  0.625905  0.409541  0.512686  1
  O  O79  1  0.625905  0.090459  0.012686  1
  O  O80  1  0.616852  0.677074  0.822548  1
  O  O81  1  0.616852  0.822926  0.322548  1
  O  O82  1  0.383148  0.322926  0.177452  1
  O  O83  1  0.383148  0.177074  0.677452  1
