# generated using pymatgen
data_Fe3(OF2)2
_symmetry_space_group_name_H-M   'P 1'
_cell_length_a   4.82827888
_cell_length_b   5.77194379
_cell_length_c   7.82556229
_cell_angle_alpha   84.56611168
_cell_angle_beta   89.61818307
_cell_angle_gamma   89.08402854
_symmetry_Int_Tables_number   1
_chemical_formula_structural   Fe3(OF2)2
_chemical_formula_sum   'Fe6 O4 F8'
_cell_volume   217.07640378
_cell_formula_units_Z   2
loop_
 _symmetry_equiv_pos_site_id
 _symmetry_equiv_pos_as_xyz
  1  'x, y, z'
loop_
 _atom_site_type_symbol
 _atom_site_label
 _atom_site_symmetry_multiplicity
 _atom_site_fract_x
 _atom_site_fract_y
 _atom_site_fract_z
 _atom_site_occupancy
  Fe  Fe0  1  0.562876  0.829941  0.659193  1
  Fe  Fe1  1  0.493465  0.503103  0.006617  1
  Fe  Fe2  1  0.488885  0.166646  0.335120  1
  Fe  Fe3  1  0.959843  0.333756  0.680282  1
  Fe  Fe4  1  0.008960  0.667796  0.334715  1
  Fe  Fe5  1  0.990378  0.994003  0.988030  1
  O  O6  1  0.800237  0.045652  0.761747  1
  O  O7  1  0.696348  0.537189  0.778120  1
  O  O8  1  0.677646  0.881194  0.427086  1
  O  O9  1  0.318307  0.452682  0.227966  1
  F  F10  1  0.798073  0.360456  0.441756  1
  F  F11  1  0.796652  0.692100  0.099794  1
  F  F12  1  0.698535  0.207643  0.104692  1
  F  F13  1  0.289839  0.133385  0.566219  1
  F  F14  1  0.318561  0.795428  0.895700  1
  F  F15  1  0.200738  0.974103  0.220261  1
  F  F16  1  0.194447  0.617228  0.579686  1
  F  F17  1  0.206211  0.307695  0.893015  1
