# generated using pymatgen
data_Sr3LaMn2(WO6)2
_symmetry_space_group_name_H-M   'P 1'
_cell_length_a   5.79494166
_cell_length_b   5.81735232
_cell_length_c   16.17666755
_cell_angle_alpha   90.00000000
_cell_angle_beta   90.29008990
_cell_angle_gamma   90.00000000
_symmetry_Int_Tables_number   1
_chemical_formula_structural   Sr3LaMn2(WO6)2
_chemical_formula_sum   'Sr6 La2 Mn4 W4 O24'
_cell_volume   545.32816556
_cell_formula_units_Z   2
loop_
 _symmetry_equiv_pos_site_id
 _symmetry_equiv_pos_as_xyz
  1  'x, y, z'
loop_
 _atom_site_type_symbol
 _atom_site_label
 _atom_site_symmetry_multiplicity
 _atom_site_fract_x
 _atom_site_fract_y
 _atom_site_fract_z
 _atom_site_occupancy
  Sr  Sr0  1  0.233122  0.022653  0.000519  1
  Sr  Sr1  1  0.241049  0.021638  0.498627  1
  Sr  Sr2  1  0.741289  0.477335  0.244765  1
  Sr  Sr3  1  0.766878  0.522653  0.999481  1
  Sr  Sr4  1  0.758951  0.521638  0.501373  1
  Sr  Sr5  1  0.258711  0.977335  0.755235  1
  La  La6  1  0.738455  0.470289  0.758553  1
  La  La7  1  0.261545  0.970289  0.241447  1
  Mn  Mn8  1  0.747548  0.000045  0.122492  1
  Mn  Mn9  1  0.751184  0.998124  0.625499  1
  Mn  Mn10  1  0.252452  0.500045  0.877508  1
  Mn  Mn11  1  0.248816  0.498124  0.374501  1
  W  W12  1  0.752996  0.998752  0.875085  1
  W  W13  1  0.750247  0.000047  0.375716  1
  W  W14  1  0.247004  0.498752  0.124915  1
  W  W15  1  0.249753  0.500047  0.624284  1
  O  O16  1  0.671228  0.986612  0.493054  1
  O  O17  1  0.666333  0.986509  0.989813  1
  O  O18  1  0.018407  0.779102  0.893056  1
  O  O19  1  0.999776  0.781107  0.396336  1
  O  O20  1  0.033742  0.771226  0.107223  1
  O  O21  1  0.040931  0.757185  0.601903  1
  O  O22  1  0.540373  0.725523  0.846734  1
  O  O23  1  0.530173  0.749783  0.351403  1
  O  O24  1  0.503993  0.732190  0.152199  1
  O  O25  1  0.508770  0.711326  0.647835  1
  O  O26  1  0.172643  0.518751  0.245239  1
  O  O27  1  0.158293  0.511805  0.740674  1
  O  O28  1  0.328772  0.486612  0.506946  1
  O  O29  1  0.333667  0.486509  0.010187  1
  O  O30  1  0.000224  0.281107  0.603664  1
  O  O31  1  0.981593  0.279102  0.106944  1
  O  O32  1  0.966258  0.271226  0.892777  1
  O  O33  1  0.959069  0.257185  0.398097  1
  O  O34  1  0.469827  0.249783  0.648597  1
  O  O35  1  0.459627  0.225523  0.153266  1
  O  O36  1  0.496007  0.232190  0.847801  1
  O  O37  1  0.491230  0.211326  0.352165  1
  O  O38  1  0.827357  0.018751  0.754761  1
  O  O39  1  0.841707  0.011805  0.259326  1
