# generated using pymatgen
data_Li5SbS
_symmetry_space_group_name_H-M   'P 1'
_cell_length_a   8.39263423
_cell_length_b   8.14613282
_cell_length_c   16.47263539
_cell_angle_alpha   90.00000000
_cell_angle_beta   94.81045617
_cell_angle_gamma   90.00000000
_symmetry_Int_Tables_number   1
_chemical_formula_structural   Li5SbS
_chemical_formula_sum   'Li40 Sb8 S8'
_cell_volume   1122.22618262
_cell_formula_units_Z   8
loop_
 _symmetry_equiv_pos_site_id
 _symmetry_equiv_pos_as_xyz
  1  'x, y, z'
loop_
 _atom_site_type_symbol
 _atom_site_label
 _atom_site_symmetry_multiplicity
 _atom_site_fract_x
 _atom_site_fract_y
 _atom_site_fract_z
 _atom_site_occupancy
  Li  Li0  1  0.000997  0.487450  0.608372  1
  Li  Li1  1  0.006361  0.811863  0.699069  1
  Li  Li2  1  0.014057  0.825312  0.532814  1
  Li  Li3  1  0.000997  0.012550  0.108372  1
  Li  Li4  1  0.006361  0.688137  0.199069  1
  Li  Li5  1  0.014057  0.674688  0.032814  1
  Li  Li6  1  0.297122  0.497710  0.912215  1
  Li  Li7  1  0.275918  0.121820  0.744244  1
  Li  Li8  1  0.261073  0.569770  0.748477  1
  Li  Li9  1  0.308137  0.829582  0.865178  1
  Li  Li10  1  0.284475  0.212072  0.577404  1
  Li  Li11  1  0.297122  0.002290  0.412215  1
  Li  Li12  1  0.381661  0.567881  0.542340  1
  Li  Li13  1  0.449132  0.830097  0.652721  1
  Li  Li14  1  0.275918  0.378180  0.244244  1
  Li  Li15  1  0.261073  0.930230  0.248477  1
  Li  Li16  1  0.308137  0.670418  0.365178  1
  Li  Li17  1  0.284475  0.287928  0.077404  1
  Li  Li18  1  0.381661  0.932119  0.042340  1
  Li  Li19  1  0.449132  0.669903  0.152721  1
  Li  Li20  1  0.550868  0.330097  0.847279  1
  Li  Li21  1  0.618339  0.067881  0.957660  1
  Li  Li22  1  0.715525  0.712072  0.922596  1
  Li  Li23  1  0.691863  0.329582  0.634822  1
  Li  Li24  1  0.738927  0.069770  0.751523  1
  Li  Li25  1  0.724082  0.621820  0.755756  1
  Li  Li26  1  0.550868  0.169903  0.347279  1
  Li  Li27  1  0.618339  0.432119  0.457660  1
  Li  Li28  1  0.702878  0.997710  0.587785  1
  Li  Li29  1  0.715525  0.787928  0.422596  1
  Li  Li30  1  0.691863  0.170418  0.134822  1
  Li  Li31  1  0.738927  0.430230  0.251523  1
  Li  Li32  1  0.724082  0.878180  0.255756  1
  Li  Li33  1  0.702878  0.502290  0.087785  1
  Li  Li34  1  0.985943  0.325312  0.967186  1
  Li  Li35  1  0.993639  0.311863  0.800931  1
  Li  Li36  1  0.999003  0.987450  0.891628  1
  Li  Li37  1  0.985943  0.174688  0.467186  1
  Li  Li38  1  0.993639  0.188137  0.300931  1
  Li  Li39  1  0.999003  0.512550  0.391628  1
  Sb  Sb40  1  0.988343  0.150156  0.642820  1
  Sb  Sb41  1  0.988343  0.349844  0.142820  1
  Sb  Sb42  1  0.292456  0.160322  0.916922  1
  Sb  Sb43  1  0.292456  0.339678  0.416922  1
  Sb  Sb44  1  0.707544  0.660322  0.583078  1
  Sb  Sb45  1  0.707544  0.839678  0.083078  1
  Sb  Sb46  1  0.011657  0.650156  0.857180  1
  Sb  Sb47  1  0.011657  0.849844  0.357180  1
  S  S48  1  0.205601  0.688907  0.622670  1
  S  S49  1  0.205601  0.811093  0.122670  1
  S  S50  1  0.497174  0.622441  0.833659  1
  S  S51  1  0.502826  0.122441  0.666341  1
  S  S52  1  0.497174  0.877559  0.333659  1
  S  S53  1  0.502826  0.377559  0.166341  1
  S  S54  1  0.794399  0.188907  0.877330  1
  S  S55  1  0.794399  0.311093  0.377330  1
