# generated using pymatgen
data_Li4MnCrO6
_symmetry_space_group_name_H-M   'P 1'
_cell_length_a   5.02243439
_cell_length_b   8.68789199
_cell_length_c   9.75175994
_cell_angle_alpha   98.19491196
_cell_angle_beta   94.81953666
_cell_angle_gamma   89.70553711
_symmetry_Int_Tables_number   1
_chemical_formula_structural   Li4MnCrO6
_chemical_formula_sum   'Li16 Mn4 Cr4 O24'
_cell_volume   419.66771447
_cell_formula_units_Z   4
loop_
 _symmetry_equiv_pos_site_id
 _symmetry_equiv_pos_as_xyz
  1  'x, y, z'
loop_
 _atom_site_type_symbol
 _atom_site_label
 _atom_site_symmetry_multiplicity
 _atom_site_fract_x
 _atom_site_fract_y
 _atom_site_fract_z
 _atom_site_occupancy
  Li  Li0  1  0.995462  0.168940  0.500217  1
  Li  Li1  1  0.876721  0.375059  0.749334  1
  Li  Li2  1  0.752705  0.249717  0.999953  1
  Li  Li3  1  0.741700  0.919988  0.999976  1
  Li  Li4  1  0.759194  0.580747  0.000464  1
  Li  Li5  1  0.624111  0.122237  0.249896  1
  Li  Li6  1  0.502597  0.331360  0.500538  1
  Li  Li7  1  0.503629  0.001128  0.499663  1
  Li  Li8  1  0.490851  0.667428  0.498715  1
  Li  Li9  1  0.373209  0.874811  0.750449  1
  Li  Li10  1  0.254229  0.750296  0.999735  1
  Li  Li11  1  0.239542  0.420900  0.000000  1
  Li  Li12  1  0.254251  0.078864  0.999045  1
  Li  Li13  1  0.123947  0.622731  0.250101  1
  Li  Li14  1  0.004987  0.830443  0.499970  1
  Li  Li15  1  0.002271  0.501040  0.500150  1
  Mn  Mn16  1  0.876938  0.043175  0.751295  1
  Mn  Mn17  1  0.625654  0.791789  0.250282  1
  Mn  Mn18  1  0.373193  0.206603  0.749047  1
  Mn  Mn19  1  0.125182  0.291970  0.249896  1
  Cr  Cr20  1  0.870936  0.712224  0.751065  1
  Cr  Cr21  1  0.622817  0.455291  0.249699  1
  Cr  Cr22  1  0.377852  0.538070  0.748908  1
  Cr  Cr23  1  0.123111  0.955156  0.249806  1
  O  O24  1  0.966543  0.107384  0.138478  1
  O  O25  1  0.928733  0.787409  0.138902  1
  O  O26  1  0.932885  0.426730  0.134190  1
  O  O27  1  0.816381  0.963992  0.363220  1
  O  O28  1  0.822652  0.325482  0.363256  1
  O  O29  1  0.784735  0.643861  0.362092  1
  O  O30  1  0.717359  0.857968  0.639156  1
  O  O31  1  0.669087  0.535635  0.637135  1
  O  O32  1  0.676888  0.178470  0.636726  1
  O  O33  1  0.467726  0.606949  0.138308  1
  O  O34  1  0.580521  0.714075  0.862695  1
  O  O35  1  0.573098  0.072007  0.863469  1
  O  O36  1  0.432953  0.926574  0.134619  1
  O  O37  1  0.428452  0.287542  0.138564  1
  O  O38  1  0.532496  0.391914  0.861612  1
  O  O39  1  0.322937  0.824913  0.363630  1
  O  O40  1  0.316173  0.463848  0.362862  1
  O  O41  1  0.284762  0.143688  0.361655  1
  O  O42  1  0.211272  0.352980  0.637166  1
  O  O43  1  0.174447  0.676786  0.636135  1
  O  O44  1  0.178527  0.034262  0.638593  1
  O  O45  1  0.076366  0.574340  0.864200  1
  O  O46  1  0.071690  0.215597  0.861380  1
  O  O47  1  0.038228  0.897630  0.863753  1
