# generated using pymatgen
data_Ba2V3P6HO22
_symmetry_space_group_name_H-M   'P 1'
_cell_length_a   4.92131305
_cell_length_b   8.03351333
_cell_length_c   11.48356923
_cell_angle_alpha   88.70220340
_cell_angle_beta   89.22321951
_cell_angle_gamma   87.05731258
_symmetry_Int_Tables_number   1
_chemical_formula_structural   Ba2V3P6HO22
_chemical_formula_sum   'Ba2 V3 P6 H1 O22'
_cell_volume   453.25799633
_cell_formula_units_Z   1
loop_
 _symmetry_equiv_pos_site_id
 _symmetry_equiv_pos_as_xyz
  1  'x, y, z'
loop_
 _atom_site_type_symbol
 _atom_site_label
 _atom_site_symmetry_multiplicity
 _atom_site_fract_x
 _atom_site_fract_y
 _atom_site_fract_z
 _atom_site_occupancy
  Ba  Ba0  1  0.729192  0.005779  0.176973  1
  Ba  Ba1  1  0.270808  0.994221  0.823027  1
  V  V2  1  0.000000  0.000000  0.500000  1
  V  V3  1  0.717615  0.494276  0.202995  1
  V  V4  1  0.282385  0.505724  0.797005  1
  P  P5  1  0.182085  0.705981  0.050932  1
  P  P6  1  0.817915  0.294019  0.949068  1
  P  P7  1  0.233647  0.302466  0.343019  1
  P  P8  1  0.766353  0.697534  0.656981  1
  P  P9  1  0.527835  0.756531  0.425615  1
  P  P10  1  0.472165  0.243469  0.574385  1
  H  H11  1  0.500000  0.500000  0.000000  1
  O  O12  1  0.920917  0.681299  0.124745  1
  O  O13  1  0.079083  0.318701  0.875255  1
  O  O14  1  0.408761  0.566385  0.086117  1
  O  O15  1  0.591239  0.433615  0.913883  1
  O  O16  1  0.269766  0.884660  0.070754  1
  O  O17  1  0.730234  0.115340  0.929246  1
  O  O18  1  0.135901  0.681898  0.919551  1
  O  O19  1  0.864099  0.318102  0.080449  1
  O  O20  1  0.135673  0.123372  0.347059  1
  O  O21  1  0.864327  0.876628  0.652941  1
  O  O22  1  0.015683  0.434620  0.310153  1
  O  O23  1  0.984317  0.565380  0.689847  1
  O  O24  1  0.676970  0.646084  0.528113  1
  O  O25  1  0.323030  0.353916  0.471887  1
  O  O26  1  0.489239  0.304846  0.262889  1
  O  O27  1  0.510761  0.695154  0.737111  1
  O  O28  1  0.695310  0.913990  0.407096  1
  O  O29  1  0.304690  0.086010  0.592904  1
  O  O30  1  0.236040  0.797139  0.464643  1
  O  O31  1  0.763960  0.202861  0.535357  1
  O  O32  1  0.539781  0.658854  0.314780  1
  O  O33  1  0.460219  0.341146  0.685220  1
