# generated using pymatgen
data_Ba6Ta9Ti7O42
_symmetry_space_group_name_H-M   'P 1'
_cell_length_a   9.16454998
_cell_length_b   9.16454998
_cell_length_c   11.96307741
_cell_angle_alpha   89.99982821
_cell_angle_beta   90.00017179
_cell_angle_gamma   60.09230650
_symmetry_Int_Tables_number   1
_chemical_formula_structural   Ba6Ta9Ti7O42
_chemical_formula_sum   'Ba6 Ta9 Ti7 O42'
_cell_volume   870.96165854
_cell_formula_units_Z   1
loop_
 _symmetry_equiv_pos_site_id
 _symmetry_equiv_pos_as_xyz
  1  'x, y, z'
loop_
 _atom_site_type_symbol
 _atom_site_label
 _atom_site_symmetry_multiplicity
 _atom_site_fract_x
 _atom_site_fract_y
 _atom_site_fract_z
 _atom_site_occupancy
  Ba  Ba0  1  0.595580  0.404420  0.243830  1
  Ba  Ba1  1  0.411431  0.588569  0.749856  1
  Ba  Ba2  1  0.406798  0.000603  0.243643  1
  Ba  Ba3  1  0.594764  0.004849  0.749425  1
  Ba  Ba4  1  0.995151  0.405236  0.749425  1
  Ba  Ba5  1  0.999397  0.593202  0.243643  1
  Ta  Ta6  1  0.245691  0.754309  0.408002  1
  Ta  Ta7  1  0.665462  0.665829  0.003681  1
  Ta  Ta8  1  0.666757  0.666291  0.506288  1
  Ta  Ta9  1  0.241892  0.002556  0.908546  1
  Ta  Ta10  1  0.998810  0.245016  0.406171  1
  Ta  Ta11  1  0.754984  0.001190  0.406171  1
  Ta  Ta12  1  0.334171  0.334538  0.003681  1
  Ta  Ta13  1  0.333709  0.333243  0.506288  1
  Ta  Ta14  1  0.997444  0.758108  0.908546  1
  Ti  Ti15  1  0.749796  0.250204  0.909509  1
  Ti  Ti16  1  0.758675  0.241325  0.601240  1
  Ti  Ti17  1  0.244866  0.755134  0.095256  1
  Ti  Ti18  1  0.244647  0.000058  0.595817  1
  Ti  Ti19  1  0.995237  0.246503  0.091261  1
  Ti  Ti20  1  0.753497  0.004763  0.091261  1
  Ti  Ti21  1  0.999942  0.755353  0.595817  1
  O  O22  1  0.799630  0.200370  0.073423  1
  O  O23  1  0.800131  0.199869  0.422656  1
  O  O24  1  0.786218  0.213782  0.751482  1
  O  O25  1  0.686945  0.481367  0.902079  1
  O  O26  1  0.687270  0.480915  0.599456  1
  O  O27  1  0.209950  0.790050  0.248998  1
  O  O28  1  0.202967  0.797033  0.574557  1
  O  O29  1  0.201547  0.798453  0.923579  1
  O  O30  1  0.831599  0.481241  0.100548  1
  O  O31  1  0.830819  0.483850  0.400610  1
  O  O32  1  0.481000  0.686678  0.099635  1
  O  O33  1  0.483876  0.685243  0.400575  1
  O  O34  1  0.480616  0.832792  0.598889  1
  O  O35  1  0.482876  0.831132  0.901012  1
  O  O36  1  0.832636  0.686870  0.599335  1
  O  O37  1  0.831806  0.683803  0.899303  1
  O  O38  1  0.203735  0.997880  0.074812  1
  O  O39  1  0.201214  0.999962  0.423894  1
  O  O40  1  0.209344  0.999999  0.748862  1
  O  O41  1  0.688081  0.832358  0.096527  1
  O  O42  1  0.685466  0.830963  0.401114  1
  O  O43  1  0.999758  0.201092  0.574694  1
  O  O44  1  0.001649  0.200853  0.924690  1
  O  O45  1  0.999927  0.210483  0.247939  1
  O  O46  1  0.313130  0.167364  0.599335  1
  O  O47  1  0.316197  0.168194  0.899303  1
  O  O48  1  0.789517  0.000073  0.247939  1
  O  O49  1  0.798908  0.000242  0.574694  1
  O  O50  1  0.799147  0.998351  0.924690  1
  O  O51  1  0.167642  0.311919  0.096527  1
  O  O52  1  0.169037  0.314534  0.401114  1
  O  O53  1  0.516150  0.169181  0.400610  1
  O  O54  1  0.518759  0.168401  0.100548  1
  O  O55  1  0.519085  0.312730  0.599456  1
  O  O56  1  0.518633  0.313055  0.902079  1
  O  O57  1  0.167208  0.519384  0.598889  1
  O  O58  1  0.168868  0.517124  0.901012  1
  O  O59  1  0.314757  0.516124  0.400575  1
  O  O60  1  0.313322  0.519000  0.099635  1
  O  O61  1  0.000001  0.790656  0.748862  1
  O  O62  1  0.000038  0.798786  0.423894  1
  O  O63  1  0.002120  0.796265  0.074812  1
