# generated using pymatgen
data_Li4VFe(TeO6)2
_symmetry_space_group_name_H-M   'P 1'
_cell_length_a   5.12576119
_cell_length_b   5.38059272
_cell_length_c   7.46809638
_cell_angle_alpha   93.73764782
_cell_angle_beta   90.07349106
_cell_angle_gamma   90.29187929
_symmetry_Int_Tables_number   1
_chemical_formula_structural   Li4VFe(TeO6)2
_chemical_formula_sum   'Li4 V1 Fe1 Te2 O12'
_cell_volume   205.52633140
_cell_formula_units_Z   1
loop_
 _symmetry_equiv_pos_site_id
 _symmetry_equiv_pos_as_xyz
  1  'x, y, z'
loop_
 _atom_site_type_symbol
 _atom_site_label
 _atom_site_symmetry_multiplicity
 _atom_site_fract_x
 _atom_site_fract_y
 _atom_site_fract_z
 _atom_site_occupancy
  Li  Li0  1  0.004217  0.436608  0.272445  1
  Li  Li1  1  0.499249  0.939043  0.790857  1
  Li  Li2  1  0.996013  0.406446  0.801600  1
  Li  Li3  1  0.498116  0.953706  0.270360  1
  V  V4  1  0.502758  0.486316  0.512452  1
  Fe  Fe5  1  0.999437  0.988853  0.002823  1
  Te  Te6  1  0.998701  0.986752  0.499311  1
  Te  Te7  1  0.505874  0.499660  0.010348  1
  O  O8  1  0.304275  0.209938  0.431601  1
  O  O9  1  0.123268  0.023484  0.738783  1
  O  O10  1  0.331926  0.818076  0.045056  1
  O  O11  1  0.198175  0.697887  0.424152  1
  O  O12  1  0.798703  0.688491  0.926307  1
  O  O13  1  0.378218  0.509733  0.735443  1
  O  O14  1  0.626965  0.515749  0.255599  1
  O  O15  1  0.186305  0.329052  0.048032  1
  O  O16  1  0.801522  0.319961  0.557043  1
  O  O17  1  0.689720  0.204467  0.931006  1
  O  O18  1  0.878151  0.026187  0.259796  1
  O  O19  1  0.678408  0.817187  0.558186  1
