# generated using pymatgen
data_Li3Mn8O16
_symmetry_space_group_name_H-M   'P 1'
_cell_length_a   5.97233158
_cell_length_b   8.19738433
_cell_length_c   12.06236880
_cell_angle_alpha   90.00000000
_cell_angle_beta   90.00000000
_cell_angle_gamma   90.00000000
_symmetry_Int_Tables_number   1
_chemical_formula_structural   Li3Mn8O16
_chemical_formula_sum   'Li6 Mn16 O32'
_cell_volume   590.54338803
_cell_formula_units_Z   2
loop_
 _symmetry_equiv_pos_site_id
 _symmetry_equiv_pos_as_xyz
  1  'x, y, z'
loop_
 _atom_site_type_symbol
 _atom_site_label
 _atom_site_symmetry_multiplicity
 _atom_site_fract_x
 _atom_site_fract_y
 _atom_site_fract_z
 _atom_site_occupancy
  Li  Li0  1  0.500000  0.129667  0.000000  1
  Li  Li1  1  0.000000  0.628237  0.756580  1
  Li  Li2  1  0.000000  0.628237  0.243420  1
  Li  Li3  1  0.500000  0.371763  0.743420  1
  Li  Li4  1  0.000000  0.870333  0.500000  1
  Li  Li5  1  0.500000  0.371763  0.256580  1
  Mn  Mn6  1  0.000000  0.252278  0.874159  1
  Mn  Mn7  1  0.748313  0.499266  0.000000  1
  Mn  Mn8  1  0.750000  0.000000  0.750000  1
  Mn  Mn9  1  0.500000  0.747722  0.625841  1
  Mn  Mn10  1  0.500000  0.751603  0.878180  1
  Mn  Mn11  1  0.248313  0.500734  0.500000  1
  Mn  Mn12  1  0.250000  0.000000  0.750000  1
  Mn  Mn13  1  0.000000  0.248397  0.621820  1
  Mn  Mn14  1  0.000000  0.248397  0.378180  1
  Mn  Mn15  1  0.751687  0.500734  0.500000  1
  Mn  Mn16  1  0.750000  0.000000  0.250000  1
  Mn  Mn17  1  0.500000  0.751603  0.121820  1
  Mn  Mn18  1  0.500000  0.747722  0.374159  1
  Mn  Mn19  1  0.250000  0.000000  0.250000  1
  Mn  Mn20  1  0.251687  0.499266  0.000000  1
  Mn  Mn21  1  0.000000  0.252278  0.125841  1
  O  O22  1  0.236804  0.267916  0.000000  1
  O  O23  1  0.000000  0.487125  0.889300  1
  O  O24  1  0.763196  0.267916  0.000000  1
  O  O25  1  0.725854  0.764773  0.761983  1
  O  O26  1  0.500000  0.993336  0.859521  1
  O  O27  1  0.500000  0.981465  0.645772  1
  O  O28  1  0.500000  0.516141  0.886055  1
  O  O29  1  0.274146  0.764773  0.761983  1
  O  O30  1  0.213235  0.261858  0.500000  1
  O  O31  1  0.225854  0.235227  0.738017  1
  O  O32  1  0.000000  0.483859  0.386055  1
  O  O33  1  0.000000  0.018535  0.854228  1
  O  O34  1  0.000000  0.483859  0.613945  1
  O  O35  1  0.000000  0.006664  0.640479  1
  O  O36  1  0.774146  0.235227  0.738017  1
  O  O37  1  0.786765  0.261858  0.500000  1
  O  O38  1  0.725854  0.764773  0.238017  1
  O  O39  1  0.736804  0.732084  0.500000  1
  O  O40  1  0.500000  0.512875  0.610700  1
  O  O41  1  0.500000  0.981465  0.354228  1
  O  O42  1  0.500000  0.993336  0.140479  1
  O  O43  1  0.500000  0.512875  0.389300  1
  O  O44  1  0.263196  0.732084  0.500000  1
  O  O45  1  0.274146  0.764773  0.238017  1
  O  O46  1  0.225854  0.235227  0.261983  1
  O  O47  1  0.000000  0.487125  0.110700  1
  O  O48  1  0.000000  0.006664  0.359521  1
  O  O49  1  0.000000  0.018535  0.145772  1
  O  O50  1  0.774146  0.235227  0.261983  1
  O  O51  1  0.713235  0.738142  0.000000  1
  O  O52  1  0.500000  0.516141  0.113945  1
  O  O53  1  0.286765  0.738142  0.000000  1
