# generated using pymatgen
data_MnTlH2OF4
_symmetry_space_group_name_H-M   'P 1'
_cell_length_a   7.69699508
_cell_length_b   7.69699508
_cell_length_c   10.75447896
_cell_angle_alpha   77.99378636
_cell_angle_beta   102.00621364
_cell_angle_gamma   128.16504487
_symmetry_Int_Tables_number   1
_chemical_formula_structural   MnTlH2OF4
_chemical_formula_sum   'Mn4 Tl4 H8 O4 F16'
_cell_volume   487.35593974
_cell_formula_units_Z   4
loop_
 _symmetry_equiv_pos_site_id
 _symmetry_equiv_pos_as_xyz
  1  'x, y, z'
loop_
 _atom_site_type_symbol
 _atom_site_label
 _atom_site_symmetry_multiplicity
 _atom_site_fract_x
 _atom_site_fract_y
 _atom_site_fract_z
 _atom_site_occupancy
  Mn  Mn0  1  0.500000  1.000000  0.000000  1
  Mn  Mn1  1  0.000000  0.500000  0.500000  1
  Mn  Mn2  1  0.242890  0.242890  0.750000  1
  Mn  Mn3  1  0.757110  0.757110  0.250000  1
  Tl  Tl4  1  0.820280  0.655363  0.937036  1
  Tl  Tl5  1  0.655363  0.820280  0.562964  1
  Tl  Tl6  1  0.179720  0.344637  0.062964  1
  Tl  Tl7  1  0.344637  0.179720  0.437036  1
  H  H8  1  0.727316  0.087821  0.795694  1
  H  H9  1  0.087821  0.727316  0.704306  1
  H  H10  1  0.272684  0.912179  0.204306  1
  H  H11  1  0.912179  0.272684  0.295694  1
  H  H12  1  0.583651  0.174574  0.747325  1
  H  H13  1  0.174574  0.583651  0.752675  1
  H  H14  1  0.416349  0.825426  0.252675  1
  H  H15  1  0.825426  0.416349  0.247325  1
  O  O16  1  0.579168  0.049889  0.798315  1
  O  O17  1  0.049889  0.579168  0.701685  1
  O  O18  1  0.420832  0.950111  0.201685  1
  O  O19  1  0.950111  0.420832  0.298315  1
  F  F20  1  0.362895  0.148082  0.937348  1
  F  F21  1  0.148082  0.362895  0.562652  1
  F  F22  1  0.637105  0.851918  0.062652  1
  F  F23  1  0.851918  0.637105  0.437348  1
  F  F24  1  0.226788  0.727760  0.966714  1
  F  F25  1  0.727760  0.226788  0.533286  1
  F  F26  1  0.773212  0.272240  0.033286  1
  F  F27  1  0.272240  0.773212  0.466714  1
  F  F28  1  0.115866  0.974036  0.684917  1
  F  F29  1  0.974036  0.115866  0.815083  1
  F  F30  1  0.884134  0.025964  0.315083  1
  F  F31  1  0.025964  0.884134  0.184917  1
  F  F32  1  0.513821  0.366899  0.688725  1
  F  F33  1  0.366899  0.513821  0.811275  1
  F  F34  1  0.486179  0.633101  0.311275  1
  F  F35  1  0.633101  0.486179  0.188725  1
