# generated using pymatgen
data_LiCr2P3O13
_symmetry_space_group_name_H-M   'P 1'
_cell_length_a   8.73406192
_cell_length_b   8.73406192
_cell_length_c   8.42668039
_cell_angle_alpha   69.80382820
_cell_angle_beta   110.19617180
_cell_angle_gamma   73.01044861
_symmetry_Int_Tables_number   1
_chemical_formula_structural   LiCr2P3O13
_chemical_formula_sum   'Li2 Cr4 P6 O26'
_cell_volume   500.65410607
_cell_formula_units_Z   2
loop_
 _symmetry_equiv_pos_site_id
 _symmetry_equiv_pos_as_xyz
  1  'x, y, z'
loop_
 _atom_site_type_symbol
 _atom_site_label
 _atom_site_symmetry_multiplicity
 _atom_site_fract_x
 _atom_site_fract_y
 _atom_site_fract_z
 _atom_site_occupancy
  Li  Li0  1  0.000000  0.500000  0.500000  1
  Li  Li1  1  0.500000  0.000000  0.000000  1
  Cr  Cr2  1  0.171054  0.662548  0.827169  1
  Cr  Cr3  1  0.662548  0.171054  0.672831  1
  Cr  Cr4  1  0.337452  0.828946  0.327169  1
  Cr  Cr5  1  0.828946  0.337452  0.172831  1
  P  P6  1  0.490552  0.490552  0.750000  1
  P  P7  1  0.851202  0.741346  0.943864  1
  P  P8  1  0.258654  0.148798  0.443864  1
  P  P9  1  0.741346  0.851202  0.556136  1
  P  P10  1  0.148798  0.258654  0.056136  1
  P  P11  1  0.509448  0.509448  0.250000  1
  O  O12  1  0.144535  0.397648  0.885834  1
  O  O13  1  0.610437  0.498809  0.926874  1
  O  O14  1  0.042832  0.701092  0.964711  1
  O  O15  1  0.561774  0.286961  0.795043  1
  O  O16  1  0.193485  0.844825  0.769614  1
  O  O17  1  0.745673  0.939637  0.905077  1
  O  O18  1  0.397648  0.144535  0.614166  1
  O  O19  1  0.844825  0.193485  0.730386  1
  O  O20  1  0.060363  0.254327  0.405077  1
  O  O21  1  0.286961  0.561774  0.704957  1
  O  O22  1  0.736717  0.736717  0.750000  1
  O  O23  1  0.501191  0.389563  0.426874  1
  O  O24  1  0.298908  0.957168  0.464711  1
  O  O25  1  0.701092  0.042832  0.535289  1
  O  O26  1  0.498809  0.610437  0.573126  1
  O  O27  1  0.263283  0.263283  0.250000  1
  O  O28  1  0.713039  0.438226  0.295043  1
  O  O29  1  0.939637  0.745673  0.594923  1
  O  O30  1  0.155175  0.806515  0.269614  1
  O  O31  1  0.602352  0.855465  0.385834  1
  O  O32  1  0.254327  0.060363  0.094923  1
  O  O33  1  0.806515  0.155175  0.230386  1
  O  O34  1  0.438226  0.713039  0.204957  1
  O  O35  1  0.957168  0.298908  0.035289  1
  O  O36  1  0.389563  0.501191  0.073126  1
  O  O37  1  0.855465  0.602352  0.114166  1
