# generated using pymatgen
data_LiVF4
_symmetry_space_group_name_H-M   'P 1'
_cell_length_a   7.32855640
_cell_length_b   5.19714383
_cell_length_c   7.99384694
_cell_angle_alpha   90.00000000
_cell_angle_beta   104.60447574
_cell_angle_gamma   90.00000000
_symmetry_Int_Tables_number   1
_chemical_formula_structural   LiVF4
_chemical_formula_sum   'Li4 V4 F16'
_cell_volume   294.62867805
_cell_formula_units_Z   4
loop_
 _symmetry_equiv_pos_site_id
 _symmetry_equiv_pos_as_xyz
  1  'x, y, z'
loop_
 _atom_site_type_symbol
 _atom_site_label
 _atom_site_symmetry_multiplicity
 _atom_site_fract_x
 _atom_site_fract_y
 _atom_site_fract_z
 _atom_site_occupancy
  Li  Li0  1  0.997912  0.796457  0.856260  1
  Li  Li1  1  0.497912  0.703543  0.856260  1
  Li  Li2  1  0.502088  0.296457  0.143740  1
  Li  Li3  1  0.002088  0.203543  0.143740  1
  V  V4  1  0.765529  0.276032  0.671496  1
  V  V5  1  0.265529  0.223968  0.671496  1
  V  V6  1  0.734471  0.776032  0.328504  1
  V  V7  1  0.234471  0.723968  0.328504  1
  F  F8  1  0.874205  0.118621  0.890063  1
  F  F9  1  0.374205  0.381379  0.890063  1
  F  F10  1  0.731859  0.591626  0.790501  1
  F  F11  1  0.231859  0.908374  0.790501  1
  F  F12  1  0.522833  0.099682  0.675452  1
  F  F13  1  0.829628  0.950394  0.557102  1
  F  F14  1  0.022833  0.400318  0.675452  1
  F  F15  1  0.329628  0.549606  0.557102  1
  F  F16  1  0.670372  0.450394  0.442898  1
  F  F17  1  0.977167  0.599682  0.324548  1
  F  F18  1  0.170372  0.049606  0.442898  1
  F  F19  1  0.477167  0.900318  0.324548  1
  F  F20  1  0.768141  0.091626  0.209499  1
  F  F21  1  0.268141  0.408374  0.209499  1
  F  F22  1  0.625795  0.618621  0.109937  1
  F  F23  1  0.125795  0.881379  0.109937  1
