# generated using pymatgen
data_CrH17N4Cl2O3
_symmetry_space_group_name_H-M   'P 1'
_cell_length_a   9.52033852
_cell_length_b   10.20360933
_cell_length_c   13.30824041
_cell_angle_alpha   90.00000000
_cell_angle_beta   126.48900822
_cell_angle_gamma   90.00000000
_symmetry_Int_Tables_number   1
_chemical_formula_structural   CrH17N4Cl2O3
_chemical_formula_sum   'Cr4 H68 N16 Cl8 O12'
_cell_volume   1039.36290344
_cell_formula_units_Z   4
loop_
 _symmetry_equiv_pos_site_id
 _symmetry_equiv_pos_as_xyz
  1  'x, y, z'
loop_
 _atom_site_type_symbol
 _atom_site_label
 _atom_site_symmetry_multiplicity
 _atom_site_fract_x
 _atom_site_fract_y
 _atom_site_fract_z
 _atom_site_occupancy
  Cr  Cr0  1  0.852211  0.429590  0.380529  1
  Cr  Cr1  1  0.852211  0.070410  0.880529  1
  Cr  Cr2  1  0.147789  0.570410  0.619471  1
  Cr  Cr3  1  0.147789  0.929590  0.119471  1
  H  H4  1  0.940918  0.387219  0.601937  1
  H  H5  1  0.940918  0.112781  0.101937  1
  H  H6  1  0.059082  0.612781  0.398063  1
  H  H7  1  0.059082  0.887219  0.898063  1
  H  H8  1  0.786413  0.201434  0.436381  1
  H  H9  1  0.786413  0.298566  0.936381  1
  H  H10  1  0.213587  0.798566  0.563619  1
  H  H11  1  0.213587  0.701434  0.063619  1
  H  H12  1  0.714672  0.195951  0.287310  1
  H  H13  1  0.714672  0.304049  0.787310  1
  H  H14  1  0.285328  0.804049  0.712690  1
  H  H15  1  0.285328  0.695951  0.212690  1
  H  H16  1  0.593208  0.263488  0.324885  1
  H  H17  1  0.593208  0.236512  0.824885  1
  H  H18  1  0.406792  0.736512  0.675115  1
  H  H19  1  0.406792  0.763488  0.175115  1
  H  H20  1  0.584664  0.423314  0.138769  1
  H  H21  1  0.584664  0.076686  0.638769  1
  H  H22  1  0.415336  0.576686  0.861231  1
  H  H23  1  0.415336  0.923314  0.361231  1
  H  H24  1  0.770354  0.429315  0.152193  1
  H  H25  1  0.770354  0.070685  0.652193  1
  H  H26  1  0.229646  0.570685  0.847807  1
  H  H27  1  0.229646  0.929315  0.347807  1
  H  H28  1  0.687664  0.564541  0.168597  1
  H  H29  1  0.687664  0.935459  0.668597  1
  H  H30  1  0.312336  0.435459  0.831403  1
  H  H31  1  0.312336  0.064541  0.331403  1
  H  H32  1  0.094213  0.381474  0.345836  1
  H  H33  1  0.094213  0.118526  0.845836  1
  H  H34  1  0.905787  0.618526  0.654164  1
  H  H35  1  0.905787  0.881474  0.154164  1
  H  H36  1  0.953661  0.257825  0.287126  1
  H  H37  1  0.953661  0.242175  0.787126  1
  H  H38  1  0.046339  0.742175  0.712874  1
  H  H39  1  0.046339  0.757825  0.212874  1
  H  H40  1  0.110195  0.264402  0.439564  1
  H  H41  1  0.110195  0.235598  0.939564  1
  H  H42  1  0.889805  0.735598  0.560436  1
  H  H43  1  0.889805  0.764402  0.060436  1
  H  H44  1  0.665163  0.513770  0.453405  1
  H  H45  1  0.665163  0.986230  0.953405  1
  H  H46  1  0.334837  0.486230  0.546595  1
  H  H47  1  0.334837  0.013770  0.046595  1
  H  H48  1  0.537039  0.509169  0.298864  1
  H  H49  1  0.537039  0.990831  0.798864  1
  H  H50  1  0.462961  0.490831  0.701136  1
  H  H51  1  0.462961  0.009169  0.201136  1
  H  H52  1  0.673414  0.635275  0.372077  1
  H  H53  1  0.673414  0.864725  0.872077  1
  H  H54  1  0.326586  0.364725  0.627923  1
  H  H55  1  0.326586  0.135275  0.127923  1
  H  H56  1  0.872844  0.012039  0.534421  1
  H  H57  1  0.872844  0.487961  0.034421  1
  H  H58  1  0.127156  0.987961  0.465579  1
  H  H59  1  0.127156  0.512039  0.965579  1
  H  H60  1  0.041053  0.100801  0.607419  1
  H  H61  1  0.041053  0.399199  0.107419  1
  H  H62  1  0.958947  0.899199  0.392581  1
  H  H63  1  0.958947  0.600801  0.892581  1
  H  H64  1  0.483218  0.289385  0.460740  1
  H  H65  1  0.483218  0.210615  0.960740  1
  H  H66  1  0.516782  0.710615  0.539260  1
  H  H67  1  0.516782  0.789385  0.039260  1
  H  H68  1  0.345388  0.314828  0.317391  1
  H  H69  1  0.345388  0.185172  0.817391  1
  H  H70  1  0.654612  0.685172  0.682609  1
  H  H71  1  0.654612  0.814828  0.182609  1
  N  N72  1  0.719014  0.253073  0.353156  1
  N  N73  1  0.719014  0.246927  0.853156  1
  N  N74  1  0.280986  0.746927  0.646844  1
  N  N75  1  0.280986  0.753073  0.146844  1
  N  N76  1  0.706537  0.465275  0.187026  1
  N  N77  1  0.706537  0.034725  0.687026  1
  N  N78  1  0.293463  0.534725  0.812974  1
  N  N79  1  0.293463  0.965275  0.312974  1
  N  N80  1  0.023766  0.320945  0.361977  1
  N  N81  1  0.023766  0.179055  0.861977  1
  N  N82  1  0.976234  0.679055  0.638023  1
  N  N83  1  0.976234  0.820945  0.138023  1
  N  N84  1  0.659354  0.535320  0.375521  1
  N  N85  1  0.659354  0.964680  0.875521  1
  N  N86  1  0.340646  0.464680  0.624479  1
  N  N87  1  0.340646  0.035320  0.124479  1
  Cl  Cl88  1  0.729613  0.397332  0.632342  1
  Cl  Cl89  1  0.729613  0.102668  0.132342  1
  Cl  Cl90  1  0.270387  0.602668  0.367658  1
  Cl  Cl91  1  0.270387  0.897332  0.867658  1
  Cl  Cl92  1  0.299521  0.375709  0.119048  1
  Cl  Cl93  1  0.299521  0.124291  0.619048  1
  Cl  Cl94  1  0.700479  0.624291  0.880952  1
  Cl  Cl95  1  0.700479  0.875709  0.380952  1
  O  O96  1  0.005498  0.406107  0.567040  1
  O  O97  1  0.005498  0.093893  0.067040  1
  O  O98  1  0.994502  0.593893  0.432960  1
  O  O99  1  0.994502  0.906107  0.932960  1
  O  O100  1  0.924949  0.090468  0.588693  1
  O  O101  1  0.924949  0.409532  0.088693  1
  O  O102  1  0.075051  0.909532  0.411307  1
  O  O103  1  0.075051  0.590468  0.911307  1
  O  O104  1  0.394021  0.245770  0.381019  1
  O  O105  1  0.394021  0.254230  0.881019  1
  O  O106  1  0.605979  0.754230  0.618981  1
  O  O107  1  0.605979  0.745770  0.118981  1
