# generated using pymatgen
data_Li3VP2H2O9
_symmetry_space_group_name_H-M   'P 1'
_cell_length_a   8.08611386
_cell_length_b   8.08611386
_cell_length_c   6.87361561
_cell_angle_alpha   85.99183847
_cell_angle_beta   94.00816153
_cell_angle_gamma   126.95726081
_symmetry_Int_Tables_number   1
_chemical_formula_structural   Li3VP2H2O9
_chemical_formula_sum   'Li6 V2 P4 H4 O18'
_cell_volume   358.03729486
_cell_formula_units_Z   2
loop_
 _symmetry_equiv_pos_site_id
 _symmetry_equiv_pos_as_xyz
  1  'x, y, z'
loop_
 _atom_site_type_symbol
 _atom_site_label
 _atom_site_symmetry_multiplicity
 _atom_site_fract_x
 _atom_site_fract_y
 _atom_site_fract_z
 _atom_site_occupancy
  Li  Li0  1  0.622511  0.377489  0.698375  1
  Li  Li1  1  0.500000  0.000000  0.500000  1
  Li  Li2  1  0.000000  0.500000  0.500000  1
  Li  Li3  1  0.377489  0.622511  0.301625  1
  Li  Li4  1  0.751318  0.751318  0.000000  1
  Li  Li5  1  0.248682  0.248682  0.000000  1
  V  V6  1  0.000000  0.500000  0.000000  1
  V  V7  1  0.500000  0.000000  0.000000  1
  P  P8  1  0.119090  0.880910  0.690627  1
  P  P9  1  0.606845  0.393155  0.236618  1
  P  P10  1  0.393155  0.606845  0.763382  1
  P  P11  1  0.880910  0.119090  0.309373  1
  H  H12  1  0.054027  0.945973  0.367773  1
  H  H13  1  0.190423  0.809577  0.216252  1
  H  H14  1  0.809577  0.190423  0.783748  1
  H  H15  1  0.945973  0.054027  0.632227  1
  O  O16  1  0.023641  0.976359  0.773825  1
  O  O17  1  0.501340  0.498660  0.236514  1
  O  O18  1  0.115857  0.884143  0.459528  1
  O  O19  1  0.995400  0.647308  0.747439  1
  O  O20  1  0.352692  0.004600  0.747439  1
  O  O21  1  0.663373  0.336627  0.437435  1
  O  O22  1  0.810538  0.545665  0.118732  1
  O  O23  1  0.454335  0.189462  0.118732  1
  O  O24  1  0.757442  0.242558  0.866060  1
  O  O25  1  0.242558  0.757442  0.133940  1
  O  O26  1  0.545665  0.810538  0.881268  1
  O  O27  1  0.189462  0.454335  0.881268  1
  O  O28  1  0.336627  0.663373  0.562565  1
  O  O29  1  0.004600  0.352692  0.252561  1
  O  O30  1  0.647308  0.995400  0.252561  1
  O  O31  1  0.884143  0.115857  0.540472  1
  O  O32  1  0.498660  0.501340  0.763486  1
  O  O33  1  0.976359  0.023641  0.226175  1
