# generated using pymatgen
data_MnH5SO7
_symmetry_space_group_name_H-M   'P 1'
_cell_length_a   7.20641592
_cell_length_b   7.27400822
_cell_length_c   12.18496444
_cell_angle_alpha   90.00000000
_cell_angle_beta   118.68178698
_cell_angle_gamma   90.00000000
_symmetry_Int_Tables_number   1
_chemical_formula_structural   MnH5SO7
_chemical_formula_sum   'Mn4 H20 S4 O28'
_cell_volume   560.35712513
_cell_formula_units_Z   4
loop_
 _symmetry_equiv_pos_site_id
 _symmetry_equiv_pos_as_xyz
  1  'x, y, z'
loop_
 _atom_site_type_symbol
 _atom_site_label
 _atom_site_symmetry_multiplicity
 _atom_site_fract_x
 _atom_site_fract_y
 _atom_site_fract_z
 _atom_site_occupancy
  Mn  Mn0  1  0.000000  0.500000  0.500000  1
  Mn  Mn1  1  0.000000  0.000000  0.000000  1
  Mn  Mn2  1  0.000000  0.000000  0.500000  1
  Mn  Mn3  1  0.000000  0.500000  0.000000  1
  H  H4  1  0.255386  0.250013  0.526758  1
  H  H5  1  0.255386  0.249987  0.026758  1
  H  H6  1  0.744614  0.749987  0.473242  1
  H  H7  1  0.744614  0.750013  0.973242  1
  H  H8  1  0.750985  0.357955  0.246312  1
  H  H9  1  0.750985  0.142045  0.746312  1
  H  H10  1  0.249015  0.642045  0.753688  1
  H  H11  1  0.249015  0.857955  0.253688  1
  H  H12  1  0.731984  0.572906  0.238923  1
  H  H13  1  0.731984  0.927094  0.738923  1
  H  H14  1  0.268016  0.427094  0.761077  1
  H  H15  1  0.268016  0.072906  0.261077  1
  H  H16  1  0.728888  0.959286  0.239703  1
  H  H17  1  0.728888  0.540714  0.739703  1
  H  H18  1  0.271112  0.040714  0.760297  1
  H  H19  1  0.271112  0.459286  0.260297  1
  H  H20  1  0.957368  0.007756  0.262596  1
  H  H21  1  0.957368  0.492244  0.762596  1
  H  H22  1  0.042632  0.992244  0.737404  1
  H  H23  1  0.042632  0.507756  0.237404  1
  S  S24  1  0.612807  0.254028  0.478994  1
  S  S25  1  0.612807  0.245972  0.978994  1
  S  S26  1  0.387193  0.745972  0.521006  1
  S  S27  1  0.387193  0.754028  0.021006  1
  O  O28  1  0.761791  0.417366  0.518785  1
  O  O29  1  0.761791  0.082634  0.018785  1
  O  O30  1  0.238209  0.582634  0.481215  1
  O  O31  1  0.238209  0.917366  0.981215  1
  O  O32  1  0.743820  0.082514  0.499239  1
  O  O33  1  0.743820  0.417486  0.999239  1
  O  O34  1  0.256180  0.917486  0.500761  1
  O  O35  1  0.256180  0.582514  0.000761  1
  O  O36  1  0.523152  0.245495  0.563283  1
  O  O37  1  0.523152  0.254505  0.063283  1
  O  O38  1  0.476848  0.754505  0.436717  1
  O  O39  1  0.476848  0.745495  0.936717  1
  O  O40  1  0.456101  0.269185  0.346270  1
  O  O41  1  0.456101  0.230815  0.846270  1
  O  O42  1  0.543899  0.730815  0.653730  1
  O  O43  1  0.543899  0.769185  0.153730  1
  O  O44  1  0.110451  0.250939  0.517918  1
  O  O45  1  0.110451  0.249061  0.017918  1
  O  O46  1  0.889549  0.749061  0.482082  1
  O  O47  1  0.889549  0.750939  0.982082  1
  O  O48  1  0.832270  0.471123  0.282786  1
  O  O49  1  0.832270  0.028877  0.782786  1
  O  O50  1  0.167730  0.528877  0.717214  1
  O  O51  1  0.167730  0.971123  0.217214  1
  O  O52  1  0.855857  0.032922  0.293604  1
  O  O53  1  0.855857  0.467078  0.793604  1
  O  O54  1  0.144143  0.967078  0.706396  1
  O  O55  1  0.144143  0.532922  0.206396  1
