# generated using pymatgen
data_Rb3ClO
_symmetry_space_group_name_H-M   'P 1'
_cell_length_a   7.74588053
_cell_length_b   7.74588053
_cell_length_c   19.74094370
_cell_angle_alpha   90.00000000
_cell_angle_beta   90.00000000
_cell_angle_gamma   120.00000000
_symmetry_Int_Tables_number   1
_chemical_formula_structural   Rb3ClO
_chemical_formula_sum   'Rb18 Cl6 O6'
_cell_volume   1025.74670451
_cell_formula_units_Z   6
loop_
 _symmetry_equiv_pos_site_id
 _symmetry_equiv_pos_as_xyz
  1  'x, y, z'
loop_
 _atom_site_type_symbol
 _atom_site_label
 _atom_site_symmetry_multiplicity
 _atom_site_fract_x
 _atom_site_fract_y
 _atom_site_fract_z
 _atom_site_occupancy
  Rb  Rb0  1  0.165727  0.834273  0.917709  1
  Rb  Rb1  1  0.165727  0.834273  0.582291  1
  Rb  Rb2  1  0.027618  0.513809  0.750000  1
  Rb  Rb3  1  0.165727  0.331455  0.582291  1
  Rb  Rb4  1  0.165727  0.331455  0.917709  1
  Rb  Rb5  1  0.486191  0.972382  0.750000  1
  Rb  Rb6  1  0.486191  0.513809  0.750000  1
  Rb  Rb7  1  0.331455  0.165727  0.082291  1
  Rb  Rb8  1  0.331455  0.165727  0.417709  1
  Rb  Rb9  1  0.668545  0.834273  0.917709  1
  Rb  Rb10  1  0.668545  0.834273  0.582291  1
  Rb  Rb11  1  0.513809  0.486191  0.250000  1
  Rb  Rb12  1  0.513809  0.027618  0.250000  1
  Rb  Rb13  1  0.834273  0.668545  0.082291  1
  Rb  Rb14  1  0.834273  0.668545  0.417709  1
  Rb  Rb15  1  0.972382  0.486191  0.250000  1
  Rb  Rb16  1  0.834273  0.165727  0.082291  1
  Rb  Rb17  1  0.834273  0.165727  0.417709  1
  Cl  Cl18  1  0.333333  0.666667  0.088987  1
  Cl  Cl19  1  0.000000  0.000000  0.250000  1
  Cl  Cl20  1  0.333333  0.666667  0.411013  1
  Cl  Cl21  1  0.000000  0.000000  0.750000  1
  Cl  Cl22  1  0.666667  0.333333  0.588987  1
  Cl  Cl23  1  0.666667  0.333333  0.911013  1
  O  O24  1  0.333333  0.666667  0.839576  1
  O  O25  1  0.000000  0.000000  0.000000  1
  O  O26  1  0.000000  0.000000  0.500000  1
  O  O27  1  0.333333  0.666667  0.660424  1
  O  O28  1  0.666667  0.333333  0.339576  1
  O  O29  1  0.666667  0.333333  0.160424  1
