# generated using pymatgen
data_V6O5F19
_symmetry_space_group_name_H-M   'P 1'
_cell_length_a   5.39191645
_cell_length_b   5.55645260
_cell_length_c   14.85956233
_cell_angle_alpha   100.64274025
_cell_angle_beta   89.48299932
_cell_angle_gamma   92.89731295
_symmetry_Int_Tables_number   1
_chemical_formula_structural   V6O5F19
_chemical_formula_sum   'V6 O5 F19'
_cell_volume   436.97386529
_cell_formula_units_Z   1
loop_
 _symmetry_equiv_pos_site_id
 _symmetry_equiv_pos_as_xyz
  1  'x, y, z'
loop_
 _atom_site_type_symbol
 _atom_site_label
 _atom_site_symmetry_multiplicity
 _atom_site_fract_x
 _atom_site_fract_y
 _atom_site_fract_z
 _atom_site_occupancy
  V  V0  1  0.034980  0.953477  0.996218  1
  V  V1  1  0.437811  0.860203  0.660744  1
  V  V2  1  0.962386  0.724749  0.337450  1
  V  V3  1  0.542723  0.464964  0.003571  1
  V  V4  1  0.945805  0.320167  0.672464  1
  V  V5  1  0.488209  0.181779  0.331939  1
  O  O6  1  0.794920  0.965706  0.357664  1
  O  O7  1  0.767959  0.300084  0.020680  1
  O  O8  1  0.205189  0.720402  0.978955  1
  O  O9  1  0.714334  0.124121  0.687424  1
  O  O10  1  0.215980  0.037511  0.643056  1
  F  F11  1  0.726395  0.787056  0.027236  1
  F  F12  1  0.277221  0.869715  0.308796  1
  F  F13  1  0.909611  0.956874  0.886363  1
  F  F14  1  0.597425  0.784341  0.554823  1
  F  F15  1  0.925953  0.607827  0.219590  1
  F  F16  1  0.441594  0.884073  0.781073  1
  F  F17  1  0.089271  0.695437  0.443934  1
  F  F18  1  0.407115  0.547426  0.113451  1
  F  F19  1  0.796335  0.605697  0.693020  1
  F  F20  1  0.701569  0.485186  0.357362  1
  F  F21  1  0.286575  0.552954  0.644283  1
  F  F22  1  0.217603  0.343776  0.307763  1
  F  F23  1  0.566138  0.478512  0.885409  1
  F  F24  1  0.950028  0.286999  0.551866  1
  F  F25  1  0.600593  0.110719  0.218439  1
  F  F26  1  0.100223  0.372640  0.779488  1
  F  F27  1  0.436593  0.196574  0.450565  1
  F  F28  1  0.073838  0.076970  0.114251  1
  F  F29  1  0.285624  0.204059  0.972121  1
