# generated using pymatgen
data_Na2ZnPHO5
_symmetry_space_group_name_H-M   'P 1'
_cell_length_a   5.85393321
_cell_length_b   10.01706363
_cell_length_c   8.64033624
_cell_angle_alpha   90.00000000
_cell_angle_beta   104.93595616
_cell_angle_gamma   90.00000000
_symmetry_Int_Tables_number   1
_chemical_formula_structural   Na2ZnPHO5
_chemical_formula_sum   'Na8 Zn4 P4 H4 O20'
_cell_volume   489.54475363
_cell_formula_units_Z   4
loop_
 _symmetry_equiv_pos_site_id
 _symmetry_equiv_pos_as_xyz
  1  'x, y, z'
loop_
 _atom_site_type_symbol
 _atom_site_label
 _atom_site_symmetry_multiplicity
 _atom_site_fract_x
 _atom_site_fract_y
 _atom_site_fract_z
 _atom_site_occupancy
  Na  Na0  1  0.314388  0.855840  0.696904  1
  Na  Na1  1  0.353812  0.170014  0.615090  1
  Na  Na2  1  0.814388  0.644160  0.696904  1
  Na  Na3  1  0.853812  0.329986  0.615090  1
  Na  Na4  1  0.146188  0.670014  0.384910  1
  Na  Na5  1  0.185612  0.355840  0.303096  1
  Na  Na6  1  0.646188  0.829986  0.384910  1
  Na  Na7  1  0.685612  0.144160  0.303096  1
  Zn  Zn8  1  0.218271  0.140436  0.989215  1
  Zn  Zn9  1  0.718271  0.359564  0.989215  1
  Zn  Zn10  1  0.281729  0.640436  0.010785  1
  Zn  Zn11  1  0.781729  0.859564  0.010785  1
  P  P12  1  0.362808  0.492278  0.703338  1
  P  P13  1  0.862808  0.007722  0.703338  1
  P  P14  1  0.137192  0.992278  0.296662  1
  P  P15  1  0.637192  0.507722  0.296662  1
  H  H16  1  0.129580  0.374505  0.959520  1
  H  H17  1  0.629580  0.125495  0.959520  1
  H  H18  1  0.370420  0.874505  0.040480  1
  H  H19  1  0.870420  0.625495  0.040480  1
  O  O20  1  0.442278  0.806927  0.983662  1
  O  O21  1  0.942278  0.693073  0.983662  1
  O  O22  1  0.239718  0.499247  0.846576  1
  O  O23  1  0.123085  0.064682  0.769592  1
  O  O24  1  0.739718  0.000753  0.846576  1
  O  O25  1  0.623085  0.435318  0.769592  1
  O  O26  1  0.382961  0.633424  0.638648  1
  O  O27  1  0.217795  0.393762  0.579100  1
  O  O28  1  0.882961  0.866576  0.638648  1
  O  O29  1  0.717795  0.106238  0.579100  1
  O  O30  1  0.282205  0.893762  0.420900  1
  O  O31  1  0.117039  0.133424  0.361352  1
  O  O32  1  0.782205  0.606238  0.420900  1
  O  O33  1  0.617039  0.366576  0.361352  1
  O  O34  1  0.376915  0.564682  0.230408  1
  O  O35  1  0.260282  0.999247  0.153424  1
  O  O36  1  0.876915  0.935318  0.230408  1
  O  O37  1  0.760282  0.500753  0.153424  1
  O  O38  1  0.057722  0.306927  0.016338  1
  O  O39  1  0.557722  0.193073  0.016338  1
