# generated using pymatgen
data_LiCu5(PO4)2
_symmetry_space_group_name_H-M   'P 1'
_cell_length_a   5.15184378
_cell_length_b   5.55166373
_cell_length_c   6.28251180
_cell_angle_alpha   87.94634232
_cell_angle_beta   89.41182413
_cell_angle_gamma   88.98678208
_symmetry_Int_Tables_number   1
_chemical_formula_structural   LiCu5(PO4)2
_chemical_formula_sum   'Li1 Cu5 P2 O8'
_cell_volume   179.53619934
_cell_formula_units_Z   1
loop_
 _symmetry_equiv_pos_site_id
 _symmetry_equiv_pos_as_xyz
  1  'x, y, z'
loop_
 _atom_site_type_symbol
 _atom_site_label
 _atom_site_symmetry_multiplicity
 _atom_site_fract_x
 _atom_site_fract_y
 _atom_site_fract_z
 _atom_site_occupancy
  Li  Li0  1  0.006760  0.677236  0.748251  1
  Cu  Cu1  1  0.491379  0.748531  0.005093  1
  Cu  Cu2  1  0.480058  0.353000  0.748366  1
  Cu  Cu3  1  0.036201  0.257226  0.494529  1
  Cu  Cu4  1  0.501092  0.360889  0.256941  1
  Cu  Cu5  1  0.036938  0.646193  0.259686  1
  P  P6  1  0.982552  0.155385  0.991908  1
  P  P7  1  0.508329  0.834653  0.505746  1
  O  O8  1  0.093008  0.894346  0.982514  1
  O  O9  1  0.682218  0.159280  0.000584  1
  O  O10  1  0.079599  0.313570  0.793933  1
  O  O11  1  0.626402  0.695856  0.706445  1
  O  O12  1  0.207521  0.820475  0.508138  1
  O  O13  1  0.603824  0.097408  0.502642  1
  O  O14  1  0.625035  0.704711  0.306005  1
  O  O15  1  0.096494  0.281240  0.189217  1
