# generated using pymatgen
data_Li14Fe4O13
_symmetry_space_group_name_H-M   'P 1'
_cell_length_a   5.31866500
_cell_length_b   27.39099274
_cell_length_c   5.36533082
_cell_angle_alpha   90.00000000
_cell_angle_beta   117.65847894
_cell_angle_gamma   90.00000000
_symmetry_Int_Tables_number   1
_chemical_formula_structural   Li14Fe4O13
_chemical_formula_sum   'Li28 Fe8 O26'
_cell_volume   692.32241699
_cell_formula_units_Z   2
loop_
 _symmetry_equiv_pos_site_id
 _symmetry_equiv_pos_as_xyz
  1  'x, y, z'
loop_
 _atom_site_type_symbol
 _atom_site_label
 _atom_site_symmetry_multiplicity
 _atom_site_fract_x
 _atom_site_fract_y
 _atom_site_fract_z
 _atom_site_occupancy
  Li  Li0  1  0.165413  0.323422  0.150107  1
  Li  Li1  1  0.209303  0.557705  0.208187  1
  Li  Li2  1  0.665413  0.176578  0.150107  1
  Li  Li3  1  0.709303  0.942295  0.208187  1
  Li  Li4  1  0.693798  0.387712  0.221910  1
  Li  Li5  1  0.768793  0.725270  0.345749  1
  Li  Li6  1  0.732409  0.501295  0.266581  1
  Li  Li7  1  0.732100  0.280493  0.299640  1
  Li  Li8  1  0.778961  0.613958  0.304629  1
  Li  Li9  1  0.193798  0.112288  0.221910  1
  Li  Li10  1  0.721039  0.113958  0.695371  1
  Li  Li11  1  0.268793  0.774730  0.345749  1
  Li  Li12  1  0.232409  0.998705  0.266581  1
  Li  Li13  1  0.232100  0.219507  0.299640  1
  Li  Li14  1  0.767900  0.780493  0.700360  1
  Li  Li15  1  0.767591  0.001295  0.733419  1
  Li  Li16  1  0.731207  0.225270  0.654251  1
  Li  Li17  1  0.278961  0.886042  0.304629  1
  Li  Li18  1  0.806202  0.887712  0.778090  1
  Li  Li19  1  0.221039  0.386042  0.695371  1
  Li  Li20  1  0.267900  0.719507  0.700360  1
  Li  Li21  1  0.267591  0.498705  0.733419  1
  Li  Li22  1  0.231207  0.274730  0.654251  1
  Li  Li23  1  0.306202  0.612288  0.778090  1
  Li  Li24  1  0.290697  0.057705  0.791813  1
  Li  Li25  1  0.334587  0.823422  0.849893  1
  Li  Li26  1  0.790697  0.442295  0.791813  1
  Li  Li27  1  0.834587  0.676578  0.849893  1
  Fe  Fe28  1  0.315763  0.668611  0.306469  1
  Fe  Fe29  1  0.770637  0.055402  0.271815  1
  Fe  Fe30  1  0.815763  0.831389  0.306469  1
  Fe  Fe31  1  0.729363  0.555402  0.728185  1
  Fe  Fe32  1  0.270637  0.444598  0.271815  1
  Fe  Fe33  1  0.184237  0.168611  0.693531  1
  Fe  Fe34  1  0.229363  0.944598  0.728185  1
  Fe  Fe35  1  0.684237  0.331389  0.693531  1
  O  O36  1  0.226690  0.441091  0.909230  1
  O  O37  1  0.251706  0.672309  0.936632  1
  O  O38  1  0.726690  0.058909  0.909230  1
  O  O39  1  0.453826  0.279454  0.449054  1
  O  O40  1  0.403550  0.056473  0.224221  1
  O  O41  1  0.447816  0.825739  0.265442  1
  O  O42  1  0.751706  0.827691  0.936632  1
  O  O43  1  0.500653  0.391214  0.505808  1
  O  O44  1  0.953826  0.220546  0.449054  1
  O  O45  1  0.903550  0.443527  0.224221  1
  O  O46  1  0.947816  0.674261  0.265442  1
  O  O47  1  0.999347  0.891214  0.494192  1
  O  O48  1  0.000000  0.000000  0.500000  1
  O  O49  1  0.000653  0.108786  0.505808  1
  O  O50  1  0.052184  0.325739  0.734558  1
  O  O51  1  0.096450  0.556473  0.775779  1
  O  O52  1  0.046174  0.779454  0.550946  1
  O  O53  1  0.499347  0.608786  0.494192  1
  O  O54  1  0.500000  0.500000  0.500000  1
  O  O55  1  0.248294  0.172309  0.063368  1
  O  O56  1  0.552184  0.174261  0.734558  1
  O  O57  1  0.596450  0.943527  0.775779  1
  O  O58  1  0.546174  0.720546  0.550946  1
  O  O59  1  0.273310  0.941091  0.090770  1
  O  O60  1  0.748294  0.327691  0.063368  1
  O  O61  1  0.773310  0.558909  0.090770  1
