# generated using pymatgen
data_Li2CuF6
_symmetry_space_group_name_H-M   'P 1'
_cell_length_a   4.66806632
_cell_length_b   4.66806632
_cell_length_c   8.94421182
_cell_angle_alpha   90.00000000
_cell_angle_beta   90.00000000
_cell_angle_gamma   90.00000000
_symmetry_Int_Tables_number   1
_chemical_formula_structural   Li2CuF6
_chemical_formula_sum   'Li4 Cu2 F12'
_cell_volume   194.90191663
_cell_formula_units_Z   2
loop_
 _symmetry_equiv_pos_site_id
 _symmetry_equiv_pos_as_xyz
  1  'x, y, z'
loop_
 _atom_site_type_symbol
 _atom_site_label
 _atom_site_symmetry_multiplicity
 _atom_site_fract_x
 _atom_site_fract_y
 _atom_site_fract_z
 _atom_site_occupancy
  Li  Li0  1  0.500000  0.500000  0.336875  1
  Li  Li1  1  0.500000  0.500000  0.663125  1
  Li  Li2  1  0.000000  0.000000  0.163125  1
  Li  Li3  1  0.000000  0.000000  0.836875  1
  Cu  Cu4  1  0.500000  0.500000  0.000000  1
  Cu  Cu5  1  0.000000  0.000000  0.500000  1
  F  F6  1  0.688701  0.311299  0.155390  1
  F  F7  1  0.688701  0.311299  0.844610  1
  F  F8  1  0.713516  0.286484  0.500000  1
  F  F9  1  0.786484  0.786484  0.000000  1
  F  F10  1  0.811299  0.811299  0.344610  1
  F  F11  1  0.811299  0.811299  0.655390  1
  F  F12  1  0.188701  0.188701  0.344610  1
  F  F13  1  0.188701  0.188701  0.655390  1
  F  F14  1  0.213516  0.213516  0.000000  1
  F  F15  1  0.286484  0.713516  0.500000  1
  F  F16  1  0.311299  0.688701  0.155390  1
  F  F17  1  0.311299  0.688701  0.844610  1
