# generated using pymatgen
data_Y3Pt
_symmetry_space_group_name_H-M   'P 1'
_cell_length_a   6.53440768
_cell_length_b   7.08285789
_cell_length_c   9.65012534
_cell_angle_alpha   90.00000000
_cell_angle_beta   90.00000000
_cell_angle_gamma   90.00000000
_symmetry_Int_Tables_number   1
_chemical_formula_structural   Y3Pt
_chemical_formula_sum   'Y12 Pt4'
_cell_volume   446.62981260
_cell_formula_units_Z   4
loop_
 _symmetry_equiv_pos_site_id
 _symmetry_equiv_pos_as_xyz
  1  'x, y, z'
loop_
 _atom_site_type_symbol
 _atom_site_label
 _atom_site_symmetry_multiplicity
 _atom_site_fract_x
 _atom_site_fract_y
 _atom_site_fract_z
 _atom_site_occupancy
  Y  Y0  1  0.131828  0.026687  0.250000  1
  Y  Y1  1  0.631828  0.473313  0.750000  1
  Y  Y2  1  0.368172  0.526687  0.250000  1
  Y  Y3  1  0.868172  0.973313  0.750000  1
  Y  Y4  1  0.680276  0.179699  0.061771  1
  Y  Y5  1  0.180276  0.320301  0.938229  1
  Y  Y6  1  0.819724  0.679699  0.438229  1
  Y  Y7  1  0.319724  0.820301  0.561771  1
  Y  Y8  1  0.319724  0.820301  0.938229  1
  Y  Y9  1  0.819724  0.679699  0.061771  1
  Y  Y10  1  0.180276  0.320301  0.561771  1
  Y  Y11  1  0.680276  0.179699  0.438229  1
  Pt  Pt12  1  0.951133  0.388773  0.250000  1
  Pt  Pt13  1  0.451133  0.111227  0.750000  1
  Pt  Pt14  1  0.548867  0.888773  0.250000  1
  Pt  Pt15  1  0.048867  0.611227  0.750000  1
