# generated using pymatgen
data_Li2MnFe(BO3)2
_symmetry_space_group_name_H-M   'P 1'
_cell_length_a   8.26232603
_cell_length_b   3.16248497
_cell_length_c   14.29922662
_cell_angle_alpha   90.00000000
_cell_angle_beta   90.17938776
_cell_angle_gamma   90.00000000
_symmetry_Int_Tables_number   1
_chemical_formula_structural   Li2MnFe(BO3)2
_chemical_formula_sum   'Li6 Mn3 Fe3 B6 O18'
_cell_volume   373.62955177
_cell_formula_units_Z   3
loop_
 _symmetry_equiv_pos_site_id
 _symmetry_equiv_pos_as_xyz
  1  'x, y, z'
loop_
 _atom_site_type_symbol
 _atom_site_label
 _atom_site_symmetry_multiplicity
 _atom_site_fract_x
 _atom_site_fract_y
 _atom_site_fract_z
 _atom_site_occupancy
  Li  Li0  1  0.707449  0.500000  0.009109  1
  Li  Li1  1  0.659685  0.500000  0.641774  1
  Li  Li2  1  0.634458  0.500000  0.350086  1
  Li  Li3  1  0.207596  0.500000  0.509091  1
  Li  Li4  1  0.157471  0.500000  0.143279  1
  Li  Li5  1  0.132820  0.500000  0.848865  1
  Mn  Mn6  1  0.808138  0.000000  0.819856  1
  Mn  Mn7  1  0.365506  0.000000  0.994147  1
  Mn  Mn8  1  0.307382  0.000000  0.319684  1
  Fe  Fe9  1  0.864116  0.000000  0.495758  1
  Fe  Fe10  1  0.824215  0.000000  0.183712  1
  Fe  Fe11  1  0.324107  0.000000  0.682963  1
  B  B12  1  0.997326  0.500000  0.334028  1
  B  B13  1  0.000652  0.000000  0.001324  1
  B  B14  1  0.001010  0.500000  0.665515  1
  B  B15  1  0.497904  0.500000  0.831967  1
  B  B16  1  0.502242  0.000000  0.500155  1
  B  B17  1  0.502195  0.500000  0.166691  1
  O  O18  1  0.988991  0.500000  0.568580  1
  O  O19  1  0.980650  0.500000  0.237083  1
  O  O20  1  0.861800  0.500000  0.391401  1
  O  O21  1  0.861993  0.500000  0.719735  1
  O  O22  1  0.846865  0.000000  0.041838  1
  O  O23  1  0.650990  0.500000  0.873570  1
  O  O24  1  0.653102  0.500000  0.210155  1
  O  O25  1  0.640885  0.000000  0.555867  1
  O  O26  1  0.516578  0.000000  0.403462  1
  O  O27  1  0.491443  0.500000  0.069896  1
  O  O28  1  0.482100  0.500000  0.735069  1
  O  O29  1  0.360650  0.500000  0.888195  1
  O  O30  1  0.361938  0.500000  0.220010  1
  O  O31  1  0.349448  0.000000  0.541772  1
  O  O32  1  0.151714  0.500000  0.374299  1
  O  O33  1  0.152638  0.500000  0.708316  1
  O  O34  1  0.137145  0.000000  0.058380  1
  O  O35  1  0.016797  0.000000  0.904371  1
