# generated using pymatgen
data_Er2P4O13
_symmetry_space_group_name_H-M   'P 1'
_cell_length_a   8.69087944
_cell_length_b   9.73301551
_cell_length_c   14.03224811
_cell_angle_alpha   90.00000000
_cell_angle_beta   105.16834614
_cell_angle_gamma   90.00000000
_symmetry_Int_Tables_number   1
_chemical_formula_structural   Er2P4O13
_chemical_formula_sum   'Er8 P16 O52'
_cell_volume   1145.61383365
_cell_formula_units_Z   4
loop_
 _symmetry_equiv_pos_site_id
 _symmetry_equiv_pos_as_xyz
  1  'x, y, z'
loop_
 _atom_site_type_symbol
 _atom_site_label
 _atom_site_symmetry_multiplicity
 _atom_site_fract_x
 _atom_site_fract_y
 _atom_site_fract_z
 _atom_site_occupancy
  Er  Er0  1  0.715454  0.999169  0.010354  1
  Er  Er1  1  0.786804  0.995888  0.487756  1
  Er  Er2  1  0.715454  0.500831  0.510354  1
  Er  Er3  1  0.786804  0.504112  0.987756  1
  Er  Er4  1  0.213196  0.495888  0.012244  1
  Er  Er5  1  0.284546  0.499169  0.489646  1
  Er  Er6  1  0.213196  0.004112  0.512244  1
  Er  Er7  1  0.284546  0.000831  0.989646  1
  P  P8  1  0.969710  0.719228  0.404799  1
  P  P9  1  0.885569  0.754722  0.185812  1
  P  P10  1  0.763674  0.268599  0.316022  1
  P  P11  1  0.969710  0.780772  0.904799  1
  P  P12  1  0.885569  0.745278  0.685812  1
  P  P13  1  0.540384  0.281066  0.098589  1
  P  P14  1  0.763674  0.231401  0.816022  1
  P  P15  1  0.459616  0.781066  0.401411  1
  P  P16  1  0.540384  0.218934  0.598589  1
  P  P17  1  0.236326  0.768599  0.183978  1
  P  P18  1  0.459616  0.718934  0.901411  1
  P  P19  1  0.114431  0.254722  0.314188  1
  P  P20  1  0.030290  0.219228  0.095201  1
  P  P21  1  0.236326  0.731401  0.683978  1
  P  P22  1  0.114431  0.245278  0.814188  1
  P  P23  1  0.030290  0.280772  0.595201  1
  O  O24  1  0.931635  0.309322  0.293261  1
  O  O25  1  0.873911  0.152347  0.098003  1
  O  O26  1  0.988690  0.871050  0.440685  1
  O  O27  1  0.860996  0.624410  0.126486  1
  O  O28  1  0.860983  0.722526  0.292026  1
  O  O29  1  0.875268  0.637273  0.461768  1
  O  O30  1  0.774400  0.872098  0.145131  1
  O  O31  1  0.931635  0.190678  0.793261  1
  O  O32  1  0.873911  0.347653  0.598003  1
  O  O33  1  0.988690  0.628950  0.940685  1
  O  O34  1  0.637003  0.367811  0.045435  1
  O  O35  1  0.771794  0.125368  0.357000  1
  O  O36  1  0.860996  0.875590  0.626486  1
  O  O37  1  0.860983  0.777474  0.792026  1
  O  O38  1  0.719147  0.381089  0.377447  1
  O  O39  1  0.637442  0.270568  0.212547  1
  O  O40  1  0.875268  0.862727  0.961768  1
  O  O41  1  0.618127  0.846893  0.402107  1
  O  O42  1  0.518328  0.129564  0.059311  1
  O  O43  1  0.774400  0.627902  0.645131  1
  O  O44  1  0.637003  0.132189  0.545435  1
  O  O45  1  0.771794  0.374632  0.857000  1
  O  O46  1  0.719147  0.118911  0.877447  1
  O  O47  1  0.637442  0.229432  0.712547  1
  O  O48  1  0.481672  0.629564  0.440689  1
  O  O49  1  0.381873  0.346893  0.097893  1
  O  O50  1  0.618127  0.653107  0.902107  1
  O  O51  1  0.518328  0.370436  0.559311  1
  O  O52  1  0.362558  0.770568  0.287453  1
  O  O53  1  0.280853  0.881089  0.122553  1
  O  O54  1  0.228206  0.625368  0.143000  1
  O  O55  1  0.362997  0.867811  0.454565  1
  O  O56  1  0.225600  0.372098  0.354869  1
  O  O57  1  0.481672  0.870436  0.940689  1
  O  O58  1  0.381873  0.153107  0.597893  1
  O  O59  1  0.124732  0.137273  0.038232  1
  O  O60  1  0.362558  0.729432  0.787453  1
  O  O61  1  0.280853  0.618911  0.622553  1
  O  O62  1  0.139017  0.222526  0.207974  1
  O  O63  1  0.139004  0.124410  0.373514  1
  O  O64  1  0.228206  0.874632  0.643000  1
  O  O65  1  0.362997  0.632189  0.954565  1
  O  O66  1  0.011310  0.371050  0.059315  1
  O  O67  1  0.126089  0.652347  0.401997  1
  O  O68  1  0.068365  0.809322  0.206739  1
  O  O69  1  0.225600  0.127902  0.854869  1
  O  O70  1  0.124732  0.362727  0.538232  1
  O  O71  1  0.139017  0.277474  0.707974  1
  O  O72  1  0.139004  0.375590  0.873514  1
  O  O73  1  0.011310  0.128950  0.559315  1
  O  O74  1  0.126089  0.847653  0.901997  1
  O  O75  1  0.068365  0.690678  0.706739  1
