# generated using pymatgen
data_Li10CoNi9O20
_symmetry_space_group_name_H-M   'P 1'
_cell_length_a   2.91070660
_cell_length_b   11.03449964
_cell_length_c   11.61165937
_cell_angle_alpha   113.75568904
_cell_angle_beta   90.45171158
_cell_angle_gamma   97.47688614
_symmetry_Int_Tables_number   1
_chemical_formula_structural   Li10CoNi9O20
_chemical_formula_sum   'Li10 Co1 Ni9 O20'
_cell_volume   337.69599141
_cell_formula_units_Z   1
loop_
 _symmetry_equiv_pos_site_id
 _symmetry_equiv_pos_as_xyz
  1  'x, y, z'
loop_
 _atom_site_type_symbol
 _atom_site_label
 _atom_site_symmetry_multiplicity
 _atom_site_fract_x
 _atom_site_fract_y
 _atom_site_fract_z
 _atom_site_occupancy
  Li  Li0  1  0.010964  0.998655  0.749876  1
  Li  Li1  1  0.788994  0.600135  0.350986  1
  Li  Li2  1  0.585990  0.199114  0.451366  1
  Li  Li3  1  0.800111  0.600009  0.851906  1
  Li  Li4  1  0.599036  0.199210  0.949420  1
  Li  Li5  1  0.393918  0.800769  0.049290  1
  Li  Li6  1  0.405066  0.800353  0.549480  1
  Li  Li7  1  0.200602  0.401203  0.147724  1
  Li  Li8  1  0.995614  0.000335  0.248882  1
  Li  Li9  1  0.208364  0.400857  0.650707  1
  Co  Co10  1  0.622330  0.199683  0.700388  1
  Ni  Ni11  1  0.999795  0.000693  0.999620  1
  Ni  Ni12  1  0.199503  0.400594  0.898522  1
  Ni  Ni13  1  0.992171  0.999343  0.502046  1
  Ni  Ni14  1  0.797443  0.601042  0.099480  1
  Ni  Ni15  1  0.569144  0.200558  0.199749  1
  Ni  Ni16  1  0.824212  0.599814  0.599853  1
  Ni  Ni17  1  0.393275  0.800620  0.300409  1
  Ni  Ni18  1  0.173276  0.398718  0.400418  1
  Ni  Ni19  1  0.430551  0.799827  0.799841  1
  O  O20  1  0.852145  0.806858  0.420837  1
  O  O21  1  0.934282  0.792606  0.178863  1
  O  O22  1  0.467902  0.009681  0.122158  1
  O  O23  1  0.661236  0.408711  0.019974  1
  O  O24  1  0.967619  0.790728  0.678258  1
  O  O25  1  0.726861  0.407634  0.522738  1
  O  O26  1  0.625083  0.390435  0.278780  1
  O  O27  1  0.887067  0.809548  0.922655  1
  O  O28  1  0.738382  0.391518  0.778037  1
  O  O29  1  0.546010  0.007785  0.622331  1
  O  O30  1  0.348104  0.609257  0.220363  1
  O  O31  1  0.437613  0.992609  0.381287  1
  O  O32  1  0.377250  0.608989  0.721474  1
  O  O33  1  0.109389  0.191898  0.076515  1
  O  O34  1  0.032220  0.208053  0.321930  1
  O  O35  1  0.267058  0.590249  0.477433  1
  O  O36  1  0.534196  0.991819  0.877020  1
  O  O37  1  0.247397  0.593624  0.979051  1
  O  O38  1  0.119230  0.192922  0.586228  1
  O  O39  1  0.133256  0.206750  0.814627  1
