# generated using pymatgen
data_Li2RhF6
_symmetry_space_group_name_H-M   'P 1'
_cell_length_a   4.71973363
_cell_length_b   4.71973363
_cell_length_c   9.24283500
_cell_angle_alpha   90.00000000
_cell_angle_beta   90.00000000
_cell_angle_gamma   90.00000000
_symmetry_Int_Tables_number   1
_chemical_formula_structural   Li2RhF6
_chemical_formula_sum   'Li4 Rh2 F12'
_cell_volume   205.89233461
_cell_formula_units_Z   2
loop_
 _symmetry_equiv_pos_site_id
 _symmetry_equiv_pos_as_xyz
  1  'x, y, z'
loop_
 _atom_site_type_symbol
 _atom_site_label
 _atom_site_symmetry_multiplicity
 _atom_site_fract_x
 _atom_site_fract_y
 _atom_site_fract_z
 _atom_site_occupancy
  Li  Li0  1  0.000000  0.000000  0.665809  1
  Li  Li1  1  0.500000  0.500000  0.165809  1
  Li  Li2  1  0.000000  0.000000  0.334191  1
  Li  Li3  1  0.500000  0.500000  0.834191  1
  Rh  Rh4  1  0.500000  0.500000  0.500000  1
  Rh  Rh5  1  0.000000  0.000000  0.000000  1
  F  F6  1  0.305141  0.305141  0.341164  1
  F  F7  1  0.805141  0.194859  0.158836  1
  F  F8  1  0.709446  0.709446  0.000000  1
  F  F9  1  0.209446  0.790554  0.500000  1
  F  F10  1  0.290554  0.290554  0.000000  1
  F  F11  1  0.790554  0.209446  0.500000  1
  F  F12  1  0.805141  0.194859  0.841164  1
  F  F13  1  0.305141  0.305141  0.658836  1
  F  F14  1  0.194859  0.805141  0.158836  1
  F  F15  1  0.694859  0.694859  0.341164  1
  F  F16  1  0.194859  0.805141  0.841164  1
  F  F17  1  0.694859  0.694859  0.658836  1
