# generated using pymatgen
data_Y2O3
_symmetry_space_group_name_H-M   'P 1'
_cell_length_a   5.82385934
_cell_length_b   5.99344157
_cell_length_c   16.84120818
_cell_angle_alpha   90.00000000
_cell_angle_beta   90.00000000
_cell_angle_gamma   90.00000000
_symmetry_Int_Tables_number   1
_chemical_formula_structural   Y2O3
_chemical_formula_sum   'Y16 O24'
_cell_volume   587.84170909
_cell_formula_units_Z   8
loop_
 _symmetry_equiv_pos_site_id
 _symmetry_equiv_pos_as_xyz
  1  'x, y, z'
loop_
 _atom_site_type_symbol
 _atom_site_label
 _atom_site_symmetry_multiplicity
 _atom_site_fract_x
 _atom_site_fract_y
 _atom_site_fract_z
 _atom_site_occupancy
  Y  Y0  1  0.000134  0.211116  0.070121  1
  Y  Y1  1  0.996635  0.765443  0.181810  1
  Y  Y2  1  0.000134  0.288884  0.570121  1
  Y  Y3  1  0.996635  0.734557  0.681810  1
  Y  Y4  1  0.503365  0.265443  0.181810  1
  Y  Y5  1  0.503365  0.234557  0.681810  1
  Y  Y6  1  0.499866  0.711116  0.070121  1
  Y  Y7  1  0.499866  0.788884  0.570121  1
  Y  Y8  1  0.500134  0.211116  0.429879  1
  Y  Y9  1  0.500134  0.288884  0.929879  1
  Y  Y10  1  0.496635  0.765443  0.318190  1
  Y  Y11  1  0.496635  0.734557  0.818190  1
  Y  Y12  1  0.999866  0.711116  0.429879  1
  Y  Y13  1  0.003365  0.265443  0.318190  1
  Y  Y14  1  0.003365  0.234557  0.818190  1
  Y  Y15  1  0.999866  0.788884  0.929879  1
  O  O16  1  0.142658  0.131485  0.200497  1
  O  O17  1  0.142658  0.368515  0.700497  1
  O  O18  1  0.144252  0.846319  0.052941  1
  O  O19  1  0.144252  0.653681  0.552941  1
  O  O20  1  0.206995  0.986665  0.375177  1
  O  O21  1  0.206995  0.513335  0.875177  1
  O  O22  1  0.293005  0.486665  0.375177  1
  O  O23  1  0.293005  0.013335  0.875177  1
  O  O24  1  0.355748  0.153681  0.552941  1
  O  O25  1  0.355748  0.346319  0.052941  1
  O  O26  1  0.357342  0.631485  0.200497  1
  O  O27  1  0.357342  0.868515  0.700497  1
  O  O28  1  0.642658  0.368515  0.799503  1
  O  O29  1  0.642658  0.131485  0.299503  1
  O  O30  1  0.644252  0.846319  0.447059  1
  O  O31  1  0.644252  0.653681  0.947059  1
  O  O32  1  0.706995  0.986665  0.124823  1
  O  O33  1  0.706995  0.513335  0.624823  1
  O  O34  1  0.793005  0.486665  0.124823  1
  O  O35  1  0.793005  0.013335  0.624823  1
  O  O36  1  0.855748  0.346319  0.447059  1
  O  O37  1  0.855748  0.153681  0.947059  1
  O  O38  1  0.857342  0.868515  0.799503  1
  O  O39  1  0.857342  0.631485  0.299503  1
