# generated using pymatgen
data_LiCrSnO4
_symmetry_space_group_name_H-M   'P 1'
_cell_length_a   6.15168093
_cell_length_b   6.15168093
_cell_length_c   6.15168093
_cell_angle_alpha   121.10224953
_cell_angle_beta   118.42367553
_cell_angle_gamma   90.42659392
_symmetry_Int_Tables_number   1
_chemical_formula_structural   LiCrSnO4
_chemical_formula_sum   'Li2 Cr2 Sn2 O8'
_cell_volume   165.08687141
_cell_formula_units_Z   2
loop_
 _symmetry_equiv_pos_site_id
 _symmetry_equiv_pos_as_xyz
  1  'x, y, z'
loop_
 _atom_site_type_symbol
 _atom_site_label
 _atom_site_symmetry_multiplicity
 _atom_site_fract_x
 _atom_site_fract_y
 _atom_site_fract_z
 _atom_site_occupancy
  Li  Li0  1  0.876048  0.126048  0.250000  1
  Li  Li1  1  0.123952  0.873952  0.750000  1
  Cr  Cr2  1  0.500000  0.500000  0.000000  1
  Cr  Cr3  1  0.500000  1.000000  0.500000  1
  Sn  Sn4  1  0.000000  0.500000  1.000000  1
  Sn  Sn5  1  0.500000  0.500000  0.500000  1
  O  O6  1  0.728489  0.260411  0.968077  1
  O  O7  1  0.736745  0.719940  0.983195  1
  O  O8  1  0.736745  0.253550  0.516805  1
  O  O9  1  0.292334  0.260411  0.531923  1
  O  O10  1  0.707666  0.739589  0.468077  1
  O  O11  1  0.263255  0.280060  0.016805  1
  O  O12  1  0.263255  0.746450  0.483195  1
  O  O13  1  0.271511  0.739589  0.031923  1
