# generated using pymatgen
data_Li5Fe5Si7O24
_symmetry_space_group_name_H-M   'P 1'
_cell_length_a   7.86413054
_cell_length_b   7.94624599
_cell_length_c   9.50522798
_cell_angle_alpha   89.03556840
_cell_angle_beta   89.68223423
_cell_angle_gamma   89.50975304
_symmetry_Int_Tables_number   1
_chemical_formula_structural   Li5Fe5Si7O24
_chemical_formula_sum   'Li5 Fe5 Si7 O24'
_cell_volume   593.87014338
_cell_formula_units_Z   1
loop_
 _symmetry_equiv_pos_site_id
 _symmetry_equiv_pos_as_xyz
  1  'x, y, z'
loop_
 _atom_site_type_symbol
 _atom_site_label
 _atom_site_symmetry_multiplicity
 _atom_site_fract_x
 _atom_site_fract_y
 _atom_site_fract_z
 _atom_site_occupancy
  Li  Li0  1  0.306750  0.582150  0.734138  1
  Li  Li1  1  0.740604  0.497190  0.256007  1
  Li  Li2  1  0.527531  0.255254  0.277888  1
  Li  Li3  1  0.021230  0.237257  0.980754  1
  Li  Li4  1  0.239992  0.005213  0.003129  1
  Fe  Fe5  1  0.182773  0.615377  0.000692  1
  Fe  Fe6  1  0.830665  0.380476  0.526952  1
  Fe  Fe7  1  0.114831  0.323018  0.257708  1
  Fe  Fe8  1  0.622223  0.180288  0.000859  1
  Fe  Fe9  1  0.335312  0.123611  0.728684  1
  Si  Si10  1  0.076438  0.907022  0.246059  1
  Si  Si11  1  0.674499  0.878505  0.245524  1
  Si  Si12  1  0.373066  0.827486  0.472154  1
  Si  Si13  1  0.889631  0.675294  0.767339  1
  Si  Si14  1  0.602403  0.592042  0.006985  1
  Si  Si15  1  0.414175  0.428180  0.493105  1
  Si  Si16  1  0.919819  0.073066  0.761204  1
  O  O17  1  0.377190  0.946300  0.607298  1
  O  O18  1  0.876366  0.871578  0.289776  1
  O  O19  1  0.869949  0.877609  0.739556  1
  O  O20  1  0.548823  0.849485  0.380457  1
  O  O21  1  0.200284  0.861767  0.379537  1
  O  O22  1  0.140440  0.804454  0.108112  1
  O  O23  1  0.646239  0.714012  0.143575  1
  O  O24  1  0.749472  0.622152  0.889693  1
  O  O25  1  0.083949  0.631790  0.819829  1
  O  O26  1  0.366793  0.628124  0.527378  1
  O  O27  1  0.415641  0.622175  0.938301  1
  O  O28  1  0.851656  0.575140  0.626406  1
  O  O29  1  0.106968  0.416912  0.075439  1
  O  O30  1  0.609404  0.399972  0.437084  1
  O  O31  1  0.619964  0.403535  0.083485  1
  O  O32  1  0.930214  0.409128  0.348948  1
  O  O33  1  0.316279  0.349981  0.358607  1
  O  O34  1  0.367603  0.341387  0.645465  1
  O  O35  1  0.882701  0.179422  0.618983  1
  O  O36  1  0.819551  0.152713  0.898014  1
  O  O37  1  0.434274  0.105124  0.908591  1
  O  O38  1  0.103796  0.099510  0.187069  1
  O  O39  1  0.117022  0.094196  0.818755  1
  O  O40  1  0.621091  0.060335  0.177638  1
