# generated using pymatgen
data_Co3OF5
_symmetry_space_group_name_H-M   'P 1'
_cell_length_a   4.70046289
_cell_length_b   5.66941496
_cell_length_c   7.84635593
_cell_angle_alpha   87.07456564
_cell_angle_beta   88.36269839
_cell_angle_gamma   88.26612063
_symmetry_Int_Tables_number   1
_chemical_formula_structural   Co3OF5
_chemical_formula_sum   'Co6 O2 F10'
_cell_volume   208.65192559
_cell_formula_units_Z   2
loop_
 _symmetry_equiv_pos_site_id
 _symmetry_equiv_pos_as_xyz
  1  'x, y, z'
loop_
 _atom_site_type_symbol
 _atom_site_label
 _atom_site_symmetry_multiplicity
 _atom_site_fract_x
 _atom_site_fract_y
 _atom_site_fract_z
 _atom_site_occupancy
  Co  Co0  1  0.466214  0.342302  0.691513  1
  Co  Co1  1  0.500000  0.000000  0.000000  1
  Co  Co2  1  0.533786  0.657698  0.308487  1
  Co  Co3  1  0.999983  0.169497  0.336710  1
  Co  Co4  1  0.000000  0.500000  0.000000  1
  Co  Co5  1  0.000017  0.830503  0.663290  1
  O  O6  1  0.715420  0.690625  0.095304  1
  O  O7  1  0.284580  0.309375  0.904696  1
  F  F8  1  0.801858  0.206339  0.103971  1
  F  F9  1  0.804540  0.868906  0.432401  1
  F  F10  1  0.806791  0.533759  0.768652  1
  F  F11  1  0.688343  0.369479  0.443066  1
  F  F12  1  0.691386  0.042155  0.763555  1
  F  F13  1  0.308614  0.957845  0.236445  1
  F  F14  1  0.311657  0.630521  0.556934  1
  F  F15  1  0.198142  0.793661  0.896029  1
  F  F16  1  0.195460  0.131094  0.567599  1
  F  F17  1  0.193209  0.466241  0.231348  1
