# generated using pymatgen
data_K2TmPCO7
_symmetry_space_group_name_H-M   'P 1'
_cell_length_a   5.82182581
_cell_length_b   7.07282021
_cell_length_c   9.95060342
_cell_angle_alpha   90.00000000
_cell_angle_beta   91.78356735
_cell_angle_gamma   90.00000000
_symmetry_Int_Tables_number   1
_chemical_formula_structural   K2TmPCO7
_chemical_formula_sum   'K4 Tm2 P2 C2 O14'
_cell_volume   409.53477849
_cell_formula_units_Z   2
loop_
 _symmetry_equiv_pos_site_id
 _symmetry_equiv_pos_as_xyz
  1  'x, y, z'
loop_
 _atom_site_type_symbol
 _atom_site_label
 _atom_site_symmetry_multiplicity
 _atom_site_fract_x
 _atom_site_fract_y
 _atom_site_fract_z
 _atom_site_occupancy
  K  K0  1  0.247171  0.487157  0.224251  1
  K  K1  1  0.247171  0.012843  0.224251  1
  K  K2  1  0.752829  0.512843  0.775749  1
  K  K3  1  0.752829  0.987157  0.775749  1
  Tm  Tm4  1  0.779097  0.750000  0.365862  1
  Tm  Tm5  1  0.220903  0.250000  0.634138  1
  P  P6  1  0.712370  0.250000  0.431493  1
  P  P7  1  0.287630  0.750000  0.568507  1
  C  C8  1  0.728879  0.750000  0.094417  1
  C  C9  1  0.271121  0.250000  0.905583  1
  O  O10  1  0.301690  0.250000  0.031386  1
  O  O11  1  0.933483  0.750000  0.155257  1
  O  O12  1  0.555072  0.750000  0.178122  1
  O  O13  1  0.766421  0.068329  0.351316  1
  O  O14  1  0.766421  0.431671  0.351316  1
  O  O15  1  0.141090  0.750000  0.433648  1
  O  O16  1  0.451294  0.250000  0.465000  1
  O  O17  1  0.548706  0.750000  0.535000  1
  O  O18  1  0.858910  0.250000  0.566352  1
  O  O19  1  0.233579  0.568329  0.648684  1
  O  O20  1  0.233579  0.931671  0.648684  1
  O  O21  1  0.444928  0.250000  0.821878  1
  O  O22  1  0.066517  0.250000  0.844743  1
  O  O23  1  0.698310  0.750000  0.968614  1
