# generated using pymatgen
data_Li4Fe2Co3Sb3O16
_symmetry_space_group_name_H-M   'P 1'
_cell_length_a   6.04325174
_cell_length_b   6.06801422
_cell_length_c   9.67403627
_cell_angle_alpha   90.49286058
_cell_angle_beta   90.58239976
_cell_angle_gamma   119.39507514
_symmetry_Int_Tables_number   1
_chemical_formula_structural   Li4Fe2Co3Sb3O16
_chemical_formula_sum   'Li4 Fe2 Co3 Sb3 O16'
_cell_volume   309.02632818
_cell_formula_units_Z   1
loop_
 _symmetry_equiv_pos_site_id
 _symmetry_equiv_pos_as_xyz
  1  'x, y, z'
loop_
 _atom_site_type_symbol
 _atom_site_label
 _atom_site_symmetry_multiplicity
 _atom_site_fract_x
 _atom_site_fract_y
 _atom_site_fract_z
 _atom_site_occupancy
  Li  Li0  1  0.337161  0.661555  0.882967  1
  Li  Li1  1  0.959105  0.982192  0.986735  1
  Li  Li2  1  0.980376  0.993601  0.506125  1
  Li  Li3  1  0.653209  0.324133  0.400907  1
  Fe  Fe4  1  0.355203  0.685408  0.507325  1
  Fe  Fe5  1  0.708396  0.351497  0.973686  1
  Co  Co6  1  0.657475  0.828176  0.215824  1
  Co  Co7  1  0.839455  0.663528  0.712466  1
  Co  Co8  1  0.835678  0.173576  0.713609  1
  Sb  Sb9  1  0.165057  0.829663  0.214777  1
  Sb  Sb10  1  0.165528  0.335560  0.215532  1
  Sb  Sb11  1  0.345465  0.175788  0.714872  1
  O  O12  1  0.179570  0.854342  0.595600  1
  O  O13  1  0.021454  0.514237  0.335501  1
  O  O14  1  0.313319  0.653652  0.099141  1
  O  O15  1  0.008104  0.006376  0.319329  1
  O  O16  1  0.009163  0.018189  0.806107  1
  O  O17  1  0.164444  0.329860  0.601267  1
  O  O18  1  0.466519  0.960854  0.337942  1
  O  O19  1  0.466379  0.506617  0.340150  1
  O  O20  1  0.308785  0.151234  0.099797  1
  O  O21  1  0.675008  0.853266  0.600914  1
  O  O22  1  0.516825  0.471302  0.848174  1
  O  O23  1  0.535047  0.040678  0.835733  1
  O  O24  1  0.665455  0.320411  0.606469  1
  O  O25  1  0.848856  0.677575  0.098169  1
  O  O26  1  0.973599  0.467026  0.836845  1
  O  O27  1  0.845370  0.170003  0.101876  1
