# generated using pymatgen
data_Na4Sb2C4SO16
_symmetry_space_group_name_H-M   'P 1'
_cell_length_a   10.51934799
_cell_length_b   10.44594063
_cell_length_c   10.14181441
_cell_angle_alpha   61.43344144
_cell_angle_beta   60.70751204
_cell_angle_gamma   57.85904652
_symmetry_Int_Tables_number   1
_chemical_formula_structural   Na4Sb2C4SO16
_chemical_formula_sum   'Na8 Sb4 C8 S2 O32'
_cell_volume   786.33627449
_cell_formula_units_Z   2
loop_
 _symmetry_equiv_pos_site_id
 _symmetry_equiv_pos_as_xyz
  1  'x, y, z'
loop_
 _atom_site_type_symbol
 _atom_site_label
 _atom_site_symmetry_multiplicity
 _atom_site_fract_x
 _atom_site_fract_y
 _atom_site_fract_z
 _atom_site_occupancy
  Na  Na0  1  0.547712  0.952288  0.547712  1
  Na  Na1  1  0.953373  0.546627  0.546627  1
  Na  Na2  1  0.703373  0.296627  0.296627  1
  Na  Na3  1  0.297712  0.702288  0.297712  1
  Na  Na4  1  0.952288  0.547712  0.952288  1
  Na  Na5  1  0.546627  0.953373  0.953373  1
  Na  Na6  1  0.296627  0.703373  0.703373  1
  Na  Na7  1  0.702288  0.297712  0.702288  1
  Sb  Sb8  1  0.125000  0.125000  0.625000  1
  Sb  Sb9  1  0.125000  0.125000  0.125000  1
  Sb  Sb10  1  0.625000  0.125000  0.125000  1
  Sb  Sb11  1  0.125000  0.625000  0.125000  1
  C  C12  1  0.908126  0.913220  0.282744  1
  C  C13  1  0.336780  0.341874  0.354090  1
  C  C14  1  0.282744  0.895910  0.908126  1
  C  C15  1  0.895910  0.282744  0.913220  1
  C  C16  1  0.354090  0.967256  0.336780  1
  C  C17  1  0.967256  0.354090  0.341874  1
  C  C18  1  0.913220  0.908126  0.895910  1
  C  C19  1  0.341874  0.336780  0.967256  1
  S  S20  1  0.500000  0.500000  0.500000  1
  S  S21  1  0.750000  0.750000  0.750000  1
  O  O22  1  0.774561  0.927715  0.289723  1
  O  O23  1  0.568015  0.322724  0.553965  1
  O  O24  1  0.923117  0.033225  0.271597  1
  O  O25  1  0.216775  0.326883  0.477939  1
  O  O26  1  0.271597  0.772061  0.923117  1
  O  O27  1  0.474878  0.222957  0.340794  1
  O  O28  1  0.553965  0.555295  0.568015  1
  O  O29  1  0.322724  0.568015  0.555295  1
  O  O30  1  0.961371  0.340794  0.222957  1
  O  O31  1  0.772061  0.271597  0.033225  1
  O  O32  1  0.322285  0.475439  0.241999  1
  O  O33  1  0.555295  0.553965  0.322724  1
  O  O34  1  0.289723  0.008001  0.774561  1
  O  O35  1  0.008001  0.289723  0.927715  1
  O  O36  1  0.027043  0.775122  0.288629  1
  O  O37  1  0.340794  0.961371  0.474878  1
  O  O38  1  0.909206  0.288629  0.775122  1
  O  O39  1  0.222957  0.474878  0.961371  1
  O  O40  1  0.241999  0.960277  0.322285  1
  O  O41  1  0.960277  0.241999  0.475439  1
  O  O42  1  0.694705  0.696035  0.927276  1
  O  O43  1  0.927715  0.774561  0.008001  1
  O  O44  1  0.477939  0.978403  0.216775  1
  O  O45  1  0.288629  0.909206  0.027043  1
  O  O46  1  0.927276  0.681985  0.694705  1
  O  O47  1  0.696035  0.694705  0.681985  1
  O  O48  1  0.775122  0.027043  0.909206  1
  O  O49  1  0.978403  0.477939  0.326883  1
  O  O50  1  0.033225  0.923117  0.772061  1
  O  O51  1  0.326883  0.216775  0.978403  1
  O  O52  1  0.681985  0.927276  0.696035  1
  O  O53  1  0.475439  0.322285  0.960277  1
