# generated using pymatgen
data_Fe8O9
_symmetry_space_group_name_H-M   'P 1'
_cell_length_a   5.31101363
_cell_length_b   5.35250559
_cell_length_c   6.82890966
_cell_angle_alpha   82.15087003
_cell_angle_beta   74.66923483
_cell_angle_gamma   80.75265141
_symmetry_Int_Tables_number   1
_chemical_formula_structural   Fe8O9
_chemical_formula_sum   'Fe8 O9'
_cell_volume   183.88123260
_cell_formula_units_Z   1
loop_
 _symmetry_equiv_pos_site_id
 _symmetry_equiv_pos_as_xyz
  1  'x, y, z'
loop_
 _atom_site_type_symbol
 _atom_site_label
 _atom_site_symmetry_multiplicity
 _atom_site_fract_x
 _atom_site_fract_y
 _atom_site_fract_z
 _atom_site_occupancy
  Fe  Fe0  1  0.891004  0.789544  0.424167  1
  Fe  Fe1  1  0.450091  0.891684  0.213965  1
  Fe  Fe2  1  0.790490  0.550686  0.881964  1
  Fe  Fe3  1  0.323663  0.682122  0.670369  1
  Fe  Fe4  1  0.209510  0.449314  0.118036  1
  Fe  Fe5  1  0.676337  0.317878  0.329631  1
  Fe  Fe6  1  0.549909  0.108316  0.786035  1
  Fe  Fe7  1  0.108996  0.210456  0.575833  1
  O  O8  1  0.834485  0.646743  0.155611  1
  O  O9  1  0.923367  0.880117  0.715836  1
  O  O10  1  0.727826  0.451369  0.611784  1
  O  O11  1  0.414245  0.744239  0.943272  1
  O  O12  1  0.272174  0.548631  0.388216  1
  O  O13  1  0.585755  0.255761  0.056728  1
  O  O14  1  0.076633  0.119883  0.284164  1
  O  O15  1  0.165515  0.353257  0.844389  1
  O  O16  1  0.500000  0.000000  0.500000  1
