# generated using pymatgen
data_Y2Hg2O5
_symmetry_space_group_name_H-M   'P 1'
_cell_length_a   3.55366756
_cell_length_b   7.67493552
_cell_length_c   11.63411324
_cell_angle_alpha   83.75404255
_cell_angle_beta   87.47021512
_cell_angle_gamma   84.60148052
_symmetry_Int_Tables_number   1
_chemical_formula_structural   Y2Hg2O5
_chemical_formula_sum   'Y4 Hg4 O10'
_cell_volume   313.84379407
_cell_formula_units_Z   2
loop_
 _symmetry_equiv_pos_site_id
 _symmetry_equiv_pos_as_xyz
  1  'x, y, z'
loop_
 _atom_site_type_symbol
 _atom_site_label
 _atom_site_symmetry_multiplicity
 _atom_site_fract_x
 _atom_site_fract_y
 _atom_site_fract_z
 _atom_site_occupancy
  Y  Y0  1  0.165366  0.820010  0.828454  1
  Y  Y1  1  0.728169  0.618512  0.610819  1
  Y  Y2  1  0.834634  0.179990  0.171546  1
  Y  Y3  1  0.271831  0.381488  0.389181  1
  Hg  Hg4  1  0.713011  0.632780  0.110603  1
  Hg  Hg5  1  0.834397  0.178410  0.670865  1
  Hg  Hg6  1  0.165603  0.821590  0.329135  1
  Hg  Hg7  1  0.286989  0.367220  0.889397  1
  O  O8  1  0.669477  0.714776  0.936513  1
  O  O9  1  0.669865  0.852111  0.698489  1
  O  O10  1  0.240460  0.661164  0.483760  1
  O  O11  1  0.005652  0.895417  0.163489  1
  O  O12  1  0.994348  0.104583  0.836511  1
  O  O13  1  0.330135  0.147889  0.301511  1
  O  O14  1  0.330523  0.285224  0.063487  1
  O  O15  1  0.232410  0.534844  0.731310  1
  O  O16  1  0.759540  0.338836  0.516240  1
  O  O17  1  0.767590  0.465156  0.268690  1
