# generated using pymatgen
data_Mn3Co3(SnO8)2
_symmetry_space_group_name_H-M   'P 1'
_cell_length_a   5.72445596
_cell_length_b   5.72445596
_cell_length_c   9.42607293
_cell_angle_alpha   89.09106041
_cell_angle_beta   90.90893959
_cell_angle_gamma   119.82280253
_symmetry_Int_Tables_number   1
_chemical_formula_structural   Mn3Co3(SnO8)2
_chemical_formula_sum   'Mn3 Co3 Sn2 O16'
_cell_volume   267.93506579
_cell_formula_units_Z   1
loop_
 _symmetry_equiv_pos_site_id
 _symmetry_equiv_pos_as_xyz
  1  'x, y, z'
loop_
 _atom_site_type_symbol
 _atom_site_label
 _atom_site_symmetry_multiplicity
 _atom_site_fract_x
 _atom_site_fract_y
 _atom_site_fract_z
 _atom_site_occupancy
  Mn  Mn0  1  0.167412  0.832588  0.784595  1
  Mn  Mn1  1  0.335142  0.167930  0.285155  1
  Mn  Mn2  1  0.832070  0.664858  0.285155  1
  Co  Co3  1  0.167175  0.335058  0.788520  1
  Co  Co4  1  0.664942  0.832825  0.788520  1
  Co  Co5  1  0.832664  0.167336  0.289449  1
  Sn  Sn6  1  0.334264  0.665736  0.510002  1
  Sn  Sn7  1  0.667836  0.332164  0.007785  1
  O  O8  1  0.155704  0.317790  0.393095  1
  O  O9  1  0.482609  0.517391  0.678090  1
  O  O10  1  0.334858  0.665142  0.890408  1
  O  O11  1  0.997155  0.002845  0.686170  1
  O  O12  1  0.997517  0.002483  0.185390  1
  O  O13  1  0.682210  0.844296  0.393095  1
  O  O14  1  0.032773  0.512347  0.671468  1
  O  O15  1  0.487653  0.967227  0.671468  1
  O  O16  1  0.842375  0.157625  0.888467  1
  O  O17  1  0.158556  0.841444  0.396461  1
  O  O18  1  0.521417  0.032797  0.172627  1
  O  O19  1  0.967203  0.478583  0.172627  1
  O  O20  1  0.667409  0.332591  0.391017  1
  O  O21  1  0.315569  0.160545  0.893646  1
  O  O22  1  0.515294  0.484706  0.167684  1
  O  O23  1  0.839455  0.684431  0.893646  1
