# generated using pymatgen
data_LiTi(PO3)4
_symmetry_space_group_name_H-M   'P 1'
_cell_length_a   7.50601122
_cell_length_b   8.61982736
_cell_length_c   15.69616480
_cell_angle_alpha   90.00000000
_cell_angle_beta   112.85710587
_cell_angle_gamma   90.00000000
_symmetry_Int_Tables_number   1
_chemical_formula_structural   LiTi(PO3)4
_chemical_formula_sum   'Li4 Ti4 P16 O48'
_cell_volume   935.80545672
_cell_formula_units_Z   4
loop_
 _symmetry_equiv_pos_site_id
 _symmetry_equiv_pos_as_xyz
  1  'x, y, z'
loop_
 _atom_site_type_symbol
 _atom_site_label
 _atom_site_symmetry_multiplicity
 _atom_site_fract_x
 _atom_site_fract_y
 _atom_site_fract_z
 _atom_site_occupancy
  Li  Li0  1  0.365281  0.583086  0.426754  1
  Li  Li1  1  0.634719  0.083086  0.073246  1
  Li  Li2  1  0.365281  0.916914  0.926754  1
  Li  Li3  1  0.634719  0.416914  0.573246  1
  Ti  Ti4  1  0.811663  0.658390  0.852359  1
  Ti  Ti5  1  0.811663  0.841610  0.352359  1
  Ti  Ti6  1  0.188337  0.158390  0.647641  1
  Ti  Ti7  1  0.188337  0.341610  0.147641  1
  P  P8  1  0.867695  0.276607  0.930971  1
  P  P9  1  0.145175  0.047938  0.283539  1
  P  P10  1  0.269571  0.231955  0.454863  1
  P  P11  1  0.605480  0.031836  0.809470  1
  P  P12  1  0.730429  0.731955  0.045137  1
  P  P13  1  0.854825  0.547938  0.216461  1
  P  P14  1  0.394520  0.531836  0.690530  1
  P  P15  1  0.867695  0.223393  0.430971  1
  P  P16  1  0.132305  0.776607  0.569029  1
  P  P17  1  0.605480  0.468164  0.309470  1
  P  P18  1  0.145175  0.452062  0.783539  1
  P  P19  1  0.269571  0.268045  0.954863  1
  P  P20  1  0.394520  0.968164  0.190530  1
  P  P21  1  0.730429  0.768045  0.545137  1
  P  P22  1  0.854825  0.952062  0.716461  1
  P  P23  1  0.132305  0.723393  0.069029  1
  O  O24  1  0.394055  0.372822  0.465529  1
  O  O25  1  0.297563  0.124593  0.377459  1
  O  O26  1  0.707228  0.068046  0.737945  1
  O  O27  1  0.932781  0.287055  0.034814  1
  O  O28  1  0.070556  0.164819  0.206567  1
  O  O29  1  0.953317  0.784913  0.094147  1
  O  O30  1  0.770587  0.411098  0.871320  1
  O  O31  1  0.000464  0.454647  0.196769  1
  O  O32  1  0.736908  0.123639  0.902496  1
  O  O33  1  0.590285  0.606510  0.727429  1
  O  O34  1  0.999536  0.954647  0.303231  1
  O  O35  1  0.618841  0.863831  0.837228  1
  O  O36  1  0.701711  0.638584  0.960144  1
  O  O37  1  0.046683  0.284913  0.405853  1
  O  O38  1  0.929444  0.664819  0.293433  1
  O  O39  1  0.067219  0.787055  0.465186  1
  O  O40  1  0.298289  0.138584  0.539856  1
  O  O41  1  0.381159  0.363831  0.662772  1
  O  O42  1  0.702437  0.624593  0.122541  1
  O  O43  1  0.409715  0.106510  0.772571  1
  O  O44  1  0.605945  0.872822  0.034471  1
  O  O45  1  0.263092  0.623639  0.597504  1
  O  O46  1  0.707228  0.431954  0.237945  1
  O  O47  1  0.229413  0.911098  0.628680  1
  O  O48  1  0.770587  0.088902  0.371320  1
  O  O49  1  0.292772  0.568046  0.762055  1
  O  O50  1  0.736908  0.376361  0.402496  1
  O  O51  1  0.394055  0.127178  0.965529  1
  O  O52  1  0.590285  0.893490  0.227429  1
  O  O53  1  0.297563  0.375407  0.877459  1
  O  O54  1  0.618841  0.636169  0.337228  1
  O  O55  1  0.701711  0.861416  0.460144  1
  O  O56  1  0.932781  0.212945  0.534814  1
  O  O57  1  0.070556  0.335181  0.706567  1
  O  O58  1  0.953317  0.715087  0.594147  1
  O  O59  1  0.298289  0.361416  0.039856  1
  O  O60  1  0.381159  0.136169  0.162772  1
  O  O61  1  0.000464  0.045353  0.696769  1
  O  O62  1  0.409715  0.393490  0.272571  1
  O  O63  1  0.263092  0.876361  0.097504  1
  O  O64  1  0.999536  0.545353  0.803231  1
  O  O65  1  0.229413  0.588902  0.128680  1
  O  O66  1  0.046683  0.215087  0.905853  1
  O  O67  1  0.929444  0.835181  0.793433  1
  O  O68  1  0.067219  0.712945  0.965186  1
  O  O69  1  0.292772  0.931954  0.262055  1
  O  O70  1  0.702437  0.875407  0.622541  1
  O  O71  1  0.605945  0.627178  0.534471  1
