# generated using pymatgen
data_Li4Fe3NiO8
_symmetry_space_group_name_H-M   'P 1'
_cell_length_a   5.11107325
_cell_length_b   5.54519296
_cell_length_c   6.49334081
_cell_angle_alpha   89.92431881
_cell_angle_beta   89.95394934
_cell_angle_gamma   89.86807944
_symmetry_Int_Tables_number   1
_chemical_formula_structural   Li4Fe3NiO8
_chemical_formula_sum   'Li4 Fe3 Ni1 O8'
_cell_volume   184.03282654
_cell_formula_units_Z   1
loop_
 _symmetry_equiv_pos_site_id
 _symmetry_equiv_pos_as_xyz
  1  'x, y, z'
loop_
 _atom_site_type_symbol
 _atom_site_label
 _atom_site_symmetry_multiplicity
 _atom_site_fract_x
 _atom_site_fract_y
 _atom_site_fract_z
 _atom_site_occupancy
  Li  Li0  1  0.006952  0.081846  0.374701  1
  Li  Li1  1  0.502038  0.418772  0.876957  1
  Li  Li2  1  0.006588  0.584434  0.124051  1
  Li  Li3  1  0.502303  0.915911  0.624462  1
  Fe  Fe4  1  0.999201  0.082275  0.877167  1
  Fe  Fe5  1  0.502225  0.415854  0.370282  1
  Fe  Fe6  1  0.001874  0.582724  0.625729  1
  Ni  Ni7  1  0.500210  0.915925  0.127523  1
  O  O8  1  0.629835  0.068631  0.891198  1
  O  O9  1  0.608034  0.089800  0.358376  1
  O  O10  1  0.109047  0.411473  0.867080  1
  O  O11  1  0.126188  0.426283  0.382936  1
  O  O12  1  0.626337  0.569351  0.614554  1
  O  O13  1  0.607888  0.596021  0.136774  1
  O  O14  1  0.108457  0.912109  0.634856  1
  O  O15  1  0.136422  0.928591  0.113355  1
