# generated using pymatgen
data_Mn(CoO2)4
_symmetry_space_group_name_H-M   'P 1'
_cell_length_a   5.75604302
_cell_length_b   5.75604302
_cell_length_c   5.97888585
_cell_angle_alpha   59.75485261
_cell_angle_beta   120.24514739
_cell_angle_gamma   120.03859828
_symmetry_Int_Tables_number   1
_chemical_formula_structural   Mn(CoO2)4
_chemical_formula_sum   'Mn1 Co4 O8'
_cell_volume   139.51092375
_cell_formula_units_Z   1
loop_
 _symmetry_equiv_pos_site_id
 _symmetry_equiv_pos_as_xyz
  1  'x, y, z'
loop_
 _atom_site_type_symbol
 _atom_site_label
 _atom_site_symmetry_multiplicity
 _atom_site_fract_x
 _atom_site_fract_y
 _atom_site_fract_z
 _atom_site_occupancy
  Mn  Mn0  1  0.500000  0.500000  0.000000  1
  Co  Co1  1  0.500000  0.500000  0.500000  1
  Co  Co2  1  0.000000  0.000000  0.000000  1
  Co  Co3  1  0.500000  1.000000  0.000000  1
  Co  Co4  1  0.000000  0.500000  0.000000  1
  O  O5  1  0.262498  0.737502  0.803947  1
  O  O6  1  0.746532  0.717808  0.785257  1
  O  O7  1  0.282192  0.253468  0.785257  1
  O  O8  1  0.748520  0.251480  0.788992  1
  O  O9  1  0.251480  0.748520  0.211008  1
  O  O10  1  0.717808  0.746532  0.214743  1
  O  O11  1  0.253468  0.282192  0.214743  1
  O  O12  1  0.737502  0.262498  0.196053  1
