# generated using pymatgen
data_Li4Ti9O20
_symmetry_space_group_name_H-M   'P 1'
_cell_length_a   10.54412534
_cell_length_b   10.54412534
_cell_length_c   10.54412534
_cell_angle_alpha   99.05350247
_cell_angle_beta   99.05350247
_cell_angle_gamma   133.25815167
_symmetry_Int_Tables_number   1
_chemical_formula_structural   Li4Ti9O20
_chemical_formula_sum   'Li8 Ti18 O40'
_cell_volume   783.69677838
_cell_formula_units_Z   2
loop_
 _symmetry_equiv_pos_site_id
 _symmetry_equiv_pos_as_xyz
  1  'x, y, z'
loop_
 _atom_site_type_symbol
 _atom_site_label
 _atom_site_symmetry_multiplicity
 _atom_site_fract_x
 _atom_site_fract_y
 _atom_site_fract_z
 _atom_site_occupancy
  Li  Li0  1  0.891850  0.074621  0.590645  1
  Li  Li1  1  0.324621  0.233976  0.682771  1
  Li  Li2  1  0.551205  0.641850  0.317229  1
  Li  Li3  1  0.766024  0.448795  0.090645  1
  Li  Li4  1  0.483976  0.301205  0.409355  1
  Li  Li5  1  0.698795  0.108150  0.182771  1
  Li  Li6  1  0.925379  0.516024  0.817229  1
  Li  Li7  1  0.358150  0.675379  0.909355  1
  Ti  Ti8  1  0.044780  0.079341  0.841381  1
  Ti  Ti9  1  0.796600  0.955220  0.034560  1
  Ti  Ti10  1  0.329341  0.987960  0.534560  1
  Ti  Ti11  1  0.500000  0.500000  0.000000  1
  Ti  Ti12  1  0.237960  0.203400  0.158619  1
  Ti  Ti13  1  0.526743  0.085541  0.831935  1
  Ti  Ti14  1  0.996394  0.055191  0.331935  1
  Ti  Ti15  1  0.305191  0.473257  0.558798  1
  Ti  Ti16  1  0.335541  0.003606  0.058798  1
  Ti  Ti17  1  0.914459  0.746394  0.441202  1
  Ti  Ti18  1  0.944809  0.276743  0.941202  1
  Ti  Ti19  1  0.723257  0.664459  0.668065  1
  Ti  Ti20  1  0.253606  0.694809  0.168065  1
  Ti  Ti21  1  0.012040  0.546600  0.341381  1
  Ti  Ti22  1  0.750000  0.250000  0.500000  1
  Ti  Ti23  1  0.453400  0.794780  0.465440  1
  Ti  Ti24  1  0.920659  0.762040  0.965440  1
  Ti  Ti25  1  0.205220  0.670659  0.658619  1
  O  O26  1  0.821234  0.826628  0.356123  1
  O  O27  1  0.938165  0.163318  0.786974  1
  O  O28  1  0.943449  0.918973  0.664328  1
  O  O29  1  0.168973  0.004645  0.475524  1
  O  O30  1  0.288859  0.294848  0.850082  1
  O  O31  1  0.056122  0.193648  0.034454  1
  O  O32  1  0.413318  0.126344  0.725153  1
  O  O33  1  0.848809  0.061835  0.225153  1
  O  O34  1  0.159194  0.021667  0.965546  1
  O  O35  1  0.705152  0.555234  0.994010  1
  O  O36  1  0.688776  0.038859  0.494010  1
  O  O37  1  0.443648  0.909194  0.637527  1
  O  O38  1  0.978333  0.943878  0.137527  1
  O  O39  1  0.444766  0.438776  0.149918  1
  O  O40  1  0.529121  0.693449  0.524476  1
  O  O41  1  0.254645  0.279121  0.335672  1
  O  O42  1  0.076628  0.220505  0.505395  1
  O  O43  1  0.534890  0.178766  0.005395  1
  O  O44  1  0.779495  0.284890  0.856123  1
  O  O45  1  0.376344  0.151191  0.213026  1
  O  O46  1  0.873656  0.598809  0.286974  1
  O  O47  1  0.470505  0.465110  0.643877  1
  O  O48  1  0.715110  0.571234  0.494605  1
  O  O49  1  0.173372  0.529495  0.994605  1
  O  O50  1  0.995355  0.470879  0.164328  1
  O  O51  1  0.720879  0.056551  0.975524  1
  O  O52  1  0.805234  0.311224  0.350082  1
  O  O53  1  0.806352  0.840806  0.862473  1
  O  O54  1  0.271667  0.806122  0.362473  1
  O  O55  1  0.561224  0.711141  0.005990  1
  O  O56  1  0.544848  0.194766  0.505990  1
  O  O57  1  0.090806  0.728333  0.534454  1
  O  O58  1  0.836682  0.623656  0.774847  1
  O  O59  1  0.401191  0.688165  0.274847  1
  O  O60  1  0.193878  0.556352  0.465546  1
  O  O61  1  0.961141  0.455152  0.649918  1
  O  O62  1  0.081027  0.745355  0.024476  1
  O  O63  1  0.306551  0.831027  0.835672  1
  O  O64  1  0.311835  0.586682  0.713026  1
  O  O65  1  0.428766  0.923372  0.143877  1
