# generated using pymatgen
data_Sr2CaI6
_symmetry_space_group_name_H-M   'P 1'
_cell_length_a   8.42610041
_cell_length_b   7.92110350
_cell_length_c   24.20974956
_cell_angle_alpha   90.00000000
_cell_angle_beta   90.87121038
_cell_angle_gamma   90.00000000
_symmetry_Int_Tables_number   1
_chemical_formula_structural   Sr2CaI6
_chemical_formula_sum   'Sr8 Ca4 I24'
_cell_volume   1615.66905456
_cell_formula_units_Z   4
loop_
 _symmetry_equiv_pos_site_id
 _symmetry_equiv_pos_as_xyz
  1  'x, y, z'
loop_
 _atom_site_type_symbol
 _atom_site_label
 _atom_site_symmetry_multiplicity
 _atom_site_fract_x
 _atom_site_fract_y
 _atom_site_fract_z
 _atom_site_occupancy
  Sr  Sr0  1  0.230558  0.555498  0.260358  1
  Sr  Sr1  1  0.337995  0.983176  0.091890  1
  Sr  Sr2  1  0.230558  0.944502  0.760358  1
  Sr  Sr3  1  0.337995  0.516824  0.591890  1
  Sr  Sr4  1  0.662005  0.483176  0.408110  1
  Sr  Sr5  1  0.769442  0.055498  0.239642  1
  Sr  Sr6  1  0.662005  0.016824  0.908110  1
  Sr  Sr7  1  0.769442  0.444502  0.739642  1
  Ca  Ca8  1  0.140413  0.031316  0.413771  1
  Ca  Ca9  1  0.140413  0.468684  0.913771  1
  Ca  Ca10  1  0.859587  0.531316  0.086229  1
  Ca  Ca11  1  0.859587  0.968684  0.586229  1
  I  I12  1  0.019178  0.799404  0.173229  1
  I  I13  1  0.105345  0.294734  0.155891  1
  I  I14  1  0.132736  0.704978  0.016857  1
  I  I15  1  0.019178  0.700596  0.673229  1
  I  I16  1  0.105345  0.205266  0.655891  1
  I  I17  1  0.132736  0.795022  0.516857  1
  I  I18  1  0.362878  0.290181  0.475655  1
  I  I19  1  0.387887  0.765317  0.364681  1
  I  I20  1  0.479477  0.256378  0.307864  1
  I  I21  1  0.520523  0.756378  0.192136  1
  I  I22  1  0.362878  0.209819  0.975655  1
  I  I23  1  0.612113  0.265317  0.135319  1
  I  I24  1  0.387887  0.734683  0.864681  1
  I  I25  1  0.637122  0.790181  0.024345  1
  I  I26  1  0.479477  0.243622  0.807864  1
  I  I27  1  0.520523  0.743622  0.692136  1
  I  I28  1  0.612113  0.234683  0.635319  1
  I  I29  1  0.637122  0.709819  0.524345  1
  I  I30  1  0.867264  0.204978  0.483143  1
  I  I31  1  0.894655  0.794734  0.344109  1
  I  I32  1  0.980822  0.299404  0.326771  1
  I  I33  1  0.867264  0.295022  0.983143  1
  I  I34  1  0.894655  0.705266  0.844109  1
  I  I35  1  0.980822  0.200596  0.826771  1
