# generated using pymatgen
data_Li5Ti2Ni5O12
_symmetry_space_group_name_H-M   'P 1'
_cell_length_a   5.11241424
_cell_length_b   5.11241424
_cell_length_c   9.78247224
_cell_angle_alpha   85.14783639
_cell_angle_beta   94.85216361
_cell_angle_gamma   59.32625491
_symmetry_Int_Tables_number   1
_chemical_formula_structural   Li5Ti2Ni5O12
_chemical_formula_sum   'Li5 Ti2 Ni5 O12'
_cell_volume   216.67308367
_cell_formula_units_Z   1
loop_
 _symmetry_equiv_pos_site_id
 _symmetry_equiv_pos_as_xyz
  1  'x, y, z'
loop_
 _atom_site_type_symbol
 _atom_site_label
 _atom_site_symmetry_multiplicity
 _atom_site_fract_x
 _atom_site_fract_y
 _atom_site_fract_z
 _atom_site_occupancy
  Li  Li0  1  0.322770  0.830203  0.753862  1
  Li  Li1  1  0.168718  0.673145  0.244103  1
  Li  Li2  1  0.830203  0.322770  0.246138  1
  Li  Li3  1  0.673145  0.168718  0.755897  1
  Li  Li4  1  0.083643  0.083643  0.000000  1
  Ti  Ti5  1  0.754067  0.754067  0.000000  1
  Ti  Ti6  1  0.252292  0.252292  0.500000  1
  Ni  Ni7  1  0.917785  0.917785  0.500000  1
  Ni  Ni8  1  0.493295  0.000705  0.245360  1
  Ni  Ni9  1  0.000705  0.493295  0.754640  1
  Ni  Ni10  1  0.583004  0.583004  0.500000  1
  Ni  Ni11  1  0.419507  0.419507  0.000000  1
  O  O12  1  0.781090  0.025725  0.121160  1
  O  O13  1  0.025725  0.781090  0.878840  1
  O  O14  1  0.613257  0.886907  0.617981  1
  O  O15  1  0.886907  0.613257  0.382019  1
  O  O16  1  0.478504  0.700665  0.117770  1
  O  O17  1  0.700665  0.478504  0.882230  1
  O  O18  1  0.284605  0.528604  0.619634  1
  O  O19  1  0.528604  0.284605  0.380366  1
  O  O20  1  0.124367  0.390993  0.115538  1
  O  O21  1  0.390993  0.124367  0.884462  1
  O  O22  1  0.971497  0.214655  0.619744  1
  O  O23  1  0.214655  0.971497  0.380256  1
