# generated using pymatgen
data_Li4Co2Si3O10
_symmetry_space_group_name_H-M   'P 1'
_cell_length_a   5.36194103
_cell_length_b   5.36194103
_cell_length_c   17.08429100
_cell_angle_alpha   82.51298304
_cell_angle_beta   97.48701696
_cell_angle_gamma   119.39173714
_symmetry_Int_Tables_number   1
_chemical_formula_structural   Li4Co2Si3O10
_chemical_formula_sum   'Li8 Co4 Si6 O20'
_cell_volume   423.05582278
_cell_formula_units_Z   2
loop_
 _symmetry_equiv_pos_site_id
 _symmetry_equiv_pos_as_xyz
  1  'x, y, z'
loop_
 _atom_site_type_symbol
 _atom_site_label
 _atom_site_symmetry_multiplicity
 _atom_site_fract_x
 _atom_site_fract_y
 _atom_site_fract_z
 _atom_site_occupancy
  Li  Li0  1  0.827170  0.315788  0.051638  1
  Li  Li1  1  0.578693  0.214054  0.228531  1
  Li  Li2  1  0.684212  0.172830  0.551638  1
  Li  Li3  1  0.785946  0.421307  0.728531  1
  Li  Li4  1  0.214054  0.578693  0.271469  1
  Li  Li5  1  0.315788  0.827170  0.448362  1
  Li  Li6  1  0.421307  0.785946  0.771469  1
  Li  Li7  1  0.172830  0.684212  0.948362  1
  Co  Co8  1  0.187779  0.981015  0.086598  1
  Co  Co9  1  0.018985  0.812221  0.586598  1
  Co  Co10  1  0.981015  0.187779  0.413402  1
  Co  Co11  1  0.812221  0.018985  0.913402  1
  Si  Si12  1  0.662178  0.532696  0.402391  1
  Si  Si13  1  0.881496  0.881496  0.250000  1
  Si  Si14  1  0.532696  0.662178  0.097609  1
  Si  Si15  1  0.467304  0.337822  0.902391  1
  Si  Si16  1  0.118504  0.118504  0.750000  1
  Si  Si17  1  0.337822  0.467304  0.597609  1
  O  O18  1  0.917591  0.158515  0.288879  1
  O  O19  1  0.841485  0.082409  0.788879  1
  O  O20  1  0.631556  0.220550  0.435280  1
  O  O21  1  0.548561  0.361315  0.107195  1
  O  O22  1  0.777130  0.586195  0.311441  1
  O  O23  1  0.792498  0.924382  0.048360  1
  O  O24  1  0.924382  0.792498  0.451640  1
  O  O25  1  0.779450  0.368444  0.935280  1
  O  O26  1  0.638685  0.451439  0.607195  1
  O  O27  1  0.586195  0.777130  0.188559  1
  O  O28  1  0.413805  0.222870  0.811441  1
  O  O29  1  0.361315  0.548561  0.392805  1
  O  O30  1  0.220550  0.631556  0.064720  1
  O  O31  1  0.075618  0.207502  0.548360  1
  O  O32  1  0.207502  0.075618  0.951640  1
  O  O33  1  0.222870  0.413805  0.688559  1
  O  O34  1  0.451439  0.638685  0.892805  1
  O  O35  1  0.368444  0.779450  0.564720  1
  O  O36  1  0.158515  0.917591  0.211121  1
  O  O37  1  0.082409  0.841485  0.711121  1
