# generated using pymatgen
data_Na4Cr2P(CO4)4
_symmetry_space_group_name_H-M   'P 1'
_cell_length_a   9.92401973
_cell_length_b   9.87942996
_cell_length_c   9.70842352
_cell_angle_alpha   60.87332884
_cell_angle_beta   60.41460352
_cell_angle_gamma   58.71206764
_symmetry_Int_Tables_number   1
_chemical_formula_structural   Na4Cr2P(CO4)4
_chemical_formula_sum   'Na8 Cr4 P2 C8 O32'
_cell_volume   672.53307025
_cell_formula_units_Z   2
loop_
 _symmetry_equiv_pos_site_id
 _symmetry_equiv_pos_as_xyz
  1  'x, y, z'
loop_
 _atom_site_type_symbol
 _atom_site_label
 _atom_site_symmetry_multiplicity
 _atom_site_fract_x
 _atom_site_fract_y
 _atom_site_fract_z
 _atom_site_occupancy
  Na  Na0  1  0.540155  0.959845  0.540155  1
  Na  Na1  1  0.960101  0.539899  0.539899  1
  Na  Na2  1  0.710101  0.289899  0.289899  1
  Na  Na3  1  0.290155  0.709845  0.290155  1
  Na  Na4  1  0.959845  0.540155  0.959845  1
  Na  Na5  1  0.539899  0.960101  0.960101  1
  Na  Na6  1  0.289899  0.710101  0.710101  1
  Na  Na7  1  0.709845  0.290155  0.709845  1
  Cr  Cr8  1  0.125000  0.125000  0.625000  1
  Cr  Cr9  1  0.125000  0.125000  0.125000  1
  Cr  Cr10  1  0.625000  0.125000  0.125000  1
  Cr  Cr11  1  0.125000  0.625000  0.125000  1
  P  P12  1  0.500000  0.500000  0.500000  1
  P  P13  1  0.750000  0.750000  0.750000  1
  C  C14  1  0.913911  0.917003  0.263889  1
  C  C15  1  0.332997  0.336089  0.344802  1
  C  C16  1  0.263889  0.905198  0.913911  1
  C  C17  1  0.905198  0.263889  0.917003  1
  C  C18  1  0.344802  0.986111  0.332997  1
  C  C19  1  0.986111  0.344802  0.336089  1
  C  C20  1  0.917003  0.913911  0.905198  1
  C  C21  1  0.336089  0.332997  0.986111  1
  O  O22  1  0.769497  0.942990  0.269461  1
  O  O23  1  0.570084  0.306773  0.561728  1
  O  O24  1  0.940291  0.034177  0.259876  1
  O  O25  1  0.215823  0.309709  0.484344  1
  O  O26  1  0.259876  0.765656  0.940291  1
  O  O27  1  0.480494  0.219142  0.319906  1
  O  O28  1  0.561728  0.561414  0.570084  1
  O  O29  1  0.306773  0.570084  0.561414  1
  O  O30  1  0.980458  0.319906  0.219142  1
  O  O31  1  0.765656  0.259876  0.034177  1
  O  O32  1  0.307010  0.480503  0.231948  1
  O  O33  1  0.561414  0.561728  0.306773  1
  O  O34  1  0.269461  0.018052  0.769497  1
  O  O35  1  0.018052  0.269461  0.942990  1
  O  O36  1  0.030858  0.769506  0.269542  1
  O  O37  1  0.319906  0.980458  0.480494  1
  O  O38  1  0.930094  0.269542  0.769506  1
  O  O39  1  0.219142  0.480494  0.980458  1
  O  O40  1  0.231948  0.980539  0.307010  1
  O  O41  1  0.980539  0.231948  0.480503  1
  O  O42  1  0.688586  0.688272  0.943227  1
  O  O43  1  0.942990  0.769497  0.018052  1
  O  O44  1  0.484344  0.990124  0.215823  1
  O  O45  1  0.269542  0.930094  0.030858  1
  O  O46  1  0.943227  0.679916  0.688586  1
  O  O47  1  0.688272  0.688586  0.679916  1
  O  O48  1  0.769506  0.030858  0.930094  1
  O  O49  1  0.990124  0.484344  0.309709  1
  O  O50  1  0.034177  0.940291  0.765656  1
  O  O51  1  0.309709  0.215823  0.990124  1
  O  O52  1  0.679916  0.943227  0.688272  1
  O  O53  1  0.480503  0.307010  0.980539  1
