# generated using pymatgen
data_Li2NiP3O10
_symmetry_space_group_name_H-M   'P 1'
_cell_length_a   4.69118509
_cell_length_b   8.55275791
_cell_length_c   9.24148553
_cell_angle_alpha   90.00000000
_cell_angle_beta   98.14347494
_cell_angle_gamma   90.00000000
_symmetry_Int_Tables_number   1
_chemical_formula_structural   Li2NiP3O10
_chemical_formula_sum   'Li4 Ni2 P6 O20'
_cell_volume   367.05325596
_cell_formula_units_Z   2
loop_
 _symmetry_equiv_pos_site_id
 _symmetry_equiv_pos_as_xyz
  1  'x, y, z'
loop_
 _atom_site_type_symbol
 _atom_site_label
 _atom_site_symmetry_multiplicity
 _atom_site_fract_x
 _atom_site_fract_y
 _atom_site_fract_z
 _atom_site_occupancy
  Li  Li0  1  0.979309  0.923850  0.654621  1
  Li  Li1  1  0.979309  0.576150  0.654621  1
  Li  Li2  1  0.020691  0.423850  0.345379  1
  Li  Li3  1  0.020691  0.076150  0.345379  1
  Ni  Ni4  1  0.000000  0.000000  0.000000  1
  Ni  Ni5  1  0.000000  0.500000  0.000000  1
  P  P6  1  0.678441  0.750000  0.169870  1
  P  P7  1  0.585217  0.250000  0.540447  1
  P  P8  1  0.464569  0.250000  0.141100  1
  P  P9  1  0.535431  0.750000  0.858900  1
  P  P10  1  0.414783  0.750000  0.459553  1
  P  P11  1  0.321559  0.250000  0.830130  1
  O  O12  1  0.849835  0.900895  0.172237  1
  O  O13  1  0.849835  0.599105  0.172237  1
  O  O14  1  0.747247  0.250000  0.238986  1
  O  O15  1  0.770132  0.395714  0.528983  1
  O  O16  1  0.770132  0.104286  0.528983  1
  O  O17  1  0.701603  0.750000  0.557423  1
  O  O18  1  0.718422  0.601154  0.853596  1
  O  O19  1  0.718422  0.898846  0.853596  1
  O  O20  1  0.435139  0.750000  0.026462  1
  O  O21  1  0.519541  0.250000  0.709054  1
  O  O22  1  0.480459  0.750000  0.290946  1
  O  O23  1  0.564861  0.250000  0.973538  1
  O  O24  1  0.281578  0.101154  0.146404  1
  O  O25  1  0.281578  0.398846  0.146404  1
  O  O26  1  0.298397  0.250000  0.442577  1
  O  O27  1  0.229868  0.895714  0.471017  1
  O  O28  1  0.229868  0.604286  0.471017  1
  O  O29  1  0.252753  0.750000  0.761014  1
  O  O30  1  0.150165  0.400895  0.827763  1
  O  O31  1  0.150165  0.099105  0.827763  1
