# generated using pymatgen
data_MnZnO3
_symmetry_space_group_name_H-M   'P 1'
_cell_length_a   5.07781701
_cell_length_b   5.18824782
_cell_length_c   7.40550695
_cell_angle_alpha   90.00000000
_cell_angle_beta   90.00000000
_cell_angle_gamma   90.00000000
_symmetry_Int_Tables_number   1
_chemical_formula_structural   MnZnO3
_chemical_formula_sum   'Mn4 Zn4 O12'
_cell_volume   195.09788089
_cell_formula_units_Z   4
loop_
 _symmetry_equiv_pos_site_id
 _symmetry_equiv_pos_as_xyz
  1  'x, y, z'
loop_
 _atom_site_type_symbol
 _atom_site_label
 _atom_site_symmetry_multiplicity
 _atom_site_fract_x
 _atom_site_fract_y
 _atom_site_fract_z
 _atom_site_occupancy
  Mn  Mn0  1  0.500000  0.000000  0.000000  1
  Mn  Mn1  1  0.500000  0.000000  0.500000  1
  Mn  Mn2  1  0.000000  0.500000  0.000000  1
  Mn  Mn3  1  0.000000  0.500000  0.500000  1
  Zn  Zn4  1  0.991164  0.048148  0.250000  1
  Zn  Zn5  1  0.491164  0.451852  0.750000  1
  Zn  Zn6  1  0.508836  0.548148  0.250000  1
  Zn  Zn7  1  0.008836  0.951852  0.750000  1
  O  O8  1  0.620070  0.062070  0.750000  1
  O  O9  1  0.184818  0.189492  0.564430  1
  O  O10  1  0.184818  0.189492  0.935570  1
  O  O11  1  0.684818  0.310508  0.064430  1
  O  O12  1  0.684818  0.310508  0.435570  1
  O  O13  1  0.120070  0.437930  0.250000  1
  O  O14  1  0.879930  0.562070  0.750000  1
  O  O15  1  0.315182  0.689492  0.935570  1
  O  O16  1  0.315182  0.689492  0.564430  1
  O  O17  1  0.815182  0.810508  0.064430  1
  O  O18  1  0.815182  0.810508  0.435570  1
  O  O19  1  0.379930  0.937930  0.250000  1
