# generated using pymatgen
data_Sr(CoGe)2
_symmetry_space_group_name_H-M   'P 1'
_cell_length_a   6.18842853
_cell_length_b   6.18842853
_cell_length_c   6.18842853
_cell_angle_alpha   141.96239971
_cell_angle_beta   141.96239971
_cell_angle_gamma   54.88544196
_symmetry_Int_Tables_number   1
_chemical_formula_structural   Sr(CoGe)2
_chemical_formula_sum   'Sr1 Co2 Ge2'
_cell_volume   89.34431036
_cell_formula_units_Z   1
loop_
 _symmetry_equiv_pos_site_id
 _symmetry_equiv_pos_as_xyz
  1  'x, y, z'
loop_
 _atom_site_type_symbol
 _atom_site_label
 _atom_site_symmetry_multiplicity
 _atom_site_fract_x
 _atom_site_fract_y
 _atom_site_fract_z
 _atom_site_occupancy
  Sr  Sr0  1  0.000000  0.000000  0.000000  1
  Co  Co1  1  0.750000  0.250000  0.500000  1
  Co  Co2  1  0.250000  0.750000  0.500000  1
  Ge  Ge3  1  0.640984  0.640984  0.000000  1
  Ge  Ge4  1  0.359016  0.359016  0.000000  1
