# generated using pymatgen
data_Li34Sb8S7
_symmetry_space_group_name_H-M   'P 1'
_cell_length_a   11.79626084
_cell_length_b   11.79626084
_cell_length_c   11.79626084
_cell_angle_alpha   131.52626616
_cell_angle_beta   131.52626616
_cell_angle_gamma   70.97827499
_symmetry_Int_Tables_number   1
_chemical_formula_structural   Li34Sb8S7
_chemical_formula_sum   'Li34 Sb8 S7'
_cell_volume   900.91747822
_cell_formula_units_Z   1
loop_
 _symmetry_equiv_pos_site_id
 _symmetry_equiv_pos_as_xyz
  1  'x, y, z'
loop_
 _atom_site_type_symbol
 _atom_site_label
 _atom_site_symmetry_multiplicity
 _atom_site_fract_x
 _atom_site_fract_y
 _atom_site_fract_z
 _atom_site_occupancy
  Li  Li0  1  0.730528  0.009864  0.883850  1
  Li  Li1  1  0.009864  0.126013  0.279335  1
  Li  Li2  1  0.359550  0.222457  0.582007  1
  Li  Li3  1  0.448657  0.150809  0.849865  1
  Li  Li4  1  0.154163  0.044725  0.715915  1
  Li  Li5  1  0.777543  0.359550  0.137093  1
  Li  Li6  1  0.438248  0.154163  0.109437  1
  Li  Li7  1  0.150809  0.300944  0.702152  1
  Li  Li8  1  0.569571  0.069571  0.500000  1
  Li  Li9  1  0.930429  0.430429  0.500000  1
  Li  Li10  1  0.750000  0.250000  0.500000  1
  Li  Li11  1  0.598792  0.448657  0.297848  1
  Li  Li12  1  0.873987  0.153322  0.883850  1
  Li  Li13  1  0.044725  0.328810  0.890563  1
  Li  Li14  1  0.222457  0.640450  0.862907  1
  Li  Li15  1  0.328810  0.438248  0.284085  1
  Li  Li16  1  0.153322  0.269472  0.279335  1
  Li  Li17  1  0.300944  0.598792  0.150135  1
  Li  Li18  1  0.640450  0.777543  0.417993  1
  Li  Li19  1  0.699056  0.401208  0.849865  1
  Li  Li20  1  0.846678  0.730528  0.720665  1
  Li  Li21  1  0.671190  0.561752  0.715915  1
  Li  Li22  1  0.955275  0.671190  0.109437  1
  Li  Li23  1  0.126013  0.846678  0.116150  1
  Li  Li24  1  0.401208  0.551343  0.702152  1
  Li  Li25  1  0.430429  0.930429  0.500000  1
  Li  Li26  1  0.250000  0.750000  0.500000  1
  Li  Li27  1  0.069571  0.569571  0.500000  1
  Li  Li28  1  0.849191  0.699056  0.297848  1
  Li  Li29  1  0.561752  0.845837  0.890563  1
  Li  Li30  1  0.845837  0.955275  0.284085  1
  Li  Li31  1  0.551343  0.849191  0.150135  1
  Li  Li32  1  0.990136  0.873987  0.720665  1
  Li  Li33  1  0.269472  0.990136  0.116150  1
  Sb  Sb34  1  0.718293  0.155515  0.186795  1
  Sb  Sb35  1  0.844485  0.031280  0.562778  1
  Sb  Sb36  1  0.468502  0.281707  0.437222  1
  Sb  Sb37  1  0.968720  0.531498  0.813205  1
  Sb  Sb38  1  0.031280  0.468502  0.186795  1
  Sb  Sb39  1  0.531498  0.718293  0.562778  1
  Sb  Sb40  1  0.155515  0.968720  0.437222  1
  Sb  Sb41  1  0.281707  0.844485  0.813205  1
  S  S42  1  0.000000  0.000000  0.000000  1
  S  S43  1  0.607162  0.184053  0.791215  1
  S  S44  1  0.184053  0.392838  0.576891  1
  S  S45  1  0.317107  0.317107  0.000000  1
  S  S46  1  0.815947  0.607162  0.423109  1
  S  S47  1  0.392838  0.815947  0.208785  1
  S  S48  1  0.682893  0.682893  0.000000  1
