# generated using pymatgen
data_Al19CrO30
_symmetry_space_group_name_H-M   'P 1'
_cell_length_a   4.82030468
_cell_length_b   5.19121754
_cell_length_c   19.97457929
_cell_angle_alpha   94.38213227
_cell_angle_beta   89.98721483
_cell_angle_gamma   117.65082544
_symmetry_Int_Tables_number   1
_chemical_formula_structural   Al19CrO30
_chemical_formula_sum   'Al19 Cr1 O30'
_cell_volume   441.09878698
_cell_formula_units_Z   1
loop_
 _symmetry_equiv_pos_site_id
 _symmetry_equiv_pos_as_xyz
  1  'x, y, z'
loop_
 _atom_site_type_symbol
 _atom_site_label
 _atom_site_symmetry_multiplicity
 _atom_site_fract_x
 _atom_site_fract_y
 _atom_site_fract_z
 _atom_site_occupancy
  Al  Al0  1  0.494239  0.987482  0.071209  1
  Al  Al1  1  0.606937  0.213447  0.230125  1
  Al  Al2  1  0.593147  0.186101  0.370684  1
  Al  Al3  1  0.193334  0.384203  0.171775  1
  Al  Al4  1  0.706871  0.413805  0.529587  1
  Al  Al5  1  0.692955  0.386012  0.670295  1
  Al  Al6  1  0.006978  0.013917  0.429750  1
  Al  Al7  1  0.892775  0.785658  0.271299  1
  Al  Al8  1  0.907878  0.815017  0.131066  1
  Al  Al9  1  0.993040  0.986115  0.570432  1
  Al  Al10  1  0.092334  0.185072  0.868848  1
  Al  Al11  1  0.107042  0.213641  0.729089  1
  Al  Al12  1  0.807083  0.612898  0.828939  1
  Al  Al13  1  0.306875  0.613803  0.329901  1
  Al  Al14  1  0.406749  0.813854  0.629424  1
  Al  Al15  1  0.506239  0.013940  0.928211  1
  Al  Al16  1  0.293206  0.586283  0.470535  1
  Al  Al17  1  0.393086  0.785228  0.769878  1
  Al  Al18  1  0.790792  0.585122  0.969145  1
  Cr  Cr19  1  0.208997  0.418940  0.029902  1
  O  O20  1  0.456210  0.300146  0.450024  1
  O  O21  1  0.167946  0.641489  0.114075  1
  O  O22  1  0.633239  0.960789  0.289033  1
  O  O23  1  0.235300  0.152762  0.092587  1
  O  O24  1  0.572551  0.838722  0.411270  1
  O  O25  1  0.744967  0.099994  0.150582  1
  O  O26  1  0.943595  0.499169  0.749578  1
  O  O27  1  0.667572  0.709229  0.050084  1
  O  O28  1  0.855990  0.099793  0.649781  1
  O  O29  1  0.223287  0.767838  0.988071  1
  O  O30  1  0.627620  0.560906  0.189302  1
  O  O31  1  0.027557  0.361114  0.388858  1
  O  O32  1  0.827665  0.960976  0.788318  1
  O  O33  1  0.566661  0.439035  0.311485  1
  O  O34  1  0.966312  0.238692  0.511168  1
  O  O35  1  0.033716  0.761219  0.488802  1
  O  O36  1  0.752829  0.234414  0.010330  1
  O  O37  1  0.433696  0.561227  0.688424  1
  O  O38  1  0.972276  0.638614  0.611090  1
  O  O39  1  0.172116  0.038608  0.212773  1
  O  O40  1  0.373199  0.438326  0.810296  1
  O  O41  1  0.349811  0.299240  0.945805  1
  O  O42  1  0.144071  0.899883  0.350336  1
  O  O43  1  0.255472  0.897851  0.849039  1
  O  O44  1  0.055590  0.499276  0.250530  1
  O  O45  1  0.427477  0.161167  0.588675  1
  O  O46  1  0.366208  0.038348  0.710886  1
  O  O47  1  0.765806  0.839010  0.910689  1
  O  O48  1  0.836861  0.361721  0.888098  1
  O  O49  1  0.543847  0.699906  0.549919  1
