# generated using pymatgen
data_Li2Cu3F8
_symmetry_space_group_name_H-M   'P 1'
_cell_length_a   6.12803875
_cell_length_b   6.12803875
_cell_length_c   9.15462872
_cell_angle_alpha   89.86550490
_cell_angle_beta   90.13449510
_cell_angle_gamma   60.71877761
_symmetry_Int_Tables_number   1
_chemical_formula_structural   Li2Cu3F8
_chemical_formula_sum   'Li4 Cu6 F16'
_cell_volume   299.85402592
_cell_formula_units_Z   2
loop_
 _symmetry_equiv_pos_site_id
 _symmetry_equiv_pos_as_xyz
  1  'x, y, z'
loop_
 _atom_site_type_symbol
 _atom_site_label
 _atom_site_symmetry_multiplicity
 _atom_site_fract_x
 _atom_site_fract_y
 _atom_site_fract_z
 _atom_site_occupancy
  Li  Li0  1  0.335612  0.331601  0.460821  1
  Li  Li1  1  0.332119  0.332283  0.083762  1
  Li  Li2  1  0.668399  0.664388  0.960821  1
  Li  Li3  1  0.667717  0.667881  0.583762  1
  Cu  Cu4  1  0.669528  0.168199  0.750162  1
  Cu  Cu5  1  0.162345  0.669859  0.750206  1
  Cu  Cu6  1  0.837707  0.832671  0.252736  1
  Cu  Cu7  1  0.167329  0.162293  0.752736  1
  Cu  Cu8  1  0.831801  0.330472  0.250162  1
  Cu  Cu9  1  0.330141  0.837655  0.250206  1
  F  F10  1  0.662597  0.199184  0.361846  1
  F  F11  1  0.457522  0.514807  0.627472  1
  F  F12  1  0.520246  0.026024  0.623822  1
  F  F13  1  0.330050  0.325910  0.871574  1
  F  F14  1  0.992659  0.996313  0.137824  1
  F  F15  1  0.146158  0.666450  0.359684  1
  F  F16  1  0.028876  0.460036  0.627968  1
  F  F17  1  0.857470  0.809835  0.858222  1
  F  F18  1  0.190165  0.142530  0.358222  1
  F  F19  1  0.973976  0.479754  0.123822  1
  F  F20  1  0.539964  0.971124  0.127968  1
  F  F21  1  0.674090  0.669950  0.371574  1
  F  F22  1  0.003687  0.007341  0.637824  1
  F  F23  1  0.800816  0.337403  0.861846  1
  F  F24  1  0.485193  0.542478  0.127472  1
  F  F25  1  0.333550  0.853842  0.859684  1
