# generated using pymatgen
data_Gd3SbO7
_symmetry_space_group_name_H-M   'P 1'
_cell_length_a   7.55475192
_cell_length_b   7.57280473
_cell_length_c   10.72903568
_cell_angle_alpha   90.00000000
_cell_angle_beta   90.00000000
_cell_angle_gamma   90.00000000
_symmetry_Int_Tables_number   1
_chemical_formula_structural   Gd3SbO7
_chemical_formula_sum   'Gd12 Sb4 O28'
_cell_volume   613.81522394
_cell_formula_units_Z   4
loop_
 _symmetry_equiv_pos_site_id
 _symmetry_equiv_pos_as_xyz
  1  'x, y, z'
loop_
 _atom_site_type_symbol
 _atom_site_label
 _atom_site_symmetry_multiplicity
 _atom_site_fract_x
 _atom_site_fract_y
 _atom_site_fract_z
 _atom_site_occupancy
  Gd  Gd0  1  0.772916  0.004585  0.250000  1
  Gd  Gd1  1  0.965894  0.253420  0.520115  1
  Gd  Gd2  1  0.965894  0.253420  0.979885  1
  Gd  Gd3  1  0.465894  0.246580  0.020115  1
  Gd  Gd4  1  0.465894  0.246580  0.479885  1
  Gd  Gd5  1  0.272916  0.495415  0.750000  1
  Gd  Gd6  1  0.727084  0.504585  0.250000  1
  Gd  Gd7  1  0.534106  0.753420  0.520115  1
  Gd  Gd8  1  0.534106  0.753420  0.979885  1
  Gd  Gd9  1  0.034106  0.746580  0.020115  1
  Gd  Gd10  1  0.034106  0.746580  0.479885  1
  Gd  Gd11  1  0.227084  0.995415  0.750000  1
  Sb  Sb12  1  0.752009  0.001580  0.750000  1
  Sb  Sb13  1  0.252009  0.498420  0.250000  1
  Sb  Sb14  1  0.747991  0.501580  0.750000  1
  Sb  Sb15  1  0.247991  0.998420  0.250000  1
  O  O16  1  0.052920  0.032560  0.124143  1
  O  O17  1  0.052920  0.032560  0.375857  1
  O  O18  1  0.570720  0.036133  0.618188  1
  O  O19  1  0.570720  0.036133  0.881812  1
  O  O20  1  0.337413  0.247753  0.250000  1
  O  O21  1  0.731994  0.251420  0.116849  1
  O  O22  1  0.731994  0.251420  0.383151  1
  O  O23  1  0.231994  0.248580  0.616849  1
  O  O24  1  0.231994  0.248580  0.883151  1
  O  O25  1  0.837413  0.252247  0.750000  1
  O  O26  1  0.070720  0.463867  0.118188  1
  O  O27  1  0.070720  0.463867  0.381812  1
  O  O28  1  0.552920  0.467440  0.624143  1
  O  O29  1  0.552920  0.467440  0.875857  1
  O  O30  1  0.447080  0.532560  0.124143  1
  O  O31  1  0.447080  0.532560  0.375857  1
  O  O32  1  0.929280  0.536133  0.618188  1
  O  O33  1  0.929280  0.536133  0.881812  1
  O  O34  1  0.162587  0.747753  0.250000  1
  O  O35  1  0.768006  0.751420  0.116849  1
  O  O36  1  0.768006  0.751420  0.383151  1
  O  O37  1  0.268006  0.748580  0.616849  1
  O  O38  1  0.268006  0.748580  0.883151  1
  O  O39  1  0.662587  0.752247  0.750000  1
  O  O40  1  0.429280  0.963867  0.118188  1
  O  O41  1  0.429280  0.963867  0.381812  1
  O  O42  1  0.947080  0.967440  0.624143  1
  O  O43  1  0.947080  0.967440  0.875857  1
