# generated using pymatgen
data_Li2CrP3O10
_symmetry_space_group_name_H-M   'P 1'
_cell_length_a   9.70995752
_cell_length_b   8.02673591
_cell_length_c   12.03625809
_cell_angle_alpha   90.00000000
_cell_angle_beta   95.86159384
_cell_angle_gamma   90.00000000
_symmetry_Int_Tables_number   1
_chemical_formula_structural   Li2CrP3O10
_chemical_formula_sum   'Li8 Cr4 P12 O40'
_cell_volume   933.19226133
_cell_formula_units_Z   4
loop_
 _symmetry_equiv_pos_site_id
 _symmetry_equiv_pos_as_xyz
  1  'x, y, z'
loop_
 _atom_site_type_symbol
 _atom_site_label
 _atom_site_symmetry_multiplicity
 _atom_site_fract_x
 _atom_site_fract_y
 _atom_site_fract_z
 _atom_site_occupancy
  Li  Li0  1  0.614828  0.542408  0.851943  1
  Li  Li1  1  0.114828  0.957592  0.851943  1
  Li  Li2  1  0.092963  0.889138  0.551210  1
  Li  Li3  1  0.592963  0.610862  0.551210  1
  Li  Li4  1  0.407037  0.389138  0.448790  1
  Li  Li5  1  0.907037  0.110862  0.448790  1
  Li  Li6  1  0.885172  0.042408  0.148057  1
  Li  Li7  1  0.385172  0.457592  0.148057  1
  Cr  Cr8  1  0.370887  0.143261  0.830807  1
  Cr  Cr9  1  0.870887  0.356739  0.830807  1
  Cr  Cr10  1  0.129113  0.643261  0.169193  1
  Cr  Cr11  1  0.629113  0.856739  0.169193  1
  P  P12  1  0.191998  0.432760  0.936304  1
  P  P13  1  0.691998  0.067240  0.936304  1
  P  P14  1  0.085082  0.575890  0.725361  1
  P  P15  1  0.585082  0.924110  0.725361  1
  P  P16  1  0.075032  0.215507  0.667183  1
  P  P17  1  0.575032  0.284493  0.667183  1
  P  P18  1  0.424968  0.715507  0.332817  1
  P  P19  1  0.924968  0.784493  0.332817  1
  P  P20  1  0.414918  0.075890  0.274639  1
  P  P21  1  0.914918  0.424110  0.274639  1
  P  P22  1  0.308002  0.932760  0.063696  1
  P  P23  1  0.808002  0.567240  0.063696  1
  O  O24  1  0.057486  0.335231  0.917522  1
  O  O25  1  0.282666  0.006776  0.946444  1
  O  O26  1  0.324586  0.341341  0.917066  1
  O  O27  1  0.557486  0.164769  0.917522  1
  O  O28  1  0.782666  0.493224  0.946444  1
  O  O29  1  0.824586  0.158659  0.917066  1
  O  O30  1  0.181671  0.584675  0.844738  1
  O  O31  1  0.681671  0.915325  0.844738  1
  O  O32  1  0.177380  0.120838  0.751428  1
  O  O33  1  0.435927  0.942066  0.751147  1
  O  O34  1  0.430400  0.280154  0.707338  1
  O  O35  1  0.677380  0.379162  0.751428  1
  O  O36  1  0.935927  0.557934  0.751147  1
  O  O37  1  0.930400  0.219846  0.707338  1
  O  O38  1  0.131965  0.408701  0.663715  1
  O  O39  1  0.122693  0.726144  0.663025  1
  O  O40  1  0.631965  0.091299  0.663715  1
  O  O41  1  0.622693  0.773856  0.663025  1
  O  O42  1  0.072073  0.140028  0.552168  1
  O  O43  1  0.572073  0.359972  0.552168  1
  O  O44  1  0.427927  0.640028  0.447832  1
  O  O45  1  0.927927  0.859972  0.447832  1
  O  O46  1  0.377307  0.226144  0.336975  1
  O  O47  1  0.368035  0.908701  0.336285  1
  O  O48  1  0.877307  0.273856  0.336975  1
  O  O49  1  0.868035  0.591299  0.336285  1
  O  O50  1  0.069600  0.780154  0.292662  1
  O  O51  1  0.064073  0.442066  0.248853  1
  O  O52  1  0.322620  0.620838  0.248572  1
  O  O53  1  0.569600  0.719846  0.292662  1
  O  O54  1  0.564073  0.057934  0.248853  1
  O  O55  1  0.822620  0.879162  0.248572  1
  O  O56  1  0.318329  0.084675  0.155262  1
  O  O57  1  0.818329  0.415325  0.155262  1
  O  O58  1  0.175414  0.841341  0.082934  1
  O  O59  1  0.217334  0.506776  0.053556  1
  O  O60  1  0.442514  0.835231  0.082478  1
  O  O61  1  0.675414  0.658659  0.082934  1
  O  O62  1  0.717334  0.993224  0.053556  1
  O  O63  1  0.942514  0.664769  0.082478  1
