# generated using pymatgen
data_Fe3OF5
_symmetry_space_group_name_H-M   'P 1'
_cell_length_a   5.79605226
_cell_length_b   5.79605226
_cell_length_c   7.31584886
_cell_angle_alpha   74.15262589
_cell_angle_beta   105.84737411
_cell_angle_gamma   105.85435083
_symmetry_Int_Tables_number   1
_chemical_formula_structural   Fe3OF5
_chemical_formula_sum   'Fe6 O2 F10'
_cell_volume   222.14274113
_cell_formula_units_Z   2
loop_
 _symmetry_equiv_pos_site_id
 _symmetry_equiv_pos_as_xyz
  1  'x, y, z'
loop_
 _atom_site_type_symbol
 _atom_site_label
 _atom_site_symmetry_multiplicity
 _atom_site_fract_x
 _atom_site_fract_y
 _atom_site_fract_z
 _atom_site_occupancy
  Fe  Fe0  1  0.662538  0.337462  0.169812  1
  Fe  Fe1  1  0.000000  0.000000  0.000000  1
  Fe  Fe2  1  0.687662  0.312338  0.654230  1
  Fe  Fe3  1  0.000000  0.000000  0.500000  1
  Fe  Fe4  1  0.337462  0.662538  0.830188  1
  Fe  Fe5  1  0.312338  0.687662  0.345770  1
  O  O6  1  0.081762  0.918238  0.283652  1
  O  O7  1  0.918238  0.081762  0.716348  1
  F  F8  1  0.297511  0.297511  0.000000  1
  F  F9  1  0.976031  0.645737  0.650675  1
  F  F10  1  0.452706  0.547294  0.642283  1
  F  F11  1  0.773533  0.226467  0.974656  1
  F  F12  1  0.547294  0.452706  0.357717  1
  F  F13  1  0.226467  0.773533  0.025344  1
  F  F14  1  0.354263  0.023969  0.650675  1
  F  F15  1  0.702489  0.702489  0.000000  1
  F  F16  1  0.023969  0.354263  0.349325  1
  F  F17  1  0.645737  0.976031  0.349325  1
