# generated using pymatgen
data_LiV6O7F5
_symmetry_space_group_name_H-M   'P 1'
_cell_length_a   5.66623201
_cell_length_b   5.68737317
_cell_length_c   7.54303828
_cell_angle_alpha   71.74547754
_cell_angle_beta   71.72902474
_cell_angle_gamma   71.72984131
_symmetry_Int_Tables_number   1
_chemical_formula_structural   LiV6O7F5
_chemical_formula_sum   'Li1 V6 O7 F5'
_cell_volume   212.87143422
_cell_formula_units_Z   1
loop_
 _symmetry_equiv_pos_site_id
 _symmetry_equiv_pos_as_xyz
  1  'x, y, z'
loop_
 _atom_site_type_symbol
 _atom_site_label
 _atom_site_symmetry_multiplicity
 _atom_site_fract_x
 _atom_site_fract_y
 _atom_site_fract_z
 _atom_site_occupancy
  Li  Li0  1  0.573432  0.061275  0.430762  1
  V  V1  1  0.001468  0.004740  0.000818  1
  V  V2  1  0.296697  0.322151  0.172953  1
  V  V3  1  0.648813  0.635146  0.308313  1
  V  V4  1  0.333086  0.349524  0.677018  1
  V  V5  1  0.016721  0.996285  0.503168  1
  V  V6  1  0.696240  0.696831  0.829122  1
  O  O7  1  0.781017  0.778654  0.027339  1
  O  O8  1  0.423575  0.413977  0.368583  1
  O  O9  1  0.369809  0.952504  0.336488  1
  O  O10  1  0.954764  0.351605  0.332820  1
  O  O11  1  0.044969  0.647419  0.668372  1
  O  O12  1  0.645063  0.048060  0.658715  1
  O  O13  1  0.225894  0.225677  0.966190  1
  F  F14  1  0.894699  0.891924  0.300884  1
  F  F15  1  0.107592  0.107490  0.704422  1
  F  F16  1  0.574827  0.581174  0.634602  1
  F  F17  1  0.307547  0.700404  0.994339  1
  F  F18  1  0.692197  0.309042  0.999539  1
