# generated using pymatgen
data_V2CrO7
_symmetry_space_group_name_H-M   'P 1'
_cell_length_a   8.63583861
_cell_length_b   8.63583861
_cell_length_c   8.63583861
_cell_angle_alpha   90.00000000
_cell_angle_beta   90.00000000
_cell_angle_gamma   90.00000000
_symmetry_Int_Tables_number   1
_chemical_formula_structural   V2CrO7
_chemical_formula_sum   'V8 Cr4 O28'
_cell_volume   644.04105449
_cell_formula_units_Z   4
loop_
 _symmetry_equiv_pos_site_id
 _symmetry_equiv_pos_as_xyz
  1  'x, y, z'
loop_
 _atom_site_type_symbol
 _atom_site_label
 _atom_site_symmetry_multiplicity
 _atom_site_fract_x
 _atom_site_fract_y
 _atom_site_fract_z
 _atom_site_occupancy
  V  V0  1  0.119152  0.880848  0.380848  1
  V  V1  1  0.119152  0.619152  0.880848  1
  V  V2  1  0.380848  0.380848  0.380848  1
  V  V3  1  0.380848  0.119152  0.880848  1
  V  V4  1  0.619152  0.619152  0.619152  1
  V  V5  1  0.619152  0.880848  0.119152  1
  V  V6  1  0.880848  0.119152  0.619152  1
  V  V7  1  0.880848  0.380848  0.119152  1
  Cr  Cr8  1  0.000000  0.000000  0.000000  1
  Cr  Cr9  1  0.000000  0.500000  0.500000  1
  Cr  Cr10  1  0.500000  0.000000  0.500000  1
  Cr  Cr11  1  0.500000  0.500000  0.000000  1
  O  O12  1  0.000000  0.000000  0.500000  1
  O  O13  1  0.000000  0.500000  0.000000  1
  O  O14  1  0.062440  0.691916  0.407494  1
  O  O15  1  0.062440  0.808084  0.907494  1
  O  O16  1  0.092506  0.562440  0.691916  1
  O  O17  1  0.092506  0.937560  0.191916  1
  O  O18  1  0.191916  0.092506  0.937560  1
  O  O19  1  0.191916  0.407494  0.437560  1
  O  O20  1  0.308084  0.592506  0.937560  1
  O  O21  1  0.308084  0.907494  0.437560  1
  O  O22  1  0.407494  0.062440  0.691916  1
  O  O23  1  0.407494  0.437560  0.191916  1
  O  O24  1  0.437560  0.308084  0.907494  1
  O  O25  1  0.437560  0.191916  0.407494  1
  O  O26  1  0.500000  0.500000  0.500000  1
  O  O27  1  0.500000  0.000000  0.000000  1
  O  O28  1  0.562440  0.691916  0.092506  1
  O  O29  1  0.562440  0.808084  0.592506  1
  O  O30  1  0.592506  0.562440  0.808084  1
  O  O31  1  0.592506  0.937560  0.308084  1
  O  O32  1  0.691916  0.092506  0.562440  1
  O  O33  1  0.691916  0.407494  0.062440  1
  O  O34  1  0.808084  0.592506  0.562440  1
  O  O35  1  0.808084  0.907494  0.062440  1
  O  O36  1  0.907494  0.062440  0.808084  1
  O  O37  1  0.907494  0.437560  0.308084  1
  O  O38  1  0.937560  0.191916  0.092506  1
  O  O39  1  0.937560  0.308084  0.592506  1
