# generated using pymatgen
data_MnOF
_symmetry_space_group_name_H-M   'P 1'
_cell_length_a   4.53874659
_cell_length_b   5.17161793
_cell_length_c   5.67656321
_cell_angle_alpha   90.00000000
_cell_angle_beta   90.00000000
_cell_angle_gamma   90.00000000
_symmetry_Int_Tables_number   1
_chemical_formula_structural   MnOF
_chemical_formula_sum   'Mn4 O4 F4'
_cell_volume   133.24405661
_cell_formula_units_Z   4
loop_
 _symmetry_equiv_pos_site_id
 _symmetry_equiv_pos_as_xyz
  1  'x, y, z'
loop_
 _atom_site_type_symbol
 _atom_site_label
 _atom_site_symmetry_multiplicity
 _atom_site_fract_x
 _atom_site_fract_y
 _atom_site_fract_z
 _atom_site_occupancy
  Mn  Mn0  1  0.985412  0.276683  0.901574  1
  Mn  Mn1  1  0.985412  0.776683  0.598426  1
  Mn  Mn2  1  0.485412  0.223317  0.401574  1
  Mn  Mn3  1  0.485412  0.723317  0.098426  1
  O  O4  1  0.773679  0.097839  0.634143  1
  O  O5  1  0.773679  0.597839  0.865857  1
  O  O6  1  0.273679  0.902161  0.365857  1
  O  O7  1  0.273679  0.402161  0.134143  1
  F  F8  1  0.740910  0.538649  0.368507  1
  F  F9  1  0.740910  0.038649  0.131493  1
  F  F10  1  0.240910  0.461351  0.631493  1
  F  F11  1  0.240910  0.961351  0.868507  1
