# generated using pymatgen
data_Li6CrO4
_symmetry_space_group_name_H-M   'P 1'
_cell_length_a   6.78745874
_cell_length_b   6.78745874
_cell_length_c   4.60036698
_cell_angle_alpha   90.00000000
_cell_angle_beta   90.00000000
_cell_angle_gamma   90.00000000
_symmetry_Int_Tables_number   1
_chemical_formula_structural   Li6CrO4
_chemical_formula_sum   'Li12 Cr2 O8'
_cell_volume   211.93704901
_cell_formula_units_Z   2
loop_
 _symmetry_equiv_pos_site_id
 _symmetry_equiv_pos_as_xyz
  1  'x, y, z'
loop_
 _atom_site_type_symbol
 _atom_site_label
 _atom_site_symmetry_multiplicity
 _atom_site_fract_x
 _atom_site_fract_y
 _atom_site_fract_z
 _atom_site_occupancy
  Li  Li0  1  0.284504  0.284504  0.500000  1
  Li  Li1  1  0.715496  0.284504  0.500000  1
  Li  Li2  1  0.000000  0.500000  0.428448  1
  Li  Li3  1  0.000000  0.500000  0.928448  1
  Li  Li4  1  0.284504  0.715496  0.500000  1
  Li  Li5  1  0.715496  0.715496  0.500000  1
  Li  Li6  1  0.784504  0.784504  0.000000  1
  Li  Li7  1  0.215496  0.784504  0.000000  1
  Li  Li8  1  0.500000  0.000000  0.071552  1
  Li  Li9  1  0.500000  0.000000  0.571552  1
  Li  Li10  1  0.784504  0.215496  0.000000  1
  Li  Li11  1  0.215496  0.215496  0.000000  1
  Cr  Cr12  1  0.500000  0.500000  0.000000  1
  Cr  Cr13  1  0.000000  0.000000  0.500000  1
  O  O14  1  0.000000  0.270999  0.691767  1
  O  O15  1  0.770999  0.500000  0.191767  1
  O  O16  1  0.229001  0.500000  0.191767  1
  O  O17  1  0.000000  0.729001  0.691767  1
  O  O18  1  0.500000  0.770999  0.808233  1
  O  O19  1  0.729001  0.000000  0.308233  1
  O  O20  1  0.270999  0.000000  0.308233  1
  O  O21  1  0.500000  0.229001  0.808233  1
