# generated using pymatgen
data_Li2Cr4O13
_symmetry_space_group_name_H-M   'P 1'
_cell_length_a   7.64524924
_cell_length_b   7.64524924
_cell_length_c   14.05801024
_cell_angle_alpha   73.22173714
_cell_angle_beta   106.77826286
_cell_angle_gamma   126.85921506
_symmetry_Int_Tables_number   1
_chemical_formula_structural   Li2Cr4O13
_chemical_formula_sum   'Li4 Cr8 O26'
_cell_volume   622.25766755
_cell_formula_units_Z   2
loop_
 _symmetry_equiv_pos_site_id
 _symmetry_equiv_pos_as_xyz
  1  'x, y, z'
loop_
 _atom_site_type_symbol
 _atom_site_label
 _atom_site_symmetry_multiplicity
 _atom_site_fract_x
 _atom_site_fract_y
 _atom_site_fract_z
 _atom_site_occupancy
  Li  Li0  1  0.265587  0.729610  0.909888  1
  Li  Li1  1  0.729610  0.265587  0.590112  1
  Li  Li2  1  0.270390  0.734413  0.409888  1
  Li  Li3  1  0.734413  0.270390  0.090112  1
  Cr  Cr4  1  0.866926  0.845219  0.866463  1
  Cr  Cr5  1  0.154781  0.133074  0.366463  1
  Cr  Cr6  1  0.766605  0.225644  0.842633  1
  Cr  Cr7  1  0.225644  0.766605  0.657367  1
  Cr  Cr8  1  0.774356  0.233395  0.342633  1
  Cr  Cr9  1  0.233395  0.774356  0.157367  1
  Cr  Cr10  1  0.845219  0.866926  0.633537  1
  Cr  Cr11  1  0.133074  0.154781  0.133537  1
  O  O12  1  0.709142  0.676013  0.949014  1
  O  O13  1  0.102783  0.875785  0.900172  1
  O  O14  1  0.323987  0.290858  0.449014  1
  O  O15  1  0.102636  0.915284  0.649133  1
  O  O16  1  0.550624  0.048711  0.899261  1
  O  O17  1  0.933753  0.443377  0.899058  1
  O  O18  1  0.696429  0.292065  0.723994  1
  O  O19  1  0.124215  0.897217  0.400172  1
  O  O20  1  0.084716  0.897364  0.149133  1
  O  O21  1  0.292065  0.696429  0.776006  1
  O  O22  1  0.443377  0.933753  0.600942  1
  O  O23  1  0.048712  0.550624  0.600739  1
  O  O24  1  0.951288  0.449376  0.399261  1
  O  O25  1  0.556623  0.066247  0.399058  1
  O  O26  1  0.707935  0.303571  0.223994  1
  O  O27  1  0.915284  0.102636  0.850867  1
  O  O28  1  0.875785  0.102783  0.599828  1
  O  O29  1  0.303571  0.707935  0.276006  1
  O  O30  1  0.066247  0.556623  0.100942  1
  O  O31  1  0.449376  0.951288  0.100739  1
  O  O32  1  0.741657  0.741657  0.750000  1
  O  O33  1  0.897364  0.084716  0.350867  1
  O  O34  1  0.676013  0.709142  0.550986  1
  O  O35  1  0.897217  0.124215  0.099828  1
  O  O36  1  0.258343  0.258343  0.250000  1
  O  O37  1  0.290858  0.323987  0.050986  1
