# generated using pymatgen
data_Li4Ti3V2Ni3O16
_symmetry_space_group_name_H-M   'P 1'
_cell_length_a   5.92573898
_cell_length_b   5.92573898
_cell_length_c   9.57950912
_cell_angle_alpha   89.92364559
_cell_angle_beta   90.07635441
_cell_angle_gamma   120.31332259
_symmetry_Int_Tables_number   1
_chemical_formula_structural   Li4Ti3V2Ni3O16
_chemical_formula_sum   'Li4 Ti3 V2 Ni3 O16'
_cell_volume   290.38792850
_cell_formula_units_Z   1
loop_
 _symmetry_equiv_pos_site_id
 _symmetry_equiv_pos_as_xyz
  1  'x, y, z'
loop_
 _atom_site_type_symbol
 _atom_site_label
 _atom_site_symmetry_multiplicity
 _atom_site_fract_x
 _atom_site_fract_y
 _atom_site_fract_z
 _atom_site_occupancy
  Li  Li0  1  0.667531  0.332469  0.902723  1
  Li  Li1  1  0.993902  0.006098  0.984963  1
  Li  Li2  1  0.998513  0.001487  0.495953  1
  Li  Li3  1  0.336106  0.663894  0.405332  1
  Ti  Ti4  1  0.349249  0.153604  0.222457  1
  Ti  Ti5  1  0.846396  0.650751  0.222457  1
  Ti  Ti6  1  0.181979  0.818021  0.736407  1
  V  V7  1  0.665896  0.334104  0.502405  1
  V  V8  1  0.355481  0.644519  0.986478  1
  Ni  Ni9  1  0.829181  0.170819  0.208227  1
  Ni  Ni10  1  0.167505  0.341962  0.708092  1
  Ni  Ni11  1  0.658038  0.832495  0.708092  1
  O  O12  1  0.355081  0.177500  0.585839  1
  O  O13  1  0.519874  0.480126  0.337020  1
  O  O14  1  0.654656  0.345344  0.104118  1
  O  O15  1  0.001019  0.998981  0.304003  1
  O  O16  1  0.005986  0.994014  0.794166  1
  O  O17  1  0.822500  0.644919  0.585839  1
  O  O18  1  0.509471  0.037848  0.343763  1
  O  O19  1  0.962152  0.490529  0.343763  1
  O  O20  1  0.164595  0.835405  0.101001  1
  O  O21  1  0.822055  0.177945  0.582670  1
  O  O22  1  0.035425  0.525713  0.852410  1
  O  O23  1  0.474287  0.964575  0.852410  1
  O  O24  1  0.320701  0.679299  0.605424  1
  O  O25  1  0.175533  0.351558  0.088356  1
  O  O26  1  0.478172  0.521828  0.855124  1
  O  O27  1  0.648442  0.824467  0.088356  1
