# generated using pymatgen
data_Li6VCoP2(CO7)2
_symmetry_space_group_name_H-M   'P 1'
_cell_length_a   4.99369939
_cell_length_b   6.55552048
_cell_length_c   8.44905115
_cell_angle_alpha   90.00000000
_cell_angle_beta   95.00105636
_cell_angle_gamma   90.00000000
_symmetry_Int_Tables_number   1
_chemical_formula_structural   Li6VCoP2(CO7)2
_chemical_formula_sum   'Li6 V1 Co1 P2 C2 O14'
_cell_volume   275.53770635
_cell_formula_units_Z   1
loop_
 _symmetry_equiv_pos_site_id
 _symmetry_equiv_pos_as_xyz
  1  'x, y, z'
loop_
 _atom_site_type_symbol
 _atom_site_label
 _atom_site_symmetry_multiplicity
 _atom_site_fract_x
 _atom_site_fract_y
 _atom_site_fract_z
 _atom_site_occupancy
  Li  Li0  1  0.760912  0.500000  0.905682  1
  Li  Li1  1  0.247084  0.278109  0.723442  1
  Li  Li2  1  0.247084  0.721891  0.723442  1
  Li  Li3  1  0.754026  0.773538  0.276096  1
  Li  Li4  1  0.754026  0.226462  0.276096  1
  Li  Li5  1  0.238351  0.000000  0.092995  1
  V  V6  1  0.793272  0.000000  0.669984  1
  Co  Co7  1  0.210499  0.500000  0.332704  1
  P  P8  1  0.720432  0.500000  0.587296  1
  P  P9  1  0.280677  0.000000  0.411014  1
  C  C10  1  0.700567  0.000000  0.965571  1
  C  C11  1  0.295902  0.500000  0.036481  1
  O  O12  1  0.945635  0.000000  0.924853  1
  O  O13  1  0.355961  0.500000  0.889821  1
  O  O14  1  0.506694  0.000000  0.851940  1
  O  O15  1  0.825571  0.316458  0.691238  1
  O  O16  1  0.825571  0.683542  0.691238  1
  O  O17  1  0.180643  0.000000  0.579107  1
  O  O18  1  0.405674  0.500000  0.567976  1
  O  O19  1  0.594659  0.000000  0.429643  1
  O  O20  1  0.823721  0.500000  0.419952  1
  O  O21  1  0.174707  0.185772  0.308298  1
  O  O22  1  0.174707  0.814228  0.308298  1
  O  O23  1  0.487342  0.500000  0.151480  1
  O  O24  1  0.646573  0.000000  0.112358  1
  O  O25  1  0.049711  0.500000  0.072999  1
