# generated using pymatgen
data_Mn23FeO32
_symmetry_space_group_name_H-M   'P 1'
_cell_length_a   6.33246024
_cell_length_b   10.48612232
_cell_length_c   10.49754571
_cell_angle_alpha   105.89923752
_cell_angle_beta   94.44166995
_cell_angle_gamma   94.26787732
_symmetry_Int_Tables_number   1
_chemical_formula_structural   Mn23FeO32
_chemical_formula_sum   'Mn23 Fe1 O32'
_cell_volume   665.05542556
_cell_formula_units_Z   1
loop_
 _symmetry_equiv_pos_site_id
 _symmetry_equiv_pos_as_xyz
  1  'x, y, z'
loop_
 _atom_site_type_symbol
 _atom_site_label
 _atom_site_symmetry_multiplicity
 _atom_site_fract_x
 _atom_site_fract_y
 _atom_site_fract_z
 _atom_site_occupancy
  Mn  Mn0  1  0.996630  0.937210  0.812764  1
  Mn  Mn1  1  0.500202  0.063198  0.687121  1
  Mn  Mn2  1  0.500250  0.437582  0.812535  1
  Mn  Mn3  1  0.000031  0.250267  0.749790  1
  Mn  Mn4  1  0.750392  0.250092  0.500007  1
  Mn  Mn5  1  0.496241  0.751322  0.750895  1
  Mn  Mn6  1  0.000054  0.563086  0.687977  1
  Mn  Mn7  1  0.499798  0.936802  0.312879  1
  Mn  Mn8  1  0.500000  0.500000  0.500000  1
  Mn  Mn9  1  0.250200  0.249942  0.499692  1
  Mn  Mn10  1  0.000000  0.000000  0.500000  1
  Mn  Mn11  1  0.749800  0.750058  0.500308  1
  Mn  Mn12  1  0.503759  0.248678  0.249105  1
  Mn  Mn13  1  0.249608  0.749908  0.499993  1
  Mn  Mn14  1  0.751272  0.250175  0.999855  1
  Mn  Mn15  1  0.003370  0.062790  0.187236  1
  Mn  Mn16  1  0.499750  0.562418  0.187465  1
  Mn  Mn17  1  0.999946  0.436914  0.312023  1
  Mn  Mn18  1  0.747404  0.751183  0.001909  1
  Mn  Mn19  1  0.252596  0.248817  0.998091  1
  Mn  Mn20  1  0.999969  0.749733  0.250210  1
  Mn  Mn21  1  0.000000  0.500000  0.000000  1
  Mn  Mn22  1  0.248728  0.749825  0.000145  1
  Fe  Fe23  1  0.500000  0.000000  0.000000  1
  O  O24  1  0.772178  0.135481  0.620742  1
  O  O25  1  0.993468  0.357353  0.621310  1
  O  O26  1  0.493555  0.371340  0.606953  1
  O  O27  1  0.992652  0.871427  0.607528  1
  O  O28  1  0.228208  0.129078  0.614259  1
  O  O29  1  0.728123  0.629690  0.615444  1
  O  O30  1  0.728537  0.364804  0.379007  1
  O  O31  1  0.507471  0.142738  0.378227  1
  O  O32  1  0.271463  0.635196  0.620993  1
  O  O33  1  0.492529  0.857262  0.621773  1
  O  O34  1  0.007348  0.128573  0.392472  1
  O  O35  1  0.271877  0.370310  0.384556  1
  O  O36  1  0.771792  0.870922  0.385741  1
  O  O37  1  0.506445  0.628660  0.393047  1
  O  O38  1  0.995170  0.370664  0.106833  1
  O  O39  1  0.732946  0.131002  0.115511  1
  O  O40  1  0.771519  0.634982  0.121101  1
  O  O41  1  0.992194  0.857000  0.121764  1
  O  O42  1  0.006532  0.642647  0.378690  1
  O  O43  1  0.282750  0.127406  0.114946  1
  O  O44  1  0.227822  0.864519  0.379258  1
  O  O45  1  0.493044  0.356507  0.121466  1
  O  O46  1  0.772092  0.371197  0.885194  1
  O  O47  1  0.508142  0.131062  0.892240  1
  O  O48  1  0.491858  0.868938  0.107760  1
  O  O49  1  0.227908  0.628803  0.114806  1
  O  O50  1  0.228481  0.365018  0.878899  1
  O  O51  1  0.506956  0.643493  0.878534  1
  O  O52  1  0.007806  0.143000  0.878236  1
  O  O53  1  0.717250  0.872594  0.885054  1
  O  O54  1  0.004830  0.629336  0.893167  1
  O  O55  1  0.267054  0.868998  0.884489  1
