# generated using pymatgen
data_Co(IO3)2
_symmetry_space_group_name_H-M   'P 1'
_cell_length_a   11.09334282
_cell_length_b   11.09334282
_cell_length_c   5.13910843
_cell_angle_alpha   90.00000000
_cell_angle_beta   90.00000000
_cell_angle_gamma   120.00000000
_symmetry_Int_Tables_number   1
_chemical_formula_structural   Co(IO3)2
_chemical_formula_sum   'Co4 I8 O24'
_cell_volume   547.70068051
_cell_formula_units_Z   4
loop_
 _symmetry_equiv_pos_site_id
 _symmetry_equiv_pos_as_xyz
  1  'x, y, z'
loop_
 _atom_site_type_symbol
 _atom_site_label
 _atom_site_symmetry_multiplicity
 _atom_site_fract_x
 _atom_site_fract_y
 _atom_site_fract_z
 _atom_site_occupancy
  Co  Co0  1  0.336530  0.175331  0.066421  1
  Co  Co1  1  0.333333  0.666667  0.573248  1
  Co  Co2  1  0.838801  0.663470  0.066421  1
  Co  Co3  1  0.824669  0.161199  0.066421  1
  I  I4  1  0.498624  0.514035  0.997088  1
  I  I5  1  0.485965  0.984590  0.997088  1
  I  I6  1  0.666667  0.333333  0.459250  1
  I  I7  1  0.015410  0.501376  0.997088  1
  I  I8  1  0.679135  0.833364  0.485842  1
  I  I9  1  0.154229  0.320865  0.485842  1
  I  I10  1  0.000000  0.000000  0.011258  1
  I  I11  1  0.166636  0.845771  0.485842  1
  O  O12  1  0.480499  0.638289  0.782735  1
  O  O13  1  0.375136  0.348491  0.837424  1
  O  O14  1  0.511913  0.319100  0.296646  1
  O  O15  1  0.660924  0.536042  0.854170  1
  O  O16  1  0.463958  0.124882  0.854170  1
  O  O17  1  0.361711  0.842209  0.782735  1
  O  O18  1  0.807187  0.488087  0.296646  1
  O  O19  1  0.680900  0.192813  0.296646  1
  O  O20  1  0.510447  0.796709  0.348027  1
  O  O21  1  0.651509  0.026645  0.837424  1
  O  O22  1  0.973355  0.624864  0.837424  1
  O  O23  1  0.875118  0.339076  0.854170  1
  O  O24  1  0.795271  0.987983  0.289292  1
  O  O25  1  0.699835  0.703517  0.296831  1
  O  O26  1  0.003682  0.300165  0.296831  1
  O  O27  1  0.157791  0.519501  0.782735  1
  O  O28  1  0.952321  0.115101  0.834049  1
  O  O29  1  0.884899  0.837221  0.834049  1
  O  O30  1  0.286263  0.489553  0.348027  1
  O  O31  1  0.192712  0.204729  0.289292  1
  O  O32  1  0.012017  0.807288  0.289292  1
  O  O33  1  0.162779  0.047679  0.834049  1
  O  O34  1  0.296483  0.996318  0.296831  1
  O  O35  1  0.203291  0.713737  0.348027  1
