# generated using pymatgen
data_LiFe(PO3)4
_symmetry_space_group_name_H-M   'P 1'
_cell_length_a   7.22158542
_cell_length_b   9.51162019
_cell_length_c   7.22300593
_cell_angle_alpha   90.00000000
_cell_angle_beta   95.56423804
_cell_angle_gamma   90.00000000
_symmetry_Int_Tables_number   1
_chemical_formula_structural   LiFe(PO3)4
_chemical_formula_sum   'Li2 Fe2 P8 O24'
_cell_volume   493.80313401
_cell_formula_units_Z   2
loop_
 _symmetry_equiv_pos_site_id
 _symmetry_equiv_pos_as_xyz
  1  'x, y, z'
loop_
 _atom_site_type_symbol
 _atom_site_label
 _atom_site_symmetry_multiplicity
 _atom_site_fract_x
 _atom_site_fract_y
 _atom_site_fract_z
 _atom_site_occupancy
  Li  Li0  1  0.273956  0.017027  0.252277  1
  Li  Li1  1  0.726044  0.517027  0.747723  1
  Fe  Fe2  1  0.712054  0.760323  0.213716  1
  Fe  Fe3  1  0.287946  0.260323  0.786284  1
  P  P4  1  0.386228  0.383663  0.103539  1
  P  P5  1  0.789872  0.417268  0.153713  1
  P  P6  1  0.390022  0.597577  0.409276  1
  P  P7  1  0.015467  0.720469  0.542319  1
  P  P8  1  0.984533  0.220469  0.457681  1
  P  P9  1  0.609978  0.097577  0.590724  1
  P  P10  1  0.210128  0.917268  0.846287  1
  P  P11  1  0.613772  0.883663  0.896461  1
  O  O12  1  0.164011  0.896922  0.040206  1
  O  O13  1  0.613150  0.948327  0.089998  1
  O  O14  1  0.279255  0.245712  0.077892  1
  O  O15  1  0.591132  0.346208  0.192147  1
  O  O16  1  0.302023  0.485955  0.248239  1
  O  O17  1  0.093526  0.107469  0.380917  1
  O  O18  1  0.921540  0.333292  0.301336  1
  O  O19  1  0.922350  0.810577  0.382924  1
  O  O20  1  0.474885  0.718504  0.306103  1
  O  O21  1  0.784565  0.566343  0.225393  1
  O  O22  1  0.495385  0.021075  0.443843  1
  O  O23  1  0.206117  0.660560  0.478798  1
  O  O24  1  0.793883  0.160560  0.521202  1
  O  O25  1  0.504615  0.521075  0.556157  1
  O  O26  1  0.215435  0.066343  0.774607  1
  O  O27  1  0.525115  0.218504  0.693897  1
  O  O28  1  0.077650  0.310577  0.617076  1
  O  O29  1  0.078460  0.833292  0.698664  1
  O  O30  1  0.906474  0.607469  0.619083  1
  O  O31  1  0.697977  0.985955  0.751761  1
  O  O32  1  0.408868  0.846208  0.807853  1
  O  O33  1  0.720745  0.745712  0.922108  1
  O  O34  1  0.386850  0.448327  0.910002  1
  O  O35  1  0.835989  0.396922  0.959794  1
