# generated using pymatgen
data_Ni5(TeO6)2
_symmetry_space_group_name_H-M   'P 1'
_cell_length_a   5.18533684
_cell_length_b   5.18533684
_cell_length_c   9.94938680
_cell_angle_alpha   83.60187319
_cell_angle_beta   96.39812681
_cell_angle_gamma   58.66202739
_symmetry_Int_Tables_number   1
_chemical_formula_structural   Ni5(TeO6)2
_chemical_formula_sum   'Ni5 Te2 O12'
_cell_volume   222.49867225
_cell_formula_units_Z   1
loop_
 _symmetry_equiv_pos_site_id
 _symmetry_equiv_pos_as_xyz
  1  'x, y, z'
loop_
 _atom_site_type_symbol
 _atom_site_label
 _atom_site_symmetry_multiplicity
 _atom_site_fract_x
 _atom_site_fract_y
 _atom_site_fract_z
 _atom_site_occupancy
  Ni  Ni0  1  0.918134  0.918134  0.500000  1
  Ni  Ni1  1  0.471921  0.998525  0.243069  1
  Ni  Ni2  1  0.998525  0.471921  0.756931  1
  Ni  Ni3  1  0.578535  0.578535  0.500000  1
  Ni  Ni4  1  0.423929  0.423929  0.000000  1
  Te  Te5  1  0.752034  0.752034  0.000000  1
  Te  Te6  1  0.250101  0.250101  0.500000  1
  O  O7  1  0.744683  0.040594  0.116637  1
  O  O8  1  0.040594  0.744683  0.883363  1
  O  O9  1  0.625465  0.871660  0.610701  1
  O  O10  1  0.871660  0.625465  0.389299  1
  O  O11  1  0.503468  0.681514  0.111899  1
  O  O12  1  0.681514  0.503468  0.888101  1
  O  O13  1  0.284426  0.516150  0.613830  1
  O  O14  1  0.516150  0.284426  0.386170  1
  O  O15  1  0.156711  0.408883  0.109780  1
  O  O16  1  0.408883  0.156711  0.890220  1
  O  O17  1  0.984575  0.210115  0.614533  1
  O  O18  1  0.210115  0.984575  0.385467  1
