# generated using pymatgen
data_LiV2F5
_symmetry_space_group_name_H-M   'P 1'
_cell_length_a   6.00407250
_cell_length_b   6.00407250
_cell_length_c   7.75183548
_cell_angle_alpha   68.95724336
_cell_angle_beta   111.04275664
_cell_angle_gamma   127.52208416
_symmetry_Int_Tables_number   1
_chemical_formula_structural   LiV2F5
_chemical_formula_sum   'Li2 V4 F10'
_cell_volume   203.09970838
_cell_formula_units_Z   2
loop_
 _symmetry_equiv_pos_site_id
 _symmetry_equiv_pos_as_xyz
  1  'x, y, z'
loop_
 _atom_site_type_symbol
 _atom_site_label
 _atom_site_symmetry_multiplicity
 _atom_site_fract_x
 _atom_site_fract_y
 _atom_site_fract_z
 _atom_site_occupancy
  Li  Li0  1  0.000000  0.000000  0.000000  1
  Li  Li1  1  0.000000  0.000000  0.500000  1
  V  V2  1  0.625817  0.379176  0.714526  1
  V  V3  1  0.620824  0.374183  0.214526  1
  V  V4  1  0.379176  0.625817  0.785474  1
  V  V5  1  0.374183  0.620824  0.285474  1
  F  F6  1  0.795974  0.795974  0.250000  1
  F  F7  1  0.743137  0.578077  0.944519  1
  F  F8  1  0.966199  0.336265  0.350090  1
  F  F9  1  0.663735  0.033801  0.850090  1
  F  F10  1  0.421923  0.256863  0.444519  1
  F  F11  1  0.204026  0.204026  0.750000  1
  F  F12  1  0.578077  0.743137  0.555481  1
  F  F13  1  0.336265  0.966199  0.149910  1
  F  F14  1  0.033801  0.663735  0.649910  1
  F  F15  1  0.256863  0.421923  0.055481  1
