# generated using pymatgen
data_Li4V2C4SO16
_symmetry_space_group_name_H-M   'P 1'
_cell_length_a   9.74807484
_cell_length_b   9.64559507
_cell_length_c   9.31065283
_cell_angle_alpha   61.86358959
_cell_angle_beta   60.75713812
_cell_angle_gamma   57.37927228
_symmetry_Int_Tables_number   1
_chemical_formula_structural   Li4V2C4SO16
_chemical_formula_sum   'Li8 V4 C8 S2 O32'
_cell_volume   617.01375328
_cell_formula_units_Z   2
loop_
 _symmetry_equiv_pos_site_id
 _symmetry_equiv_pos_as_xyz
  1  'x, y, z'
loop_
 _atom_site_type_symbol
 _atom_site_label
 _atom_site_symmetry_multiplicity
 _atom_site_fract_x
 _atom_site_fract_y
 _atom_site_fract_z
 _atom_site_occupancy
  Li  Li0  1  0.047283  0.452717  0.047283  1
  Li  Li1  1  0.045860  0.454140  0.454140  1
  Li  Li2  1  0.797283  0.202717  0.797283  1
  Li  Li3  1  0.795860  0.204140  0.204140  1
  Li  Li4  1  0.454140  0.045860  0.045860  1
  Li  Li5  1  0.452717  0.047283  0.452717  1
  Li  Li6  1  0.204140  0.795860  0.795860  1
  Li  Li7  1  0.202717  0.797283  0.202717  1
  V  V8  1  0.625000  0.125000  0.625000  1
  V  V9  1  0.625000  0.625000  0.125000  1
  V  V10  1  0.625000  0.625000  0.625000  1
  V  V11  1  0.125000  0.625000  0.625000  1
  C  C12  1  0.411693  0.420515  0.779392  1
  C  C13  1  0.420515  0.411693  0.388401  1
  C  C14  1  0.861599  0.470608  0.829485  1
  C  C15  1  0.779392  0.388401  0.411693  1
  C  C16  1  0.470608  0.861599  0.838307  1
  C  C17  1  0.388401  0.779392  0.420515  1
  C  C18  1  0.829485  0.838307  0.861599  1
  C  C19  1  0.838307  0.829485  0.470608  1
  S  S20  1  0.250000  0.250000  0.250000  1
  S  S21  1  1.000000  0.000000  1.000000  1
  O  O22  1  0.271595  0.537700  0.405997  1
  O  O23  1  0.427376  0.548625  0.773561  1
  O  O24  1  0.548625  0.427376  0.250438  1
  O  O25  1  0.781512  0.508325  0.267294  1
  O  O26  1  0.741675  0.468488  0.807130  1
  O  O27  1  0.537700  0.271595  0.784709  1
  O  O28  1  0.844003  0.465291  0.978405  1
  O  O29  1  0.784709  0.405997  0.537700  1
  O  O30  1  0.999562  0.476439  0.701375  1
  O  O31  1  0.773561  0.250438  0.427376  1
  O  O32  1  0.171425  0.442165  0.194419  1
  O  O33  1  0.807835  0.078575  0.058009  1
  O  O34  1  0.267294  0.442870  0.781512  1
  O  O35  1  0.807130  0.982706  0.741675  1
  O  O36  1  0.191991  0.194419  0.442165  1
  O  O37  1  0.194419  0.191991  0.171425  1
  O  O38  1  0.055581  0.058009  0.078575  1
  O  O39  1  0.058009  0.055581  0.807835  1
  O  O40  1  0.442870  0.267294  0.508325  1
  O  O41  1  0.982706  0.807130  0.468488  1
  O  O42  1  0.442165  0.171425  0.191991  1
  O  O43  1  0.078575  0.807835  0.055581  1
  O  O44  1  0.476439  0.999562  0.822624  1
  O  O45  1  0.250438  0.773561  0.548625  1
  O  O46  1  0.465291  0.844003  0.712300  1
  O  O47  1  0.405997  0.784709  0.271595  1
  O  O48  1  0.712300  0.978405  0.465291  1
  O  O49  1  0.508325  0.781512  0.442870  1
  O  O50  1  0.468488  0.741675  0.982706  1
  O  O51  1  0.701375  0.822624  0.999562  1
  O  O52  1  0.822624  0.701375  0.476439  1
  O  O53  1  0.978405  0.712300  0.844003  1
