# generated using pymatgen
data_Li4Mn3Cr(PO4)4
_symmetry_space_group_name_H-M   'P 1'
_cell_length_a   4.79138602
_cell_length_b   6.22609108
_cell_length_c   10.47440026
_cell_angle_alpha   90.00000000
_cell_angle_beta   90.97185232
_cell_angle_gamma   90.00000000
_symmetry_Int_Tables_number   1
_chemical_formula_structural   Li4Mn3Cr(PO4)4
_chemical_formula_sum   'Li4 Mn3 Cr1 P4 O16'
_cell_volume   312.42322978
_cell_formula_units_Z   1
loop_
 _symmetry_equiv_pos_site_id
 _symmetry_equiv_pos_as_xyz
  1  'x, y, z'
loop_
 _atom_site_type_symbol
 _atom_site_label
 _atom_site_symmetry_multiplicity
 _atom_site_fract_x
 _atom_site_fract_y
 _atom_site_fract_z
 _atom_site_occupancy
  Li  Li0  1  0.002993  0.249345  0.001479  1
  Li  Li1  1  0.002993  0.750655  0.001479  1
  Li  Li2  1  0.499621  0.751221  0.498932  1
  Li  Li3  1  0.499621  0.248779  0.498932  1
  Mn  Mn4  1  0.029716  0.000000  0.719158  1
  Mn  Mn5  1  0.469807  0.000000  0.217938  1
  Mn  Mn6  1  0.529332  0.500000  0.781497  1
  Cr  Cr7  1  0.951777  0.500000  0.284048  1
  P  P8  1  0.085917  0.500000  0.589969  1
  P  P9  1  0.411337  0.500000  0.095168  1
  P  P10  1  0.592272  0.000000  0.907608  1
  P  P11  1  0.911878  0.000000  0.408131  1
  O  O12  1  0.196738  0.500000  0.450730  1
  O  O13  1  0.222820  0.300995  0.658737  1
  O  O14  1  0.222820  0.699005  0.658737  1
  O  O15  1  0.233242  0.000000  0.405898  1
  O  O16  1  0.270639  0.000000  0.902425  1
  O  O17  1  0.281537  0.298483  0.160633  1
  O  O18  1  0.281537  0.701517  0.160633  1
  O  O19  1  0.295909  0.500000  0.955096  1
  O  O20  1  0.716009  0.000000  0.045716  1
  O  O21  1  0.722813  0.800591  0.838373  1
  O  O22  1  0.722813  0.199409  0.838373  1
  O  O23  1  0.734866  0.500000  0.104011  1
  O  O24  1  0.764856  0.500000  0.595240  1
  O  O25  1  0.777804  0.802194  0.337931  1
  O  O26  1  0.777804  0.197806  0.337931  1
  O  O27  1  0.790530  0.000000  0.545197  1
