# generated using pymatgen
data_Li2NbFe3O8
_symmetry_space_group_name_H-M   'P 1'
_cell_length_a   6.12313889
_cell_length_b   6.12313889
_cell_length_c   6.12313889
_cell_angle_alpha   59.19056196
_cell_angle_beta   59.19056196
_cell_angle_gamma   59.19056196
_symmetry_Int_Tables_number   1
_chemical_formula_structural   Li2NbFe3O8
_chemical_formula_sum   'Li2 Nb1 Fe3 O8'
_cell_volume   159.33928626
_cell_formula_units_Z   1
loop_
 _symmetry_equiv_pos_site_id
 _symmetry_equiv_pos_as_xyz
  1  'x, y, z'
loop_
 _atom_site_type_symbol
 _atom_site_label
 _atom_site_symmetry_multiplicity
 _atom_site_fract_x
 _atom_site_fract_y
 _atom_site_fract_z
 _atom_site_occupancy
  Li  Li0  1  0.871791  0.871791  0.871791  1
  Li  Li1  1  0.128209  0.128209  0.128209  1
  Nb  Nb2  1  0.500000  0.500000  0.500000  1
  Fe  Fe3  1  0.500000  0.500000  0.000000  1
  Fe  Fe4  1  1.000000  0.500000  0.500000  1
  Fe  Fe5  1  0.500000  0.000000  0.500000  1
  O  O6  1  0.734050  0.734050  0.734050  1
  O  O7  1  0.735114  0.281420  0.735114  1
  O  O8  1  0.281420  0.735114  0.735114  1
  O  O9  1  0.735114  0.735114  0.281420  1
  O  O10  1  0.264886  0.264886  0.718580  1
  O  O11  1  0.718580  0.264886  0.264886  1
  O  O12  1  0.264886  0.718580  0.264886  1
  O  O13  1  0.265950  0.265950  0.265950  1
