# generated using pymatgen
data_Li4Mn3Fe(BO3)4
_symmetry_space_group_name_H-M   'P 1'
_cell_length_a   5.25858790
_cell_length_b   9.08386992
_cell_length_c   10.48570193
_cell_angle_alpha   88.44387895
_cell_angle_beta   88.87190200
_cell_angle_gamma   89.73099656
_symmetry_Int_Tables_number   1
_chemical_formula_structural   Li4Mn3Fe(BO3)4
_chemical_formula_sum   'Li8 Mn6 Fe2 B8 O24'
_cell_volume   500.59834664
_cell_formula_units_Z   2
loop_
 _symmetry_equiv_pos_site_id
 _symmetry_equiv_pos_as_xyz
  1  'x, y, z'
loop_
 _atom_site_type_symbol
 _atom_site_label
 _atom_site_symmetry_multiplicity
 _atom_site_fract_x
 _atom_site_fract_y
 _atom_site_fract_z
 _atom_site_occupancy
  Li  Li0  1  0.147010  0.174169  0.667264  1
  Li  Li1  1  0.186881  0.160769  0.167478  1
  Li  Li2  1  0.321150  0.331678  0.417779  1
  Li  Li3  1  0.336557  0.325444  0.917546  1
  Li  Li4  1  0.645910  0.674358  0.668364  1
  Li  Li5  1  0.687831  0.660575  0.168079  1
  Li  Li6  1  0.821389  0.831474  0.417156  1
  Li  Li7  1  0.836520  0.825730  0.917298  1
  Mn  Mn8  1  0.177771  0.498604  0.133191  1
  Mn  Mn9  1  0.331065  0.664216  0.385262  1
  Mn  Mn10  1  0.330663  0.996933  0.882161  1
  Mn  Mn11  1  0.660150  0.338566  0.631012  1
  Mn  Mn12  1  0.677782  0.999419  0.133938  1
  Mn  Mn13  1  0.831107  0.498296  0.883060  1
  Fe  Fe14  1  0.154060  0.840921  0.632866  1
  Fe  Fe15  1  0.838218  0.162703  0.382245  1
  B  B16  1  0.174062  0.829533  0.126352  1
  B  B17  1  0.157372  0.502908  0.626520  1
  B  B18  1  0.334244  0.999351  0.378015  1
  B  B19  1  0.327296  0.667237  0.874759  1
  B  B20  1  0.673742  0.329338  0.126827  1
  B  B21  1  0.660206  0.999766  0.624257  1
  B  B22  1  0.836544  0.496014  0.375233  1
  B  B23  1  0.827507  0.166974  0.875327  1
  O  O24  1  0.096635  0.480964  0.345297  1
  O  O25  1  0.088994  0.179365  0.860721  1
  O  O26  1  0.172336  0.788614  0.843451  1
  O  O27  1  0.193736  0.876873  0.418713  1
  O  O28  1  0.216929  0.135944  0.362816  1
  O  O29  1  0.217844  0.534730  0.917788  1
  O  O30  1  0.266556  0.365132  0.611092  1
  O  O31  1  0.288511  0.965549  0.095982  1
  O  O32  1  0.301805  0.629453  0.597640  1
  O  O33  1  0.323572  0.710745  0.167603  1
  O  O34  1  0.414122  0.313854  0.111970  1
  O  O35  1  0.405745  0.011145  0.663602  1
  O  O36  1  0.594426  0.986527  0.348347  1
  O  O37  1  0.588635  0.680196  0.861134  1
  O  O38  1  0.672862  0.288692  0.844456  1
  O  O39  1  0.695062  0.372974  0.415690  1
  O  O40  1  0.723311  0.633412  0.362198  1
  O  O41  1  0.717001  0.034622  0.917610  1
  O  O42  1  0.787904  0.465313  0.095752  1
  O  O43  1  0.774255  0.862209  0.612315  1
  O  O44  1  0.802989  0.125962  0.594356  1
  O  O45  1  0.823143  0.210689  0.168347  1
  O  O46  1  0.914099  0.814563  0.112050  1
  O  O47  1  0.903891  0.516899  0.666682  1
