# generated using pymatgen
data_LiFeSiO4
_symmetry_space_group_name_H-M   'P 1'
_cell_length_a   5.13673199
_cell_length_b   10.29992777
_cell_length_c   13.46509955
_cell_angle_alpha   90.00000000
_cell_angle_beta   90.00000000
_cell_angle_gamma   90.00000000
_symmetry_Int_Tables_number   1
_chemical_formula_structural   LiFeSiO4
_chemical_formula_sum   'Li8 Fe8 Si8 O32'
_cell_volume   712.41106245
_cell_formula_units_Z   8
loop_
 _symmetry_equiv_pos_site_id
 _symmetry_equiv_pos_as_xyz
  1  'x, y, z'
loop_
 _atom_site_type_symbol
 _atom_site_label
 _atom_site_symmetry_multiplicity
 _atom_site_fract_x
 _atom_site_fract_y
 _atom_site_fract_z
 _atom_site_occupancy
  Li  Li0  1  0.066054  0.036689  0.246369  1
  Li  Li1  1  0.552553  0.211282  0.998522  1
  Li  Li2  1  0.552553  0.288718  0.498522  1
  Li  Li3  1  0.066054  0.463311  0.746369  1
  Li  Li4  1  0.933946  0.536689  0.246369  1
  Li  Li5  1  0.447447  0.711282  0.998522  1
  Li  Li6  1  0.447447  0.788718  0.498522  1
  Li  Li7  1  0.933946  0.963311  0.746369  1
  Fe  Fe8  1  0.918265  0.033168  0.496745  1
  Fe  Fe9  1  0.555135  0.214339  0.250436  1
  Fe  Fe10  1  0.555135  0.285661  0.750436  1
  Fe  Fe11  1  0.918265  0.466832  0.996745  1
  Fe  Fe12  1  0.081735  0.533168  0.496745  1
  Fe  Fe13  1  0.444865  0.714339  0.250436  1
  Fe  Fe14  1  0.444865  0.785661  0.750436  1
  Fe  Fe15  1  0.081735  0.966832  0.996745  1
  Si  Si16  1  0.429635  0.034427  0.624287  1
  Si  Si17  1  0.052057  0.216401  0.872536  1
  Si  Si18  1  0.052057  0.283599  0.372536  1
  Si  Si19  1  0.429635  0.465573  0.124287  1
  Si  Si20  1  0.570365  0.534427  0.624287  1
  Si  Si21  1  0.947943  0.716401  0.872536  1
  Si  Si22  1  0.947943  0.783599  0.372536  1
  Si  Si23  1  0.570365  0.965573  0.124287  1
  O  O24  1  0.883698  0.996005  0.115196  1
  O  O25  1  0.574924  0.975003  0.525085  1
  O  O26  1  0.452490  0.040739  0.222500  1
  O  O27  1  0.990449  0.059606  0.878640  1
  O  O28  1  0.491300  0.190457  0.631822  1
  O  O29  1  0.920648  0.214479  0.470766  1
  O  O30  1  0.920106  0.282525  0.773498  1
  O  O31  1  0.368366  0.242381  0.867997  1
  O  O32  1  0.368366  0.257619  0.367997  1
  O  O33  1  0.920106  0.217475  0.273498  1
  O  O34  1  0.920648  0.285521  0.970766  1
  O  O35  1  0.491300  0.309543  0.131822  1
  O  O36  1  0.990449  0.440394  0.378640  1
  O  O37  1  0.452490  0.459261  0.722500  1
  O  O38  1  0.574924  0.524997  0.025085  1
  O  O39  1  0.883698  0.503995  0.615196  1
  O  O40  1  0.116302  0.496005  0.115196  1
  O  O41  1  0.425076  0.475003  0.525085  1
  O  O42  1  0.547510  0.540739  0.222500  1
  O  O43  1  0.009551  0.559606  0.878640  1
  O  O44  1  0.508700  0.690457  0.631822  1
  O  O45  1  0.079352  0.714479  0.470766  1
  O  O46  1  0.079894  0.782525  0.773498  1
  O  O47  1  0.631634  0.742381  0.867997  1
  O  O48  1  0.631634  0.757619  0.367997  1
  O  O49  1  0.079894  0.717475  0.273498  1
  O  O50  1  0.079352  0.785521  0.970766  1
  O  O51  1  0.508700  0.809543  0.131822  1
  O  O52  1  0.009551  0.940394  0.378640  1
  O  O53  1  0.547510  0.959261  0.722500  1
  O  O54  1  0.425076  0.024997  0.025085  1
  O  O55  1  0.116302  0.003995  0.615196  1
