# generated using pymatgen
data_Li10CoNi9O20
_symmetry_space_group_name_H-M   'P 1'
_cell_length_a   5.71465514
_cell_length_b   2.79205842
_cell_length_c   21.47679976
_cell_angle_alpha   90.00000000
_cell_angle_beta   97.51296427
_cell_angle_gamma   90.00000000
_symmetry_Int_Tables_number   1
_chemical_formula_structural   Li10CoNi9O20
_chemical_formula_sum   'Li10 Co1 Ni9 O20'
_cell_volume   339.73454838
_cell_formula_units_Z   1
loop_
 _symmetry_equiv_pos_site_id
 _symmetry_equiv_pos_as_xyz
  1  'x, y, z'
loop_
 _atom_site_type_symbol
 _atom_site_label
 _atom_site_symmetry_multiplicity
 _atom_site_fract_x
 _atom_site_fract_y
 _atom_site_fract_z
 _atom_site_occupancy
  Li  Li0  1  0.696288  0.500000  0.901140  1
  Li  Li1  1  0.900169  0.000000  0.798206  1
  Li  Li2  1  0.101068  0.500000  0.700319  1
  Li  Li3  1  0.300185  0.000000  0.600098  1
  Li  Li4  1  0.500000  0.500000  0.500000  1
  Li  Li5  1  0.699815  0.000000  0.399902  1
  Li  Li6  1  0.099831  0.000000  0.201794  1
  Li  Li7  1  0.898932  0.500000  0.299681  1
  Li  Li8  1  0.303712  0.500000  0.098860  1
  Li  Li9  1  0.500000  0.000000  0.000000  1
  Co  Co10  1  0.000000  0.000000  0.000000  1
  Ni  Ni11  1  0.202079  0.500000  0.903141  1
  Ni  Ni12  1  0.399625  0.000000  0.801241  1
  Ni  Ni13  1  0.599855  0.500000  0.700333  1
  Ni  Ni14  1  0.800125  0.000000  0.600076  1
  Ni  Ni15  1  0.199875  0.000000  0.399924  1
  Ni  Ni16  1  0.000000  0.500000  0.500000  1
  Ni  Ni17  1  0.400145  0.500000  0.299667  1
  Ni  Ni18  1  0.600375  0.000000  0.198759  1
  Ni  Ni19  1  0.797921  0.500000  0.096859  1
  O  O20  1  0.228053  0.500000  0.000691  1
  O  O21  1  0.427186  0.000000  0.899697  1
  O  O22  1  0.170609  0.500000  0.801450  1
  O  O23  1  0.976651  0.000000  0.909206  1
  O  O24  1  0.374200  0.000000  0.700370  1
  O  O25  1  0.628118  0.500000  0.800801  1
  O  O26  1  0.025320  0.500000  0.600102  1
  O  O27  1  0.825439  0.000000  0.700117  1
  O  O28  1  0.574938  0.500000  0.600002  1
  O  O29  1  0.225270  0.000000  0.500057  1
  O  O30  1  0.774730  0.000000  0.499943  1
  O  O31  1  0.174561  0.000000  0.299883  1
  O  O32  1  0.425062  0.500000  0.399998  1
  O  O33  1  0.974680  0.500000  0.399898  1
  O  O34  1  0.625800  0.000000  0.299630  1
  O  O35  1  0.371882  0.500000  0.199199  1
  O  O36  1  0.023349  0.000000  0.090794  1
  O  O37  1  0.829391  0.500000  0.198550  1
  O  O38  1  0.572814  0.000000  0.100303  1
  O  O39  1  0.771947  0.500000  0.999309  1
