# generated using pymatgen
data_Ba3(BrO)2
_symmetry_space_group_name_H-M   'P 1'
_cell_length_a   7.59881110
_cell_length_b   8.20069568
_cell_length_c   7.89815462
_cell_angle_alpha   90.00000000
_cell_angle_beta   114.75523827
_cell_angle_gamma   90.00000000
_symmetry_Int_Tables_number   1
_chemical_formula_structural   Ba3(BrO)2
_chemical_formula_sum   'Ba6 Br4 O4'
_cell_volume   446.94902316
_cell_formula_units_Z   2
loop_
 _symmetry_equiv_pos_site_id
 _symmetry_equiv_pos_as_xyz
  1  'x, y, z'
loop_
 _atom_site_type_symbol
 _atom_site_label
 _atom_site_symmetry_multiplicity
 _atom_site_fract_x
 _atom_site_fract_y
 _atom_site_fract_z
 _atom_site_occupancy
  Ba  Ba0  1  0.000000  0.500000  0.500000  1
  Ba  Ba1  1  0.000000  0.000000  0.000000  1
  Ba  Ba2  1  0.408776  0.875319  0.776460  1
  Ba  Ba3  1  0.591224  0.375319  0.723540  1
  Ba  Ba4  1  0.408776  0.624681  0.276460  1
  Ba  Ba5  1  0.591224  0.124681  0.223540  1
  Br  Br6  1  0.185317  0.351383  0.927331  1
  Br  Br7  1  0.185317  0.148617  0.427331  1
  Br  Br8  1  0.814683  0.851383  0.572669  1
  Br  Br9  1  0.814683  0.648617  0.072669  1
  O  O10  1  0.339823  0.609978  0.566425  1
  O  O11  1  0.660177  0.109978  0.933575  1
  O  O12  1  0.339823  0.890022  0.066425  1
  O  O13  1  0.660177  0.390022  0.433575  1
