# generated using pymatgen
data_LiSiBiO4
_symmetry_space_group_name_H-M   'P 1'
_cell_length_a   5.96667898
_cell_length_b   8.94894774
_cell_length_c   21.12076364
_cell_angle_alpha   90.00000000
_cell_angle_beta   90.00000000
_cell_angle_gamma   90.00000000
_symmetry_Int_Tables_number   1
_chemical_formula_structural   LiSiBiO4
_chemical_formula_sum   'Li12 Si12 Bi12 O48'
_cell_volume   1127.75370058
_cell_formula_units_Z   12
loop_
 _symmetry_equiv_pos_site_id
 _symmetry_equiv_pos_as_xyz
  1  'x, y, z'
loop_
 _atom_site_type_symbol
 _atom_site_label
 _atom_site_symmetry_multiplicity
 _atom_site_fract_x
 _atom_site_fract_y
 _atom_site_fract_z
 _atom_site_occupancy
  Li  Li0  1  0.081525  0.760998  0.994621  1
  Li  Li1  1  0.581525  0.239002  0.005379  1
  Li  Li2  1  0.391380  0.254831  0.169907  1
  Li  Li3  1  0.070137  0.741390  0.162129  1
  Li  Li4  1  0.570137  0.241390  0.337871  1
  Li  Li5  1  0.891380  0.754831  0.330093  1
  Li  Li6  1  0.081525  0.739002  0.494621  1
  Li  Li7  1  0.581525  0.260998  0.505379  1
  Li  Li8  1  0.391380  0.245169  0.669907  1
  Li  Li9  1  0.070137  0.758610  0.662129  1
  Li  Li10  1  0.570137  0.258610  0.837871  1
  Li  Li11  1  0.891380  0.745169  0.830093  1
  Si  Si12  1  0.023093  0.059424  0.079056  1
  Si  Si13  1  0.459073  0.555247  0.086717  1
  Si  Si14  1  0.990733  0.446856  0.248335  1
  Si  Si15  1  0.490733  0.946856  0.251665  1
  Si  Si16  1  0.959073  0.055247  0.413283  1
  Si  Si17  1  0.523093  0.559424  0.420944  1
  Si  Si18  1  0.023093  0.440576  0.579056  1
  Si  Si19  1  0.459073  0.944753  0.586717  1
  Si  Si20  1  0.990733  0.053144  0.748335  1
  Si  Si21  1  0.490733  0.553144  0.751665  1
  Si  Si22  1  0.959073  0.444753  0.913283  1
  Si  Si23  1  0.523093  0.940576  0.920944  1
  Bi  Bi24  1  0.942744  0.485160  0.076870  1
  Bi  Bi25  1  0.552953  0.977581  0.093604  1
  Bi  Bi26  1  0.971267  0.018895  0.241335  1
  Bi  Bi27  1  0.471267  0.518895  0.258665  1
  Bi  Bi28  1  0.052953  0.477581  0.406396  1
  Bi  Bi29  1  0.442744  0.985160  0.423130  1
  Bi  Bi30  1  0.942744  0.014840  0.576870  1
  Bi  Bi31  1  0.552953  0.522419  0.593604  1
  Bi  Bi32  1  0.971267  0.481105  0.741335  1
  Bi  Bi33  1  0.471267  0.981105  0.758665  1
  Bi  Bi34  1  0.052953  0.022419  0.906396  1
  Bi  Bi35  1  0.442744  0.514840  0.923130  1
  O  O36  1  0.541119  0.032504  0.987280  1
  O  O37  1  0.041119  0.967496  0.012720  1
  O  O38  1  0.470729  0.434701  0.027709  1
  O  O39  1  0.224099  0.655421  0.081164  1
  O  O40  1  0.685579  0.662014  0.080337  1
  O  O41  1  0.795341  0.169068  0.078217  1
  O  O42  1  0.256098  0.144849  0.098332  1
  O  O43  1  0.952671  0.935203  0.134759  1
  O  O44  1  0.470160  0.460441  0.152665  1
  O  O45  1  0.962604  0.540001  0.182578  1
  O  O46  1  0.557236  0.072470  0.196906  1
  O  O47  1  0.715624  0.835511  0.253294  1
  O  O48  1  0.259834  0.855780  0.231379  1
  O  O49  1  0.215624  0.335511  0.246706  1
  O  O50  1  0.759834  0.355780  0.268621  1
  O  O51  1  0.057236  0.572470  0.303094  1
  O  O52  1  0.462604  0.040001  0.317422  1
  O  O53  1  0.970160  0.960441  0.347335  1
  O  O54  1  0.452671  0.435203  0.365241  1
  O  O55  1  0.756098  0.644849  0.401668  1
  O  O56  1  0.295341  0.669068  0.421783  1
  O  O57  1  0.185579  0.162014  0.419663  1
  O  O58  1  0.724099  0.155421  0.418836  1
  O  O59  1  0.970729  0.934701  0.472291  1
  O  O60  1  0.541119  0.467496  0.487280  1
  O  O61  1  0.041119  0.532504  0.512720  1
  O  O62  1  0.470729  0.065299  0.527709  1
  O  O63  1  0.224099  0.844579  0.581164  1
  O  O64  1  0.685579  0.837986  0.580337  1
  O  O65  1  0.795341  0.330932  0.578217  1
  O  O66  1  0.256098  0.355151  0.598332  1
  O  O67  1  0.952671  0.564797  0.634759  1
  O  O68  1  0.470160  0.039559  0.652665  1
  O  O69  1  0.962604  0.959999  0.682578  1
  O  O70  1  0.557236  0.427530  0.696906  1
  O  O71  1  0.259834  0.644220  0.731379  1
  O  O72  1  0.715624  0.664489  0.753294  1
  O  O73  1  0.759834  0.144220  0.768621  1
  O  O74  1  0.215624  0.164489  0.746706  1
  O  O75  1  0.057236  0.927530  0.803094  1
  O  O76  1  0.462604  0.459999  0.817422  1
  O  O77  1  0.970160  0.539559  0.847335  1
  O  O78  1  0.452671  0.064797  0.865241  1
  O  O79  1  0.756098  0.855151  0.901668  1
  O  O80  1  0.295341  0.830932  0.921783  1
  O  O81  1  0.185579  0.337986  0.919663  1
  O  O82  1  0.724099  0.344579  0.918836  1
  O  O83  1  0.970729  0.565299  0.972291  1
