# generated using pymatgen
data_Na9Ti20O40
_symmetry_space_group_name_H-M   'P 1'
_cell_length_a   10.64753267
_cell_length_b   10.64753267
_cell_length_c   10.64753267
_cell_angle_alpha   99.59266040
_cell_angle_beta   99.59266040
_cell_angle_gamma   131.81403976
_symmetry_Int_Tables_number   1
_chemical_formula_structural   Na9Ti20O40
_chemical_formula_sum   'Na9 Ti20 O40'
_cell_volume   821.29868337
_cell_formula_units_Z   1
loop_
 _symmetry_equiv_pos_site_id
 _symmetry_equiv_pos_as_xyz
  1  'x, y, z'
loop_
 _atom_site_type_symbol
 _atom_site_label
 _atom_site_symmetry_multiplicity
 _atom_site_fract_x
 _atom_site_fract_y
 _atom_site_fract_z
 _atom_site_occupancy
  Na  Na0  1  0.947967  0.649459  0.099390  1
  Na  Na1  1  0.350541  0.449931  0.298509  1
  Na  Na2  1  0.299841  0.100086  0.399918  1
  Na  Na3  1  0.899914  0.299832  0.199755  1
  Na  Na4  1  0.151422  0.052033  0.701491  1
  Na  Na5  1  0.750000  0.250000  0.500000  1
  Na  Na6  1  0.100077  0.700159  0.800245  1
  Na  Na7  1  0.700168  0.899923  0.600082  1
  Na  Na8  1  0.550069  0.848578  0.900610  1
  Ti  Ti9  1  0.919640  0.968676  0.147734  1
  Ti  Ti10  1  0.228094  0.080360  0.049035  1
  Ti  Ti11  1  0.524264  0.178034  0.950950  1
  Ti  Ti12  1  0.623217  0.375725  0.246830  1
  Ti  Ti13  1  0.821966  0.772916  0.346230  1
  Ti  Ti14  1  0.227084  0.573315  0.049050  1
  Ti  Ti15  1  0.424274  0.974851  0.150676  1
  Ti  Ti16  1  0.031324  0.179059  0.950965  1
  Ti  Ti17  1  0.426685  0.475736  0.653770  1
  Ti  Ti18  1  0.024417  0.674969  0.451010  1
  Ti  Ti19  1  0.726403  0.575726  0.550577  1
  Ti  Ti20  1  0.624275  0.871105  0.247492  1
  Ti  Ti21  1  0.325031  0.776041  0.349448  1
  Ti  Ti22  1  0.623613  0.376783  0.752508  1
  Ti  Ti23  1  0.820941  0.771906  0.852266  1
  Ti  Ti24  1  0.426593  0.975583  0.650552  1
  Ti  Ti25  1  0.025149  0.175826  0.449423  1
  Ti  Ti26  1  0.223959  0.573407  0.548990  1
  Ti  Ti27  1  0.824174  0.273597  0.849324  1
  Ti  Ti28  1  0.128895  0.376387  0.753170  1
  O  O29  1  0.808872  0.937077  0.957149  1
  O  O30  1  0.148277  0.191128  0.128205  1
  O  O31  1  0.979928  0.851723  0.042851  1
  O  O32  1  0.300692  0.958452  0.972022  1
  O  O33  1  0.471422  0.300717  0.056965  1
  O  O34  1  0.699283  0.756248  0.170704  1
  O  O35  1  0.785594  0.928200  0.427613  1
  O  O36  1  0.986430  0.328670  0.027978  1
  O  O37  1  0.642019  0.214406  0.142607  1
  O  O38  1  0.385971  0.129127  0.227914  1
  O  O39  1  0.041548  0.013570  0.342240  1
  O  O40  1  0.864937  0.621667  0.272549  1
  O  O41  1  0.463783  0.822013  0.072106  1
  O  O42  1  0.207565  0.735804  0.157143  1
  O  O43  1  0.608323  0.536217  0.358230  1
  O  O44  1  0.778526  0.450717  0.442574  1
  O  O45  1  0.549283  0.991857  0.327809  1
  O  O46  1  0.378333  0.650883  0.243271  1
  O  O47  1  0.949578  0.792435  0.528239  1
  O  O48  1  0.177987  0.250093  0.641770  1
  O  O49  1  0.271389  0.899477  0.457337  1
  O  O50  1  0.870873  0.098788  0.256845  1
  O  O51  1  0.671330  0.699308  0.657760  1
  O  O52  1  0.500587  0.357981  0.572387  1
  O  O53  1  0.100523  0.557860  0.371913  1
  O  O54  1  0.585544  0.528578  0.829296  1
  O  O55  1  0.841943  0.614029  0.743155  1
  O  O56  1  0.442140  0.814053  0.542663  1
  O  O57  1  0.185947  0.728611  0.628087  1
  O  O58  1  0.407612  0.135063  0.756729  1
  O  O59  1  0.062923  0.020072  0.871795  1
  O  O60  1  0.008143  0.335952  0.557426  1
  O  O61  1  0.664048  0.221474  0.672191  1
  O  O62  1  0.264196  0.421339  0.471761  1
  O  O63  1  0.349117  0.592388  0.727451  1
  O  O64  1  0.749907  0.391677  0.927894  1
  O  O65  1  0.578661  0.050422  0.842857  1
  O  O66  1  0.071800  0.499413  0.857393  1
  O  O67  1  0.901212  0.158057  0.772086  1
  O  O68  1  0.243752  0.414456  0.943035  1
