# generated using pymatgen
data_Li5BO4
_symmetry_space_group_name_H-M   'P 1'
_cell_length_a   4.57480765
_cell_length_b   5.97488364
_cell_length_c   6.09052082
_cell_angle_alpha   90.00000000
_cell_angle_beta   90.00000000
_cell_angle_gamma   90.00000000
_symmetry_Int_Tables_number   1
_chemical_formula_structural   Li5BO4
_chemical_formula_sum   'Li10 B2 O8'
_cell_volume   166.47795127
_cell_formula_units_Z   2
loop_
 _symmetry_equiv_pos_site_id
 _symmetry_equiv_pos_as_xyz
  1  'x, y, z'
loop_
 _atom_site_type_symbol
 _atom_site_label
 _atom_site_symmetry_multiplicity
 _atom_site_fract_x
 _atom_site_fract_y
 _atom_site_fract_z
 _atom_site_occupancy
  Li  Li0  1  0.258102  0.739880  0.698014  1
  Li  Li1  1  0.258102  0.260120  0.698014  1
  Li  Li2  1  0.822234  0.000000  0.500000  1
  Li  Li3  1  0.258102  0.739880  0.301986  1
  Li  Li4  1  0.258102  0.260120  0.301986  1
  Li  Li5  1  0.741898  0.760120  0.198014  1
  Li  Li6  1  0.741898  0.239880  0.198014  1
  Li  Li7  1  0.177766  0.500000  0.000000  1
  Li  Li8  1  0.741898  0.760120  0.801986  1
  Li  Li9  1  0.741898  0.239880  0.801986  1
  B  B10  1  0.779290  0.500000  0.500000  1
  B  B11  1  0.220710  0.000000  0.000000  1
  O  O12  1  0.966793  0.500000  0.708293  1
  O  O13  1  0.595162  0.712725  0.500000  1
  O  O14  1  0.595162  0.287275  0.500000  1
  O  O15  1  0.966793  0.500000  0.291707  1
  O  O16  1  0.033207  0.000000  0.208293  1
  O  O17  1  0.404838  0.787275  0.000000  1
  O  O18  1  0.404838  0.212725  0.000000  1
  O  O19  1  0.033207  0.000000  0.791707  1
