# generated using pymatgen
data_Mn3SbO8
_symmetry_space_group_name_H-M   'P 1'
_cell_length_a   8.41074096
_cell_length_b   8.41074096
_cell_length_c   8.71104937
_cell_angle_alpha   90.00000000
_cell_angle_beta   90.00000000
_cell_angle_gamma   90.00000000
_symmetry_Int_Tables_number   1
_chemical_formula_structural   Mn3SbO8
_chemical_formula_sum   'Mn12 Sb4 O32'
_cell_volume   616.22454126
_cell_formula_units_Z   4
loop_
 _symmetry_equiv_pos_site_id
 _symmetry_equiv_pos_as_xyz
  1  'x, y, z'
loop_
 _atom_site_type_symbol
 _atom_site_label
 _atom_site_symmetry_multiplicity
 _atom_site_fract_x
 _atom_site_fract_y
 _atom_site_fract_z
 _atom_site_occupancy
  Mn  Mn0  1  0.363843  0.636157  0.250000  1
  Mn  Mn1  1  0.379243  0.882176  0.501436  1
  Mn  Mn2  1  0.382176  0.120757  0.751436  1
  Mn  Mn3  1  0.617824  0.879243  0.251436  1
  Mn  Mn4  1  0.620757  0.117824  0.001436  1
  Mn  Mn5  1  0.636157  0.363843  0.750000  1
  Mn  Mn6  1  0.863843  0.863843  0.000000  1
  Mn  Mn7  1  0.879243  0.617824  0.748564  1
  Mn  Mn8  1  0.882176  0.379243  0.498564  1
  Mn  Mn9  1  0.117824  0.620757  0.998564  1
  Mn  Mn10  1  0.120757  0.382176  0.248564  1
  Mn  Mn11  1  0.136157  0.136157  0.500000  1
  Sb  Sb12  1  0.374725  0.374725  0.000000  1
  Sb  Sb13  1  0.625275  0.625275  0.500000  1
  Sb  Sb14  1  0.874725  0.125275  0.250000  1
  Sb  Sb15  1  0.125275  0.874725  0.750000  1
  O  O16  1  0.347484  0.610284  0.996282  1
  O  O17  1  0.351683  0.396772  0.232976  1
  O  O18  1  0.368001  0.113966  0.528670  1
  O  O19  1  0.389716  0.652516  0.503718  1
  O  O20  1  0.368890  0.889286  0.730303  1
  O  O21  1  0.386034  0.868001  0.278670  1
  O  O22  1  0.389286  0.131110  0.980303  1
  O  O23  1  0.396772  0.351683  0.767024  1
  O  O24  1  0.603228  0.648317  0.267024  1
  O  O25  1  0.610714  0.868890  0.480303  1
  O  O26  1  0.613966  0.131999  0.778670  1
  O  O27  1  0.631110  0.110714  0.230303  1
  O  O28  1  0.610284  0.347484  0.003718  1
  O  O29  1  0.631999  0.886034  0.028670  1
  O  O30  1  0.648317  0.603228  0.732976  1
  O  O31  1  0.652516  0.389716  0.496282  1
  O  O32  1  0.847484  0.889716  0.253718  1
  O  O33  1  0.851683  0.103228  0.017024  1
  O  O34  1  0.868001  0.386034  0.721330  1
  O  O35  1  0.889716  0.847484  0.746282  1
  O  O36  1  0.868890  0.610714  0.519697  1
  O  O37  1  0.886034  0.631999  0.971330  1
  O  O38  1  0.889286  0.368890  0.269697  1
  O  O39  1  0.896772  0.148317  0.482976  1
  O  O40  1  0.103228  0.851683  0.982976  1
  O  O41  1  0.110714  0.631110  0.769697  1
  O  O42  1  0.113966  0.368001  0.471330  1
  O  O43  1  0.131110  0.389286  0.019697  1
  O  O44  1  0.110284  0.152516  0.246282  1
  O  O45  1  0.131999  0.613966  0.221330  1
  O  O46  1  0.148317  0.896772  0.517024  1
  O  O47  1  0.152516  0.110284  0.753718  1
