# generated using pymatgen
data_LiSnPO4
_symmetry_space_group_name_H-M   'P 1'
_cell_length_a   5.35117589
_cell_length_b   5.35117589
_cell_length_c   5.35117589
_cell_angle_alpha   121.05544482
_cell_angle_beta   121.05544482
_cell_angle_gamma   88.18143490
_symmetry_Int_Tables_number   1
_chemical_formula_structural   LiSnPO4
_chemical_formula_sum   'Li1 Sn1 P1 O4'
_cell_volume   106.56414046
_cell_formula_units_Z   1
loop_
 _symmetry_equiv_pos_site_id
 _symmetry_equiv_pos_as_xyz
  1  'x, y, z'
loop_
 _atom_site_type_symbol
 _atom_site_label
 _atom_site_symmetry_multiplicity
 _atom_site_fract_x
 _atom_site_fract_y
 _atom_site_fract_z
 _atom_site_occupancy
  Li  Li0  1  0.500000  0.500000  0.000000  1
  Sn  Sn1  1  0.000000  0.000000  0.000000  1
  P  P2  1  0.250000  0.750000  0.500000  1
  O  O3  1  0.341558  0.769938  0.839599  1
  O  O4  1  0.498041  0.658442  0.428381  1
  O  O5  1  0.930339  0.501959  0.160401  1
  O  O6  1  0.230062  0.069661  0.571619  1
