# generated using pymatgen
data_Gd2W4O15
_symmetry_space_group_name_H-M   'P 1'
_cell_length_a   6.91817314
_cell_length_b   9.88335697
_cell_length_c   10.87753451
_cell_angle_alpha   90.00000000
_cell_angle_beta   105.68921799
_cell_angle_gamma   90.00000000
_symmetry_Int_Tables_number   1
_chemical_formula_structural   Gd2W4O15
_chemical_formula_sum   'Gd4 W8 O30'
_cell_volume   716.03885736
_cell_formula_units_Z   2
loop_
 _symmetry_equiv_pos_site_id
 _symmetry_equiv_pos_as_xyz
  1  'x, y, z'
loop_
 _atom_site_type_symbol
 _atom_site_label
 _atom_site_symmetry_multiplicity
 _atom_site_fract_x
 _atom_site_fract_y
 _atom_site_fract_z
 _atom_site_occupancy
  Gd  Gd0  1  0.787397  0.523773  0.222109  1
  Gd  Gd1  1  0.787397  0.976227  0.722109  1
  Gd  Gd2  1  0.212603  0.023773  0.277891  1
  Gd  Gd3  1  0.212603  0.476227  0.777891  1
  W  W4  1  0.916652  0.243805  0.488356  1
  W  W5  1  0.615494  0.903985  0.155207  1
  W  W6  1  0.916652  0.256195  0.988356  1
  W  W7  1  0.615494  0.596015  0.655207  1
  W  W8  1  0.384506  0.403985  0.344793  1
  W  W9  1  0.083348  0.743805  0.011644  1
  W  W10  1  0.384506  0.096015  0.844793  1
  W  W11  1  0.083348  0.756195  0.511644  1
  O  O12  1  0.978528  0.626201  0.102861  1
  O  O13  1  0.877972  0.942933  0.182080  1
  O  O14  1  0.777464  0.346972  0.080662  1
  O  O15  1  0.978528  0.873799  0.602861  1
  O  O16  1  0.882124  0.667291  0.400106  1
  O  O17  1  0.748054  0.365137  0.382544  1
  O  O18  1  0.877972  0.557067  0.682080  1
  O  O19  1  0.611963  0.722379  0.147288  1
  O  O20  1  0.777464  0.153028  0.580662  1
  O  O21  1  0.882124  0.832709  0.900106  1
  O  O22  1  0.556431  0.971768  0.294547  1
  O  O23  1  0.748054  0.134863  0.882544  1
  O  O24  1  0.443569  0.471768  0.205453  1
  O  O25  1  0.611963  0.777621  0.647288  1
  O  O26  1  0.500000  0.500000  0.500000  1
  O  O27  1  0.388037  0.222379  0.352712  1
  O  O28  1  0.556431  0.528232  0.794547  1
  O  O29  1  0.251946  0.865137  0.117456  1
  O  O30  1  0.443569  0.028232  0.705453  1
  O  O31  1  0.500000  0.000000  0.000000  1
  O  O32  1  0.117876  0.167291  0.099894  1
  O  O33  1  0.222536  0.846972  0.419338  1
  O  O34  1  0.388037  0.277621  0.852712  1
  O  O35  1  0.122028  0.442933  0.317920  1
  O  O36  1  0.251946  0.634863  0.617456  1
  O  O37  1  0.117876  0.332709  0.599894  1
  O  O38  1  0.021472  0.126201  0.397139  1
  O  O39  1  0.222536  0.653028  0.919338  1
  O  O40  1  0.122028  0.057067  0.817920  1
  O  O41  1  0.021472  0.373799  0.897139  1
