# generated using pymatgen
data_Li2FePCO7
_symmetry_space_group_name_H-M   'P 1'
_cell_length_a   9.38609882
_cell_length_b   6.49422290
_cell_length_c   10.16284478
_cell_angle_alpha   90.00000000
_cell_angle_beta   117.80625996
_cell_angle_gamma   90.00000000
_symmetry_Int_Tables_number   1
_chemical_formula_structural   Li2FePCO7
_chemical_formula_sum   'Li8 Fe4 P4 C4 O28'
_cell_volume   547.94905144
_cell_formula_units_Z   4
loop_
 _symmetry_equiv_pos_site_id
 _symmetry_equiv_pos_as_xyz
  1  'x, y, z'
loop_
 _atom_site_type_symbol
 _atom_site_label
 _atom_site_symmetry_multiplicity
 _atom_site_fract_x
 _atom_site_fract_y
 _atom_site_fract_z
 _atom_site_occupancy
  Li  Li0  1  0.595711  0.257684  0.428885  1
  Li  Li1  1  0.595711  0.242316  0.928885  1
  Li  Li2  1  0.775115  0.466808  0.264283  1
  Li  Li3  1  0.775115  0.033192  0.764283  1
  Li  Li4  1  0.224885  0.966808  0.235717  1
  Li  Li5  1  0.224885  0.533192  0.735717  1
  Li  Li6  1  0.404289  0.757684  0.071115  1
  Li  Li7  1  0.404289  0.742316  0.571115  1
  Fe  Fe8  1  0.829518  0.756316  0.064700  1
  Fe  Fe9  1  0.829518  0.743684  0.564700  1
  Fe  Fe10  1  0.170482  0.256316  0.435300  1
  Fe  Fe11  1  0.170482  0.243684  0.935300  1
  P  P12  1  0.920156  0.245902  0.070713  1
  P  P13  1  0.920156  0.254098  0.570713  1
  P  P14  1  0.079844  0.745902  0.429287  1
  P  P15  1  0.079844  0.754098  0.929287  1
  C  C16  1  0.539381  0.757886  0.370806  1
  C  C17  1  0.539381  0.742114  0.870806  1
  C  C18  1  0.460619  0.257886  0.129194  1
  C  C19  1  0.460619  0.242114  0.629194  1
  O  O20  1  0.577667  0.736447  0.013019  1
  O  O21  1  0.577667  0.763553  0.513019  1
  O  O22  1  0.603000  0.276688  0.233725  1
  O  O23  1  0.661837  0.733534  0.343590  1
  O  O24  1  0.603000  0.223312  0.733725  1
  O  O25  1  0.661837  0.766466  0.843590  1
  O  O26  1  0.805048  0.062995  0.050557  1
  O  O27  1  0.817407  0.436643  0.065147  1
  O  O28  1  0.817407  0.063357  0.565147  1
  O  O29  1  0.805048  0.437005  0.550557  1
  O  O30  1  0.920262  0.728308  0.283561  1
  O  O31  1  0.960756  0.259568  0.438409  1
  O  O32  1  0.920262  0.771692  0.783561  1
  O  O33  1  0.960756  0.240432  0.938409  1
  O  O34  1  0.039244  0.759568  0.061591  1
  O  O35  1  0.079738  0.228308  0.216439  1
  O  O36  1  0.039244  0.740432  0.561591  1
  O  O37  1  0.079738  0.271692  0.716439  1
  O  O38  1  0.194952  0.562995  0.449443  1
  O  O39  1  0.182593  0.936643  0.434853  1
  O  O40  1  0.194952  0.937005  0.949443  1
  O  O41  1  0.182593  0.563357  0.934853  1
  O  O42  1  0.338163  0.233534  0.156410  1
  O  O43  1  0.397000  0.776688  0.266275  1
  O  O44  1  0.338163  0.266466  0.656410  1
  O  O45  1  0.397000  0.723312  0.766275  1
  O  O46  1  0.422333  0.236447  0.486981  1
  O  O47  1  0.422333  0.263553  0.986981  1
