# generated using pymatgen
data_Li7V3P8O29
_symmetry_space_group_name_H-M   'P 1'
_cell_length_a   9.85674390
_cell_length_b   9.85674390
_cell_length_c   13.90191754
_cell_angle_alpha   89.40270813
_cell_angle_beta   90.59729187
_cell_angle_gamma   120.11342284
_symmetry_Int_Tables_number   1
_chemical_formula_structural   Li7V3P8O29
_chemical_formula_sum   'Li14 V6 P16 O58'
_cell_volume   1168.27034975
_cell_formula_units_Z   2
loop_
 _symmetry_equiv_pos_site_id
 _symmetry_equiv_pos_as_xyz
  1  'x, y, z'
loop_
 _atom_site_type_symbol
 _atom_site_label
 _atom_site_symmetry_multiplicity
 _atom_site_fract_x
 _atom_site_fract_y
 _atom_site_fract_z
 _atom_site_occupancy
  Li  Li0  1  0.089003  0.321022  0.562623  1
  Li  Li1  1  0.347586  0.666024  0.388248  1
  Li  Li2  1  0.333976  0.652414  0.888248  1
  Li  Li3  1  0.678978  0.910997  0.062623  1
  Li  Li4  1  0.092181  0.766126  0.062298  1
  Li  Li5  1  0.763386  0.103705  0.440357  1
  Li  Li6  1  0.233874  0.907819  0.562298  1
  Li  Li7  1  0.896295  0.236614  0.940357  1
  Li  Li8  1  0.335900  0.101382  0.942712  1
  Li  Li9  1  0.329967  0.231704  0.436474  1
  Li  Li10  1  0.898618  0.664100  0.442712  1
  Li  Li11  1  0.768296  0.670033  0.936474  1
  Li  Li12  1  0.042454  0.058629  0.010320  1
  Li  Li13  1  0.941371  0.957546  0.510320  1
  V  V14  1  0.564254  0.999784  0.249269  1
  V  V15  1  0.437541  0.002204  0.748344  1
  V  V16  1  0.000216  0.435746  0.749269  1
  V  V17  1  0.997796  0.562459  0.248344  1
  V  V18  1  0.437050  0.437432  0.247579  1
  V  V19  1  0.562568  0.562950  0.747579  1
  P  P20  1  0.218228  0.305568  0.840440  1
  P  P21  1  0.090168  0.315289  0.341644  1
  P  P22  1  0.694432  0.781772  0.340440  1
  P  P23  1  0.330993  0.669884  0.129072  1
  P  P24  1  0.330116  0.669007  0.629072  1
  P  P25  1  0.684711  0.909832  0.841644  1
  P  P26  1  0.774304  0.086185  0.655808  1
  P  P27  1  0.094861  0.775302  0.844217  1
  P  P28  1  0.913815  0.225696  0.155808  1
  P  P29  1  0.224698  0.905139  0.344217  1
  P  P30  1  0.310247  0.085562  0.159023  1
  P  P31  1  0.670188  0.332125  0.372439  1
  P  P32  1  0.667875  0.329812  0.872439  1
  P  P33  1  0.309715  0.226956  0.653141  1
  P  P34  1  0.914438  0.689753  0.659023  1
  P  P35  1  0.773044  0.690285  0.153141  1
  O  O36  1  0.220987  0.221837  0.561836  1
  O  O37  1  0.253555  0.333234  0.345297  1
  O  O38  1  0.987788  0.210352  0.065397  1
  O  O39  1  0.076572  0.334856  0.842974  1
  O  O40  1  0.368923  0.466891  0.837510  1
  O  O41  1  0.324443  0.522091  0.170414  1
  O  O42  1  0.533109  0.631077  0.337510  1
  O  O43  1  0.778163  0.779013  0.061836  1
  O  O44  1  0.666766  0.746445  0.845297  1
  O  O45  1  0.183435  0.512361  0.666815  1
  O  O46  1  0.108609  0.480538  0.326931  1
  O  O47  1  0.477909  0.675557  0.670414  1
  O  O48  1  0.326513  0.680737  0.021016  1
  O  O49  1  0.319263  0.673487  0.521016  1
  O  O50  1  0.487639  0.816565  0.166815  1
  O  O51  1  0.112970  0.629025  0.830067  1
  O  O52  1  0.185312  0.678653  0.170438  1
  O  O53  1  0.665144  0.923428  0.342974  1
  O  O54  1  0.791588  0.996310  0.748968  1
  O  O55  1  0.789648  0.012212  0.565397  1
  O  O56  1  0.767222  0.005171  0.929985  1
  O  O57  1  0.519462  0.891391  0.826931  1
  O  O58  1  0.321347  0.814688  0.670438  1
  O  O59  1  0.745312  0.082222  0.162138  1
  O  O60  1  0.370975  0.887030  0.330067  1
  O  O61  1  0.077905  0.740746  0.347191  1
  O  O62  1  0.003690  0.208412  0.248968  1
  O  O63  1  0.994829  0.232778  0.429985  1
  O  O64  1  0.002012  0.777399  0.568662  1
  O  O65  1  0.917778  0.254688  0.662138  1
  O  O66  1  0.618250  0.084624  0.664376  1
  O  O67  1  0.259254  0.922095  0.847191  1
  O  O68  1  0.671837  0.185041  0.331739  1
  O  O69  1  0.465302  0.081926  0.173120  1
  O  O70  1  0.222601  0.997988  0.068662  1
  O  O71  1  0.236225  0.000065  0.431829  1
  O  O72  1  0.202528  0.989637  0.250356  1
  O  O73  1  0.326641  0.079498  0.659157  1
  O  O74  1  0.814959  0.328163  0.831739  1
  O  O75  1  0.915376  0.381750  0.164376  1
  O  O76  1  0.517956  0.183428  0.822721  1
  O  O77  1  0.655903  0.302504  0.978707  1
  O  O78  1  0.697496  0.344097  0.478707  1
  O  O79  1  0.518920  0.329361  0.337992  1
  O  O80  1  0.918074  0.534698  0.673120  1
  O  O81  1  0.816572  0.482044  0.322721  1
  O  O82  1  0.336214  0.249298  0.160805  1
  O  O83  1  0.196294  0.213891  0.741000  1
  O  O84  1  0.205601  0.195820  0.920403  1
  O  O85  1  0.467103  0.375088  0.665710  1
  O  O86  1  0.670639  0.481080  0.837992  1
  O  O87  1  0.624912  0.532897  0.165710  1
  O  O88  1  0.920502  0.673359  0.159157  1
  O  O89  1  0.999935  0.763775  0.931829  1
  O  O90  1  0.010363  0.797472  0.750356  1
  O  O91  1  0.750702  0.663786  0.660805  1
  O  O92  1  0.804180  0.794399  0.420403  1
  O  O93  1  0.786109  0.803706  0.241000  1
