# generated using pymatgen
data_LiNi(PO3)4
_symmetry_space_group_name_H-M   'P 1'
_cell_length_a   8.85412061
_cell_length_b   8.85412061
_cell_length_c   9.72430939
_cell_angle_alpha   58.91602261
_cell_angle_beta   121.08397739
_cell_angle_gamma   130.54216817
_symmetry_Int_Tables_number   1
_chemical_formula_structural   LiNi(PO3)4
_chemical_formula_sum   'Li2 Ni2 P8 O24'
_cell_volume   476.63284832
_cell_formula_units_Z   2
loop_
 _symmetry_equiv_pos_site_id
 _symmetry_equiv_pos_as_xyz
  1  'x, y, z'
loop_
 _atom_site_type_symbol
 _atom_site_label
 _atom_site_symmetry_multiplicity
 _atom_site_fract_x
 _atom_site_fract_y
 _atom_site_fract_z
 _atom_site_occupancy
  Li  Li0  1  0.830853  0.830853  0.750000  1
  Li  Li1  1  0.169147  0.169147  0.250000  1
  Ni  Ni2  1  0.290481  0.290481  0.750000  1
  Ni  Ni3  1  0.709519  0.709519  0.250000  1
  P  P4  1  0.687832  0.970565  0.893705  1
  P  P5  1  0.280951  0.570525  0.838076  1
  P  P6  1  0.570525  0.280951  0.661924  1
  P  P7  1  0.970565  0.687832  0.606295  1
  P  P8  1  0.029435  0.312168  0.393705  1
  P  P9  1  0.429475  0.719049  0.338076  1
  P  P10  1  0.719049  0.429475  0.161924  1
  P  P11  1  0.312168  0.029435  0.106295  1
  O  O12  1  0.158419  0.403818  0.957836  1
  O  O13  1  0.457577  0.773467  0.901922  1
  O  O14  1  0.767139  0.991207  0.780287  1
  O  O15  1  0.657977  0.154896  0.841244  1
  O  O16  1  0.191198  0.050092  0.919894  1
  O  O17  1  0.154896  0.657977  0.658756  1
  O  O18  1  0.991207  0.767139  0.719713  1
  O  O19  1  0.528556  0.389241  0.709889  1
  O  O20  1  0.389241  0.528556  0.790111  1
  O  O21  1  0.773467  0.457577  0.598078  1
  O  O22  1  0.403818  0.158419  0.542164  1
  O  O23  1  0.050092  0.191198  0.580106  1
  O  O24  1  0.949908  0.808802  0.419894  1
  O  O25  1  0.596182  0.841581  0.457836  1
  O  O26  1  0.226533  0.542423  0.401922  1
  O  O27  1  0.610759  0.471444  0.209889  1
  O  O28  1  0.471444  0.610759  0.290111  1
  O  O29  1  0.008793  0.232861  0.280287  1
  O  O30  1  0.845104  0.342023  0.341244  1
  O  O31  1  0.808802  0.949908  0.080106  1
  O  O32  1  0.342023  0.845104  0.158756  1
  O  O33  1  0.232861  0.008793  0.219713  1
  O  O34  1  0.542423  0.226533  0.098078  1
  O  O35  1  0.841581  0.596182  0.042164  1
