# generated using pymatgen
data_Li2Cr4O13
_symmetry_space_group_name_H-M   'P 1'
_cell_length_a   8.75156983
_cell_length_b   9.55412752
_cell_length_c   14.96579083
_cell_angle_alpha   90.00000000
_cell_angle_beta   103.68216574
_cell_angle_gamma   90.00000000
_symmetry_Int_Tables_number   1
_chemical_formula_structural   Li2Cr4O13
_chemical_formula_sum   'Li8 Cr16 O52'
_cell_volume   1215.83421557
_cell_formula_units_Z   4
loop_
 _symmetry_equiv_pos_site_id
 _symmetry_equiv_pos_as_xyz
  1  'x, y, z'
loop_
 _atom_site_type_symbol
 _atom_site_label
 _atom_site_symmetry_multiplicity
 _atom_site_fract_x
 _atom_site_fract_y
 _atom_site_fract_z
 _atom_site_occupancy
  Li  Li0  1  0.951120  0.003788  0.272538  1
  Li  Li1  1  0.951120  0.496212  0.772538  1
  Li  Li2  1  0.566536  0.006474  0.253602  1
  Li  Li3  1  0.433464  0.506474  0.246398  1
  Li  Li4  1  0.566536  0.493526  0.753602  1
  Li  Li5  1  0.433464  0.993526  0.746398  1
  Li  Li6  1  0.048880  0.503788  0.227462  1
  Li  Li7  1  0.048880  0.996212  0.727462  1
  Cr  Cr8  1  0.864258  0.754197  0.064102  1
  Cr  Cr9  1  0.864258  0.745803  0.564102  1
  Cr  Cr10  1  0.785761  0.708693  0.338787  1
  Cr  Cr11  1  0.721823  0.277446  0.159075  1
  Cr  Cr12  1  0.785761  0.791307  0.838787  1
  Cr  Cr13  1  0.721823  0.222554  0.659075  1
  Cr  Cr14  1  0.482675  0.741103  0.066177  1
  Cr  Cr15  1  0.517325  0.241103  0.433823  1
  Cr  Cr16  1  0.482675  0.758897  0.566177  1
  Cr  Cr17  1  0.517325  0.258897  0.933823  1
  Cr  Cr18  1  0.278177  0.777446  0.340925  1
  Cr  Cr19  1  0.214239  0.208693  0.161213  1
  Cr  Cr20  1  0.278177  0.722554  0.840925  1
  Cr  Cr21  1  0.214239  0.291307  0.661213  1
  Cr  Cr22  1  0.135742  0.254197  0.435898  1
  Cr  Cr23  1  0.135742  0.245803  0.935898  1
  O  O24  1  0.982702  0.626442  0.098882  1
  O  O25  1  0.899159  0.878850  0.137998  1
  O  O26  1  0.889815  0.352036  0.163978  1
  O  O27  1  0.877197  0.617333  0.276282  1
  O  O28  1  0.982702  0.873558  0.598882  1
  O  O29  1  0.886785  0.683533  0.459703  1
  O  O30  1  0.777435  0.875121  0.309721  1
  O  O31  1  0.748205  0.131399  0.219007  1
  O  O32  1  0.899159  0.621150  0.637998  1
  O  O33  1  0.669724  0.691523  0.050973  1
  O  O34  1  0.889815  0.147964  0.663978  1
  O  O35  1  0.638713  0.226335  0.039468  1
  O  O36  1  0.877197  0.882667  0.776282  1
  O  O37  1  0.607109  0.384440  0.196060  1
  O  O38  1  0.886785  0.816467  0.959703  1
  O  O39  1  0.777435  0.624879  0.809721  1
  O  O40  1  0.748205  0.368601  0.719007  1
  O  O41  1  0.607198  0.651241  0.324463  1
  O  O42  1  0.669724  0.808477  0.550973  1
  O  O43  1  0.582888  0.115726  0.381387  1
  O  O44  1  0.502228  0.880212  0.127682  1
  O  O45  1  0.638713  0.273665  0.539468  1
  O  O46  1  0.497772  0.380212  0.372318  1
  O  O47  1  0.417112  0.615726  0.118613  1
  O  O48  1  0.607109  0.115560  0.696060  1
  O  O49  1  0.392802  0.151241  0.175537  1
  O  O50  1  0.607198  0.848759  0.824463  1
  O  O51  1  0.392891  0.884440  0.303940  1
  O  O52  1  0.582888  0.384274  0.881387  1
  O  O53  1  0.502228  0.619788  0.627682  1
  O  O54  1  0.361287  0.726335  0.460532  1
  O  O55  1  0.497772  0.119788  0.872318  1
  O  O56  1  0.417112  0.884274  0.618613  1
  O  O57  1  0.330276  0.191523  0.449027  1
  O  O58  1  0.392802  0.348759  0.675537  1
  O  O59  1  0.251795  0.631399  0.280993  1
  O  O60  1  0.222565  0.375121  0.190279  1
  O  O61  1  0.113215  0.183533  0.040297  1
  O  O62  1  0.392891  0.615560  0.803940  1
  O  O63  1  0.122803  0.117333  0.223718  1
  O  O64  1  0.361287  0.773665  0.960532  1
  O  O65  1  0.110185  0.852036  0.336022  1
  O  O66  1  0.330276  0.308477  0.949027  1
  O  O67  1  0.100841  0.378850  0.362002  1
  O  O68  1  0.251795  0.868601  0.780993  1
  O  O69  1  0.222565  0.124879  0.690279  1
  O  O70  1  0.113215  0.316467  0.540297  1
  O  O71  1  0.017298  0.126442  0.401118  1
  O  O72  1  0.122803  0.382667  0.723718  1
  O  O73  1  0.110185  0.647964  0.836022  1
  O  O74  1  0.100841  0.121150  0.862002  1
  O  O75  1  0.017298  0.373558  0.901118  1
