# generated using pymatgen
data_Li2Zr2O5
_symmetry_space_group_name_H-M   'P 1'
_cell_length_a   10.37499177
_cell_length_b   3.93065625
_cell_length_c   13.14277516
_cell_angle_alpha   90.00000000
_cell_angle_beta   123.57144662
_cell_angle_gamma   90.00000000
_symmetry_Int_Tables_number   1
_chemical_formula_structural   Li2Zr2O5
_chemical_formula_sum   'Li8 Zr8 O20'
_cell_volume   446.56795967
_cell_formula_units_Z   4
loop_
 _symmetry_equiv_pos_site_id
 _symmetry_equiv_pos_as_xyz
  1  'x, y, z'
loop_
 _atom_site_type_symbol
 _atom_site_label
 _atom_site_symmetry_multiplicity
 _atom_site_fract_x
 _atom_site_fract_y
 _atom_site_fract_z
 _atom_site_occupancy
  Li  Li0  1  0.045833  0.259565  0.952352  1
  Li  Li1  1  0.924299  0.296762  0.670057  1
  Li  Li2  1  0.075701  0.796762  0.829943  1
  Li  Li3  1  0.954167  0.759565  0.547648  1
  Li  Li4  1  0.045833  0.240435  0.452352  1
  Li  Li5  1  0.924299  0.203238  0.170057  1
  Li  Li6  1  0.075701  0.703238  0.329943  1
  Li  Li7  1  0.954167  0.740435  0.047648  1
  Zr  Zr8  1  0.330780  0.684766  0.144624  1
  Zr  Zr9  1  0.669335  0.861004  0.635679  1
  Zr  Zr10  1  0.669220  0.184766  0.355376  1
  Zr  Zr11  1  0.669335  0.638996  0.135679  1
  Zr  Zr12  1  0.330665  0.361004  0.864321  1
  Zr  Zr13  1  0.330780  0.815234  0.644624  1
  Zr  Zr14  1  0.330665  0.138996  0.364321  1
  Zr  Zr15  1  0.669220  0.315234  0.855376  1
  O  O16  1  0.114756  0.748155  0.010964  1
  O  O17  1  0.386302  0.176225  0.214348  1
  O  O18  1  0.708890  0.339631  0.708787  1
  O  O19  1  0.586500  0.133507  0.467841  1
  O  O20  1  0.413500  0.633507  0.032159  1
  O  O21  1  0.875917  0.798601  0.661069  1
  O  O22  1  0.613698  0.676225  0.285652  1
  O  O23  1  0.885244  0.248155  0.489036  1
  O  O24  1  0.124083  0.298601  0.838931  1
  O  O25  1  0.708890  0.160369  0.208787  1
  O  O26  1  0.291110  0.839631  0.791213  1
  O  O27  1  0.875917  0.701399  0.161069  1
  O  O28  1  0.114756  0.751845  0.510964  1
  O  O29  1  0.386302  0.323775  0.714348  1
  O  O30  1  0.124083  0.201399  0.338931  1
  O  O31  1  0.586500  0.366493  0.967841  1
  O  O32  1  0.413500  0.866493  0.532159  1
  O  O33  1  0.291110  0.660369  0.291213  1
  O  O34  1  0.613698  0.823775  0.785652  1
  O  O35  1  0.885244  0.251845  0.989036  1
