# generated using pymatgen
data_V3OF7
_symmetry_space_group_name_H-M   'P 1'
_cell_length_a   7.98179731
_cell_length_b   7.98179731
_cell_length_c   9.95568301
_cell_angle_alpha   90.00000000
_cell_angle_beta   90.00000000
_cell_angle_gamma   150.88455289
_symmetry_Int_Tables_number   1
_chemical_formula_structural   V3OF7
_chemical_formula_sum   'V6 O2 F14'
_cell_volume   308.61612392
_cell_formula_units_Z   2
loop_
 _symmetry_equiv_pos_site_id
 _symmetry_equiv_pos_as_xyz
  1  'x, y, z'
loop_
 _atom_site_type_symbol
 _atom_site_label
 _atom_site_symmetry_multiplicity
 _atom_site_fract_x
 _atom_site_fract_y
 _atom_site_fract_z
 _atom_site_occupancy
  V  V0  1  0.960927  0.039073  0.250000  1
  V  V1  1  0.821951  0.178049  0.572951  1
  V  V2  1  0.821951  0.178049  0.927049  1
  V  V3  1  0.178049  0.821951  0.072951  1
  V  V4  1  0.178049  0.821951  0.427049  1
  V  V5  1  0.039073  0.960927  0.750000  1
  O  O6  1  0.794392  0.205608  0.750000  1
  O  O7  1  0.205608  0.794392  0.250000  1
  F  F8  1  0.463438  0.536562  0.250000  1
  F  F9  1  0.947855  0.052145  0.613994  1
  F  F10  1  0.947855  0.052145  0.886006  1
  F  F11  1  0.867130  0.132870  0.116535  1
  F  F12  1  0.867130  0.132870  0.383465  1
  F  F13  1  0.301838  0.698162  0.964947  1
  F  F14  1  0.301838  0.698162  0.535053  1
  F  F15  1  0.698162  0.301838  0.035053  1
  F  F16  1  0.698162  0.301838  0.464947  1
  F  F17  1  0.132870  0.867130  0.616535  1
  F  F18  1  0.132870  0.867130  0.883465  1
  F  F19  1  0.052145  0.947855  0.113994  1
  F  F20  1  0.052145  0.947855  0.386006  1
  F  F21  1  0.536562  0.463438  0.750000  1
