# generated using pymatgen
data_FeOF
_symmetry_space_group_name_H-M   'P 1'
_cell_length_a   9.46413633
_cell_length_b   3.11168410
_cell_length_c   14.21879778
_cell_angle_alpha   90.00000000
_cell_angle_beta   90.05943055
_cell_angle_gamma   90.00000000
_symmetry_Int_Tables_number   1
_chemical_formula_structural   FeOF
_chemical_formula_sum   'Fe12 O12 F12'
_cell_volume   418.73487393
_cell_formula_units_Z   12
loop_
 _symmetry_equiv_pos_site_id
 _symmetry_equiv_pos_as_xyz
  1  'x, y, z'
loop_
 _atom_site_type_symbol
 _atom_site_label
 _atom_site_symmetry_multiplicity
 _atom_site_fract_x
 _atom_site_fract_y
 _atom_site_fract_z
 _atom_site_occupancy
  Fe  Fe0  1  0.984905  0.000000  0.998723  1
  Fe  Fe1  1  0.973666  0.000000  0.326057  1
  Fe  Fe2  1  0.000056  0.000000  0.674511  1
  Fe  Fe3  1  0.764650  0.500000  0.159350  1
  Fe  Fe4  1  0.781587  0.500000  0.504070  1
  Fe  Fe5  1  0.743966  0.500000  0.856287  1
  Fe  Fe6  1  0.486988  0.000000  0.329902  1
  Fe  Fe7  1  0.477590  0.000000  0.988181  1
  Fe  Fe8  1  0.495586  0.000000  0.674828  1
  Fe  Fe9  1  0.273773  0.500000  0.161800  1
  Fe  Fe10  1  0.259069  0.500000  0.487684  1
  Fe  Fe11  1  0.252396  0.500000  0.825092  1
  O  O12  1  0.897768  0.500000  0.266150  1
  O  O13  1  0.905589  0.500000  0.607707  1
  O  O14  1  0.909430  0.500000  0.934611  1
  O  O15  1  0.847037  0.000000  0.100218  1
  O  O16  1  0.851776  0.000000  0.437143  1
  O  O17  1  0.644998  0.000000  0.900991  1
  O  O18  1  0.404181  0.500000  0.269904  1
  O  O19  1  0.392037  0.500000  0.929479  1
  O  O20  1  0.348554  0.000000  0.099650  1
  O  O21  1  0.350489  0.000000  0.437271  1
  O  O22  1  0.353112  0.000000  0.762714  1
  O  O23  1  0.099652  0.500000  0.734977  1
  F  F24  1  0.838433  0.000000  0.772617  1
  F  F25  1  0.651924  0.000000  0.232498  1
  F  F26  1  0.645548  0.000000  0.569704  1
  F  F27  1  0.595903  0.500000  0.068162  1
  F  F28  1  0.599564  0.500000  0.400286  1
  F  F29  1  0.605769  0.500000  0.728158  1
  F  F30  1  0.405374  0.500000  0.601049  1
  F  F31  1  0.151514  0.000000  0.232840  1
  F  F32  1  0.152259  0.000000  0.901463  1
  F  F33  1  0.158858  0.000000  0.562031  1
  F  F34  1  0.098714  0.500000  0.067135  1
  F  F35  1  0.097287  0.500000  0.396758  1
