# generated using pymatgen
data_Li2TiV3O8
_symmetry_space_group_name_H-M   'P 1'
_cell_length_a   5.98057203
_cell_length_b   5.98057203
_cell_length_c   6.06057733
_cell_angle_alpha   60.50457080
_cell_angle_beta   119.49542920
_cell_angle_gamma   120.31481517
_symmetry_Int_Tables_number   1
_chemical_formula_structural   Li2TiV3O8
_chemical_formula_sum   'Li2 Ti1 V3 O8'
_cell_volume   154.06201661
_cell_formula_units_Z   1
loop_
 _symmetry_equiv_pos_site_id
 _symmetry_equiv_pos_as_xyz
  1  'x, y, z'
loop_
 _atom_site_type_symbol
 _atom_site_label
 _atom_site_symmetry_multiplicity
 _atom_site_fract_x
 _atom_site_fract_y
 _atom_site_fract_z
 _atom_site_occupancy
  Li  Li0  1  0.500000  0.000000  0.000000  1
  Li  Li1  1  0.000000  0.500000  0.000000  1
  Ti  Ti2  1  0.000000  0.000000  0.500000  1
  V  V3  1  0.500000  0.500000  0.500000  1
  V  V4  1  0.500000  1.000000  0.500000  1
  V  V5  1  0.000000  0.500000  0.500000  1
  O  O6  1  0.738673  0.756374  0.704413  1
  O  O7  1  0.731796  0.268204  0.715093  1
  O  O8  1  0.229765  0.770235  0.716041  1
  O  O9  1  0.243626  0.261327  0.704413  1
  O  O10  1  0.756374  0.738673  0.295587  1
  O  O11  1  0.770235  0.229765  0.283959  1
  O  O12  1  0.268204  0.731796  0.284907  1
  O  O13  1  0.261327  0.243626  0.295587  1
