# generated using pymatgen
data_Na4Bi2O5
_symmetry_space_group_name_H-M   'P 1'
_cell_length_a   8.74394006
_cell_length_b   6.18566259
_cell_length_c   16.20462215
_cell_angle_alpha   90.00000000
_cell_angle_beta   117.32345390
_cell_angle_gamma   90.00000000
_symmetry_Int_Tables_number   1
_chemical_formula_structural   Na4Bi2O5
_chemical_formula_sum   'Na16 Bi8 O20'
_cell_volume   778.67321299
_cell_formula_units_Z   4
loop_
 _symmetry_equiv_pos_site_id
 _symmetry_equiv_pos_as_xyz
  1  'x, y, z'
loop_
 _atom_site_type_symbol
 _atom_site_label
 _atom_site_symmetry_multiplicity
 _atom_site_fract_x
 _atom_site_fract_y
 _atom_site_fract_z
 _atom_site_occupancy
  Na  Na0  1  0.728500  0.966051  0.531565  1
  Na  Na1  1  0.190569  0.541178  0.550146  1
  Na  Na2  1  0.106027  0.118028  0.599844  1
  Na  Na3  1  0.572924  0.340860  0.578621  1
  Na  Na4  1  0.893973  0.618028  0.900156  1
  Na  Na5  1  0.427076  0.840860  0.921379  1
  Na  Na6  1  0.271500  0.466051  0.968435  1
  Na  Na7  1  0.190569  0.958822  0.050146  1
  Na  Na8  1  0.809431  0.041178  0.949854  1
  Na  Na9  1  0.728500  0.533949  0.031565  1
  Na  Na10  1  0.572924  0.159140  0.078621  1
  Na  Na11  1  0.106027  0.381972  0.099844  1
  Na  Na12  1  0.427076  0.659140  0.421379  1
  Na  Na13  1  0.893973  0.881972  0.400156  1
  Na  Na14  1  0.809431  0.458822  0.449854  1
  Na  Na15  1  0.271500  0.033949  0.468435  1
  Bi  Bi16  1  0.963526  0.578466  0.668207  1
  Bi  Bi17  1  0.036474  0.078466  0.831793  1
  Bi  Bi18  1  0.538580  0.836949  0.693457  1
  Bi  Bi19  1  0.461420  0.336949  0.806543  1
  Bi  Bi20  1  0.538580  0.663051  0.193457  1
  Bi  Bi21  1  0.461420  0.163051  0.306543  1
  Bi  Bi22  1  0.963526  0.921534  0.168207  1
  Bi  Bi23  1  0.036474  0.421534  0.331793  1
  O  O24  1  0.968973  0.755445  0.558956  1
  O  O25  1  0.850288  0.300477  0.590805  1
  O  O26  1  0.606358  0.718136  0.591757  1
  O  O27  1  0.410255  0.120110  0.625390  1
  O  O28  1  0.221612  0.460591  0.701194  1
  O  O29  1  0.149712  0.800477  0.909195  1
  O  O30  1  0.778388  0.960591  0.798806  1
  O  O31  1  0.589745  0.620110  0.874610  1
  O  O32  1  0.031027  0.255445  0.941044  1
  O  O33  1  0.393642  0.218136  0.908243  1
  O  O34  1  0.606358  0.781864  0.091757  1
  O  O35  1  0.968973  0.744555  0.058956  1
  O  O36  1  0.410255  0.379890  0.125390  1
  O  O37  1  0.221612  0.039409  0.201194  1
  O  O38  1  0.850288  0.199523  0.090805  1
  O  O39  1  0.778388  0.539409  0.298806  1
  O  O40  1  0.589745  0.879890  0.374610  1
  O  O41  1  0.393642  0.281864  0.408243  1
  O  O42  1  0.149712  0.699523  0.409195  1
  O  O43  1  0.031027  0.244555  0.441044  1
