# generated using pymatgen
data_LiSbP2O7
_symmetry_space_group_name_H-M   'P 1'
_cell_length_a   7.44329476
_cell_length_b   10.80030323
_cell_length_c   8.58728160
_cell_angle_alpha   90.00000000
_cell_angle_beta   114.44666460
_cell_angle_gamma   90.00000000
_symmetry_Int_Tables_number   1
_chemical_formula_structural   LiSbP2O7
_chemical_formula_sum   'Li4 Sb4 P8 O28'
_cell_volume   628.43995903
_cell_formula_units_Z   4
loop_
 _symmetry_equiv_pos_site_id
 _symmetry_equiv_pos_as_xyz
  1  'x, y, z'
loop_
 _atom_site_type_symbol
 _atom_site_label
 _atom_site_symmetry_multiplicity
 _atom_site_fract_x
 _atom_site_fract_y
 _atom_site_fract_z
 _atom_site_occupancy
  Li  Li0  1  0.616266  0.844051  0.577166  1
  Li  Li1  1  0.616266  0.655949  0.077166  1
  Li  Li2  1  0.383734  0.344051  0.922834  1
  Li  Li3  1  0.383734  0.155949  0.422834  1
  Sb  Sb4  1  0.730027  0.392901  0.730560  1
  Sb  Sb5  1  0.730027  0.107099  0.230560  1
  Sb  Sb6  1  0.269973  0.892901  0.769440  1
  Sb  Sb7  1  0.269973  0.607099  0.269440  1
  P  P8  1  0.634392  0.090657  0.788593  1
  P  P9  1  0.634392  0.409343  0.288593  1
  P  P10  1  0.973494  0.149019  0.715717  1
  P  P11  1  0.026506  0.649019  0.784283  1
  P  P12  1  0.973494  0.350981  0.215717  1
  P  P13  1  0.026506  0.850981  0.284283  1
  P  P14  1  0.365608  0.590657  0.711407  1
  P  P15  1  0.365608  0.909343  0.211407  1
  O  O16  1  0.559807  0.963135  0.711209  1
  O  O17  1  0.536309  0.197063  0.662283  1
  O  O18  1  0.559807  0.536865  0.211209  1
  O  O19  1  0.608441  0.390919  0.455350  1
  O  O20  1  0.536309  0.302937  0.162283  1
  O  O21  1  0.868813  0.097119  0.837865  1
  O  O22  1  0.828434  0.580435  0.718409  1
  O  O23  1  0.608441  0.109081  0.955350  1
  O  O24  1  0.835913  0.120352  0.531269  1
  O  O25  1  0.009670  0.289347  0.758196  1
  O  O26  1  0.868813  0.402881  0.337865  1
  O  O27  1  0.828434  0.919565  0.218409  1
  O  O28  1  0.990330  0.789347  0.741804  1
  O  O29  1  0.835913  0.379648  0.031269  1
  O  O30  1  0.164087  0.620352  0.968731  1
  O  O31  1  0.009670  0.210653  0.258196  1
  O  O32  1  0.171566  0.080435  0.781591  1
  O  O33  1  0.131187  0.597119  0.662135  1
  O  O34  1  0.990330  0.710653  0.241804  1
  O  O35  1  0.164087  0.879648  0.468731  1
  O  O36  1  0.391559  0.890919  0.044650  1
  O  O37  1  0.171566  0.419565  0.281591  1
  O  O38  1  0.131187  0.902881  0.162135  1
  O  O39  1  0.463691  0.697063  0.837717  1
  O  O40  1  0.391559  0.609081  0.544650  1
  O  O41  1  0.440193  0.463135  0.788791  1
  O  O42  1  0.463691  0.802937  0.337717  1
  O  O43  1  0.440193  0.036865  0.288791  1
