# generated using pymatgen
data_LiFeSiO4
_symmetry_space_group_name_H-M   'P 1'
_cell_length_a   4.98397986
_cell_length_b   7.84712391
_cell_length_c   9.15944051
_cell_angle_alpha   90.00000000
_cell_angle_beta   90.00000000
_cell_angle_gamma   90.00000000
_symmetry_Int_Tables_number   1
_chemical_formula_structural   LiFeSiO4
_chemical_formula_sum   'Li4 Fe4 Si4 O16'
_cell_volume   358.22487134
_cell_formula_units_Z   4
loop_
 _symmetry_equiv_pos_site_id
 _symmetry_equiv_pos_as_xyz
  1  'x, y, z'
loop_
 _atom_site_type_symbol
 _atom_site_label
 _atom_site_symmetry_multiplicity
 _atom_site_fract_x
 _atom_site_fract_y
 _atom_site_fract_z
 _atom_site_occupancy
  Li  Li0  1  0.946985  0.047715  0.613498  1
  Li  Li1  1  0.446985  0.452285  0.113498  1
  Li  Li2  1  0.946985  0.547715  0.886502  1
  Li  Li3  1  0.446985  0.952285  0.386502  1
  Fe  Fe4  1  0.005833  0.177408  0.021907  1
  Fe  Fe5  1  0.505833  0.322592  0.521907  1
  Fe  Fe6  1  0.005833  0.677408  0.478093  1
  Fe  Fe7  1  0.505833  0.822592  0.978093  1
  Si  Si8  1  0.556962  0.226482  0.861366  1
  Si  Si9  1  0.056962  0.273518  0.361366  1
  Si  Si10  1  0.556962  0.726482  0.638634  1
  Si  Si11  1  0.056962  0.773518  0.138634  1
  O  O12  1  0.668629  0.050565  0.943783  1
  O  O13  1  0.222671  0.136906  0.465736  1
  O  O14  1  0.232920  0.253620  0.867225  1
  O  O15  1  0.658000  0.218209  0.690978  1
  O  O16  1  0.158000  0.281791  0.190978  1
  O  O17  1  0.732920  0.246380  0.367225  1
  O  O18  1  0.722671  0.363094  0.965736  1
  O  O19  1  0.168629  0.449435  0.443783  1
  O  O20  1  0.668629  0.550565  0.556217  1
  O  O21  1  0.222671  0.636906  0.034264  1
  O  O22  1  0.232920  0.753620  0.632775  1
  O  O23  1  0.658000  0.718209  0.809022  1
  O  O24  1  0.158000  0.781791  0.309022  1
  O  O25  1  0.732920  0.746380  0.132775  1
  O  O26  1  0.722671  0.863094  0.534264  1
  O  O27  1  0.168629  0.949435  0.056217  1
