# generated using pymatgen
data_CrOF
_symmetry_space_group_name_H-M   'P 1'
_cell_length_a   7.74625146
_cell_length_b   3.06260621
_cell_length_c   11.84908172
_cell_angle_alpha   90.00000000
_cell_angle_beta   96.28758293
_cell_angle_gamma   90.00000000
_symmetry_Int_Tables_number   1
_chemical_formula_structural   CrOF
_chemical_formula_sum   'Cr8 O8 F8'
_cell_volume   279.41334860
_cell_formula_units_Z   8
loop_
 _symmetry_equiv_pos_site_id
 _symmetry_equiv_pos_as_xyz
  1  'x, y, z'
loop_
 _atom_site_type_symbol
 _atom_site_label
 _atom_site_symmetry_multiplicity
 _atom_site_fract_x
 _atom_site_fract_y
 _atom_site_fract_z
 _atom_site_occupancy
  Cr  Cr0  1  0.856424  0.750000  0.137577  1
  Cr  Cr1  1  0.831929  0.250000  0.484536  1
  Cr  Cr2  1  0.785515  0.750000  0.715620  1
  Cr  Cr3  1  0.386346  0.750000  0.077783  1
  Cr  Cr4  1  0.613654  0.250000  0.922217  1
  Cr  Cr5  1  0.214485  0.250000  0.284380  1
  Cr  Cr6  1  0.168071  0.750000  0.515464  1
  Cr  Cr7  1  0.143576  0.250000  0.862423  1
  O  O8  1  0.937837  0.750000  0.578195  1
  O  O9  1  0.628026  0.750000  0.042397  1
  O  O10  1  0.897918  0.250000  0.795913  1
  O  O11  1  0.392714  0.250000  0.182424  1
  O  O12  1  0.607286  0.750000  0.817576  1
  O  O13  1  0.102082  0.750000  0.204087  1
  O  O14  1  0.371974  0.250000  0.957603  1
  O  O15  1  0.062163  0.250000  0.421805  1
  F  F16  1  0.895960  0.250000  0.036881  1
  F  F17  1  0.803745  0.250000  0.230706  1
  F  F18  1  0.717669  0.750000  0.401436  1
  F  F19  1  0.665729  0.250000  0.609283  1
  F  F20  1  0.334271  0.750000  0.390717  1
  F  F21  1  0.282331  0.250000  0.598564  1
  F  F22  1  0.196255  0.750000  0.769294  1
  F  F23  1  0.104040  0.750000  0.963119  1
