# generated using pymatgen
data_Cr2P4H3O16
_symmetry_space_group_name_H-M   'P 1'
_cell_length_a   4.92660280
_cell_length_b   7.38825918
_cell_length_c   7.98963477
_cell_angle_alpha   90.39957662
_cell_angle_beta   90.46223109
_cell_angle_gamma   102.02774912
_symmetry_Int_Tables_number   1
_chemical_formula_structural   Cr2P4H3O16
_chemical_formula_sum   'Cr2 P4 H3 O16'
_cell_volume   284.41014979
_cell_formula_units_Z   1
loop_
 _symmetry_equiv_pos_site_id
 _symmetry_equiv_pos_as_xyz
  1  'x, y, z'
loop_
 _atom_site_type_symbol
 _atom_site_label
 _atom_site_symmetry_multiplicity
 _atom_site_fract_x
 _atom_site_fract_y
 _atom_site_fract_z
 _atom_site_occupancy
  Cr  Cr0  1  0.006186  0.501406  0.998941  1
  Cr  Cr1  1  0.501375  0.998156  0.500646  1
  P  P2  1  0.104985  0.242336  0.667497  1
  P  P3  1  0.389585  0.246971  0.157570  1
  P  P4  1  0.608900  0.750115  0.838979  1
  P  P5  1  0.896622  0.757160  0.332628  1
  H  H6  1  0.927845  0.966097  0.979716  1
  H  H7  1  0.352371  0.392216  0.474432  1
  H  H8  1  0.662571  0.621588  0.533187  1
  O  O9  1  0.162858  0.842385  0.430608  1
  O  O10  1  0.038071  0.301065  0.842784  1
  O  O11  1  0.201368  0.394076  0.167106  1
  O  O12  1  0.254069  0.422862  0.574728  1
  O  O13  1  0.335482  0.660928  0.922315  1
  O  O14  1  0.558717  0.798440  0.654712  1
  O  O15  1  0.247868  0.074753  0.058713  1
  O  O16  1  0.301534  0.103686  0.672301  1
  O  O17  1  0.700956  0.897431  0.327532  1
  O  O18  1  0.733386  0.932008  0.935867  1
  O  O19  1  0.436452  0.193473  0.341061  1
  O  O20  1  0.665171  0.340534  0.077888  1
  O  O21  1  0.743046  0.579958  0.429039  1
  O  O22  1  0.801715  0.609207  0.833125  1
  O  O23  1  0.960561  0.698353  0.157731  1
  O  O24  1  0.837186  0.156694  0.570996  1
