# generated using pymatgen
data_Li3Fe2(CO3)4
_symmetry_space_group_name_H-M   'P 1'
_cell_length_a   7.12630777
_cell_length_b   9.72572503
_cell_length_c   8.46502943
_cell_angle_alpha   90.00000000
_cell_angle_beta   109.58185884
_cell_angle_gamma   90.00000000
_symmetry_Int_Tables_number   1
_chemical_formula_structural   Li3Fe2(CO3)4
_chemical_formula_sum   'Li6 Fe4 C8 O24'
_cell_volume   552.76605178
_cell_formula_units_Z   2
loop_
 _symmetry_equiv_pos_site_id
 _symmetry_equiv_pos_as_xyz
  1  'x, y, z'
loop_
 _atom_site_type_symbol
 _atom_site_label
 _atom_site_symmetry_multiplicity
 _atom_site_fract_x
 _atom_site_fract_y
 _atom_site_fract_z
 _atom_site_occupancy
  Li  Li0  1  0.313077  0.182460  0.187105  1
  Li  Li1  1  0.253939  0.892527  0.909391  1
  Li  Li2  1  0.746061  0.392527  0.090609  1
  Li  Li3  1  0.686923  0.682460  0.812895  1
  Li  Li4  1  0.751380  0.606002  0.406782  1
  Li  Li5  1  0.248620  0.106002  0.593218  1
  Fe  Fe6  1  0.296899  0.369221  0.811570  1
  Fe  Fe7  1  0.703101  0.869221  0.188430  1
  Fe  Fe8  1  0.799780  0.132725  0.323752  1
  Fe  Fe9  1  0.200220  0.632725  0.676248  1
  C  C10  1  0.497413  0.111861  0.967832  1
  C  C11  1  0.502587  0.611861  0.032168  1
  C  C12  1  0.526371  0.483855  0.606895  1
  C  C13  1  0.473629  0.983855  0.393105  1
  C  C14  1  0.029811  0.014078  0.115539  1
  C  C15  1  0.970189  0.514078  0.884461  1
  C  C16  1  0.998841  0.385274  0.467858  1
  C  C17  1  0.001159  0.885274  0.532142  1
  O  O18  1  0.364565  0.158074  0.832970  1
  O  O19  1  0.474730  0.480477  0.014448  1
  O  O20  1  0.408705  0.698248  0.915358  1
  O  O21  1  0.591295  0.198248  0.084642  1
  O  O22  1  0.525270  0.980477  0.985552  1
  O  O23  1  0.362600  0.975528  0.479560  1
  O  O24  1  0.635435  0.658074  0.167030  1
  O  O25  1  0.452041  0.607101  0.628408  1
  O  O26  1  0.483656  0.378567  0.683842  1
  O  O27  1  0.516344  0.878567  0.316158  1
  O  O28  1  0.547959  0.107101  0.371592  1
  O  O29  1  0.834224  0.522074  0.951116  1
  O  O30  1  0.637400  0.475528  0.520440  1
  O  O31  1  0.918331  0.904825  0.096427  1
  O  O32  1  0.007994  0.119010  0.205379  1
  O  O33  1  0.992006  0.619010  0.794621  1
  O  O34  1  0.081669  0.404825  0.903573  1
  O  O35  1  0.866665  0.341162  0.331229  1
  O  O36  1  0.165776  0.022074  0.048884  1
  O  O37  1  0.972883  0.017244  0.514092  1
  O  O38  1  0.902174  0.799293  0.419075  1
  O  O39  1  0.097826  0.299293  0.580925  1
  O  O40  1  0.027117  0.517244  0.485908  1
  O  O41  1  0.133335  0.841162  0.668771  1
