# generated using pymatgen
data_Na3TlPCO7
_symmetry_space_group_name_H-M   'P 1'
_cell_length_a   5.40465990
_cell_length_b   7.04699147
_cell_length_c   9.38857603
_cell_angle_alpha   90.00000000
_cell_angle_beta   90.13032361
_cell_angle_gamma   90.00000000
_symmetry_Int_Tables_number   1
_chemical_formula_structural   Na3TlPCO7
_chemical_formula_sum   'Na6 Tl2 P2 C2 O14'
_cell_volume   357.57794215
_cell_formula_units_Z   2
loop_
 _symmetry_equiv_pos_site_id
 _symmetry_equiv_pos_as_xyz
  1  'x, y, z'
loop_
 _atom_site_type_symbol
 _atom_site_label
 _atom_site_symmetry_multiplicity
 _atom_site_fract_x
 _atom_site_fract_y
 _atom_site_fract_z
 _atom_site_occupancy
  Na  Na0  1  0.991018  0.483412  0.985749  1
  Na  Na1  1  0.504520  0.200641  0.828474  1
  Na  Na2  1  0.526833  0.475547  0.515057  1
  Na  Na3  1  0.473167  0.975547  0.484943  1
  Na  Na4  1  0.495480  0.700641  0.171526  1
  Na  Na5  1  0.008982  0.983412  0.014251  1
  Tl  Tl6  1  0.982891  0.758736  0.688313  1
  Tl  Tl7  1  0.017109  0.258736  0.311687  1
  P  P8  1  0.994204  0.235079  0.667972  1
  P  P9  1  0.005796  0.735079  0.332028  1
  C  C10  1  0.487886  0.744824  0.859496  1
  C  C11  1  0.512114  0.244824  0.140504  1
  O  O12  1  0.292919  0.725091  0.938655  1
  O  O13  1  0.702868  0.766320  0.920290  1
  O  O14  1  0.078527  0.091365  0.786237  1
  O  O15  1  0.933313  0.425330  0.747354  1
  O  O16  1  0.472178  0.744517  0.719863  1
  O  O17  1  0.755765  0.167598  0.593678  1
  O  O18  1  0.213603  0.256138  0.562313  1
  O  O19  1  0.786397  0.756138  0.437687  1
  O  O20  1  0.244235  0.667598  0.406322  1
  O  O21  1  0.527822  0.244517  0.280137  1
  O  O22  1  0.066687  0.925330  0.252646  1
  O  O23  1  0.921473  0.591365  0.213763  1
  O  O24  1  0.297132  0.266320  0.079710  1
  O  O25  1  0.707081  0.225091  0.061345  1
