# generated using pymatgen
data_Li4Ti3O8
_symmetry_space_group_name_H-M   'P 1'
_cell_length_a   5.88760166
_cell_length_b   5.88760166
_cell_length_c   5.88760166
_cell_angle_alpha   60.21956031
_cell_angle_beta   60.21956031
_cell_angle_gamma   60.21956031
_symmetry_Int_Tables_number   1
_chemical_formula_structural   Li4Ti3O8
_chemical_formula_sum   'Li4 Ti3 O8'
_cell_volume   145.02865144
_cell_formula_units_Z   1
loop_
 _symmetry_equiv_pos_site_id
 _symmetry_equiv_pos_as_xyz
  1  'x, y, z'
loop_
 _atom_site_type_symbol
 _atom_site_label
 _atom_site_symmetry_multiplicity
 _atom_site_fract_x
 _atom_site_fract_y
 _atom_site_fract_z
 _atom_site_occupancy
  Li  Li0  1  0.500000  0.000000  0.000000  1
  Li  Li1  1  0.000000  0.500000  1.000000  1
  Li  Li2  1  0.500000  0.500000  0.500000  1
  Li  Li3  1  1.000000  0.000000  0.500000  1
  Ti  Ti4  1  0.500000  0.500000  0.000000  1
  Ti  Ti5  1  0.500000  0.000000  0.500000  1
  Ti  Ti6  1  0.000000  0.500000  0.500000  1
  O  O7  1  0.254083  0.254083  0.254083  1
  O  O8  1  0.745317  0.745317  0.286192  1
  O  O9  1  0.713808  0.254683  0.254683  1
  O  O10  1  0.254683  0.713808  0.254683  1
  O  O11  1  0.745317  0.286192  0.745317  1
  O  O12  1  0.286192  0.745317  0.745317  1
  O  O13  1  0.254683  0.254683  0.713808  1
  O  O14  1  0.745917  0.745917  0.745917  1
