# generated using pymatgen
data_Zr2N2O
_symmetry_space_group_name_H-M   'P 1'
_cell_length_a   3.15170104
_cell_length_b   8.55525197
_cell_length_c   8.60528798
_cell_angle_alpha   90.00000000
_cell_angle_beta   90.00000000
_cell_angle_gamma   90.00000000
_symmetry_Int_Tables_number   1
_chemical_formula_structural   Zr2N2O
_chemical_formula_sum   'Zr8 N8 O4'
_cell_volume   232.02951313
_cell_formula_units_Z   4
loop_
 _symmetry_equiv_pos_site_id
 _symmetry_equiv_pos_as_xyz
  1  'x, y, z'
loop_
 _atom_site_type_symbol
 _atom_site_label
 _atom_site_symmetry_multiplicity
 _atom_site_fract_x
 _atom_site_fract_y
 _atom_site_fract_z
 _atom_site_occupancy
  Zr  Zr0  1  0.250000  0.001292  0.181776  1
  Zr  Zr1  1  0.750000  0.178757  0.494696  1
  Zr  Zr2  1  0.750000  0.321244  0.994696  1
  Zr  Zr3  1  0.250000  0.498708  0.681776  1
  Zr  Zr4  1  0.750000  0.501292  0.318224  1
  Zr  Zr5  1  0.250000  0.678756  0.005304  1
  Zr  Zr6  1  0.250000  0.821244  0.505304  1
  Zr  Zr7  1  0.750000  0.998708  0.818224  1
  N  N8  1  0.250000  0.055516  0.624331  1
  N  N9  1  0.250000  0.133017  0.952355  1
  N  N10  1  0.250000  0.366983  0.452355  1
  N  N11  1  0.250000  0.444484  0.124331  1
  N  N12  1  0.750000  0.555516  0.875669  1
  N  N13  1  0.750000  0.633017  0.547645  1
  N  N14  1  0.750000  0.866983  0.047645  1
  N  N15  1  0.750000  0.944484  0.375669  1
  O  O16  1  0.750000  0.190063  0.226270  1
  O  O17  1  0.750000  0.309937  0.726270  1
  O  O18  1  0.250000  0.690063  0.273730  1
  O  O19  1  0.250000  0.809937  0.773730  1
