# generated using pymatgen
data_LiFePH2O5
_symmetry_space_group_name_H-M   'P 1'
_cell_length_a   5.11479920
_cell_length_b   8.16108591
_cell_length_c   11.15119250
_cell_angle_alpha   90.00000000
_cell_angle_beta   90.00000000
_cell_angle_gamma   90.00000000
_symmetry_Int_Tables_number   1
_chemical_formula_structural   LiFePH2O5
_chemical_formula_sum   'Li4 Fe4 P4 H8 O20'
_cell_volume   465.47659758
_cell_formula_units_Z   4
loop_
 _symmetry_equiv_pos_site_id
 _symmetry_equiv_pos_as_xyz
  1  'x, y, z'
loop_
 _atom_site_type_symbol
 _atom_site_label
 _atom_site_symmetry_multiplicity
 _atom_site_fract_x
 _atom_site_fract_y
 _atom_site_fract_z
 _atom_site_occupancy
  Li  Li0  1  0.302920  0.682653  0.187592  1
  Li  Li1  1  0.802920  0.182653  0.312408  1
  Li  Li2  1  0.302920  0.817347  0.687592  1
  Li  Li3  1  0.802920  0.317347  0.812408  1
  Fe  Fe4  1  0.812464  0.871658  0.122580  1
  Fe  Fe5  1  0.312464  0.371658  0.377420  1
  Fe  Fe6  1  0.812464  0.628342  0.622580  1
  Fe  Fe7  1  0.312464  0.128342  0.877420  1
  P  P8  1  0.304586  0.083943  0.169662  1
  P  P9  1  0.804586  0.583943  0.330338  1
  P  P10  1  0.304586  0.416057  0.669662  1
  P  P11  1  0.804586  0.916057  0.830338  1
  H  H12  1  0.635925  0.443865  0.002438  1
  H  H13  1  0.849773  0.317660  0.040512  1
  H  H14  1  0.349773  0.817660  0.459488  1
  H  H15  1  0.135925  0.943865  0.497562  1
  H  H16  1  0.635925  0.056135  0.502438  1
  H  H17  1  0.849773  0.182340  0.540512  1
  H  H18  1  0.349773  0.682340  0.959488  1
  H  H19  1  0.135925  0.556135  0.997562  1
  O  O20  1  0.313012  0.595064  0.017526  1
  O  O21  1  0.352718  0.173436  0.049543  1
  O  O22  1  0.426403  0.908907  0.166423  1
  O  O23  1  0.004745  0.067511  0.193372  1
  O  O24  1  0.931183  0.683443  0.226943  1
  O  O25  1  0.431183  0.183443  0.273057  1
  O  O26  1  0.504745  0.567511  0.306628  1
  O  O27  1  0.926403  0.408907  0.333577  1
  O  O28  1  0.852718  0.673436  0.450457  1
  O  O29  1  0.813012  0.095064  0.482474  1
  O  O30  1  0.313012  0.904936  0.517526  1
  O  O31  1  0.352718  0.326564  0.549543  1
  O  O32  1  0.426403  0.591093  0.666423  1
  O  O33  1  0.004745  0.432489  0.693372  1
  O  O34  1  0.931183  0.816557  0.726943  1
  O  O35  1  0.431183  0.316557  0.773057  1
  O  O36  1  0.504745  0.932489  0.806628  1
  O  O37  1  0.926403  0.091093  0.833577  1
  O  O38  1  0.852718  0.826564  0.950457  1
  O  O39  1  0.813012  0.404936  0.982474  1
