# generated using pymatgen
data_Li4Fe3Ni3(TeO8)2
_symmetry_space_group_name_H-M   'P 1'
_cell_length_a   5.94146506
_cell_length_b   5.94146506
_cell_length_c   9.70661958
_cell_angle_alpha   89.69260652
_cell_angle_beta   90.30739348
_cell_angle_gamma   120.03997093
_symmetry_Int_Tables_number   1
_chemical_formula_structural   Li4Fe3Ni3(TeO8)2
_chemical_formula_sum   'Li4 Fe3 Ni3 Te2 O16'
_cell_volume   296.62130593
_cell_formula_units_Z   1
loop_
 _symmetry_equiv_pos_site_id
 _symmetry_equiv_pos_as_xyz
  1  'x, y, z'
loop_
 _atom_site_type_symbol
 _atom_site_label
 _atom_site_symmetry_multiplicity
 _atom_site_fract_x
 _atom_site_fract_y
 _atom_site_fract_z
 _atom_site_occupancy
  Li  Li0  1  0.335057  0.664943  0.091232  1
  Li  Li1  1  0.002867  0.997133  0.016356  1
  Li  Li2  1  0.001952  0.998048  0.512956  1
  Li  Li3  1  0.667000  0.333000  0.587668  1
  Fe  Fe4  1  0.168896  0.341131  0.787419  1
  Fe  Fe5  1  0.658869  0.831104  0.787419  1
  Fe  Fe6  1  0.829251  0.170749  0.286805  1
  Ni  Ni7  1  0.171608  0.828392  0.788718  1
  Ni  Ni8  1  0.341227  0.170832  0.287884  1
  Ni  Ni9  1  0.829168  0.658773  0.287884  1
  Te  Te10  1  0.330514  0.669486  0.514648  1
  Te  Te11  1  0.664007  0.335993  0.018388  1
  O  O12  1  0.168122  0.344844  0.408737  1
  O  O13  1  0.480719  0.519281  0.647334  1
  O  O14  1  0.339420  0.660580  0.891407  1
  O  O15  1  0.997242  0.002758  0.701727  1
  O  O16  1  0.998181  0.001819  0.203631  1
  O  O17  1  0.655156  0.831878  0.408737  1
  O  O18  1  0.037748  0.514996  0.646825  1
  O  O19  1  0.485004  0.962252  0.646825  1
  O  O20  1  0.826535  0.173465  0.907654  1
  O  O21  1  0.168934  0.831066  0.409943  1
  O  O22  1  0.522532  0.036262  0.146751  1
  O  O23  1  0.963738  0.477468  0.146751  1
  O  O24  1  0.669516  0.330484  0.388038  1
  O  O25  1  0.341552  0.174281  0.910563  1
  O  O26  1  0.518822  0.481178  0.149454  1
  O  O27  1  0.825719  0.658448  0.910563  1
