# generated using pymatgen
data_Li2FeF6
_symmetry_space_group_name_H-M   'P 1'
_cell_length_a   5.01292250
_cell_length_b   5.01292250
_cell_length_c   4.48559079
_cell_angle_alpha   88.44283061
_cell_angle_beta   91.55716939
_cell_angle_gamma   59.68332040
_symmetry_Int_Tables_number   1
_chemical_formula_structural   Li2FeF6
_chemical_formula_sum   'Li2 Fe1 F6'
_cell_volume   97.16032763
_cell_formula_units_Z   1
loop_
 _symmetry_equiv_pos_site_id
 _symmetry_equiv_pos_as_xyz
  1  'x, y, z'
loop_
 _atom_site_type_symbol
 _atom_site_label
 _atom_site_symmetry_multiplicity
 _atom_site_fract_x
 _atom_site_fract_y
 _atom_site_fract_z
 _atom_site_occupancy
  Li  Li0  1  0.317492  0.317492  0.000000  1
  Li  Li1  1  0.682508  0.682508  0.000000  1
  Fe  Fe2  1  0.000000  1.000000  0.500000  1
  F  F3  1  0.680377  0.008662  0.247404  1
  F  F4  1  0.319623  0.991338  0.752596  1
  F  F5  1  0.991338  0.319623  0.247404  1
  F  F6  1  0.707814  0.292186  0.721912  1
  F  F7  1  0.008662  0.680377  0.752596  1
  F  F8  1  0.292186  0.707814  0.278088  1
