# generated using pymatgen
data_TiCu(PO4)2
_symmetry_space_group_name_H-M   'P 1'
_cell_length_a   4.92435412
_cell_length_b   5.98457436
_cell_length_c   9.85679932
_cell_angle_alpha   90.00000000
_cell_angle_beta   90.76993200
_cell_angle_gamma   90.00000000
_symmetry_Int_Tables_number   1
_chemical_formula_structural   TiCu(PO4)2
_chemical_formula_sum   'Ti2 Cu2 P4 O16'
_cell_volume   290.45526027
_cell_formula_units_Z   2
loop_
 _symmetry_equiv_pos_site_id
 _symmetry_equiv_pos_as_xyz
  1  'x, y, z'
loop_
 _atom_site_type_symbol
 _atom_site_label
 _atom_site_symmetry_multiplicity
 _atom_site_fract_x
 _atom_site_fract_y
 _atom_site_fract_z
 _atom_site_occupancy
  Ti  Ti0  1  0.472941  0.750000  0.223391  1
  Ti  Ti1  1  0.527059  0.250000  0.776609  1
  Cu  Cu2  1  0.918814  0.250000  0.284369  1
  Cu  Cu3  1  0.081186  0.750000  0.715631  1
  P  P4  1  0.433345  0.250000  0.101182  1
  P  P5  1  0.909932  0.750000  0.402971  1
  P  P6  1  0.090068  0.250000  0.597029  1
  P  P7  1  0.566655  0.750000  0.898818  1
  O  O8  1  0.648960  0.750000  0.052109  1
  O  O9  1  0.742996  0.250000  0.112399  1
  O  O10  1  0.304453  0.040400  0.170815  1
  O  O11  1  0.304453  0.459600  0.170815  1
  O  O12  1  0.751711  0.944359  0.327513  1
  O  O13  1  0.751711  0.555641  0.327513  1
  O  O14  1  0.212691  0.750000  0.367912  1
  O  O15  1  0.137720  0.250000  0.445854  1
  O  O16  1  0.862280  0.750000  0.554146  1
  O  O17  1  0.787309  0.250000  0.632088  1
  O  O18  1  0.248289  0.055641  0.672487  1
  O  O19  1  0.248289  0.444359  0.672487  1
  O  O20  1  0.695547  0.540400  0.829185  1
  O  O21  1  0.695547  0.959600  0.829185  1
  O  O22  1  0.257004  0.750000  0.887601  1
  O  O23  1  0.351040  0.250000  0.947891  1
