# generated using pymatgen
data_Li2Co2OF6
_symmetry_space_group_name_H-M   'P 1'
_cell_length_a   5.21477483
_cell_length_b   6.83136180
_cell_length_c   8.45999134
_cell_angle_alpha   69.90939387
_cell_angle_beta   76.53968137
_cell_angle_gamma   85.07978560
_symmetry_Int_Tables_number   1
_chemical_formula_structural   Li2Co2OF6
_chemical_formula_sum   'Li4 Co4 O2 F12'
_cell_volume   275.25982446
_cell_formula_units_Z   2
loop_
 _symmetry_equiv_pos_site_id
 _symmetry_equiv_pos_as_xyz
  1  'x, y, z'
loop_
 _atom_site_type_symbol
 _atom_site_label
 _atom_site_symmetry_multiplicity
 _atom_site_fract_x
 _atom_site_fract_y
 _atom_site_fract_z
 _atom_site_occupancy
  Li  Li0  1  0.343548  0.757138  0.902776  1
  Li  Li1  1  0.868812  0.983989  0.751063  1
  Li  Li2  1  0.126274  0.008692  0.259242  1
  Li  Li3  1  0.671376  0.253685  0.088094  1
  Co  Co4  1  0.268831  0.284167  0.823881  1
  Co  Co5  1  0.823325  0.519463  0.664801  1
  Co  Co6  1  0.161689  0.477553  0.329857  1
  Co  Co7  1  0.705686  0.711260  0.203932  1
  O  O8  1  0.942842  0.388221  0.874240  1
  O  O9  1  0.821946  0.582256  0.408169  1
  F  F10  1  0.650933  0.811013  0.974824  1
  F  F11  1  0.457188  0.566249  0.776000  1
  F  F12  1  0.911850  0.791524  0.628734  1
  F  F13  1  0.652607  0.244620  0.704186  1
  F  F14  1  0.189568  0.017684  0.811441  1
  F  F15  1  0.196716  0.418070  0.570769  1
  F  F16  1  0.814953  0.986130  0.188386  1
  F  F17  1  0.328319  0.753862  0.296525  1
  F  F18  1  0.086403  0.206892  0.371973  1
  F  F19  1  0.544502  0.437994  0.222081  1
  F  F20  1  0.080277  0.618403  0.101345  1
  F  F21  1  0.352353  0.181132  0.047681  1
