# generated using pymatgen
data_Li2FeS2
_symmetry_space_group_name_H-M   'P 1'
_cell_length_a   8.86869192
_cell_length_b   6.13598891
_cell_length_c   15.66062406
_cell_angle_alpha   90.00000000
_cell_angle_beta   121.72689902
_cell_angle_gamma   90.00000000
_symmetry_Int_Tables_number   1
_chemical_formula_structural   Li2FeS2
_chemical_formula_sum   'Li16 Fe8 S16'
_cell_volume   724.87038928
_cell_formula_units_Z   8
loop_
 _symmetry_equiv_pos_site_id
 _symmetry_equiv_pos_as_xyz
  1  'x, y, z'
loop_
 _atom_site_type_symbol
 _atom_site_label
 _atom_site_symmetry_multiplicity
 _atom_site_fract_x
 _atom_site_fract_y
 _atom_site_fract_z
 _atom_site_occupancy
  Li  Li0  1  0.351983  0.482832  0.253330  1
  Li  Li1  1  0.383639  0.941954  0.337966  1
  Li  Li2  1  0.146441  0.376190  0.952096  1
  Li  Li3  1  0.918700  0.469159  0.687735  1
  Li  Li4  1  0.081300  0.969159  0.812265  1
  Li  Li5  1  0.853559  0.876190  0.547904  1
  Li  Li6  1  0.616361  0.441954  0.162034  1
  Li  Li7  1  0.648017  0.982832  0.246670  1
  Li  Li8  1  0.351983  0.017168  0.753330  1
  Li  Li9  1  0.383639  0.558046  0.837966  1
  Li  Li10  1  0.146441  0.123810  0.452096  1
  Li  Li11  1  0.918700  0.030841  0.187735  1
  Li  Li12  1  0.081300  0.530841  0.312265  1
  Li  Li13  1  0.853559  0.623810  0.047904  1
  Li  Li14  1  0.616361  0.058046  0.662034  1
  Li  Li15  1  0.648017  0.517168  0.746670  1
  Fe  Fe16  1  0.128363  0.991494  0.089895  1
  Fe  Fe17  1  0.628102  0.485383  0.474873  1
  Fe  Fe18  1  0.371898  0.985383  0.025127  1
  Fe  Fe19  1  0.871637  0.491494  0.410105  1
  Fe  Fe20  1  0.128363  0.508506  0.589895  1
  Fe  Fe21  1  0.628102  0.014617  0.974873  1
  Fe  Fe22  1  0.371898  0.514617  0.525127  1
  Fe  Fe23  1  0.871637  0.008506  0.910105  1
  S  S24  1  0.640618  0.705336  0.600195  1
  S  S25  1  0.872617  0.240353  0.796023  1
  S  S26  1  0.117601  0.770151  0.960134  1
  S  S27  1  0.373122  0.217387  0.143681  1
  S  S28  1  0.626878  0.717387  0.356319  1
  S  S29  1  0.882399  0.270151  0.539866  1
  S  S30  1  0.640618  0.794664  0.100195  1
  S  S31  1  0.127383  0.740353  0.703977  1
  S  S32  1  0.872617  0.259647  0.296023  1
  S  S33  1  0.359382  0.205336  0.899805  1
  S  S34  1  0.117601  0.729849  0.460134  1
  S  S35  1  0.373122  0.282613  0.643681  1
  S  S36  1  0.626878  0.782613  0.856319  1
  S  S37  1  0.882399  0.229849  0.039866  1
  S  S38  1  0.127383  0.759647  0.203977  1
  S  S39  1  0.359382  0.294664  0.399805  1
