# generated using pymatgen
data_HfSnO3
_symmetry_space_group_name_H-M   'P 1'
_cell_length_a   7.45647786
_cell_length_b   7.45647786
_cell_length_c   7.45647786
_cell_angle_alpha   42.87209920
_cell_angle_beta   42.87209920
_cell_angle_gamma   42.87209920
_symmetry_Int_Tables_number   1
_chemical_formula_structural   HfSnO3
_chemical_formula_sum   'Hf2 Sn2 O6'
_cell_volume   173.89667359
_cell_formula_units_Z   2
loop_
 _symmetry_equiv_pos_site_id
 _symmetry_equiv_pos_as_xyz
  1  'x, y, z'
loop_
 _atom_site_type_symbol
 _atom_site_label
 _atom_site_symmetry_multiplicity
 _atom_site_fract_x
 _atom_site_fract_y
 _atom_site_fract_z
 _atom_site_occupancy
  Hf  Hf0  1  0.333048  0.333048  0.333048  1
  Hf  Hf1  1  0.666952  0.666952  0.666952  1
  Sn  Sn2  1  0.108981  0.108981  0.108981  1
  Sn  Sn3  1  0.891019  0.891019  0.891019  1
  O  O4  1  0.055529  0.403262  0.705707  1
  O  O5  1  0.403262  0.705707  0.055529  1
  O  O6  1  0.294293  0.944471  0.596738  1
  O  O7  1  0.705707  0.055529  0.403262  1
  O  O8  1  0.596738  0.294293  0.944471  1
  O  O9  1  0.944471  0.596738  0.294293  1
