# generated using pymatgen
data_Li2Cr3NiO8
_symmetry_space_group_name_H-M   'P 1'
_cell_length_a   8.30941278
_cell_length_b   8.33552737
_cell_length_c   8.38919614
_cell_angle_alpha   89.88641614
_cell_angle_beta   89.84247499
_cell_angle_gamma   89.67839908
_symmetry_Int_Tables_number   1
_chemical_formula_structural   Li2Cr3NiO8
_chemical_formula_sum   'Li8 Cr12 Ni4 O32'
_cell_volume   581.05125190
_cell_formula_units_Z   4
loop_
 _symmetry_equiv_pos_site_id
 _symmetry_equiv_pos_as_xyz
  1  'x, y, z'
loop_
 _atom_site_type_symbol
 _atom_site_label
 _atom_site_symmetry_multiplicity
 _atom_site_fract_x
 _atom_site_fract_y
 _atom_site_fract_z
 _atom_site_occupancy
  Li  Li0  1  0.996333  0.002432  0.999820  1
  Li  Li1  1  0.748064  0.749405  0.250687  1
  Li  Li2  1  0.251451  0.750480  0.750219  1
  Li  Li3  1  0.502799  0.503630  0.001724  1
  Li  Li4  1  0.000623  0.503726  0.499950  1
  Li  Li5  1  0.252409  0.249990  0.247722  1
  Li  Li6  1  0.750185  0.249318  0.750181  1
  Li  Li7  1  0.497670  0.000766  0.498476  1
  Cr  Cr8  1  0.371585  0.870272  0.128307  1
  Cr  Cr9  1  0.120431  0.872525  0.377294  1
  Cr  Cr10  1  0.869440  0.871940  0.625713  1
  Cr  Cr11  1  0.377491  0.623438  0.380176  1
  Cr  Cr12  1  0.626371  0.625054  0.621499  1
  Cr  Cr13  1  0.876473  0.625270  0.877701  1
  Cr  Cr14  1  0.629088  0.372785  0.378234  1
  Cr  Cr15  1  0.879361  0.372585  0.122427  1
  Cr  Cr16  1  0.125542  0.373048  0.867300  1
  Cr  Cr17  1  0.623477  0.123853  0.128130  1
  Cr  Cr18  1  0.375102  0.121803  0.870867  1
  Cr  Cr19  1  0.117752  0.121030  0.624700  1
  Ni  Ni20  1  0.627638  0.875951  0.875140  1
  Ni  Ni21  1  0.123458  0.627365  0.125008  1
  Ni  Ni22  1  0.375482  0.376811  0.625167  1
  Ni  Ni23  1  0.876555  0.128143  0.373373  1
  O  O24  1  0.605258  0.897563  0.129782  1
  O  O25  1  0.395392  0.888851  0.888234  1
  O  O26  1  0.105946  0.883692  0.615715  1
  O  O27  1  0.144705  0.878216  0.139859  1
  O  O28  1  0.896427  0.876556  0.389714  1
  O  O29  1  0.359161  0.860897  0.364848  1
  O  O30  1  0.647480  0.867061  0.625751  1
  O  O31  1  0.856859  0.863174  0.863980  1
  O  O32  1  0.376397  0.647005  0.143909  1
  O  O33  1  0.140542  0.644804  0.367798  1
  O  O34  1  0.869774  0.641013  0.644292  1
  O  O35  1  0.387556  0.623438  0.603277  1
  O  O36  1  0.641537  0.644987  0.863223  1
  O  O37  1  0.614413  0.609164  0.385009  1
  O  O38  1  0.869165  0.605038  0.104096  1
  O  O39  1  0.105379  0.610027  0.877414  1
  O  O40  1  0.394330  0.396787  0.370506  1
  O  O41  1  0.621223  0.385329  0.606028  1
  O  O42  1  0.891338  0.386418  0.884471  1
  O  O43  1  0.857048  0.377284  0.358004  1
  O  O44  1  0.104054  0.375350  0.104663  1
  O  O45  1  0.640054  0.357443  0.133413  1
  O  O46  1  0.355212  0.353973  0.880881  1
  O  O47  1  0.124413  0.358466  0.643753  1
  O  O48  1  0.626298  0.141214  0.357073  1
  O  O49  1  0.859614  0.144125  0.130896  1
  O  O50  1  0.135987  0.133318  0.856643  1
  O  O51  1  0.613149  0.109617  0.891972  1
  O  O52  1  0.356300  0.126180  0.647519  1
  O  O53  1  0.384694  0.109171  0.106310  1
  O  O54  1  0.132974  0.106208  0.398786  1
  O  O55  1  0.892404  0.106013  0.622500  1
