# generated using pymatgen
data_Al11InO17
_symmetry_space_group_name_H-M   'P 1'
_cell_length_a   5.65614666
_cell_length_b   5.65614666
_cell_length_c   23.06173253
_cell_angle_alpha   90.00000000
_cell_angle_beta   90.00000000
_cell_angle_gamma   120.00000000
_symmetry_Int_Tables_number   1
_chemical_formula_structural   Al11InO17
_chemical_formula_sum   'Al22 In2 O34'
_cell_volume   638.94560419
_cell_formula_units_Z   2
loop_
 _symmetry_equiv_pos_site_id
 _symmetry_equiv_pos_as_xyz
  1  'x, y, z'
loop_
 _atom_site_type_symbol
 _atom_site_label
 _atom_site_symmetry_multiplicity
 _atom_site_fract_x
 _atom_site_fract_y
 _atom_site_fract_z
 _atom_site_occupancy
  Al  Al0  1  0.167328  0.832672  0.894351  1
  Al  Al1  1  0.167328  0.832672  0.605649  1
  Al  Al2  1  0.333333  0.666667  0.175436  1
  Al  Al3  1  0.333333  0.666667  0.024636  1
  Al  Al4  1  0.000000  0.000000  0.000000  1
  Al  Al5  1  0.000000  0.000000  0.500000  1
  Al  Al6  1  0.333333  0.666667  0.324564  1
  Al  Al7  1  0.333333  0.666667  0.475364  1
  Al  Al8  1  0.167328  0.334656  0.605649  1
  Al  Al9  1  0.167328  0.334656  0.894351  1
  Al  Al10  1  0.665344  0.832672  0.894351  1
  Al  Al11  1  0.665344  0.832672  0.605649  1
  Al  Al12  1  0.334656  0.167328  0.394351  1
  Al  Al13  1  0.334656  0.167328  0.105649  1
  Al  Al14  1  0.832672  0.665344  0.394351  1
  Al  Al15  1  0.666667  0.333333  0.675436  1
  Al  Al16  1  0.666667  0.333333  0.824564  1
  Al  Al17  1  0.666667  0.333333  0.975364  1
  Al  Al18  1  0.666667  0.333333  0.524636  1
  Al  Al19  1  0.832672  0.665344  0.105649  1
  Al  Al20  1  0.832672  0.167328  0.105649  1
  Al  Al21  1  0.832672  0.167328  0.394351  1
  In  In22  1  0.333333  0.666667  0.750000  1
  In  In23  1  0.666667  0.333333  0.250000  1
  O  O24  1  0.157173  0.842827  0.049174  1
  O  O25  1  0.157173  0.842827  0.450826  1
  O  O26  1  0.003142  0.501571  0.855935  1
  O  O27  1  0.003142  0.501571  0.644065  1
  O  O28  1  0.157173  0.314345  0.450826  1
  O  O29  1  0.333333  0.666667  0.250000  1
  O  O30  1  0.000000  0.000000  0.139731  1
  O  O31  1  0.333333  0.666667  0.944916  1
  O  O32  1  0.000000  0.000000  0.360269  1
  O  O33  1  0.000000  0.000000  0.639731  1
  O  O34  1  0.000000  0.000000  0.860269  1
  O  O35  1  0.333333  0.666667  0.555084  1
  O  O36  1  0.157173  0.314345  0.049174  1
  O  O37  1  0.498429  0.996858  0.644065  1
  O  O38  1  0.498429  0.996858  0.855935  1
  O  O39  1  0.314345  0.157173  0.549174  1
  O  O40  1  0.314345  0.157173  0.950826  1
  O  O41  1  0.498429  0.501571  0.855935  1
  O  O42  1  0.498429  0.501571  0.644065  1
  O  O43  1  0.501571  0.498429  0.144065  1
  O  O44  1  0.501571  0.498429  0.355935  1
  O  O45  1  0.685655  0.842827  0.450826  1
  O  O46  1  0.685655  0.842827  0.049174  1
  O  O47  1  0.501571  0.003142  0.355935  1
  O  O48  1  0.666667  0.333333  0.444916  1
  O  O49  1  0.666667  0.333333  0.750000  1
  O  O50  1  0.666667  0.333333  0.055084  1
  O  O51  1  0.842827  0.685655  0.950826  1
  O  O52  1  0.842827  0.685655  0.549174  1
  O  O53  1  0.501571  0.003142  0.144065  1
  O  O54  1  0.996858  0.498429  0.144065  1
  O  O55  1  0.996858  0.498429  0.355935  1
  O  O56  1  0.842827  0.157173  0.549174  1
  O  O57  1  0.842827  0.157173  0.950826  1
