# generated using pymatgen
data_V(CO3)2
_symmetry_space_group_name_H-M   'P 1'
_cell_length_a   6.07232872
_cell_length_b   6.07232872
_cell_length_c   6.07232872
_cell_angle_alpha   47.11257635
_cell_angle_beta   47.11257635
_cell_angle_gamma   47.11257635
_symmetry_Int_Tables_number   1
_chemical_formula_structural   V(CO3)2
_chemical_formula_sum   'V1 C2 O6'
_cell_volume   109.90414633
_cell_formula_units_Z   1
loop_
 _symmetry_equiv_pos_site_id
 _symmetry_equiv_pos_as_xyz
  1  'x, y, z'
loop_
 _atom_site_type_symbol
 _atom_site_label
 _atom_site_symmetry_multiplicity
 _atom_site_fract_x
 _atom_site_fract_y
 _atom_site_fract_z
 _atom_site_occupancy
  V  V0  1  0.500000  0.500000  0.500000  1
  C  C1  1  0.765800  0.765800  0.765800  1
  C  C2  1  0.234200  0.234200  0.234200  1
  O  O3  1  0.305415  0.459355  0.941519  1
  O  O4  1  0.058481  0.694585  0.540645  1
  O  O5  1  0.540645  0.058481  0.694585  1
  O  O6  1  0.459355  0.941519  0.305415  1
  O  O7  1  0.941519  0.305415  0.459355  1
  O  O8  1  0.694585  0.540645  0.058481  1
