# generated using pymatgen
data_Li5Co3(SnO5)2
_symmetry_space_group_name_H-M   'P 1'
_cell_length_a   5.26638688
_cell_length_b   5.27315049
_cell_length_c   8.01865477
_cell_angle_alpha   107.78389987
_cell_angle_beta   101.87734212
_cell_angle_gamma   100.79038658
_symmetry_Int_Tables_number   1
_chemical_formula_structural   Li5Co3(SnO5)2
_chemical_formula_sum   'Li5 Co3 Sn2 O10'
_cell_volume   199.88893765
_cell_formula_units_Z   1
loop_
 _symmetry_equiv_pos_site_id
 _symmetry_equiv_pos_as_xyz
  1  'x, y, z'
loop_
 _atom_site_type_symbol
 _atom_site_label
 _atom_site_symmetry_multiplicity
 _atom_site_fract_x
 _atom_site_fract_y
 _atom_site_fract_z
 _atom_site_occupancy
  Li  Li0  1  0.820722  0.514100  0.401140  1
  Li  Li1  1  0.620202  0.495528  0.797068  1
  Li  Li2  1  0.000000  0.000000  0.500000  1
  Li  Li3  1  0.379798  0.504472  0.202932  1
  Li  Li4  1  0.179278  0.485900  0.598860  1
  Co  Co5  1  0.000000  0.500000  0.000000  1
  Co  Co6  1  0.803672  0.999390  0.899225  1
  Co  Co7  1  0.196328  0.000610  0.100775  1
  Sn  Sn8  1  0.408751  0.008464  0.698626  1
  Sn  Sn9  1  0.591249  0.991536  0.301374  1
  O  O10  1  0.207822  0.237670  0.851414  1
  O  O11  1  0.373423  0.745961  0.950653  1
  O  O12  1  0.596294  0.768707  0.546195  1
  O  O13  1  0.992450  0.262608  0.222983  1
  O  O14  1  0.797563  0.229450  0.661079  1
  O  O15  1  0.202437  0.770550  0.338921  1
  O  O16  1  0.007550  0.737392  0.777017  1
  O  O17  1  0.403706  0.231293  0.453805  1
  O  O18  1  0.626577  0.254039  0.049347  1
  O  O19  1  0.792178  0.762330  0.148586  1
