# generated using pymatgen
data_LiFe2(BO3)2
_symmetry_space_group_name_H-M   'P 1'
_cell_length_a   5.30137070
_cell_length_b   9.03847143
_cell_length_c   10.10322232
_cell_angle_alpha   89.79208676
_cell_angle_beta   88.18513720
_cell_angle_gamma   89.87600869
_symmetry_Int_Tables_number   1
_chemical_formula_structural   LiFe2(BO3)2
_chemical_formula_sum   'Li4 Fe8 B8 O24'
_cell_volume   483.86186523
_cell_formula_units_Z   4
loop_
 _symmetry_equiv_pos_site_id
 _symmetry_equiv_pos_as_xyz
  1  'x, y, z'
loop_
 _atom_site_type_symbol
 _atom_site_label
 _atom_site_symmetry_multiplicity
 _atom_site_fract_x
 _atom_site_fract_y
 _atom_site_fract_z
 _atom_site_occupancy
  Li  Li0  1  0.339386  0.987514  0.158172  1
  Li  Li1  1  0.660966  0.000380  0.904590  1
  Li  Li2  1  0.157424  0.498694  0.904729  1
  Li  Li3  1  0.645086  0.005213  0.417387  1
  Fe  Fe4  1  0.164910  0.842179  0.878994  1
  Fe  Fe5  1  0.843100  0.828397  0.632322  1
  Fe  Fe6  1  0.331598  0.649340  0.134162  1
  Fe  Fe7  1  0.666663  0.660852  0.373002  1
  Fe  Fe8  1  0.334640  0.333129  0.630307  1
  Fe  Fe9  1  0.149077  0.166804  0.384792  1
  Fe  Fe10  1  0.666330  0.345853  0.874995  1
  Fe  Fe11  1  0.841116  0.173797  0.128493  1
  B  B12  1  0.174395  0.828042  0.377636  1
  B  B13  1  0.337788  0.669661  0.626119  1
  B  B14  1  0.838129  0.839844  0.133661  1
  B  B15  1  0.663003  0.670389  0.877694  1
  B  B16  1  0.326468  0.321663  0.119866  1
  B  B17  1  0.655463  0.331447  0.376208  1
  B  B18  1  0.170020  0.169364  0.879940  1
  B  B19  1  0.828191  0.166055  0.628495  1
  O  O20  1  0.294682  0.962501  0.363221  1
  O  O21  1  0.092816  0.834282  0.098971  1
  O  O22  1  0.704569  0.973412  0.118294  1
  O  O23  1  0.193256  0.793461  0.661880  1
  O  O24  1  0.300803  0.697189  0.349625  1
  O  O25  1  0.774303  0.807893  0.833806  1
  O  O26  1  0.914887  0.823809  0.417398  1
  O  O27  1  0.409261  0.671182  0.917380  1
  O  O28  1  0.244731  0.532741  0.645358  1
  O  O29  1  0.586268  0.691909  0.575260  1
  O  O30  1  0.702377  0.718606  0.179652  1
  O  O31  1  0.199222  0.449076  0.104266  1
  O  O32  1  0.807540  0.547143  0.879099  1
  O  O33  1  0.272883  0.303668  0.836245  1
  O  O34  1  0.418691  0.314577  0.434792  1
  O  O35  1  0.773674  0.463682  0.365133  1
  O  O36  1  0.581209  0.309645  0.083217  1
  O  O37  1  0.078353  0.187279  0.591454  1
  O  O38  1  0.203061  0.191230  0.165353  1
  O  O39  1  0.682126  0.282508  0.673606  1
  O  O40  1  0.776883  0.199221  0.330006  1
  O  O41  1  0.312502  0.043543  0.886818  1
  O  O42  1  0.913282  0.167714  0.922116  1
  O  O43  1  0.725265  0.026328  0.613582  1
