# generated using pymatgen
data_K2HS2NO6
_symmetry_space_group_name_H-M   'P 1'
_cell_length_a   7.45278961
_cell_length_b   7.45278961
_cell_length_c   7.27815882
_cell_angle_alpha   89.97715973
_cell_angle_beta   90.02284027
_cell_angle_gamma   117.50280150
_symmetry_Int_Tables_number   1
_chemical_formula_structural   K2HS2NO6
_chemical_formula_sum   'K4 H2 S4 N2 O12'
_cell_volume   358.57257771
_cell_formula_units_Z   2
loop_
 _symmetry_equiv_pos_site_id
 _symmetry_equiv_pos_as_xyz
  1  'x, y, z'
loop_
 _atom_site_type_symbol
 _atom_site_label
 _atom_site_symmetry_multiplicity
 _atom_site_fract_x
 _atom_site_fract_y
 _atom_site_fract_z
 _atom_site_occupancy
  K  K0  1  0.291000  0.982189  0.858351  1
  K  K1  1  0.982189  0.291000  0.641649  1
  K  K2  1  0.709000  0.017811  0.141649  1
  K  K3  1  0.017811  0.709000  0.358351  1
  H  H4  1  0.452814  0.452814  0.750000  1
  H  H5  1  0.547186  0.547186  0.250000  1
  S  S6  1  0.777678  0.578181  0.862270  1
  S  S7  1  0.578181  0.777678  0.637730  1
  S  S8  1  0.222322  0.421819  0.137730  1
  S  S9  1  0.421819  0.222322  0.362270  1
  N  N10  1  0.584433  0.584433  0.750000  1
  N  N11  1  0.415567  0.415567  0.250000  1
  O  O12  1  0.826666  0.712320  0.023095  1
  O  O13  1  0.712320  0.826666  0.476905  1
  O  O14  1  0.173334  0.287680  0.976905  1
  O  O15  1  0.287680  0.173334  0.523095  1
  O  O16  1  0.696825  0.363843  0.907711  1
  O  O17  1  0.363843  0.696825  0.592289  1
  O  O18  1  0.303175  0.636157  0.092289  1
  O  O19  1  0.636157  0.303175  0.407711  1
  O  O20  1  0.947623  0.652302  0.732074  1
  O  O21  1  0.652302  0.947623  0.767926  1
  O  O22  1  0.052377  0.347698  0.267926  1
  O  O23  1  0.347698  0.052377  0.232074  1
