# generated using pymatgen
data_Li3CuF6
_symmetry_space_group_name_H-M   'P 1'
_cell_length_a   7.42767076
_cell_length_b   7.42767076
_cell_length_c   7.42767076
_cell_angle_alpha   90.00000000
_cell_angle_beta   90.00000000
_cell_angle_gamma   90.00000000
_symmetry_Int_Tables_number   1
_chemical_formula_structural   Li3CuF6
_chemical_formula_sum   'Li12 Cu4 F24'
_cell_volume   409.78677114
_cell_formula_units_Z   4
loop_
 _symmetry_equiv_pos_site_id
 _symmetry_equiv_pos_as_xyz
  1  'x, y, z'
loop_
 _atom_site_type_symbol
 _atom_site_label
 _atom_site_symmetry_multiplicity
 _atom_site_fract_x
 _atom_site_fract_y
 _atom_site_fract_z
 _atom_site_occupancy
  Li  Li0  1  0.500000  0.000000  0.000000  1
  Li  Li1  1  0.250000  0.250000  0.250000  1
  Li  Li2  1  0.500000  0.500000  0.500000  1
  Li  Li3  1  0.000000  0.000000  0.500000  1
  Li  Li4  1  0.750000  0.250000  0.750000  1
  Li  Li5  1  0.250000  0.750000  0.750000  1
  Li  Li6  1  0.000000  0.500000  0.000000  1
  Li  Li7  1  0.000000  0.500000  0.500000  1
  Li  Li8  1  0.750000  0.750000  0.250000  1
  Li  Li9  1  0.000000  0.000000  0.000000  1
  Li  Li10  1  0.500000  0.500000  0.000000  1
  Li  Li11  1  0.500000  0.000000  0.500000  1
  Cu  Cu12  1  0.750000  0.250000  0.250000  1
  Cu  Cu13  1  0.750000  0.750000  0.750000  1
  Cu  Cu14  1  0.250000  0.250000  0.750000  1
  Cu  Cu15  1  0.250000  0.750000  0.250000  1
  F  F16  1  0.508358  0.195870  0.320719  1
  F  F17  1  0.179281  0.991642  0.304130  1
  F  F18  1  0.304130  0.179281  0.991642  1
  F  F19  1  0.195870  0.320719  0.508358  1
  F  F20  1  0.820719  0.991642  0.695870  1
  F  F21  1  0.320719  0.491642  0.804130  1
  F  F22  1  0.320719  0.508358  0.195870  1
  F  F23  1  0.008358  0.304130  0.820719  1
  F  F24  1  0.508358  0.804130  0.679281  1
  F  F25  1  0.991642  0.304130  0.179281  1
  F  F26  1  0.695870  0.179281  0.008358  1
  F  F27  1  0.195870  0.679281  0.491642  1
  F  F28  1  0.304130  0.820719  0.008358  1
  F  F29  1  0.804130  0.320719  0.491642  1
  F  F30  1  0.008358  0.695870  0.179281  1
  F  F31  1  0.491642  0.195870  0.679281  1
  F  F32  1  0.991642  0.695870  0.820719  1
  F  F33  1  0.679281  0.491642  0.195870  1
  F  F34  1  0.679281  0.508358  0.804130  1
  F  F35  1  0.179281  0.008358  0.695870  1
  F  F36  1  0.804130  0.679281  0.508358  1
  F  F37  1  0.695870  0.820719  0.991642  1
  F  F38  1  0.820719  0.008358  0.304130  1
  F  F39  1  0.491642  0.804130  0.320719  1
