# generated using pymatgen
data_LiNi(PO3)5
_symmetry_space_group_name_H-M   'P 1'
_cell_length_a   5.38471310
_cell_length_b   9.49357592
_cell_length_c   13.22151893
_cell_angle_alpha   90.00000000
_cell_angle_beta   110.80842863
_cell_angle_gamma   90.00000000
_symmetry_Int_Tables_number   1
_chemical_formula_structural   LiNi(PO3)5
_chemical_formula_sum   'Li2 Ni2 P10 O30'
_cell_volume   631.80070533
_cell_formula_units_Z   2
loop_
 _symmetry_equiv_pos_site_id
 _symmetry_equiv_pos_as_xyz
  1  'x, y, z'
loop_
 _atom_site_type_symbol
 _atom_site_label
 _atom_site_symmetry_multiplicity
 _atom_site_fract_x
 _atom_site_fract_y
 _atom_site_fract_z
 _atom_site_occupancy
  Li  Li0  1  0.939585  0.295239  0.583067  1
  Li  Li1  1  0.939585  0.704761  0.083067  1
  Ni  Ni2  1  0.031122  0.985208  0.502195  1
  Ni  Ni3  1  0.031122  0.014792  0.002195  1
  P  P4  1  0.016849  0.000405  0.752769  1
  P  P5  1  0.552606  0.521608  0.646916  1
  P  P6  1  0.367712  0.192911  0.415442  1
  P  P7  1  0.628788  0.181417  0.087025  1
  P  P8  1  0.445698  0.478691  0.352603  1
  P  P9  1  0.628788  0.818583  0.587025  1
  P  P10  1  0.445698  0.521309  0.852603  1
  P  P11  1  0.367712  0.807089  0.915442  1
  P  P12  1  0.016849  0.999595  0.252769  1
  P  P13  1  0.552606  0.478392  0.146916  1
  O  O14  1  0.771809  0.891056  0.703598  1
  O  O15  1  0.269231  0.104292  0.304327  1
  O  O16  1  0.281321  0.514946  0.065655  1
  O  O17  1  0.693632  0.344838  0.117964  1
  O  O18  1  0.771326  0.149442  0.010541  1
  O  O19  1  0.205990  0.841575  0.985350  1
  O  O20  1  0.742619  0.398382  0.668712  1
  O  O21  1  0.771326  0.850558  0.510541  1
  O  O22  1  0.771809  0.108944  0.203598  1
  O  O23  1  0.512617  0.585794  0.752427  1
  O  O24  1  0.059520  0.922520  0.160077  1
  O  O25  1  0.664448  0.819720  0.965584  1
  O  O26  1  0.706121  0.494632  0.446218  1
  O  O27  1  0.277890  0.610192  0.323466  1
  O  O28  1  0.273174  0.650353  0.870723  1
  O  O29  1  0.967680  0.077911  0.842807  1
  O  O30  1  0.693632  0.655162  0.617964  1
  O  O31  1  0.273174  0.349647  0.370723  1
  O  O32  1  0.742619  0.601618  0.168712  1
  O  O33  1  0.281321  0.485054  0.565655  1
  O  O34  1  0.337000  0.846481  0.551463  1
  O  O35  1  0.059520  0.077480  0.660077  1
  O  O36  1  0.269231  0.895708  0.804327  1
  O  O37  1  0.967680  0.922089  0.342807  1
  O  O38  1  0.205990  0.158425  0.485350  1
  O  O39  1  0.512617  0.414206  0.252427  1
  O  O40  1  0.706121  0.505368  0.946218  1
  O  O41  1  0.277890  0.389808  0.823466  1
  O  O42  1  0.664448  0.180280  0.465584  1
  O  O43  1  0.337000  0.153519  0.051463  1
