# generated using pymatgen
data_Li6CuS4
_symmetry_space_group_name_H-M   'P 1'
_cell_length_a   7.99097426
_cell_length_b   7.99097426
_cell_length_c   5.67824387
_cell_angle_alpha   90.00000000
_cell_angle_beta   90.00000000
_cell_angle_gamma   90.00000000
_symmetry_Int_Tables_number   1
_chemical_formula_structural   Li6CuS4
_chemical_formula_sum   'Li12 Cu2 S8'
_cell_volume   362.58806468
_cell_formula_units_Z   2
loop_
 _symmetry_equiv_pos_site_id
 _symmetry_equiv_pos_as_xyz
  1  'x, y, z'
loop_
 _atom_site_type_symbol
 _atom_site_label
 _atom_site_symmetry_multiplicity
 _atom_site_fract_x
 _atom_site_fract_y
 _atom_site_fract_z
 _atom_site_occupancy
  Li  Li0  1  0.276648  0.276648  0.500000  1
  Li  Li1  1  0.723352  0.276648  0.500000  1
  Li  Li2  1  0.000000  0.500000  0.453713  1
  Li  Li3  1  0.000000  0.500000  0.953713  1
  Li  Li4  1  0.276648  0.723352  0.500000  1
  Li  Li5  1  0.723352  0.723352  0.500000  1
  Li  Li6  1  0.776648  0.776648  0.000000  1
  Li  Li7  1  0.223352  0.776648  0.000000  1
  Li  Li8  1  0.500000  0.000000  0.046287  1
  Li  Li9  1  0.500000  0.000000  0.546287  1
  Li  Li10  1  0.776648  0.223352  0.000000  1
  Li  Li11  1  0.223352  0.223352  0.000000  1
  Cu  Cu12  1  0.500000  0.500000  0.000000  1
  Cu  Cu13  1  0.000000  0.000000  0.500000  1
  S  S14  1  0.000000  0.255215  0.703454  1
  S  S15  1  0.755215  0.500000  0.203454  1
  S  S16  1  0.244785  0.500000  0.203454  1
  S  S17  1  0.000000  0.744785  0.703454  1
  S  S18  1  0.500000  0.755215  0.796546  1
  S  S19  1  0.744785  0.000000  0.296546  1
  S  S20  1  0.255215  0.000000  0.296546  1
  S  S21  1  0.500000  0.244785  0.796546  1
