# generated using pymatgen
data_ZnH18Ru2Br7N6
_symmetry_space_group_name_H-M   'P 1'
_cell_length_a   9.25010903
_cell_length_b   10.49522851
_cell_length_c   10.40312378
_cell_angle_alpha   90.00000000
_cell_angle_beta   96.09945226
_cell_angle_gamma   90.00000000
_symmetry_Int_Tables_number   1
_chemical_formula_structural   ZnH18Ru2Br7N6
_chemical_formula_sum   'Zn2 H36 Ru4 Br14 N12'
_cell_volume   1004.23874349
_cell_formula_units_Z   2
loop_
 _symmetry_equiv_pos_site_id
 _symmetry_equiv_pos_as_xyz
  1  'x, y, z'
loop_
 _atom_site_type_symbol
 _atom_site_label
 _atom_site_symmetry_multiplicity
 _atom_site_fract_x
 _atom_site_fract_y
 _atom_site_fract_z
 _atom_site_occupancy
  Zn  Zn0  1  0.737446  0.250000  0.506813  1
  Zn  Zn1  1  0.262554  0.750000  0.493187  1
  H  H2  1  0.419403  0.869875  0.144046  1
  H  H3  1  0.580597  0.369875  0.855954  1
  H  H4  1  0.580597  0.130125  0.855954  1
  H  H5  1  0.419403  0.630125  0.144046  1
  H  H6  1  0.547157  0.980078  0.141580  1
  H  H7  1  0.452843  0.480078  0.858420  1
  H  H8  1  0.452843  0.019922  0.858420  1
  H  H9  1  0.547157  0.519922  0.141580  1
  H  H10  1  0.535729  0.894000  0.273440  1
  H  H11  1  0.464271  0.394000  0.726560  1
  H  H12  1  0.464271  0.106000  0.726560  1
  H  H13  1  0.535729  0.606000  0.273440  1
  H  H14  1  0.803719  0.829975  0.340621  1
  H  H15  1  0.196281  0.329975  0.659379  1
  H  H16  1  0.196281  0.170025  0.659379  1
  H  H17  1  0.803719  0.670025  0.340621  1
  H  H18  1  0.915804  0.750000  0.258738  1
  H  H19  1  0.084196  0.250000  0.741262  1
  H  H20  1  0.068170  0.750000  0.778207  1
  H  H21  1  0.931830  0.250000  0.221793  1
  H  H22  1  0.079634  0.828902  0.915830  1
  H  H23  1  0.920366  0.328902  0.084170  1
  H  H24  1  0.920366  0.171098  0.084170  1
  H  H25  1  0.079634  0.671098  0.915830  1
  H  H26  1  0.903440  0.910541  0.695194  1
  H  H27  1  0.096560  0.410541  0.304806  1
  H  H28  1  0.096560  0.089459  0.304806  1
  H  H29  1  0.903440  0.589459  0.695194  1
  H  H30  1  0.753087  0.972451  0.736052  1
  H  H31  1  0.246913  0.472451  0.263948  1
  H  H32  1  0.246913  0.027549  0.263948  1
  H  H33  1  0.753087  0.527549  0.736052  1
  H  H34  1  0.743635  0.853620  0.633478  1
  H  H35  1  0.256365  0.353620  0.366522  1
  H  H36  1  0.256365  0.146380  0.366522  1
  H  H37  1  0.743635  0.646380  0.633478  1
  Ru  Ru38  1  0.667348  0.750000  0.108864  1
  Ru  Ru39  1  0.332652  0.250000  0.891136  1
  Ru  Ru40  1  0.805713  0.750000  0.867295  1
  Ru  Ru41  1  0.194287  0.250000  0.132705  1
  Br  Br42  1  0.526758  0.750000  0.882110  1
  Br  Br43  1  0.473242  0.250000  0.117890  1
  Br  Br44  1  0.822989  0.570219  0.035205  1
  Br  Br45  1  0.177011  0.070219  0.964795  1
  Br  Br46  1  0.177011  0.429781  0.964795  1
  Br  Br47  1  0.822989  0.929781  0.035205  1
  Br  Br48  1  0.471075  0.250000  0.507130  1
  Br  Br49  1  0.528925  0.750000  0.492870  1
  Br  Br50  1  0.813483  0.250000  0.742967  1
  Br  Br51  1  0.186517  0.750000  0.257033  1
  Br  Br52  1  0.825737  0.067468  0.395863  1
  Br  Br53  1  0.174263  0.567468  0.604137  1
  Br  Br54  1  0.174263  0.932532  0.604137  1
  Br  Br55  1  0.825737  0.432532  0.395863  1
  N  N56  1  0.526553  0.890433  0.174146  1
  N  N57  1  0.473447  0.390433  0.825854  1
  N  N58  1  0.473447  0.109567  0.825854  1
  N  N59  1  0.526553  0.609567  0.174146  1
  N  N60  1  0.810850  0.750000  0.284496  1
  N  N61  1  0.189150  0.250000  0.715504  1
  N  N62  1  0.034129  0.750000  0.869320  1
  N  N63  1  0.965871  0.250000  0.130680  1
  N  N64  1  0.800654  0.886983  0.716925  1
  N  N65  1  0.199346  0.386983  0.283075  1
  N  N66  1  0.199346  0.113017  0.283075  1
  N  N67  1  0.800654  0.613017  0.716925  1
