# generated using pymatgen
data_Li4NbCo5O12
_symmetry_space_group_name_H-M   'P 1'
_cell_length_a   5.02404228
_cell_length_b   5.02404228
_cell_length_c   10.01090441
_cell_angle_alpha   86.69535597
_cell_angle_beta   93.30464403
_cell_angle_gamma   60.54464875
_symmetry_Int_Tables_number   1
_chemical_formula_structural   Li4NbCo5O12
_chemical_formula_sum   'Li4 Nb1 Co5 O12'
_cell_volume   218.57970948
_cell_formula_units_Z   1
loop_
 _symmetry_equiv_pos_site_id
 _symmetry_equiv_pos_as_xyz
  1  'x, y, z'
loop_
 _atom_site_type_symbol
 _atom_site_label
 _atom_site_symmetry_multiplicity
 _atom_site_fract_x
 _atom_site_fract_y
 _atom_site_fract_z
 _atom_site_occupancy
  Li  Li0  1  0.204932  0.455500  0.723683  1
  Li  Li1  1  0.455500  0.204932  0.276317  1
  Li  Li2  1  0.544500  0.795068  0.723683  1
  Li  Li3  1  0.795068  0.544500  0.276317  1
  Nb  Nb4  1  0.000000  0.000000  0.000000  1
  Co  Co5  1  0.164542  0.164542  0.500000  1
  Co  Co6  1  0.666523  0.666523  0.000000  1
  Co  Co7  1  0.333477  0.333477  0.000000  1
  Co  Co8  1  0.835458  0.835458  0.500000  1
  Co  Co9  1  0.500000  0.500000  0.500000  1
  O  O10  1  0.020367  0.324055  0.105535  1
  O  O11  1  0.324055  0.020367  0.894465  1
  O  O12  1  0.153809  0.491880  0.390421  1
  O  O13  1  0.508120  0.846191  0.390421  1
  O  O14  1  0.491880  0.153809  0.609578  1
  O  O15  1  0.198102  0.801898  0.600420  1
  O  O16  1  0.846191  0.508120  0.609578  1
  O  O17  1  0.675945  0.979633  0.105535  1
  O  O18  1  0.369286  0.630714  0.104390  1
  O  O19  1  0.979633  0.675945  0.894465  1
  O  O20  1  0.630714  0.369286  0.895610  1
  O  O21  1  0.801898  0.198102  0.399580  1
