# generated using pymatgen
data_Li3Fe8(BO3)8
_symmetry_space_group_name_H-M   'P 1'
_cell_length_a   5.31237162
_cell_length_b   9.03637285
_cell_length_c   10.13637115
_cell_angle_alpha   89.44712758
_cell_angle_beta   88.89420314
_cell_angle_gamma   89.53189605
_symmetry_Int_Tables_number   1
_chemical_formula_structural   Li3Fe8(BO3)8
_chemical_formula_sum   'Li3 Fe8 B8 O24'
_cell_volume   486.46336406
_cell_formula_units_Z   1
loop_
 _symmetry_equiv_pos_site_id
 _symmetry_equiv_pos_as_xyz
  1  'x, y, z'
loop_
 _atom_site_type_symbol
 _atom_site_label
 _atom_site_symmetry_multiplicity
 _atom_site_fract_x
 _atom_site_fract_y
 _atom_site_fract_z
 _atom_site_occupancy
  Li  Li0  1  0.350458  0.993423  0.093201  1
  Li  Li1  1  0.151607  0.486343  0.845178  1
  Li  Li2  1  0.656325  0.009328  0.353838  1
  Fe  Fe3  1  0.851131  0.832089  0.118786  1
  Fe  Fe4  1  0.160126  0.828822  0.372738  1
  Fe  Fe5  1  0.658774  0.669946  0.876352  1
  Fe  Fe6  1  0.349490  0.668011  0.622118  1
  Fe  Fe7  1  0.664745  0.338475  0.360476  1
  Fe  Fe8  1  0.838357  0.171420  0.627448  1
  Fe  Fe9  1  0.328372  0.344518  0.121454  1
  Fe  Fe10  1  0.164163  0.151179  0.869983  1
  B  B11  1  0.833799  0.835492  0.620401  1
  B  B12  1  0.673036  0.670874  0.376367  1
  B  B13  1  0.172776  0.822003  0.875417  1
  B  B14  1  0.333742  0.672843  0.121020  1
  B  B15  1  0.655702  0.338732  0.865293  1
  B  B16  1  0.340819  0.329025  0.618519  1
  B  B17  1  0.835777  0.163706  0.129821  1
  B  B18  1  0.169509  0.165785  0.370955  1
  O  O19  1  0.736289  0.972861  0.610659  1
  O  O20  1  0.922870  0.808450  0.910342  1
  O  O21  1  0.300591  0.947954  0.895335  1
  O  O22  1  0.800504  0.800491  0.339780  1
  O  O23  1  0.694789  0.716739  0.671433  1
  O  O24  1  0.224602  0.803549  0.178053  1
  O  O25  1  0.079033  0.804746  0.572846  1
  O  O26  1  0.573013  0.691285  0.065766  1
  O  O27  1  0.772551  0.535583  0.366040  1
  O  O28  1  0.426750  0.692099  0.428270  1
  O  O29  1  0.293775  0.692553  0.824555  1
  O  O30  1  0.781332  0.472200  0.866449  1
  O  O31  1  0.202647  0.548106  0.116022  1
  O  O32  1  0.711438  0.294602  0.168284  1
  O  O33  1  0.581914  0.307745  0.563544  1
  O  O34  1  0.256155  0.469229  0.646386  1
  O  O35  1  0.405372  0.328958  0.904440  1
  O  O36  1  0.912627  0.177107  0.407809  1
  O  O37  1  0.789345  0.214493  0.819737  1
  O  O38  1  0.305833  0.289506  0.338233  1
  O  O39  1  0.194586  0.207849  0.650597  1
  O  O40  1  0.704397  0.033487  0.142827  1
  O  O41  1  0.085174  0.165726  0.085741  1
  O  O42  1  0.281109  0.027047  0.366079  1
