# generated using pymatgen
data_Ho2(SeO4)3
_symmetry_space_group_name_H-M   'P 1'
_cell_length_a   6.79596161
_cell_length_b   6.79596161
_cell_length_c   11.30544644
_cell_angle_alpha   80.62931158
_cell_angle_beta   99.37068842
_cell_angle_gamma   62.92570162
_symmetry_Int_Tables_number   1
_chemical_formula_structural   Ho2(SeO4)3
_chemical_formula_sum   'Ho4 Se6 O24'
_cell_volume   441.72459615
_cell_formula_units_Z   2
loop_
 _symmetry_equiv_pos_site_id
 _symmetry_equiv_pos_as_xyz
  1  'x, y, z'
loop_
 _atom_site_type_symbol
 _atom_site_label
 _atom_site_symmetry_multiplicity
 _atom_site_fract_x
 _atom_site_fract_y
 _atom_site_fract_z
 _atom_site_occupancy
  Ho  Ho0  1  0.708122  0.042385  0.405468  1
  Ho  Ho1  1  0.957615  0.291878  0.905468  1
  Ho  Ho2  1  0.042385  0.708122  0.094532  1
  Ho  Ho3  1  0.291878  0.957615  0.594532  1
  Se  Se4  1  0.528416  0.214022  0.075453  1
  Se  Se5  1  0.785978  0.471584  0.575453  1
  Se  Se6  1  0.119775  0.119775  0.250000  1
  Se  Se7  1  0.880225  0.880225  0.750000  1
  Se  Se8  1  0.214022  0.528416  0.424547  1
  Se  Se9  1  0.471584  0.785978  0.924547  1
  O  O10  1  0.587024  0.027922  0.210568  1
  O  O11  1  0.873839  0.213629  0.288348  1
  O  O12  1  0.079817  0.321104  0.122494  1
  O  O13  1  0.767371  0.662905  0.456355  1
  O  O14  1  0.789415  0.111400  0.042213  1
  O  O15  1  0.469893  0.424017  0.394470  1
  O  O16  1  0.972078  0.412976  0.710568  1
  O  O17  1  0.424017  0.469893  0.105530  1
  O  O18  1  0.111400  0.789415  0.457787  1
  O  O19  1  0.662905  0.767371  0.043645  1
  O  O20  1  0.321104  0.079817  0.377506  1
  O  O21  1  0.786371  0.126161  0.788348  1
  O  O22  1  0.213629  0.873839  0.211652  1
  O  O23  1  0.678896  0.920183  0.622494  1
  O  O24  1  0.337095  0.232629  0.956355  1
  O  O25  1  0.888600  0.210585  0.542213  1
  O  O26  1  0.575983  0.530107  0.894470  1
  O  O27  1  0.027922  0.587024  0.289432  1
  O  O28  1  0.530107  0.575983  0.605530  1
  O  O29  1  0.210585  0.888600  0.957787  1
  O  O30  1  0.232629  0.337095  0.543645  1
  O  O31  1  0.920183  0.678896  0.877506  1
  O  O32  1  0.126161  0.786371  0.711652  1
  O  O33  1  0.412976  0.972078  0.789432  1
