# generated using pymatgen
data_VO2
_symmetry_space_group_name_H-M   'P 1'
_cell_length_a   4.87636229
_cell_length_b   6.49662704
_cell_length_c   8.76103907
_cell_angle_alpha   83.38543913
_cell_angle_beta   82.79447956
_cell_angle_gamma   81.91021741
_symmetry_Int_Tables_number   1
_chemical_formula_structural   VO2
_chemical_formula_sum   'V4 O8'
_cell_volume   271.26936723
_cell_formula_units_Z   4
loop_
 _symmetry_equiv_pos_site_id
 _symmetry_equiv_pos_as_xyz
  1  'x, y, z'
loop_
 _atom_site_type_symbol
 _atom_site_label
 _atom_site_symmetry_multiplicity
 _atom_site_fract_x
 _atom_site_fract_y
 _atom_site_fract_z
 _atom_site_occupancy
  V  V0  1  0.971439  0.172143  0.983396  1
  V  V1  1  0.028561  0.827857  0.016604  1
  V  V2  1  0.357230  0.009686  0.200164  1
  V  V3  1  0.642770  0.990314  0.799836  1
  O  O4  1  0.279971  0.754195  0.156766  1
  O  O5  1  0.720029  0.245805  0.843234  1
  O  O6  1  0.291646  0.015139  0.384499  1
  O  O7  1  0.708354  0.984861  0.615501  1
  O  O8  1  0.741408  0.005418  0.132591  1
  O  O9  1  0.258592  0.994582  0.867409  1
  O  O10  1  0.194225  0.261130  0.109308  1
  O  O11  1  0.805775  0.738870  0.890692  1
