# generated using pymatgen
data_Li3V2(O2F)2
_symmetry_space_group_name_H-M   'P 1'
_cell_length_a   5.97824804
_cell_length_b   5.97824804
_cell_length_c   14.94073029
_cell_angle_alpha   89.90706179
_cell_angle_beta   90.09293821
_cell_angle_gamma   119.78302484
_symmetry_Int_Tables_number   1
_chemical_formula_structural   Li3V2(O2F)2
_chemical_formula_sum   'Li12 V8 O16 F8'
_cell_volume   463.44152414
_cell_formula_units_Z   4
loop_
 _symmetry_equiv_pos_site_id
 _symmetry_equiv_pos_as_xyz
  1  'x, y, z'
loop_
 _atom_site_type_symbol
 _atom_site_label
 _atom_site_symmetry_multiplicity
 _atom_site_fract_x
 _atom_site_fract_y
 _atom_site_fract_z
 _atom_site_occupancy
  Li  Li0  1  0.136522  0.289073  0.833588  1
  Li  Li1  1  0.147626  0.330910  0.332888  1
  Li  Li2  1  0.499225  0.500775  0.973106  1
  Li  Li3  1  0.710927  0.863478  0.833588  1
  Li  Li4  1  0.669090  0.852374  0.332888  1
  Li  Li5  1  0.331145  0.668855  0.707583  1
  Li  Li6  1  0.163680  0.836320  0.336935  1
  Li  Li7  1  0.474410  0.003371  0.954114  1
  Li  Li8  1  0.673251  0.326749  0.824766  1
  Li  Li9  1  0.996629  0.525590  0.954114  1
  Li  Li10  1  0.329313  0.138950  0.703418  1
  Li  Li11  1  0.861050  0.670687  0.703418  1
  V  V12  1  0.503446  0.496554  0.491809  1
  V  V13  1  0.996946  0.003054  0.506971  1
  V  V14  1  0.332582  0.667418  0.164509  1
  V  V15  1  0.495901  0.997966  0.500549  1
  V  V16  1  0.830610  0.169390  0.163949  1
  V  V17  1  0.002034  0.504099  0.500549  1
  V  V18  1  0.334250  0.168064  0.172691  1
  V  V19  1  0.831936  0.665750  0.172691  1
  O  O20  1  0.167142  0.332585  0.103370  1
  O  O21  1  0.171105  0.332827  0.562529  1
  O  O22  1  0.489560  0.510440  0.240905  1
  O  O23  1  0.667173  0.828895  0.562529  1
  O  O24  1  0.667415  0.832858  0.103370  1
  O  O25  1  0.992219  0.007781  0.244720  1
  O  O26  1  0.327897  0.672103  0.422833  1
  O  O27  1  0.173912  0.826088  0.103975  1
  O  O28  1  0.163392  0.836608  0.574167  1
  O  O29  1  0.501525  0.990235  0.240265  1
  O  O30  1  0.839965  0.160035  0.428251  1
  O  O31  1  0.669859  0.330141  0.561760  1
  O  O32  1  0.675604  0.324396  0.101523  1
  O  O33  1  0.009765  0.498475  0.240265  1
  O  O34  1  0.314463  0.148548  0.427750  1
  O  O35  1  0.851452  0.685537  0.427750  1
  F  F36  1  0.507775  0.492225  0.743181  1
  F  F37  1  0.000817  0.999183  0.748702  1
  F  F38  1  0.336222  0.663778  0.928135  1
  F  F39  1  0.509771  0.994864  0.754301  1
  F  F40  1  0.819901  0.180099  0.910008  1
  F  F41  1  0.005136  0.490229  0.754301  1
  F  F42  1  0.350976  0.200288  0.908978  1
  F  F43  1  0.799712  0.649024  0.908978  1
