# generated using pymatgen
data_LiMnAlO4
_symmetry_space_group_name_H-M   'P 1'
_cell_length_a   5.74701094
_cell_length_b   5.74701094
_cell_length_c   8.04832172
_cell_angle_alpha   90.00000000
_cell_angle_beta   90.00000000
_cell_angle_gamma   90.00000000
_symmetry_Int_Tables_number   1
_chemical_formula_structural   LiMnAlO4
_chemical_formula_sum   'Li4 Mn4 Al4 O16'
_cell_volume   265.82105424
_cell_formula_units_Z   4
loop_
 _symmetry_equiv_pos_site_id
 _symmetry_equiv_pos_as_xyz
  1  'x, y, z'
loop_
 _atom_site_type_symbol
 _atom_site_label
 _atom_site_symmetry_multiplicity
 _atom_site_fract_x
 _atom_site_fract_y
 _atom_site_fract_z
 _atom_site_occupancy
  Li  Li0  1  0.000000  0.227453  0.000000  1
  Li  Li1  1  0.000000  0.772547  0.500000  1
  Li  Li2  1  0.227453  0.000000  0.250000  1
  Li  Li3  1  0.772547  0.000000  0.750000  1
  Mn  Mn4  1  0.234146  0.500000  0.250000  1
  Mn  Mn5  1  0.500000  0.234146  0.000000  1
  Mn  Mn6  1  0.500000  0.765854  0.500000  1
  Mn  Mn7  1  0.765854  0.500000  0.750000  1
  Al  Al8  1  0.256365  0.256365  0.625000  1
  Al  Al9  1  0.256365  0.743635  0.875000  1
  Al  Al10  1  0.743635  0.256365  0.375000  1
  Al  Al11  1  0.743635  0.743635  0.125000  1
  O  O12  1  0.006981  0.267390  0.260051  1
  O  O13  1  0.006981  0.732610  0.239949  1
  O  O14  1  0.267390  0.006981  0.989949  1
  O  O15  1  0.267390  0.993019  0.510051  1
  O  O16  1  0.263776  0.488527  0.010357  1
  O  O17  1  0.263776  0.511473  0.489643  1
  O  O18  1  0.488527  0.263776  0.239643  1
  O  O19  1  0.488527  0.736224  0.260357  1
  O  O20  1  0.511473  0.263776  0.760357  1
  O  O21  1  0.511473  0.736224  0.739643  1
  O  O22  1  0.736224  0.511473  0.510357  1
  O  O23  1  0.736224  0.488527  0.989643  1
  O  O24  1  0.732610  0.993019  0.489949  1
  O  O25  1  0.732610  0.006981  0.010051  1
  O  O26  1  0.993019  0.267390  0.739949  1
  O  O27  1  0.993019  0.732610  0.760051  1
