# generated using pymatgen
data_VNi3(PO4)4
_symmetry_space_group_name_H-M   'P 1'
_cell_length_a   4.82370774
_cell_length_b   5.79747190
_cell_length_c   9.91097180
_cell_angle_alpha   90.00000000
_cell_angle_beta   90.94171684
_cell_angle_gamma   90.00000000
_symmetry_Int_Tables_number   1
_chemical_formula_structural   VNi3(PO4)4
_chemical_formula_sum   'V1 Ni3 P4 O16'
_cell_volume   277.12596360
_cell_formula_units_Z   1
loop_
 _symmetry_equiv_pos_site_id
 _symmetry_equiv_pos_as_xyz
  1  'x, y, z'
loop_
 _atom_site_type_symbol
 _atom_site_label
 _atom_site_symmetry_multiplicity
 _atom_site_fract_x
 _atom_site_fract_y
 _atom_site_fract_z
 _atom_site_occupancy
  V  V0  1  0.971899  0.500000  0.275315  1
  Ni  Ni1  1  0.030818  0.000000  0.727992  1
  Ni  Ni2  1  0.461377  0.000000  0.226951  1
  Ni  Ni3  1  0.538014  0.500000  0.767504  1
  P  P4  1  0.079722  0.500000  0.599477  1
  P  P5  1  0.393340  0.500000  0.094653  1
  P  P6  1  0.595539  0.000000  0.902919  1
  P  P7  1  0.935592  0.000000  0.409331  1
  O  O8  1  0.144262  0.500000  0.437200  1
  O  O9  1  0.235253  0.292349  0.663037  1
  O  O10  1  0.235253  0.707651  0.663037  1
  O  O11  1  0.245206  0.000000  0.393943  1
  O  O12  1  0.278388  0.000000  0.888290  1
  O  O13  1  0.240323  0.300654  0.174900  1
  O  O14  1  0.240323  0.699346  0.174900  1
  O  O15  1  0.341156  0.500000  0.947263  1
  O  O16  1  0.658418  0.000000  0.055060  1
  O  O17  1  0.740261  0.793051  0.830968  1
  O  O18  1  0.740261  0.206949  0.830968  1
  O  O19  1  0.706563  0.500000  0.134437  1
  O  O20  1  0.769671  0.500000  0.602807  1
  O  O21  1  0.795958  0.788550  0.324489  1
  O  O22  1  0.795958  0.211450  0.324489  1
  O  O23  1  0.826445  0.000000  0.550071  1
