# generated using pymatgen
data_LiAlVO4
_symmetry_space_group_name_H-M   'P 1'
_cell_length_a   5.82186350
_cell_length_b   5.82186350
_cell_length_c   8.14207898
_cell_angle_alpha   90.00000000
_cell_angle_beta   90.00000000
_cell_angle_gamma   90.00000000
_symmetry_Int_Tables_number   1
_chemical_formula_structural   LiAlVO4
_chemical_formula_sum   'Li4 Al4 V4 O16'
_cell_volume   275.96839529
_cell_formula_units_Z   4
loop_
 _symmetry_equiv_pos_site_id
 _symmetry_equiv_pos_as_xyz
  1  'x, y, z'
loop_
 _atom_site_type_symbol
 _atom_site_label
 _atom_site_symmetry_multiplicity
 _atom_site_fract_x
 _atom_site_fract_y
 _atom_site_fract_z
 _atom_site_occupancy
  Li  Li0  1  0.000000  0.225918  0.000000  1
  Li  Li1  1  0.000000  0.774082  0.500000  1
  Li  Li2  1  0.225918  0.000000  0.250000  1
  Li  Li3  1  0.774082  0.000000  0.750000  1
  Al  Al4  1  0.258402  0.258402  0.625000  1
  Al  Al5  1  0.258402  0.741598  0.875000  1
  Al  Al6  1  0.741598  0.258402  0.375000  1
  Al  Al7  1  0.741598  0.741598  0.125000  1
  V  V8  1  0.224412  0.500000  0.250000  1
  V  V9  1  0.500000  0.224412  0.000000  1
  V  V10  1  0.500000  0.775588  0.500000  1
  V  V11  1  0.775588  0.500000  0.750000  1
  O  O12  1  0.003790  0.267180  0.261707  1
  O  O13  1  0.003790  0.732820  0.238293  1
  O  O14  1  0.267180  0.003790  0.988293  1
  O  O15  1  0.267180  0.996210  0.511707  1
  O  O16  1  0.266263  0.493222  0.010161  1
  O  O17  1  0.266263  0.506778  0.489839  1
  O  O18  1  0.493222  0.266263  0.239839  1
  O  O19  1  0.493222  0.733737  0.260161  1
  O  O20  1  0.506778  0.266263  0.760161  1
  O  O21  1  0.506778  0.733737  0.739839  1
  O  O22  1  0.733737  0.506778  0.510161  1
  O  O23  1  0.733737  0.493222  0.989839  1
  O  O24  1  0.732820  0.996210  0.488293  1
  O  O25  1  0.732820  0.003790  0.011707  1
  O  O26  1  0.996210  0.267180  0.738293  1
  O  O27  1  0.996210  0.732820  0.761707  1
