# generated using pymatgen
data_Li4Mn3Sn2Sb3O16
_symmetry_space_group_name_H-M   'P 1'
_cell_length_a   6.36100329
_cell_length_b   6.36100329
_cell_length_c   10.00359047
_cell_angle_alpha   88.66048421
_cell_angle_beta   91.33951579
_cell_angle_gamma   120.84311838
_symmetry_Int_Tables_number   1
_chemical_formula_structural   Li4Mn3Sn2Sb3O16
_chemical_formula_sum   'Li4 Mn3 Sn2 Sb3 O16'
_cell_volume   347.39861674
_cell_formula_units_Z   1
loop_
 _symmetry_equiv_pos_site_id
 _symmetry_equiv_pos_as_xyz
  1  'x, y, z'
loop_
 _atom_site_type_symbol
 _atom_site_label
 _atom_site_symmetry_multiplicity
 _atom_site_fract_x
 _atom_site_fract_y
 _atom_site_fract_z
 _atom_site_occupancy
  Li  Li0  1  0.656074  0.343926  0.888999  1
  Li  Li1  1  0.994090  0.005910  0.983091  1
  Li  Li2  1  0.996264  0.003736  0.500210  1
  Li  Li3  1  0.318839  0.681161  0.407882  1
  Mn  Mn4  1  0.831612  0.168388  0.213667  1
  Mn  Mn5  1  0.174257  0.336284  0.710915  1
  Mn  Mn6  1  0.663716  0.825743  0.710915  1
  Sn  Sn7  1  0.677776  0.322224  0.500746  1
  Sn  Sn8  1  0.344967  0.655033  0.978831  1
  Sb  Sb9  1  0.338376  0.168708  0.215278  1
  Sb  Sb10  1  0.831292  0.661624  0.215278  1
  Sb  Sb11  1  0.173081  0.826919  0.715287  1
  O  O12  1  0.331815  0.147404  0.594593  1
  O  O13  1  0.517961  0.482039  0.336863  1
  O  O14  1  0.656055  0.343945  0.105261  1
  O  O15  1  0.008212  0.991788  0.314060  1
  O  O16  1  0.016038  0.983962  0.803063  1
  O  O17  1  0.852596  0.668185  0.594593  1
  O  O18  1  0.504159  0.043440  0.340842  1
  O  O19  1  0.956560  0.495841  0.340842  1
  O  O20  1  0.160122  0.839878  0.106103  1
  O  O21  1  0.841993  0.158007  0.587431  1
  O  O22  1  0.032701  0.533570  0.846471  1
  O  O23  1  0.466430  0.967299  0.846471  1
  O  O24  1  0.318407  0.681593  0.603466  1
  O  O25  1  0.173741  0.319772  0.099149  1
  O  O26  1  0.481444  0.518556  0.848384  1
  O  O27  1  0.680228  0.826259  0.099149  1
