# generated using pymatgen
data_KAl11O17
_symmetry_space_group_name_H-M   'P 1'
_cell_length_a   11.92219629
_cell_length_b   11.92219629
_cell_length_c   11.92219629
_cell_angle_alpha   27.42031311
_cell_angle_beta   27.42031311
_cell_angle_gamma   27.42031311
_symmetry_Int_Tables_number   1
_chemical_formula_structural   KAl11O17
_chemical_formula_sum   'K1 Al11 O17'
_cell_volume   317.16757581
_cell_formula_units_Z   1
loop_
 _symmetry_equiv_pos_site_id
 _symmetry_equiv_pos_as_xyz
  1  'x, y, z'
loop_
 _atom_site_type_symbol
 _atom_site_label
 _atom_site_symmetry_multiplicity
 _atom_site_fract_x
 _atom_site_fract_y
 _atom_site_fract_z
 _atom_site_occupancy
  K  K0  1  0.829345  0.829345  0.829345  1
  Al  Al1  1  0.097459  0.097459  0.591923  1
  Al  Al2  1  0.999806  0.999806  0.999806  1
  Al  Al3  1  0.097459  0.591923  0.097459  1
  Al  Al4  1  0.591923  0.097459  0.097459  1
  Al  Al5  1  0.450263  0.450263  0.450263  1
  Al  Al6  1  0.349884  0.349884  0.349884  1
  Al  Al7  1  0.549963  0.549963  0.549963  1
  Al  Al8  1  0.649772  0.649772  0.649772  1
  Al  Al9  1  0.404883  0.903605  0.903605  1
  Al  Al10  1  0.903605  0.404883  0.903605  1
  Al  Al11  1  0.903605  0.903605  0.404883  1
  O  O12  1  0.296673  0.296673  0.296673  1
  O  O13  1  0.094267  0.094267  0.094267  1
  O  O14  1  0.280171  0.810287  0.810287  1
  O  O15  1  0.190117  0.190117  0.719344  1
  O  O16  1  0.091680  0.599173  0.599173  1
  O  O17  1  0.401988  0.401988  0.906736  1
  O  O18  1  0.599173  0.091680  0.599173  1
  O  O19  1  0.190117  0.719344  0.190117  1
  O  O20  1  0.810287  0.280171  0.810287  1
  O  O21  1  0.499917  0.499917  0.499917  1
  O  O22  1  0.401988  0.906736  0.401988  1
  O  O23  1  0.906736  0.401988  0.401988  1
  O  O24  1  0.599173  0.599173  0.091680  1
  O  O25  1  0.810287  0.810287  0.280171  1
  O  O26  1  0.719344  0.190117  0.190117  1
  O  O27  1  0.703362  0.703362  0.703362  1
  O  O28  1  0.905751  0.905751  0.905751  1
