# generated using pymatgen
data_BaY4Cl14
_symmetry_space_group_name_H-M   'P 1'
_cell_length_a   7.46696318
_cell_length_b   9.37137456
_cell_length_c   43.69849794
_cell_angle_alpha   90.00000000
_cell_angle_beta   90.00000000
_cell_angle_gamma   90.00000000
_symmetry_Int_Tables_number   1
_chemical_formula_structural   BaY4Cl14
_chemical_formula_sum   'Ba4 Y16 Cl56'
_cell_volume   3057.83336621
_cell_formula_units_Z   4
loop_
 _symmetry_equiv_pos_site_id
 _symmetry_equiv_pos_as_xyz
  1  'x, y, z'
loop_
 _atom_site_type_symbol
 _atom_site_label
 _atom_site_symmetry_multiplicity
 _atom_site_fract_x
 _atom_site_fract_y
 _atom_site_fract_z
 _atom_site_occupancy
  Ba  Ba0  1  0.226388  0.768096  0.716603  1
  Ba  Ba1  1  0.273612  0.231904  0.216603  1
  Ba  Ba2  1  0.726388  0.731904  0.283397  1
  Ba  Ba3  1  0.773612  0.268096  0.783397  1
  Y  Y4  1  0.245062  0.415002  0.621131  1
  Y  Y5  1  0.244402  0.081114  0.523605  1
  Y  Y6  1  0.235727  0.393470  0.330300  1
  Y  Y7  1  0.244401  0.745655  0.425823  1
  Y  Y8  1  0.255599  0.254345  0.925823  1
  Y  Y9  1  0.264273  0.606530  0.830300  1
  Y  Y10  1  0.255598  0.918886  0.023605  1
  Y  Y11  1  0.254938  0.584998  0.121131  1
  Y  Y12  1  0.745062  0.084998  0.378869  1
  Y  Y13  1  0.744402  0.418886  0.476395  1
  Y  Y14  1  0.735727  0.106530  0.669700  1
  Y  Y15  1  0.744401  0.754345  0.574177  1
  Y  Y16  1  0.755599  0.245655  0.074177  1
  Y  Y17  1  0.764273  0.893470  0.169700  1
  Y  Y18  1  0.755598  0.581114  0.976395  1
  Y  Y19  1  0.754938  0.915002  0.878869  1
  Cl  Cl20  1  0.038406  0.219186  0.648606  1
  Cl  Cl21  1  0.045696  0.220733  0.364895  1
  Cl  Cl22  1  0.119073  0.413600  0.793117  1
  Cl  Cl23  1  0.017098  0.569444  0.453634  1
  Cl  Cl24  1  0.019162  0.899333  0.550666  1
  Cl  Cl25  1  0.034916  0.389178  0.096818  1
  Cl  Cl26  1  0.028025  0.735444  0.997858  1
  Cl  Cl27  1  0.030925  0.073590  0.897254  1
  Cl  Cl28  1  0.069574  0.004103  0.187569  1
  Cl  Cl29  1  0.231885  0.210643  0.284226  1
  Cl  Cl30  1  0.256056  0.580551  0.377008  1
  Cl  Cl31  1  0.245125  0.917836  0.474136  1
  Cl  Cl32  1  0.238783  0.245164  0.572656  1
  Cl  Cl33  1  0.239399  0.480022  0.176538  1
  Cl  Cl34  1  0.260601  0.519978  0.676538  1
  Cl  Cl35  1  0.261217  0.754836  0.072656  1
  Cl  Cl36  1  0.254875  0.082164  0.974136  1
  Cl  Cl37  1  0.243944  0.419449  0.877008  1
  Cl  Cl38  1  0.268115  0.789357  0.784226  1
  Cl  Cl39  1  0.430426  0.995897  0.687569  1
  Cl  Cl40  1  0.469075  0.926410  0.397254  1
  Cl  Cl41  1  0.471975  0.264556  0.497858  1
  Cl  Cl42  1  0.465084  0.610822  0.596818  1
  Cl  Cl43  1  0.480838  0.100667  0.050666  1
  Cl  Cl44  1  0.482902  0.430556  0.953634  1
  Cl  Cl45  1  0.380927  0.586400  0.293117  1
  Cl  Cl46  1  0.454304  0.779267  0.864895  1
  Cl  Cl47  1  0.461594  0.780814  0.148606  1
  Cl  Cl48  1  0.538406  0.280814  0.351394  1
  Cl  Cl49  1  0.545696  0.279267  0.635105  1
  Cl  Cl50  1  0.619073  0.086400  0.206883  1
  Cl  Cl51  1  0.517098  0.930556  0.546366  1
  Cl  Cl52  1  0.519162  0.600667  0.449334  1
  Cl  Cl53  1  0.534916  0.110822  0.903182  1
  Cl  Cl54  1  0.528025  0.764556  0.002142  1
  Cl  Cl55  1  0.530925  0.426410  0.102746  1
  Cl  Cl56  1  0.569574  0.495897  0.812431  1
  Cl  Cl57  1  0.731885  0.289357  0.715774  1
  Cl  Cl58  1  0.756056  0.919449  0.622992  1
  Cl  Cl59  1  0.745125  0.582164  0.525864  1
  Cl  Cl60  1  0.738783  0.254836  0.427344  1
  Cl  Cl61  1  0.739399  0.019978  0.823462  1
  Cl  Cl62  1  0.760601  0.980022  0.323462  1
  Cl  Cl63  1  0.761217  0.745164  0.927344  1
  Cl  Cl64  1  0.754875  0.417836  0.025864  1
  Cl  Cl65  1  0.743944  0.080551  0.122992  1
  Cl  Cl66  1  0.768115  0.710643  0.215774  1
  Cl  Cl67  1  0.930426  0.504103  0.312431  1
  Cl  Cl68  1  0.969075  0.573590  0.602746  1
  Cl  Cl69  1  0.971975  0.235444  0.502142  1
  Cl  Cl70  1  0.965084  0.889178  0.403182  1
  Cl  Cl71  1  0.980838  0.399333  0.949334  1
  Cl  Cl72  1  0.982902  0.069444  0.046366  1
  Cl  Cl73  1  0.880927  0.913600  0.706883  1
  Cl  Cl74  1  0.954304  0.720733  0.135105  1
  Cl  Cl75  1  0.961594  0.719186  0.851394  1
