# generated using pymatgen
data_LiZn2Fe9O16
_symmetry_space_group_name_H-M   'P 1'
_cell_length_a   6.05239183
_cell_length_b   6.05239183
_cell_length_c   10.47543582
_cell_angle_alpha   72.91039688
_cell_angle_beta   107.08960312
_cell_angle_gamma   120.09826764
_symmetry_Int_Tables_number   1
_chemical_formula_structural   LiZn2Fe9O16
_chemical_formula_sum   'Li1 Zn2 Fe9 O16'
_cell_volume   312.31312103
_cell_formula_units_Z   1
loop_
 _symmetry_equiv_pos_site_id
 _symmetry_equiv_pos_as_xyz
  1  'x, y, z'
loop_
 _atom_site_type_symbol
 _atom_site_label
 _atom_site_symmetry_multiplicity
 _atom_site_fract_x
 _atom_site_fract_y
 _atom_site_fract_z
 _atom_site_occupancy
  Li  Li0  1  0.875631  0.124369  0.624304  1
  Zn  Zn1  1  0.935929  0.064071  0.314081  1
  Zn  Zn2  1  0.688410  0.311590  0.062743  1
  Fe  Fe3  1  0.999525  0.000475  0.996194  1
  Fe  Fe4  1  0.371731  0.628269  0.129330  1
  Fe  Fe5  1  0.503361  0.496639  0.498839  1
  Fe  Fe6  1  0.933484  0.556371  0.313362  1
  Fe  Fe7  1  0.443629  0.066516  0.313362  1
  Fe  Fe8  1  0.435249  0.564751  0.810625  1
  Fe  Fe9  1  0.191127  0.808873  0.569225  1
  Fe  Fe10  1  0.435031  0.058714  0.809469  1
  Fe  Fe11  1  0.941286  0.564969  0.809469  1
  O  O12  1  0.050497  0.441082  0.191277  1
  O  O13  1  0.558918  0.949503  0.191277  1
  O  O14  1  0.568348  0.431652  0.194802  1
  O  O15  1  0.799891  0.200109  0.416822  1
  O  O16  1  0.067770  0.932230  0.194745  1
  O  O17  1  0.303180  0.696820  0.435132  1
  O  O18  1  0.832830  0.688021  0.438522  1
  O  O19  1  0.311979  0.167170  0.438522  1
  O  O20  1  0.534500  0.917027  0.696880  1
  O  O21  1  0.082973  0.465500  0.696880  1
  O  O22  1  0.081919  0.918081  0.693682  1
  O  O23  1  0.307909  0.692091  0.930029  1
  O  O24  1  0.567686  0.432314  0.697758  1
  O  O25  1  0.802448  0.197552  0.928904  1
  O  O26  1  0.801121  0.676365  0.926884  1
  O  O27  1  0.323635  0.198879  0.926884  1
