# generated using pymatgen
data_Li4Ti3Mn3(WO8)2
_symmetry_space_group_name_H-M   'P 1'
_cell_length_a   6.04086699
_cell_length_b   6.12359123
_cell_length_c   9.86907167
_cell_angle_alpha   91.78763620
_cell_angle_beta   89.76283465
_cell_angle_gamma   119.25026159
_symmetry_Int_Tables_number   1
_chemical_formula_structural   Li4Ti3Mn3(WO8)2
_chemical_formula_sum   'Li4 Ti3 Mn3 W2 O16'
_cell_volume   318.34459893
_cell_formula_units_Z   1
loop_
 _symmetry_equiv_pos_site_id
 _symmetry_equiv_pos_as_xyz
  1  'x, y, z'
loop_
 _atom_site_type_symbol
 _atom_site_label
 _atom_site_symmetry_multiplicity
 _atom_site_fract_x
 _atom_site_fract_y
 _atom_site_fract_z
 _atom_site_occupancy
  Li  Li0  1  0.654934  0.312830  0.905222  1
  Li  Li1  1  0.002183  0.003343  0.984455  1
  Li  Li2  1  0.011353  0.021066  0.492603  1
  Li  Li3  1  0.323154  0.651328  0.408995  1
  Ti  Ti4  1  0.339388  0.191867  0.214665  1
  Ti  Ti5  1  0.827996  0.169145  0.217253  1
  Ti  Ti6  1  0.155066  0.344862  0.722925  1
  Mn  Mn7  1  0.839219  0.664519  0.208334  1
  Mn  Mn8  1  0.185727  0.845702  0.705114  1
  Mn  Mn9  1  0.661878  0.831942  0.708328  1
  W  W10  1  0.669733  0.340965  0.488678  1
  W  W11  1  0.341182  0.681315  0.984692  1
  O  O12  1  0.346297  0.181448  0.589143  1
  O  O13  1  0.525724  0.046756  0.340349  1
  O  O14  1  0.650027  0.301080  0.109876  1
  O  O15  1  0.013721  0.020404  0.304045  1
  O  O16  1  0.013601  0.023828  0.799004  1
  O  O17  1  0.840420  0.187654  0.596249  1
  O  O18  1  0.496358  0.459076  0.341312  1
  O  O19  1  0.959463  0.454003  0.340468  1
  O  O20  1  0.169144  0.332269  0.107235  1
  O  O21  1  0.834517  0.664254  0.569054  1
  O  O22  1  0.030085  0.497810  0.853818  1
  O  O23  1  0.455914  0.496444  0.860493  1
  O  O24  1  0.314987  0.623148  0.608061  1
  O  O25  1  0.188132  0.846274  0.093262  1
  O  O26  1  0.479052  0.953962  0.857490  1
  O  O27  1  0.670450  0.852711  0.096716  1
