# generated using pymatgen
data_LiFeF4
_symmetry_space_group_name_H-M   'P 1'
_cell_length_a   7.76896930
_cell_length_b   7.76896930
_cell_length_c   7.91747776
_cell_angle_alpha   90.00000000
_cell_angle_beta   90.00000000
_cell_angle_gamma   120.00000000
_symmetry_Int_Tables_number   1
_chemical_formula_structural   LiFeF4
_chemical_formula_sum   'Li6 Fe6 F24'
_cell_volume   413.85127191
_cell_formula_units_Z   6
loop_
 _symmetry_equiv_pos_site_id
 _symmetry_equiv_pos_as_xyz
  1  'x, y, z'
loop_
 _atom_site_type_symbol
 _atom_site_label
 _atom_site_symmetry_multiplicity
 _atom_site_fract_x
 _atom_site_fract_y
 _atom_site_fract_z
 _atom_site_occupancy
  Li  Li0  1  0.954753  0.800949  0.055369  1
  Li  Li1  1  0.996308  0.347227  0.999587  1
  Li  Li2  1  0.350919  0.003692  0.666254  1
  Li  Li3  1  0.199051  0.153804  0.388702  1
  Li  Li4  1  0.652773  0.649081  0.332920  1
  Li  Li5  1  0.846196  0.045247  0.722036  1
  Fe  Fe6  1  0.129511  0.662162  0.381390  1
  Fe  Fe7  1  0.337838  0.467350  0.714723  1
  Fe  Fe8  1  0.532650  0.870489  0.048057  1
  Fe  Fe9  1  0.407398  0.241536  0.064380  1
  Fe  Fe10  1  0.834138  0.592602  0.731047  1
  Fe  Fe11  1  0.758464  0.165862  0.397713  1
  F  F12  1  0.274309  0.707359  0.157926  1
  F  F13  1  0.377444  0.016526  0.925459  1
  F  F14  1  0.100454  0.732430  0.631665  1
  F  F15  1  0.983474  0.360918  0.258792  1
  F  F16  1  0.267570  0.368024  0.964999  1
  F  F17  1  0.311212  0.231495  0.616090  1
  F  F18  1  0.433051  0.725691  0.824592  1
  F  F19  1  0.292641  0.566949  0.491259  1
  F  F20  1  0.631976  0.899546  0.298332  1
  F  F21  1  0.145498  0.059425  0.149742  1
  F  F22  1  0.447597  0.382271  0.271810  1
  F  F23  1  0.292805  0.945174  0.405219  1
  F  F24  1  0.639082  0.622556  0.592126  1
  F  F25  1  0.574107  0.406121  0.850596  1
  F  F26  1  0.652369  0.707195  0.071885  1
  F  F27  1  0.913926  0.854502  0.816409  1
  F  F28  1  0.920283  0.688788  0.282757  1
  F  F29  1  0.832014  0.425893  0.517263  1
  F  F30  1  0.617729  0.065326  0.605144  1
  F  F31  1  0.934674  0.552403  0.938477  1
  F  F32  1  0.593879  0.167986  0.183929  1
  F  F33  1  0.054826  0.347631  0.738552  1
  F  F34  1  0.940575  0.086074  0.483075  1
  F  F35  1  0.768505  0.079717  0.949424  1
