# generated using pymatgen
data_Mn3VSb2(PO4)6
_symmetry_space_group_name_H-M   'P 1'
_cell_length_a   8.90960288
_cell_length_b   8.90960288
_cell_length_c   8.90960288
_cell_angle_alpha   58.82707504
_cell_angle_beta   58.82707504
_cell_angle_gamma   58.82707504
_symmetry_Int_Tables_number   1
_chemical_formula_structural   Mn3VSb2(PO4)6
_chemical_formula_sum   'Mn3 V1 Sb2 P6 O24'
_cell_volume   486.70998977
_cell_formula_units_Z   1
loop_
 _symmetry_equiv_pos_site_id
 _symmetry_equiv_pos_as_xyz
  1  'x, y, z'
loop_
 _atom_site_type_symbol
 _atom_site_label
 _atom_site_symmetry_multiplicity
 _atom_site_fract_x
 _atom_site_fract_y
 _atom_site_fract_z
 _atom_site_occupancy
  Mn  Mn0  1  0.650738  0.650738  0.650738  1
  Mn  Mn1  1  0.845536  0.845536  0.845536  1
  Mn  Mn2  1  0.353129  0.353129  0.353129  1
  V  V3  1  0.145449  0.145449  0.145449  1
  Sb  Sb4  1  0.986881  0.986881  0.986881  1
  Sb  Sb5  1  0.500611  0.500611  0.500611  1
  P  P6  1  0.249221  0.537076  0.963326  1
  P  P7  1  0.963326  0.249221  0.537076  1
  P  P8  1  0.537076  0.963326  0.249221  1
  P  P9  1  0.451686  0.048618  0.752789  1
  P  P10  1  0.048618  0.752789  0.451686  1
  P  P11  1  0.752789  0.451686  0.048618  1
  O  O12  1  0.110940  0.308347  0.507853  1
  O  O13  1  0.507853  0.110940  0.308347  1
  O  O14  1  0.308347  0.507853  0.110940  1
  O  O15  1  0.082106  0.732717  0.942637  1
  O  O16  1  0.179869  0.385430  0.011630  1
  O  O17  1  0.407262  0.552123  0.769718  1
  O  O18  1  0.942637  0.082106  0.732717  1
  O  O19  1  0.769718  0.407262  0.552123  1
  O  O20  1  0.612939  0.021796  0.792898  1
  O  O21  1  0.552123  0.769718  0.407262  1
  O  O22  1  0.264002  0.077987  0.921607  1
  O  O23  1  0.021796  0.792898  0.612939  1
  O  O24  1  0.011630  0.179869  0.385430  1
  O  O25  1  0.732717  0.942637  0.082106  1
  O  O26  1  0.426542  0.241689  0.588635  1
  O  O27  1  0.385430  0.011630  0.179869  1
  O  O28  1  0.241689  0.588635  0.426542  1
  O  O29  1  0.077987  0.921607  0.264002  1
  O  O30  1  0.588635  0.426542  0.241689  1
  O  O31  1  0.792898  0.612939  0.021796  1
  O  O32  1  0.921607  0.264002  0.077987  1
  O  O33  1  0.709254  0.472423  0.894558  1
  O  O34  1  0.472423  0.894558  0.709254  1
  O  O35  1  0.894558  0.709254  0.472423  1
