# generated using pymatgen
data_Ni3OF5
_symmetry_space_group_name_H-M   'P 1'
_cell_length_a   4.70557288
_cell_length_b   5.63377659
_cell_length_c   7.76328383
_cell_angle_alpha   86.00598602
_cell_angle_beta   89.29604542
_cell_angle_gamma   89.14702456
_symmetry_Int_Tables_number   1
_chemical_formula_structural   Ni3OF5
_chemical_formula_sum   'Ni6 O2 F10'
_cell_volume   205.27015094
_cell_formula_units_Z   2
loop_
 _symmetry_equiv_pos_site_id
 _symmetry_equiv_pos_as_xyz
  1  'x, y, z'
loop_
 _atom_site_type_symbol
 _atom_site_label
 _atom_site_symmetry_multiplicity
 _atom_site_fract_x
 _atom_site_fract_y
 _atom_site_fract_z
 _atom_site_occupancy
  Ni  Ni0  1  0.489806  0.335032  0.673873  1
  Ni  Ni1  1  0.510194  0.664968  0.326127  1
  Ni  Ni2  1  0.500000  0.000000  0.000000  1
  Ni  Ni3  1  0.000733  0.168674  0.335951  1
  Ni  Ni4  1  0.000000  0.500000  0.000000  1
  Ni  Ni5  1  0.999267  0.831326  0.664049  1
  O  O6  1  0.697107  0.704199  0.097999  1
  O  O7  1  0.302893  0.295801  0.902001  1
  F  F8  1  0.799962  0.203959  0.105006  1
  F  F9  1  0.804911  0.868971  0.432286  1
  F  F10  1  0.805167  0.532903  0.765628  1
  F  F11  1  0.699272  0.035639  0.766674  1
  F  F12  1  0.693912  0.366319  0.439804  1
  F  F13  1  0.300728  0.964361  0.233326  1
  F  F14  1  0.306088  0.633681  0.560196  1
  F  F15  1  0.200038  0.796041  0.894994  1
  F  F16  1  0.194833  0.467097  0.234372  1
  F  F17  1  0.195089  0.131029  0.567714  1
