# generated using pymatgen
data_VSb3(PO4)4
_symmetry_space_group_name_H-M   'P 1'
_cell_length_a   5.02308845
_cell_length_b   6.72039252
_cell_length_c   10.38848098
_cell_angle_alpha   90.00000000
_cell_angle_beta   91.97353958
_cell_angle_gamma   90.00000000
_symmetry_Int_Tables_number   1
_chemical_formula_structural   VSb3(PO4)4
_chemical_formula_sum   'V1 Sb3 P4 O16'
_cell_volume   350.47724830
_cell_formula_units_Z   1
loop_
 _symmetry_equiv_pos_site_id
 _symmetry_equiv_pos_as_xyz
  1  'x, y, z'
loop_
 _atom_site_type_symbol
 _atom_site_label
 _atom_site_symmetry_multiplicity
 _atom_site_fract_x
 _atom_site_fract_y
 _atom_site_fract_z
 _atom_site_occupancy
  V  V0  1  0.963078  0.500000  0.269744  1
  Sb  Sb1  1  0.053243  0.000000  0.716334  1
  Sb  Sb2  1  0.458502  0.000000  0.219379  1
  Sb  Sb3  1  0.548805  0.500000  0.776514  1
  P  P4  1  0.093082  0.500000  0.586370  1
  P  P5  1  0.370873  0.500000  0.108859  1
  P  P6  1  0.632043  0.000000  0.907452  1
  P  P7  1  0.901682  0.000000  0.400982  1
  O  O8  1  0.134472  0.500000  0.442100  1
  O  O9  1  0.243289  0.321523  0.657257  1
  O  O10  1  0.243289  0.678477  0.657257  1
  O  O11  1  0.206019  0.000000  0.396761  1
  O  O12  1  0.327856  0.000000  0.897397  1
  O  O13  1  0.227145  0.322351  0.178438  1
  O  O14  1  0.227145  0.677649  0.178438  1
  O  O15  1  0.317377  0.500000  0.964290  1
  O  O16  1  0.733988  0.000000  0.047354  1
  O  O17  1  0.756729  0.821252  0.826461  1
  O  O18  1  0.756729  0.178748  0.826461  1
  O  O19  1  0.669951  0.500000  0.143562  1
  O  O20  1  0.793451  0.500000  0.610001  1
  O  O21  1  0.768467  0.818019  0.324135  1
  O  O22  1  0.768467  0.181981  0.324135  1
  O  O23  1  0.804319  0.000000  0.540320  1
