# generated using pymatgen
data_Li2NiBiO4
_symmetry_space_group_name_H-M   'P 1'
_cell_length_a   5.45190866
_cell_length_b   5.45190866
_cell_length_c   5.45190866
_cell_angle_alpha   132.01798451
_cell_angle_beta   132.01798451
_cell_angle_gamma   70.20062380
_symmetry_Int_Tables_number   1
_chemical_formula_structural   Li2NiBiO4
_chemical_formula_sum   'Li2 Ni1 Bi1 O4'
_cell_volume   87.67124681
_cell_formula_units_Z   1
loop_
 _symmetry_equiv_pos_site_id
 _symmetry_equiv_pos_as_xyz
  1  'x, y, z'
loop_
 _atom_site_type_symbol
 _atom_site_label
 _atom_site_symmetry_multiplicity
 _atom_site_fract_x
 _atom_site_fract_y
 _atom_site_fract_z
 _atom_site_occupancy
  Li  Li0  1  0.250000  0.750000  0.500000  1
  Li  Li1  1  0.500000  0.500000  0.000000  1
  Ni  Ni2  1  0.750000  0.250000  0.500000  1
  Bi  Bi3  1  0.000000  0.000000  0.000000  1
  O  O4  1  0.983088  0.483088  0.500000  1
  O  O5  1  0.249981  0.249981  0.000000  1
  O  O6  1  0.750019  0.750019  0.000000  1
  O  O7  1  0.516912  0.016912  0.500000  1
