# generated using pymatgen
data_Li4MnSb2WO12
_symmetry_space_group_name_H-M   'P 1'
_cell_length_a   5.14657873
_cell_length_b   5.41178116
_cell_length_c   7.47997031
_cell_angle_alpha   94.05219897
_cell_angle_beta   90.06776121
_cell_angle_gamma   89.99962610
_symmetry_Int_Tables_number   1
_chemical_formula_structural   Li4MnSb2WO12
_chemical_formula_sum   'Li4 Mn1 Sb2 W1 O12'
_cell_volume   207.81235216
_cell_formula_units_Z   1
loop_
 _symmetry_equiv_pos_site_id
 _symmetry_equiv_pos_as_xyz
  1  'x, y, z'
loop_
 _atom_site_type_symbol
 _atom_site_label
 _atom_site_symmetry_multiplicity
 _atom_site_fract_x
 _atom_site_fract_y
 _atom_site_fract_z
 _atom_site_occupancy
  Li  Li0  1  0.998819  0.439930  0.305294  1
  Li  Li1  1  0.495823  0.920450  0.765491  1
  Li  Li2  1  0.004332  0.489761  0.742806  1
  Li  Li3  1  0.496770  0.913913  0.308689  1
  Mn  Mn4  1  0.500061  0.494986  0.498869  1
  Sb  Sb5  1  0.000959  0.999067  0.503684  1
  Sb  Sb6  1  0.501401  0.492670  0.001059  1
  W  W7  1  0.000564  0.000610  0.003842  1
  O  O8  1  0.302153  0.202674  0.428770  1
  O  O9  1  0.126425  0.012308  0.757619  1
  O  O10  1  0.313742  0.823489  0.057224  1
  O  O11  1  0.202909  0.697683  0.430238  1
  O  O12  1  0.817538  0.693835  0.932235  1
  O  O13  1  0.378929  0.525306  0.750167  1
  O  O14  1  0.629312  0.514022  0.249362  1
  O  O15  1  0.172593  0.316855  0.061286  1
  O  O16  1  0.814356  0.321795  0.550335  1
  O  O17  1  0.688759  0.177764  0.929816  1
  O  O18  1  0.873884  0.005550  0.242666  1
  O  O19  1  0.680669  0.814937  0.551743  1
