# generated using pymatgen
data_Na6CuO4
_symmetry_space_group_name_H-M   'P 1'
_cell_length_a   7.53225547
_cell_length_b   7.53225547
_cell_length_c   5.34606148
_cell_angle_alpha   90.00000000
_cell_angle_beta   90.00000000
_cell_angle_gamma   90.00000000
_symmetry_Int_Tables_number   1
_chemical_formula_structural   Na6CuO4
_chemical_formula_sum   'Na12 Cu2 O8'
_cell_volume   303.30811633
_cell_formula_units_Z   2
loop_
 _symmetry_equiv_pos_site_id
 _symmetry_equiv_pos_as_xyz
  1  'x, y, z'
loop_
 _atom_site_type_symbol
 _atom_site_label
 _atom_site_symmetry_multiplicity
 _atom_site_fract_x
 _atom_site_fract_y
 _atom_site_fract_z
 _atom_site_occupancy
  Na  Na0  1  0.289297  0.289297  0.500000  1
  Na  Na1  1  0.710703  0.289297  0.500000  1
  Na  Na2  1  0.000000  0.500000  0.399995  1
  Na  Na3  1  0.000000  0.500000  0.899995  1
  Na  Na4  1  0.289297  0.710703  0.500000  1
  Na  Na5  1  0.710703  0.710703  0.500000  1
  Na  Na6  1  0.789297  0.789297  0.000000  1
  Na  Na7  1  0.210703  0.789297  0.000000  1
  Na  Na8  1  0.500000  0.000000  0.100005  1
  Na  Na9  1  0.500000  0.000000  0.600005  1
  Na  Na10  1  0.789297  0.210703  0.000000  1
  Na  Na11  1  0.210703  0.210703  0.000000  1
  Cu  Cu12  1  0.500000  0.500000  0.000000  1
  Cu  Cu13  1  0.000000  0.000000  0.500000  1
  O  O14  1  0.000000  0.248949  0.664800  1
  O  O15  1  0.748949  0.500000  0.164800  1
  O  O16  1  0.251051  0.500000  0.164800  1
  O  O17  1  0.000000  0.751051  0.664800  1
  O  O18  1  0.500000  0.748949  0.835200  1
  O  O19  1  0.751051  0.000000  0.335200  1
  O  O20  1  0.248949  0.000000  0.335200  1
  O  O21  1  0.500000  0.251051  0.835200  1
