# generated using pymatgen
data_Na9Li7V16O48
_symmetry_space_group_name_H-M   'P 1'
_cell_length_a   6.97303203
_cell_length_b   6.97303203
_cell_length_c   22.51734067
_cell_angle_alpha   85.03812262
_cell_angle_beta   94.96187738
_cell_angle_gamma   96.62294955
_symmetry_Int_Tables_number   1
_chemical_formula_structural   Na9Li7V16O48
_chemical_formula_sum   'Na9 Li7 V16 O48'
_cell_volume   1080.23885526
_cell_formula_units_Z   1
loop_
 _symmetry_equiv_pos_site_id
 _symmetry_equiv_pos_as_xyz
  1  'x, y, z'
loop_
 _atom_site_type_symbol
 _atom_site_label
 _atom_site_symmetry_multiplicity
 _atom_site_fract_x
 _atom_site_fract_y
 _atom_site_fract_z
 _atom_site_occupancy
  Na  Na0  1  0.522883  0.522883  0.000000  1
  Na  Na1  1  0.227125  0.976432  0.125242  1
  Na  Na2  1  0.023599  0.023599  0.500000  1
  Na  Na3  1  0.726403  0.476397  0.625005  1
  Na  Na4  1  0.273670  0.773638  0.749954  1
  Na  Na5  1  0.976432  0.227125  0.874758  1
  Na  Na6  1  0.773638  0.273670  0.250046  1
  Na  Na7  1  0.895938  0.895938  0.000000  1
  Na  Na8  1  0.476397  0.726403  0.374995  1
  Li  Li9  1  0.100860  0.350860  0.374998  1
  Li  Li10  1  0.850770  0.600231  0.125277  1
  Li  Li11  1  0.399142  0.399142  0.500000  1
  Li  Li12  1  0.350860  0.100860  0.625002  1
  Li  Li13  1  0.649144  0.149107  0.750003  1
  Li  Li14  1  0.600231  0.850770  0.874723  1
  Li  Li15  1  0.149107  0.649144  0.249997  1
  V  V16  1  0.011790  0.432991  0.000354  1
  V  V17  1  0.319228  0.489845  0.125357  1
  V  V18  1  0.239771  0.568877  0.624742  1
  V  V19  1  0.181129  0.260248  0.749719  1
  V  V20  1  0.489845  0.319228  0.874643  1
  V  V21  1  0.069961  0.739502  0.874516  1
  V  V22  1  0.432991  0.011790  0.999646  1
  V  V23  1  0.260248  0.181129  0.250281  1
  V  V24  1  0.739502  0.069961  0.125484  1
  V  V25  1  0.568877  0.239771  0.375258  1
  V  V26  1  0.931122  0.510206  0.499744  1
  V  V27  1  0.510206  0.931122  0.500256  1
  V  V28  1  0.818851  0.989804  0.625245  1
  V  V29  1  0.760084  0.681099  0.750174  1
  V  V30  1  0.681099  0.760084  0.249826  1
  V  V31  1  0.989804  0.818851  0.374755  1
  O  O32  1  0.094620  0.529561  0.927919  1
  O  O33  1  0.028024  0.594132  0.572043  1
  O  O34  1  0.222859  0.405076  0.053111  1
  O  O35  1  0.155854  0.471977  0.697033  1
  O  O36  1  0.538230  0.604694  0.112664  1
  O  O37  1  0.344279  0.277973  0.177977  1
  O  O38  1  0.074646  0.359656  0.474952  1
  O  O39  1  0.277973  0.344279  0.822023  1
  O  O40  1  0.604694  0.538230  0.887336  1
  O  O41  1  0.038020  0.104520  0.612653  1
  O  O42  1  0.390350  0.425368  0.599955  1
  O  O43  1  0.109688  0.324671  0.275054  1
  O  O44  1  0.405076  0.222859  0.946889  1
  O  O45  1  0.857480  0.568518  0.026385  1
  O  O46  1  0.218287  0.892961  0.013503  1
  O  O47  1  0.645378  0.461928  0.737633  1
  O  O48  1  0.324671  0.109688  0.724946  1
  O  O49  1  0.425368  0.390350  0.400045  1
  O  O50  1  0.529561  0.094620  0.072081  1
  O  O51  1  0.104520  0.038020  0.387347  1
  O  O52  1  0.175310  0.640335  0.150005  1
  O  O53  1  0.854719  0.288878  0.137642  1
  O  O54  1  0.288878  0.854719  0.862358  1
  O  O55  1  0.640335  0.175310  0.849995  1
  O  O56  1  0.359656  0.074646  0.525048  1
  O  O57  1  0.711959  0.395463  0.512349  1
  O  O58  1  0.145571  0.961979  0.237687  1
  O  O59  1  0.824645  0.609690  0.224967  1
  O  O60  1  0.892961  0.218287  0.986497  1
  O  O61  1  0.471977  0.155854  0.302967  1
  O  O62  1  0.568518  0.857480  0.973615  1
  O  O63  1  0.675315  0.140294  0.650048  1
  O  O64  1  0.354518  0.788031  0.637354  1
  O  O65  1  0.788031  0.354518  0.362646  1
  O  O66  1  0.140294  0.675315  0.349952  1
  O  O67  1  0.594132  0.028024  0.427957  1
  O  O68  1  0.891454  0.925113  0.102418  1
  O  O69  1  0.609690  0.824645  0.775033  1
  O  O70  1  0.961979  0.145571  0.762313  1
  O  O71  1  0.395463  0.711959  0.487651  1
  O  O72  1  0.721974  0.905877  0.552949  1
  O  O73  1  0.925113  0.891454  0.897582  1
  O  O74  1  0.654993  0.972284  0.197393  1
  O  O75  1  0.461928  0.645378  0.262367  1
  O  O76  1  0.844115  0.778020  0.677923  1
  O  O77  1  0.778020  0.844115  0.322077  1
  O  O78  1  0.972284  0.654993  0.802607  1
  O  O79  1  0.905877  0.721974  0.447051  1
