# generated using pymatgen
data_Li7Bi(BO4)2
_symmetry_space_group_name_H-M   'P 1'
_cell_length_a   8.04078190
_cell_length_b   8.04078190
_cell_length_c   7.53857772
_cell_angle_alpha   89.10081685
_cell_angle_beta   90.89918315
_cell_angle_gamma   133.08409180
_symmetry_Int_Tables_number   1
_chemical_formula_structural   Li7Bi(BO4)2
_chemical_formula_sum   'Li14 Bi2 B4 O16'
_cell_volume   355.92182832
_cell_formula_units_Z   2
loop_
 _symmetry_equiv_pos_site_id
 _symmetry_equiv_pos_as_xyz
  1  'x, y, z'
loop_
 _atom_site_type_symbol
 _atom_site_label
 _atom_site_symmetry_multiplicity
 _atom_site_fract_x
 _atom_site_fract_y
 _atom_site_fract_z
 _atom_site_occupancy
  Li  Li0  1  0.186773  0.325559  0.630696  1
  Li  Li1  1  0.674441  0.813227  0.630696  1
  Li  Li2  1  0.924556  0.075444  0.276719  1
  Li  Li3  1  0.357025  0.642975  0.849695  1
  Li  Li4  1  0.068308  0.430796  0.125871  1
  Li  Li5  1  0.569204  0.931692  0.125871  1
  Li  Li6  1  0.430796  0.068308  0.874129  1
  Li  Li7  1  0.931692  0.569204  0.874129  1
  Li  Li8  1  0.642975  0.357025  0.150305  1
  Li  Li9  1  0.075444  0.924556  0.723281  1
  Li  Li10  1  0.813227  0.674441  0.369304  1
  Li  Li11  1  0.325559  0.186773  0.369304  1
  Li  Li12  1  0.000000  0.000000  0.000000  1
  Li  Li13  1  0.500000  0.500000  0.000000  1
  Bi  Bi14  1  0.734916  0.265084  0.564281  1
  Bi  Bi15  1  0.265084  0.734916  0.435719  1
  B  B16  1  0.427353  0.572647  0.265479  1
  B  B17  1  0.862436  0.137564  0.845106  1
  B  B18  1  0.137564  0.862436  0.154894  1
  B  B19  1  0.572647  0.427353  0.734521  1
  O  O20  1  0.476138  0.523862  0.740309  1
  O  O21  1  0.949776  0.050224  0.756270  1
  O  O22  1  0.191820  0.418183  0.372190  1
  O  O23  1  0.581817  0.808180  0.372190  1
  O  O24  1  0.382058  0.617942  0.091910  1
  O  O25  1  0.867714  0.132286  0.035763  1
  O  O26  1  0.000080  0.389305  0.772488  1
  O  O27  1  0.610695  0.999920  0.772488  1
  O  O28  1  0.389305  0.000080  0.227512  1
  O  O29  1  0.999920  0.610695  0.227512  1
  O  O30  1  0.132286  0.867714  0.964237  1
  O  O31  1  0.617942  0.382058  0.908090  1
  O  O32  1  0.418183  0.191820  0.627810  1
  O  O33  1  0.808180  0.581817  0.627810  1
  O  O34  1  0.050224  0.949776  0.243730  1
  O  O35  1  0.523862  0.476138  0.259691  1
