# generated using pymatgen
data_Sr5U5O19
_symmetry_space_group_name_H-M   'P 1'
_cell_length_a   6.89320438
_cell_length_b   7.76894453
_cell_length_c   8.74934087
_cell_angle_alpha   100.04620942
_cell_angle_beta   97.51994992
_cell_angle_gamma   107.29623166
_symmetry_Int_Tables_number   1
_chemical_formula_structural   Sr5U5O19
_chemical_formula_sum   'Sr5 U5 O19'
_cell_volume   432.10450949
_cell_formula_units_Z   1
loop_
 _symmetry_equiv_pos_site_id
 _symmetry_equiv_pos_as_xyz
  1  'x, y, z'
loop_
 _atom_site_type_symbol
 _atom_site_label
 _atom_site_symmetry_multiplicity
 _atom_site_fract_x
 _atom_site_fract_y
 _atom_site_fract_z
 _atom_site_occupancy
  Sr  Sr0  1  0.803119  0.103476  0.603943  1
  Sr  Sr1  1  0.386706  0.294528  0.798773  1
  Sr  Sr2  1  0.604733  0.701301  0.204068  1
  Sr  Sr3  1  0.999011  0.498864  0.997285  1
  Sr  Sr4  1  0.204652  0.905026  0.392308  1
  U  U5  1  0.782168  0.599697  0.600629  1
  U  U6  1  0.596836  0.198728  0.193825  1
  U  U7  1  0.998482  0.006216  0.002843  1
  U  U8  1  0.413044  0.807683  0.812809  1
  U  U9  1  0.202598  0.387363  0.390868  1
  O  O10  1  0.331185  0.036142  0.964427  1
  O  O11  1  0.438654  0.983520  0.667518  1
  O  O12  1  0.035178  0.197965  0.873747  1
  O  O13  1  0.729838  0.406655  0.728254  1
  O  O14  1  0.157102  0.196443  0.522564  1
  O  O15  1  0.366296  0.612596  0.939449  1
  O  O16  1  0.939936  0.250039  0.178153  1
  O  O17  1  0.925512  0.422935  0.466849  1
  O  O18  1  0.747609  0.837603  0.776616  1
  O  O19  1  0.546651  0.435803  0.375267  1
  O  O20  1  0.396914  0.574484  0.616886  1
  O  O21  1  0.255447  0.147631  0.225855  1
  O  O22  1  0.075979  0.722890  0.768809  1
  O  O23  1  0.634941  0.389143  0.068296  1
  O  O24  1  0.852546  0.793127  0.472041  1
  O  O25  1  0.244843  0.596264  0.277288  1
  O  O26  1  0.960598  0.801303  0.117861  1
  O  O27  1  0.572774  0.020012  0.334618  1
  O  O28  1  0.660565  0.960204  0.036390  1
