# generated using pymatgen
data_Li2CrS3
_symmetry_space_group_name_H-M   'P 1'
_cell_length_a   6.10232877
_cell_length_b   6.10232877
_cell_length_c   6.27679153
_cell_angle_alpha   80.56145411
_cell_angle_beta   99.43854589
_cell_angle_gamma   59.89234314
_symmetry_Int_Tables_number   1
_chemical_formula_structural   Li2CrS3
_chemical_formula_sum   'Li4 Cr2 S6'
_cell_volume   190.98045946
_cell_formula_units_Z   2
loop_
 _symmetry_equiv_pos_site_id
 _symmetry_equiv_pos_as_xyz
  1  'x, y, z'
loop_
 _atom_site_type_symbol
 _atom_site_label
 _atom_site_symmetry_multiplicity
 _atom_site_fract_x
 _atom_site_fract_y
 _atom_site_fract_z
 _atom_site_occupancy
  Li  Li0  1  0.159821  0.159821  0.500000  1
  Li  Li1  1  0.840179  0.840179  0.500000  1
  Li  Li2  1  0.500000  0.500000  0.500000  1
  Li  Li3  1  0.000000  0.000000  0.000000  1
  Cr  Cr4  1  0.667221  0.667221  0.000000  1
  Cr  Cr5  1  0.332779  0.332779  0.000000  1
  S  S6  1  0.283594  0.716406  0.771216  1
  S  S7  1  0.076310  0.563250  0.227202  1
  S  S8  1  0.436750  0.923690  0.227202  1
  S  S9  1  0.923690  0.436750  0.772798  1
  S  S10  1  0.563250  0.076310  0.772798  1
  S  S11  1  0.716406  0.283594  0.228784  1
