# generated using pymatgen
data_Li5MnO4
_symmetry_space_group_name_H-M   'P 1'
_cell_length_a   6.62718477
_cell_length_b   6.62718477
_cell_length_c   4.60609652
_cell_angle_alpha   90.00000000
_cell_angle_beta   90.00000000
_cell_angle_gamma   93.11326762
_symmetry_Int_Tables_number   1
_chemical_formula_structural   Li5MnO4
_chemical_formula_sum   'Li10 Mn2 O8'
_cell_volume   201.99924831
_cell_formula_units_Z   2
loop_
 _symmetry_equiv_pos_site_id
 _symmetry_equiv_pos_as_xyz
  1  'x, y, z'
loop_
 _atom_site_type_symbol
 _atom_site_label
 _atom_site_symmetry_multiplicity
 _atom_site_fract_x
 _atom_site_fract_y
 _atom_site_fract_z
 _atom_site_occupancy
  Li  Li0  1  0.044707  0.538250  0.526246  1
  Li  Li1  1  0.722359  0.717974  0.426095  1
  Li  Li2  1  0.782026  0.777641  0.926095  1
  Li  Li3  1  0.461750  0.955293  0.473754  1
  Li  Li4  1  0.018943  0.981057  0.500000  1
  Li  Li5  1  0.544707  0.038250  0.973754  1
  Li  Li6  1  0.222359  0.217974  0.073905  1
  Li  Li7  1  0.282026  0.277641  0.573905  1
  Li  Li8  1  0.961750  0.455293  0.026246  1
  Li  Li9  1  0.518943  0.481057  0.000000  1
  Mn  Mn10  1  0.246283  0.753717  0.000000  1
  Mn  Mn11  1  0.746283  0.253717  0.500000  1
  O  O12  1  0.763130  0.506700  0.712874  1
  O  O13  1  0.993300  0.736870  0.212874  1
  O  O14  1  0.518135  0.766587  0.142394  1
  O  O15  1  0.733413  0.981865  0.642394  1
  O  O16  1  0.263130  0.006700  0.787126  1
  O  O17  1  0.018135  0.266587  0.357606  1
  O  O18  1  0.493300  0.236870  0.287126  1
  O  O19  1  0.233413  0.481865  0.857606  1
