# generated using pymatgen
data_CaP2(H2O3)3
_symmetry_space_group_name_H-M   'P 1'
_cell_length_a   5.66159750
_cell_length_b   6.29404897
_cell_length_c   11.96375686
_cell_angle_alpha   92.99244357
_cell_angle_beta   96.63225628
_cell_angle_gamma   114.19103588
_symmetry_Int_Tables_number   1
_chemical_formula_structural   CaP2(H2O3)3
_chemical_formula_sum   'Ca2 P4 H12 O18'
_cell_volume   383.94313515
_cell_formula_units_Z   2
loop_
 _symmetry_equiv_pos_site_id
 _symmetry_equiv_pos_as_xyz
  1  'x, y, z'
loop_
 _atom_site_type_symbol
 _atom_site_label
 _atom_site_symmetry_multiplicity
 _atom_site_fract_x
 _atom_site_fract_y
 _atom_site_fract_z
 _atom_site_occupancy
  Ca  Ca0  1  0.960286  0.227058  0.897437  1
  Ca  Ca1  1  0.039714  0.772942  0.102563  1
  P  P2  1  0.469234  0.723111  0.902776  1
  P  P3  1  0.530766  0.276889  0.097224  1
  P  P4  1  0.735345  0.387375  0.627114  1
  P  P5  1  0.264655  0.612625  0.372886  1
  H  H6  1  0.562050  0.458780  0.804214  1
  H  H7  1  0.437950  0.541220  0.195786  1
  H  H8  1  0.313499  0.934864  0.794462  1
  H  H9  1  0.686501  0.065136  0.205538  1
  H  H10  1  0.355017  0.286536  0.517456  1
  H  H11  1  0.644983  0.713464  0.482544  1
  H  H12  1  0.971229  0.296024  0.511670  1
  H  H13  1  0.028771  0.703976  0.488330  1
  H  H14  1  0.945295  0.859196  0.697410  1
  H  H15  1  0.054705  0.140804  0.302590  1
  H  H16  1  0.142226  0.113761  0.693295  1
  H  H17  1  0.857774  0.886239  0.306705  1
  O  O18  1  0.238842  0.658743  0.967133  1
  O  O19  1  0.761158  0.341257  0.032867  1
  O  O20  1  0.745643  0.827753  0.966491  1
  O  O21  1  0.254357  0.172247  0.033509  1
  O  O22  1  0.405825  0.483910  0.827440  1
  O  O23  1  0.594175  0.516090  0.172560  1
  O  O24  1  0.479636  0.914865  0.818632  1
  O  O25  1  0.520364  0.085135  0.181368  1
  O  O26  1  0.777559  0.397444  0.755788  1
  O  O27  1  0.222441  0.602556  0.244212  1
  O  O28  1  0.428944  0.239643  0.587247  1
  O  O29  1  0.571056  0.760357  0.412753  1
  O  O30  1  0.878498  0.241393  0.579015  1
  O  O31  1  0.121502  0.758607  0.420985  1
  O  O32  1  0.824006  0.626744  0.580773  1
  O  O33  1  0.175994  0.373256  0.419227  1
  O  O34  1  0.066291  0.002482  0.747837  1
  O  O35  1  0.933709  0.997518  0.252163  1
