# generated using pymatgen
data_Li3LaNiO4
_symmetry_space_group_name_H-M   'P 1'
_cell_length_a   10.28679877
_cell_length_b   10.28679877
_cell_length_c   10.28679877
_cell_angle_alpha   112.98396060
_cell_angle_beta   112.98396060
_cell_angle_gamma   102.65342583
_symmetry_Int_Tables_number   1
_chemical_formula_structural   Li3LaNiO4
_chemical_formula_sum   'Li24 La8 Ni8 O32'
_cell_volume   829.19965942
_cell_formula_units_Z   8
loop_
 _symmetry_equiv_pos_site_id
 _symmetry_equiv_pos_as_xyz
  1  'x, y, z'
loop_
 _atom_site_type_symbol
 _atom_site_label
 _atom_site_symmetry_multiplicity
 _atom_site_fract_x
 _atom_site_fract_y
 _atom_site_fract_z
 _atom_site_occupancy
  Li  Li0  1  0.921076  0.101143  0.142939  1
  Li  Li1  1  0.828924  0.148857  0.357061  1
  Li  Li2  1  0.898857  0.041797  0.819933  1
  Li  Li3  1  0.528136  0.171076  0.319933  1
  Li  Li4  1  0.467013  0.318604  0.157934  1
  Li  Li5  1  0.726251  0.579621  0.174461  1
  Li  Li6  1  0.221864  0.078924  0.180067  1
  Li  Li7  1  0.851143  0.208203  0.680067  1
  Li  Li8  1  0.681396  0.839330  0.148409  1
  Li  Li9  1  0.420379  0.594840  0.146630  1
  Li  Li10  1  0.791797  0.471864  0.642939  1
  Li  Li11  1  0.958203  0.778136  0.857061  1
  Li  Li12  1  0.448210  0.273749  0.853370  1
  Li  Li13  1  0.329621  0.655160  0.353370  1
  Li  Li14  1  0.068604  0.410670  0.351591  1
  Li  Li15  1  0.690921  0.532987  0.851591  1
  Li  Li16  1  0.023749  0.670379  0.325539  1
  Li  Li17  1  0.405160  0.551790  0.825539  1
  Li  Li18  1  0.589330  0.940921  0.657934  1
  Li  Li19  1  0.282987  0.931396  0.342066  1
  Li  Li20  1  0.160670  0.309079  0.842066  1
  Li  Li21  1  0.344840  0.698210  0.674461  1
  Li  Li22  1  0.059079  0.717013  0.648409  1
  Li  Li23  1  0.301790  0.976251  0.646630  1
  La  La24  1  0.560720  0.034242  0.997882  1
  La  La25  1  0.437161  0.439280  0.473522  1
  La  La26  1  0.784242  0.286361  0.973522  1
  La  La27  1  0.713639  0.687161  0.497882  1
  La  La28  1  0.189280  0.215758  0.502118  1
  La  La29  1  0.965758  0.963639  0.526478  1
  La  La30  1  0.312839  0.810720  0.026478  1
  La  La31  1  0.036361  0.562839  0.002118  1
  Ni  Ni32  1  0.773000  0.407394  0.310748  1
  Ni  Ni33  1  0.537748  0.227000  0.634394  1
  Ni  Ni34  1  0.157394  0.346646  0.134394  1
  Ni  Ni35  1  0.592606  0.903354  0.365606  1
  Ni  Ni36  1  0.653354  0.787748  0.810748  1
  Ni  Ni37  1  0.977000  0.842606  0.189252  1
  Ni  Ni38  1  0.096646  0.462252  0.689252  1
  Ni  Ni39  1  0.212252  0.023000  0.865606  1
  O  O40  1  0.841832  0.253237  0.229376  1
  O  O41  1  0.362456  0.091832  0.088596  1
  O  O42  1  0.614213  0.343814  0.077948  1
  O  O43  1  0.856939  0.612603  0.082179  1
  O  O44  1  0.893061  0.637397  0.417821  1
  O  O45  1  0.640379  0.402407  0.408991  1
  O  O46  1  0.387544  0.158168  0.411404  1
  O  O47  1  0.387397  0.469576  0.244336  1
  O  O48  1  0.524760  0.106939  0.744336  1
  O  O49  1  0.908168  0.996763  0.270624  1
  O  O50  1  0.152407  0.243416  0.262028  1
  O  O51  1  0.768612  0.359621  0.762028  1
  O  O52  1  0.656186  0.734134  0.270399  1
  O  O53  1  0.093814  0.515866  0.229601  1
  O  O54  1  0.463735  0.385787  0.729601  1
  O  O55  1  0.597593  0.006584  0.237972  1
  O  O56  1  0.726139  0.637544  0.729376  1
  O  O57  1  0.225240  0.143061  0.755664  1
  O  O58  1  0.362603  0.780424  0.255664  1
  O  O59  1  0.746763  0.976139  0.588596  1
  O  O60  1  0.484134  0.713735  0.577948  1
  O  O61  1  0.993416  0.231388  0.591009  1
  O  O62  1  0.109621  0.847593  0.091009  1
  O  O63  1  0.219576  0.475240  0.582179  1
  O  O64  1  0.530424  0.774760  0.917821  1
  O  O65  1  0.756584  0.018612  0.908991  1
  O  O66  1  0.265866  0.536265  0.922052  1
  O  O67  1  0.135787  0.906186  0.422052  1
  O  O68  1  0.003237  0.273861  0.911404  1
  O  O69  1  0.023861  0.612456  0.770624  1
  O  O70  1  0.286265  0.864213  0.770399  1
  O  O71  1  0.981388  0.890379  0.737972  1
