# generated using pymatgen
data_Ba2YF7
_symmetry_space_group_name_H-M   'P 1'
_cell_length_a   7.70376685
_cell_length_b   7.70376685
_cell_length_c   8.23227562
_cell_angle_alpha   58.67643075
_cell_angle_beta   121.32356925
_cell_angle_gamma   127.58465266
_symmetry_Int_Tables_number   1
_chemical_formula_structural   Ba2YF7
_chemical_formula_sum   'Ba4 Y2 F14'
_cell_volume   315.54865662
_cell_formula_units_Z   2
loop_
 _symmetry_equiv_pos_site_id
 _symmetry_equiv_pos_as_xyz
  1  'x, y, z'
loop_
 _atom_site_type_symbol
 _atom_site_label
 _atom_site_symmetry_multiplicity
 _atom_site_fract_x
 _atom_site_fract_y
 _atom_site_fract_z
 _atom_site_occupancy
  Ba  Ba0  1  0.685639  0.326662  0.260892  1
  Ba  Ba1  1  0.673338  0.314361  0.760892  1
  Ba  Ba2  1  0.326662  0.685639  0.239108  1
  Ba  Ba3  1  0.314361  0.673338  0.739108  1
  Y  Y4  1  0.014814  0.014814  0.250000  1
  Y  Y5  1  0.985186  0.985186  0.750000  1
  F  F6  1  0.930327  0.302639  0.139533  1
  F  F7  1  0.697361  0.069673  0.639533  1
  F  F8  1  0.942519  0.778609  0.072755  1
  F  F9  1  0.885795  0.633670  0.453948  1
  F  F10  1  0.365339  0.365339  0.250000  1
  F  F11  1  0.221391  0.057481  0.572755  1
  F  F12  1  0.633670  0.885795  0.046052  1
  F  F13  1  0.366330  0.114205  0.953948  1
  F  F14  1  0.778609  0.942519  0.427245  1
  F  F15  1  0.634661  0.634661  0.750000  1
  F  F16  1  0.114205  0.366330  0.546052  1
  F  F17  1  0.057481  0.221391  0.927245  1
  F  F18  1  0.302639  0.930327  0.360467  1
  F  F19  1  0.069673  0.697361  0.860467  1
