# generated using pymatgen
data_NaH2SeO4
_symmetry_space_group_name_H-M   'P 1'
_cell_length_a   6.65592999
_cell_length_b   6.65592999
_cell_length_c   9.81744010
_cell_angle_alpha   90.00000000
_cell_angle_beta   90.00000000
_cell_angle_gamma   117.03640629
_symmetry_Int_Tables_number   1
_chemical_formula_structural   NaH2SeO4
_chemical_formula_sum   'Na4 H8 Se4 O16'
_cell_volume   387.39670102
_cell_formula_units_Z   4
loop_
 _symmetry_equiv_pos_site_id
 _symmetry_equiv_pos_as_xyz
  1  'x, y, z'
loop_
 _atom_site_type_symbol
 _atom_site_label
 _atom_site_symmetry_multiplicity
 _atom_site_fract_x
 _atom_site_fract_y
 _atom_site_fract_z
 _atom_site_occupancy
  Na  Na0  1  0.596015  0.929139  0.576883  1
  Na  Na1  1  0.070861  0.403985  0.576883  1
  Na  Na2  1  0.403985  0.070861  0.076884  1
  Na  Na3  1  0.929139  0.596015  0.076884  1
  H  H4  1  0.652195  0.825324  0.047007  1
  H  H5  1  0.174676  0.347805  0.047007  1
  H  H6  1  0.347805  0.174676  0.547007  1
  H  H7  1  0.825324  0.652195  0.547007  1
  H  H8  1  0.684026  0.315974  0.772819  1
  H  H9  1  0.315974  0.684026  0.272819  1
  H  H10  1  0.813556  0.186444  0.820192  1
  H  H11  1  0.186444  0.813556  0.320192  1
  Se  Se12  1  0.435931  0.564069  0.881139  1
  Se  Se13  1  0.564069  0.435931  0.381139  1
  Se  Se14  1  0.095889  0.904111  0.749411  1
  Se  Se15  1  0.904111  0.095889  0.249411  1
  O  O16  1  0.231881  0.768119  0.683454  1
  O  O17  1  0.768119  0.231881  0.183454  1
  O  O18  1  0.098755  0.901245  0.918367  1
  O  O19  1  0.901245  0.098755  0.418367  1
  O  O20  1  0.223295  0.173316  0.692900  1
  O  O21  1  0.826684  0.776705  0.692900  1
  O  O22  1  0.776705  0.826684  0.192900  1
  O  O23  1  0.173316  0.223295  0.192900  1
  O  O24  1  0.563168  0.835403  0.964760  1
  O  O25  1  0.164597  0.436832  0.964760  1
  O  O26  1  0.436832  0.164597  0.464760  1
  O  O27  1  0.835403  0.563168  0.464760  1
  O  O28  1  0.567891  0.432109  0.957411  1
  O  O29  1  0.432109  0.567891  0.457411  1
  O  O30  1  0.765369  0.234631  0.738036  1
  O  O31  1  0.234631  0.765369  0.238036  1
