# generated using pymatgen
data_Li3Fe2F7
_symmetry_space_group_name_H-M   'P 1'
_cell_length_a   5.93479233
_cell_length_b   5.93479233
_cell_length_c   10.33745424
_cell_angle_alpha   80.11631738
_cell_angle_beta   99.88368262
_cell_angle_gamma   128.79184634
_symmetry_Int_Tables_number   1
_chemical_formula_structural   Li3Fe2F7
_chemical_formula_sum   'Li6 Fe4 F14'
_cell_volume   278.60381901
_cell_formula_units_Z   2
loop_
 _symmetry_equiv_pos_site_id
 _symmetry_equiv_pos_as_xyz
  1  'x, y, z'
loop_
 _atom_site_type_symbol
 _atom_site_label
 _atom_site_symmetry_multiplicity
 _atom_site_fract_x
 _atom_site_fract_y
 _atom_site_fract_z
 _atom_site_occupancy
  Li  Li0  1  0.309292  0.194510  0.132939  1
  Li  Li1  1  0.805490  0.690708  0.632939  1
  Li  Li2  1  0.500000  1.000000  0.500000  1
  Li  Li3  1  0.000000  0.500000  0.000000  1
  Li  Li4  1  0.194510  0.309292  0.367061  1
  Li  Li5  1  0.690708  0.805490  0.867061  1
  Fe  Fe6  1  0.913382  0.579654  0.345063  1
  Fe  Fe7  1  0.420346  0.086618  0.845063  1
  Fe  Fe8  1  0.579654  0.913382  0.154937  1
  Fe  Fe9  1  0.086618  0.420346  0.654937  1
  F  F10  1  0.586240  0.269320  0.030968  1
  F  F11  1  0.171436  0.763520  0.178371  1
  F  F12  1  0.165925  0.980525  0.397597  1
  F  F13  1  0.730680  0.413760  0.530968  1
  F  F14  1  0.236480  0.828564  0.678371  1
  F  F15  1  0.019475  0.834075  0.897597  1
  F  F16  1  0.980525  0.165925  0.102403  1
  F  F17  1  0.763520  0.171437  0.321629  1
  F  F18  1  0.269320  0.586240  0.469032  1
  F  F19  1  0.834075  0.019475  0.602403  1
  F  F20  1  0.533133  0.533133  0.250000  1
  F  F21  1  0.828564  0.236480  0.821629  1
  F  F22  1  0.413760  0.730680  0.969032  1
  F  F23  1  0.466867  0.466867  0.750000  1
