# generated using pymatgen
data_AgCO3
_symmetry_space_group_name_H-M   'P 1'
_cell_length_a   6.07245966
_cell_length_b   6.07245966
_cell_length_c   6.07245966
_cell_angle_alpha   49.65517190
_cell_angle_beta   49.65517190
_cell_angle_gamma   49.65517190
_symmetry_Int_Tables_number   1
_chemical_formula_structural   AgCO3
_chemical_formula_sum   'Ag2 C2 O6'
_cell_volume   119.60874480
_cell_formula_units_Z   2
loop_
 _symmetry_equiv_pos_site_id
 _symmetry_equiv_pos_as_xyz
  1  'x, y, z'
loop_
 _atom_site_type_symbol
 _atom_site_label
 _atom_site_symmetry_multiplicity
 _atom_site_fract_x
 _atom_site_fract_y
 _atom_site_fract_z
 _atom_site_occupancy
  Ag  Ag0  1  0.000000  0.000000  0.000000  1
  Ag  Ag1  1  0.500000  0.500000  0.500000  1
  C  C2  1  0.750000  0.750000  0.750000  1
  C  C3  1  0.250000  0.250000  0.250000  1
  O  O4  1  0.003443  0.496557  0.750000  1
  O  O5  1  0.503443  0.250000  0.996557  1
  O  O6  1  0.250000  0.996557  0.503443  1
  O  O7  1  0.750000  0.003443  0.496557  1
  O  O8  1  0.496557  0.750000  0.003443  1
  O  O9  1  0.996557  0.503443  0.250000  1
