# generated using pymatgen
data_Mn4OF8
_symmetry_space_group_name_H-M   'P 1'
_cell_length_a   5.48593371
_cell_length_b   5.48593371
_cell_length_c   15.01527752
_cell_angle_alpha   87.36286117
_cell_angle_beta   92.63713883
_cell_angle_gamma   120.82478985
_symmetry_Int_Tables_number   1
_chemical_formula_structural   Mn4OF8
_chemical_formula_sum   'Mn8 O2 F16'
_cell_volume   387.51324224
_cell_formula_units_Z   2
loop_
 _symmetry_equiv_pos_site_id
 _symmetry_equiv_pos_as_xyz
  1  'x, y, z'
loop_
 _atom_site_type_symbol
 _atom_site_label
 _atom_site_symmetry_multiplicity
 _atom_site_fract_x
 _atom_site_fract_y
 _atom_site_fract_z
 _atom_site_occupancy
  Mn  Mn0  1  0.297995  0.641934  0.466585  1
  Mn  Mn1  1  0.667961  0.315845  0.821674  1
  Mn  Mn2  1  0.358066  0.702005  0.966585  1
  Mn  Mn3  1  0.666570  0.342492  0.013852  1
  Mn  Mn4  1  0.657508  0.333430  0.513852  1
  Mn  Mn5  1  0.323853  0.654448  0.680409  1
  Mn  Mn6  1  0.345552  0.676147  0.180409  1
  Mn  Mn7  1  0.684155  0.332039  0.321674  1
  O  O8  1  0.442185  0.091106  0.921120  1
  O  O9  1  0.908894  0.557815  0.421120  1
  F  F10  1  0.361675  0.314677  0.426685  1
  F  F11  1  0.016958  0.614788  0.076576  1
  F  F12  1  0.418963  0.038903  0.245832  1
  F  F13  1  0.685323  0.638325  0.926685  1
  F  F14  1  0.385212  0.983042  0.576576  1
  F  F15  1  0.000026  0.398044  0.580099  1
  F  F16  1  0.024634  0.393502  0.258507  1
  F  F17  1  0.961097  0.581037  0.745832  1
  F  F18  1  0.378291  0.366216  0.758239  1
  F  F19  1  0.387007  0.437923  0.072573  1
  F  F20  1  0.616495  0.011453  0.412495  1
  F  F21  1  0.601956  0.999974  0.080099  1
  F  F22  1  0.606498  0.975366  0.758507  1
  F  F23  1  0.562077  0.612993  0.572573  1
  F  F24  1  0.988547  0.383505  0.912495  1
  F  F25  1  0.633784  0.621709  0.258239  1
