# generated using pymatgen
data_MnTlO3
_symmetry_space_group_name_H-M   'P 1'
_cell_length_a   5.42177408
_cell_length_b   5.56038720
_cell_length_c   7.96530409
_cell_angle_alpha   90.00000000
_cell_angle_beta   90.00000000
_cell_angle_gamma   90.00000000
_symmetry_Int_Tables_number   1
_chemical_formula_structural   MnTlO3
_chemical_formula_sum   'Mn4 Tl4 O12'
_cell_volume   240.13132246
_cell_formula_units_Z   4
loop_
 _symmetry_equiv_pos_site_id
 _symmetry_equiv_pos_as_xyz
  1  'x, y, z'
loop_
 _atom_site_type_symbol
 _atom_site_label
 _atom_site_symmetry_multiplicity
 _atom_site_fract_x
 _atom_site_fract_y
 _atom_site_fract_z
 _atom_site_occupancy
  Mn  Mn0  1  0.500000  0.000000  0.500000  1
  Mn  Mn1  1  0.500000  0.000000  0.000000  1
  Mn  Mn2  1  0.000000  0.500000  0.500000  1
  Mn  Mn3  1  0.000000  0.500000  0.000000  1
  Tl  Tl4  1  0.984651  0.049426  0.750000  1
  Tl  Tl5  1  0.484651  0.450574  0.250000  1
  Tl  Tl6  1  0.515349  0.549426  0.750000  1
  Tl  Tl7  1  0.015349  0.950574  0.250000  1
  O  O8  1  0.608549  0.051613  0.250000  1
  O  O9  1  0.197586  0.196974  0.058728  1
  O  O10  1  0.197586  0.196974  0.441272  1
  O  O11  1  0.697586  0.303026  0.558728  1
  O  O12  1  0.697586  0.303026  0.941272  1
  O  O13  1  0.108549  0.448387  0.750000  1
  O  O14  1  0.891451  0.551613  0.250000  1
  O  O15  1  0.302414  0.696974  0.441272  1
  O  O16  1  0.302414  0.696974  0.058728  1
  O  O17  1  0.802414  0.803026  0.558728  1
  O  O18  1  0.802414  0.803026  0.941272  1
  O  O19  1  0.391451  0.948387  0.750000  1
