# generated using pymatgen
data_Li4V2Ni3Sn3O16
_symmetry_space_group_name_H-M   'P 1'
_cell_length_a   6.09313272
_cell_length_b   6.09313272
_cell_length_c   9.61041955
_cell_angle_alpha   89.87949812
_cell_angle_beta   90.12050188
_cell_angle_gamma   120.24168870
_symmetry_Int_Tables_number   1
_chemical_formula_structural   Li4V2Ni3Sn3O16
_chemical_formula_sum   'Li4 V2 Ni3 Sn3 O16'
_cell_volume   308.24080505
_cell_formula_units_Z   1
loop_
 _symmetry_equiv_pos_site_id
 _symmetry_equiv_pos_as_xyz
  1  'x, y, z'
loop_
 _atom_site_type_symbol
 _atom_site_label
 _atom_site_symmetry_multiplicity
 _atom_site_fract_x
 _atom_site_fract_y
 _atom_site_fract_z
 _atom_site_occupancy
  Li  Li0  1  0.681096  0.318904  0.100726  1
  Li  Li1  1  0.982468  0.017532  0.016444  1
  Li  Li2  1  0.990212  0.009788  0.499763  1
  Li  Li3  1  0.332069  0.667931  0.594823  1
  V  V4  1  0.675415  0.324585  0.500927  1
  V  V5  1  0.359206  0.640794  0.025673  1
  Ni  Ni6  1  0.825526  0.174474  0.783433  1
  Ni  Ni7  1  0.660206  0.824502  0.289250  1
  Ni  Ni8  1  0.175498  0.339794  0.289250  1
  Sn  Sn9  1  0.831752  0.662321  0.784888  1
  Sn  Sn10  1  0.337679  0.168248  0.784888  1
  Sn  Sn11  1  0.174771  0.825229  0.283810  1
  O  O12  1  0.825627  0.644652  0.413180  1
  O  O13  1  0.512729  0.487271  0.656256  1
  O  O14  1  0.666545  0.333455  0.900177  1
  O  O15  1  0.991565  0.008435  0.687591  1
  O  O16  1  0.999753  0.000247  0.204057  1
  O  O17  1  0.355348  0.174373  0.413180  1
  O  O18  1  0.950988  0.480359  0.646345  1
  O  O19  1  0.519641  0.049012  0.646345  1
  O  O20  1  0.154654  0.845346  0.907965  1
  O  O21  1  0.818776  0.181224  0.411373  1
  O  O22  1  0.480905  0.948397  0.144678  1
  O  O23  1  0.051603  0.519095  0.144678  1
  O  O24  1  0.336414  0.663586  0.394034  1
  O  O25  1  0.644061  0.821432  0.912595  1
  O  O26  1  0.487013  0.512987  0.143123  1
  O  O27  1  0.178568  0.355939  0.912595  1
