# generated using pymatgen
data_Li4Fe3Co7O20
_symmetry_space_group_name_H-M   'P 1'
_cell_length_a   6.19013337
_cell_length_b   2.98404940
_cell_length_c   20.04924634
_cell_angle_alpha   90.00000000
_cell_angle_beta   97.76938444
_cell_angle_gamma   90.00000000
_symmetry_Int_Tables_number   1
_chemical_formula_structural   Li4Fe3Co7O20
_chemical_formula_sum   'Li4 Fe3 Co7 O20'
_cell_volume   366.94326956
_cell_formula_units_Z   1
loop_
 _symmetry_equiv_pos_site_id
 _symmetry_equiv_pos_as_xyz
  1  'x, y, z'
loop_
 _atom_site_type_symbol
 _atom_site_label
 _atom_site_symmetry_multiplicity
 _atom_site_fract_x
 _atom_site_fract_y
 _atom_site_fract_z
 _atom_site_occupancy
  Li  Li0  1  0.000000  0.500000  0.500000  1
  Li  Li1  1  0.404296  0.000000  0.797185  1
  Li  Li2  1  0.000000  0.000000  0.000000  1
  Li  Li3  1  0.595704  0.000000  0.202815  1
  Fe  Fe4  1  0.899434  0.000000  0.797210  1
  Fe  Fe5  1  0.500000  0.000000  0.000000  1
  Fe  Fe6  1  0.100566  0.000000  0.202790  1
  Co  Co7  1  0.678459  0.000000  0.398235  1
  Co  Co8  1  0.500000  0.500000  0.500000  1
  Co  Co9  1  0.321541  0.000000  0.601765  1
  Co  Co10  1  0.083484  0.500000  0.692487  1
  Co  Co11  1  0.701575  0.500000  0.899352  1
  Co  Co12  1  0.298425  0.500000  0.100648  1
  Co  Co13  1  0.916516  0.500000  0.307513  1
  O  O14  1  0.479917  0.500000  0.407743  1
  O  O15  1  0.718597  0.000000  0.490314  1
  O  O16  1  0.281403  0.000000  0.509686  1
  O  O17  1  0.100151  0.500000  0.601171  1
  O  O18  1  0.520083  0.500000  0.592257  1
  O  O19  1  0.893812  0.000000  0.697975  1
  O  O20  1  0.317493  0.000000  0.691917  1
  O  O21  1  0.127923  0.500000  0.788918  1
  O  O22  1  0.679659  0.500000  0.805273  1
  O  O23  1  0.900559  0.000000  0.899171  1
  O  O24  1  0.502327  0.000000  0.898642  1
  O  O25  1  0.722975  0.500000  0.993314  1
  O  O26  1  0.277025  0.500000  0.006686  1
  O  O27  1  0.099441  0.000000  0.100829  1
  O  O28  1  0.497673  0.000000  0.101358  1
  O  O29  1  0.872077  0.500000  0.211082  1
  O  O30  1  0.320341  0.500000  0.194727  1
  O  O31  1  0.106188  0.000000  0.302025  1
  O  O32  1  0.682507  0.000000  0.308083  1
  O  O33  1  0.899849  0.500000  0.398829  1
