# generated using pymatgen
data_CaP2(HO2)4
_symmetry_space_group_name_H-M   'P 1'
_cell_length_a   5.63537123
_cell_length_b   7.88772298
_cell_length_c   8.17318992
_cell_angle_alpha   107.95101160
_cell_angle_beta   107.17991054
_cell_angle_gamma   95.90102121
_symmetry_Int_Tables_number   1
_chemical_formula_structural   CaP2(HO2)4
_chemical_formula_sum   'Ca2 P4 H8 O16'
_cell_volume   322.59688371
_cell_formula_units_Z   2
loop_
 _symmetry_equiv_pos_site_id
 _symmetry_equiv_pos_as_xyz
  1  'x, y, z'
loop_
 _atom_site_type_symbol
 _atom_site_label
 _atom_site_symmetry_multiplicity
 _atom_site_fract_x
 _atom_site_fract_y
 _atom_site_fract_z
 _atom_site_occupancy
  Ca  Ca0  1  0.200281  0.321001  0.449624  1
  Ca  Ca1  1  0.799719  0.678999  0.550376  1
  P  P2  1  0.802953  0.276938  0.688423  1
  P  P3  1  0.464637  0.262821  0.142106  1
  P  P4  1  0.535363  0.737179  0.857894  1
  P  P5  1  0.197047  0.723062  0.311577  1
  H  H6  1  0.826225  0.984529  0.945924  1
  H  H7  1  0.124287  0.148844  0.759705  1
  H  H8  1  0.595813  0.338345  0.937416  1
  H  H9  1  0.500000  0.000000  0.000000  1
  H  H10  1  0.000000  0.500000  0.000000  1
  H  H11  1  0.404187  0.661655  0.062584  1
  H  H12  1  0.875713  0.851156  0.240295  1
  H  H13  1  0.173775  0.015471  0.054076  1
  O  O14  1  0.945328  0.105557  0.677111  1
  O  O15  1  0.426162  0.312099  0.965766  1
  O  O16  1  0.527856  0.200446  0.573254  1
  O  O17  1  0.832012  0.367955  0.897161  1
  O  O18  1  0.190071  0.147511  0.112441  1
  O  O19  1  0.642154  0.125155  0.139373  1
  O  O20  1  0.952279  0.410879  0.632254  1
  O  O21  1  0.483357  0.580561  0.683327  1
  O  O22  1  0.516643  0.419439  0.316673  1
  O  O23  1  0.047721  0.589121  0.367746  1
  O  O24  1  0.357846  0.874845  0.860627  1
  O  O25  1  0.809929  0.852489  0.887559  1
  O  O26  1  0.167988  0.632045  0.102839  1
  O  O27  1  0.472144  0.799554  0.426746  1
  O  O28  1  0.573838  0.687901  0.034234  1
  O  O29  1  0.054672  0.894443  0.322889  1
