# generated using pymatgen
data_BaLaBr5
_symmetry_space_group_name_H-M   'P 1'
_cell_length_a   8.20850187
_cell_length_b   4.49657442
_cell_length_c   14.27523752
_cell_angle_alpha   90.00000000
_cell_angle_beta   93.30755632
_cell_angle_gamma   90.00000000
_symmetry_Int_Tables_number   1
_chemical_formula_structural   BaLaBr5
_chemical_formula_sum   'Ba2 La2 Br10'
_cell_volume   526.02330577
_cell_formula_units_Z   2
loop_
 _symmetry_equiv_pos_site_id
 _symmetry_equiv_pos_as_xyz
  1  'x, y, z'
loop_
 _atom_site_type_symbol
 _atom_site_label
 _atom_site_symmetry_multiplicity
 _atom_site_fract_x
 _atom_site_fract_y
 _atom_site_fract_z
 _atom_site_occupancy
  Ba  Ba0  1  0.454657  0.750000  0.653886  1
  Ba  Ba1  1  0.545343  0.250000  0.346114  1
  La  La2  1  0.044603  0.250000  0.844073  1
  La  La3  1  0.955397  0.750000  0.155927  1
  Br  Br4  1  0.043087  0.750000  0.692746  1
  Br  Br5  1  0.143805  0.250000  0.062185  1
  Br  Br6  1  0.299923  0.250000  0.519252  1
  Br  Br7  1  0.313480  0.750000  0.882728  1
  Br  Br8  1  0.300926  0.750000  0.252455  1
  Br  Br9  1  0.699074  0.250000  0.747545  1
  Br  Br10  1  0.686520  0.250000  0.117272  1
  Br  Br11  1  0.700077  0.750000  0.480748  1
  Br  Br12  1  0.856195  0.750000  0.937815  1
  Br  Br13  1  0.956913  0.250000  0.307254  1
