# generated using pymatgen
data_SbNO
_symmetry_space_group_name_H-M   'P 1'
_cell_length_a   8.79253021
_cell_length_b   8.79253021
_cell_length_c   3.34361497
_cell_angle_alpha   87.82834989
_cell_angle_beta   92.17165011
_cell_angle_gamma   152.40364803
_symmetry_Int_Tables_number   1
_chemical_formula_structural   SbNO
_chemical_formula_sum   'Sb2 N2 O2'
_cell_volume   119.65168664
_cell_formula_units_Z   2
loop_
 _symmetry_equiv_pos_site_id
 _symmetry_equiv_pos_as_xyz
  1  'x, y, z'
loop_
 _atom_site_type_symbol
 _atom_site_label
 _atom_site_symmetry_multiplicity
 _atom_site_fract_x
 _atom_site_fract_y
 _atom_site_fract_z
 _atom_site_occupancy
  Sb  Sb0  1  0.171809  0.828191  0.982363  1
  Sb  Sb1  1  0.828191  0.171809  0.017637  1
  N  N2  1  0.532400  0.467600  0.483557  1
  N  N3  1  0.467600  0.532400  0.516443  1
  O  O4  1  0.291361  0.708639  0.041719  1
  O  O5  1  0.708639  0.291361  0.958281  1
