# generated using pymatgen
data_LiMn3CrO8
_symmetry_space_group_name_H-M   'P 1'
_cell_length_a   5.90454789
_cell_length_b   5.90454789
_cell_length_c   5.90454789
_cell_angle_alpha   59.20694484
_cell_angle_beta   59.20694484
_cell_angle_gamma   59.20694484
_symmetry_Int_Tables_number   1
_chemical_formula_structural   LiMn3CrO8
_chemical_formula_sum   'Li1 Mn3 Cr1 O8'
_cell_volume   142.93098600
_cell_formula_units_Z   1
loop_
 _symmetry_equiv_pos_site_id
 _symmetry_equiv_pos_as_xyz
  1  'x, y, z'
loop_
 _atom_site_type_symbol
 _atom_site_label
 _atom_site_symmetry_multiplicity
 _atom_site_fract_x
 _atom_site_fract_y
 _atom_site_fract_z
 _atom_site_occupancy
  Li  Li0  1  0.123034  0.123034  0.123034  1
  Mn  Mn1  1  0.997169  0.500898  0.500898  1
  Mn  Mn2  1  0.500898  0.997169  0.500898  1
  Mn  Mn3  1  0.500898  0.500898  0.997169  1
  Cr  Cr4  1  0.500735  0.500735  0.500735  1
  O  O5  1  0.735130  0.735130  0.735130  1
  O  O6  1  0.740330  0.740330  0.295297  1
  O  O7  1  0.295297  0.740330  0.740330  1
  O  O8  1  0.740330  0.295297  0.740330  1
  O  O9  1  0.709134  0.259430  0.259430  1
  O  O10  1  0.259430  0.709134  0.259430  1
  O  O11  1  0.259430  0.259430  0.709134  1
  O  O12  1  0.263185  0.263185  0.263185  1
