# generated using pymatgen
data_Li4V3P8O29
_symmetry_space_group_name_H-M   'P 1'
_cell_length_a   9.78690980
_cell_length_b   9.78690980
_cell_length_c   14.07521753
_cell_angle_alpha   89.88035834
_cell_angle_beta   90.11964166
_cell_angle_gamma   119.89151681
_symmetry_Int_Tables_number   1
_chemical_formula_structural   Li4V3P8O29
_chemical_formula_sum   'Li8 V6 P16 O58'
_cell_volume   1168.82466003
_cell_formula_units_Z   2
loop_
 _symmetry_equiv_pos_site_id
 _symmetry_equiv_pos_as_xyz
  1  'x, y, z'
loop_
 _atom_site_type_symbol
 _atom_site_label
 _atom_site_symmetry_multiplicity
 _atom_site_fract_x
 _atom_site_fract_y
 _atom_site_fract_z
 _atom_site_occupancy
  Li  Li0  1  0.319798  0.091742  0.560728  1
  Li  Li1  1  0.223377  0.320727  0.441963  1
  Li  Li2  1  0.908258  0.680202  0.060728  1
  Li  Li3  1  0.088540  0.314048  0.942733  1
  Li  Li4  1  0.679273  0.776623  0.941963  1
  Li  Li5  1  0.685952  0.911460  0.442733  1
  Li  Li6  1  0.085639  0.769357  0.440254  1
  Li  Li7  1  0.230643  0.914361  0.940254  1
  V  V8  1  0.433140  0.999817  0.752485  1
  V  V9  1  0.998669  0.430443  0.747087  1
  V  V10  1  0.432933  0.431682  0.246943  1
  V  V11  1  0.568318  0.567067  0.746943  1
  V  V12  1  0.000183  0.566860  0.252485  1
  V  V13  1  0.569557  0.001331  0.247087  1
  P  P14  1  0.770322  0.087118  0.840505  1
  P  P15  1  0.912882  0.229678  0.340505  1
  P  P16  1  0.319367  0.087837  0.340507  1
  P  P17  1  0.665357  0.332707  0.628578  1
  P  P18  1  0.667293  0.334643  0.128578  1
  P  P19  1  0.317842  0.232540  0.842382  1
  P  P20  1  0.231257  0.317912  0.658645  1
  P  P21  1  0.912163  0.680633  0.840507  1
  P  P22  1  0.086511  0.319774  0.158018  1
  P  P23  1  0.767460  0.682158  0.342382  1
  P  P24  1  0.682088  0.768743  0.158645  1
  P  P25  1  0.331384  0.663647  0.871197  1
  P  P26  1  0.336353  0.668616  0.371197  1
  P  P27  1  0.680226  0.913489  0.658018  1
  P  P28  1  0.087519  0.769224  0.657265  1
  P  P29  1  0.230776  0.912481  0.157265  1
  O  O30  1  0.751336  0.987747  0.565907  1
  O  O31  1  0.743821  0.080818  0.337927  1
  O  O32  1  0.991493  0.206046  0.244918  1
  O  O33  1  0.012253  0.248664  0.065907  1
  O  O34  1  0.621364  0.100260  0.824619  1
  O  O35  1  0.919182  0.256179  0.837927  1
  O  O36  1  0.664213  0.184718  0.175068  1
  O  O37  1  0.479471  0.096708  0.323044  1
  O  O38  1  0.245763  0.995918  0.066450  1
  O  O39  1  0.338705  0.085585  0.841462  1
  O  O40  1  0.815282  0.335787  0.675068  1
  O  O41  1  0.513918  0.185544  0.667205  1
  O  O42  1  0.899740  0.378636  0.324619  1
  O  O43  1  0.670284  0.340750  0.523471  1
  O  O44  1  0.659250  0.329716  0.023471  1
  O  O45  1  0.903292  0.520529  0.823044  1
  O  O46  1  0.517298  0.333719  0.175567  1
  O  O47  1  0.814456  0.486082  0.167205  1
  O  O48  1  0.338240  0.254986  0.340161  1
  O  O49  1  0.212987  0.206002  0.746097  1
  O  O50  1  0.233721  0.243382  0.926619  1
  O  O51  1  0.243976  0.245188  0.567987  1
  O  O52  1  0.477859  0.383064  0.821994  1
  O  O53  1  0.666281  0.482702  0.675567  1
  O  O54  1  0.914415  0.661295  0.341462  1
  O  O55  1  0.255625  0.342294  0.170520  1
  O  O56  1  0.616936  0.522141  0.321994  1
  O  O57  1  0.004687  0.232589  0.425256  1
  O  O58  1  0.004082  0.754237  0.566450  1
  O  O59  1  0.383000  0.479488  0.676203  1
  O  O60  1  0.745014  0.661760  0.840161  1
  O  O61  1  0.998725  0.789329  0.749086  1
  O  O62  1  0.086614  0.341241  0.664250  1
  O  O63  1  0.332469  0.516602  0.328933  1
  O  O64  1  0.520512  0.617000  0.176203  1
  O  O65  1  0.754812  0.756024  0.067987  1
  O  O66  1  0.756618  0.766279  0.426619  1
  O  O67  1  0.793998  0.787013  0.246097  1
  O  O68  1  0.657706  0.744375  0.670520  1
  O  O69  1  0.181624  0.511886  0.828462  1
  O  O70  1  0.097550  0.480804  0.178254  1
  O  O71  1  0.483398  0.667531  0.828933  1
  O  O72  1  0.343120  0.668509  0.477272  1
  O  O73  1  0.331491  0.656880  0.977272  1
  O  O74  1  0.097779  0.617854  0.679570  1
  O  O75  1  0.488114  0.818376  0.328462  1
  O  O76  1  0.188996  0.675549  0.333235  1
  O  O77  1  0.658759  0.913386  0.164250  1
  O  O78  1  0.793954  0.008507  0.744918  1
  O  O79  1  0.767411  0.995313  0.925256  1
  O  O80  1  0.519196  0.902450  0.678254  1
  O  O81  1  0.324451  0.811004  0.833235  1
  O  O82  1  0.082998  0.747002  0.160923  1
  O  O83  1  0.382146  0.902221  0.179570  1
  O  O84  1  0.999681  0.757711  0.930435  1
  O  O85  1  0.252998  0.917002  0.660923  1
  O  O86  1  0.242289  0.000319  0.430435  1
  O  O87  1  0.210671  0.001275  0.249086  1
