# generated using pymatgen
data_Ta2H15N6Cl7
_symmetry_space_group_name_H-M   'P 1'
_cell_length_a   11.58973551
_cell_length_b   11.58973551
_cell_length_c   7.93989615
_cell_angle_alpha   90.00000000
_cell_angle_beta   90.00000000
_cell_angle_gamma   127.85676838
_symmetry_Int_Tables_number   1
_chemical_formula_structural   Ta2H15N6Cl7
_chemical_formula_sum   'Ta4 H30 N12 Cl14'
_cell_volume   842.05422175
_cell_formula_units_Z   2
loop_
 _symmetry_equiv_pos_site_id
 _symmetry_equiv_pos_as_xyz
  1  'x, y, z'
loop_
 _atom_site_type_symbol
 _atom_site_label
 _atom_site_symmetry_multiplicity
 _atom_site_fract_x
 _atom_site_fract_y
 _atom_site_fract_z
 _atom_site_occupancy
  Ta  Ta0  1  0.000000  0.000000  0.000000  1
  Ta  Ta1  1  0.000000  0.000000  0.500000  1
  Ta  Ta2  1  0.839482  0.160518  0.750000  1
  Ta  Ta3  1  0.160518  0.839482  0.250000  1
  H  H4  1  0.288320  0.050432  0.750000  1
  H  H5  1  0.399717  0.027746  0.855297  1
  H  H6  1  0.399717  0.027746  0.644703  1
  H  H7  1  0.468565  0.189795  0.750000  1
  H  H8  1  0.507770  0.324677  0.250000  1
  H  H9  1  0.921934  0.078066  0.250000  1
  H  H10  1  0.873236  0.126764  0.030947  1
  H  H11  1  0.873236  0.126764  0.469053  1
  H  H12  1  0.533631  0.466369  0.146582  1
  H  H13  1  0.533631  0.466369  0.353418  1
  H  H14  1  0.675323  0.492230  0.250000  1
  H  H15  1  0.050432  0.288320  0.250000  1
  H  H16  1  0.810205  0.531435  0.750000  1
  H  H17  1  0.027746  0.399717  0.144703  1
  H  H18  1  0.027746  0.399717  0.355297  1
  H  H19  1  0.972254  0.600283  0.855297  1
  H  H20  1  0.972254  0.600283  0.644703  1
  H  H21  1  0.189795  0.468565  0.250000  1
  H  H22  1  0.949568  0.711680  0.750000  1
  H  H23  1  0.324677  0.507770  0.750000  1
  H  H24  1  0.466369  0.533631  0.853418  1
  H  H25  1  0.466369  0.533631  0.646582  1
  H  H26  1  0.126764  0.873236  0.969053  1
  H  H27  1  0.078066  0.921934  0.750000  1
  H  H28  1  0.126764  0.873236  0.530947  1
  H  H29  1  0.492230  0.675323  0.750000  1
  H  H30  1  0.531435  0.810205  0.250000  1
  H  H31  1  0.600283  0.972254  0.144703  1
  H  H32  1  0.600283  0.972254  0.355297  1
  H  H33  1  0.711680  0.949568  0.250000  1
  N  N34  1  0.389045  0.072367  0.750000  1
  N  N35  1  0.971258  0.028742  0.250000  1
  N  N36  1  0.903699  0.096301  0.571126  1
  N  N37  1  0.903699  0.096301  0.928874  1
  N  N38  1  0.563538  0.436462  0.250000  1
  N  N39  1  0.072367  0.389045  0.250000  1
  N  N40  1  0.927633  0.610955  0.750000  1
  N  N41  1  0.096301  0.903699  0.071126  1
  N  N42  1  0.436462  0.563538  0.750000  1
  N  N43  1  0.096301  0.903699  0.428874  1
  N  N44  1  0.028742  0.971258  0.750000  1
  N  N45  1  0.610955  0.927633  0.250000  1
  Cl  Cl46  1  0.412337  0.064769  0.250000  1
  Cl  Cl47  1  0.593044  0.406956  0.750000  1
  Cl  Cl48  1  0.754881  0.245119  0.523267  1
  Cl  Cl49  1  0.754881  0.245119  0.976733  1
  Cl  Cl50  1  0.238401  0.238401  1.000000  1
  Cl  Cl51  1  0.238401  0.238401  0.500000  1
  Cl  Cl52  1  0.064769  0.412337  0.750000  1
  Cl  Cl53  1  0.935231  0.587663  0.250000  1
  Cl  Cl54  1  0.406956  0.593044  0.250000  1
  Cl  Cl55  1  0.245119  0.754881  0.023267  1
  Cl  Cl56  1  0.245119  0.754881  0.476733  1
  Cl  Cl57  1  0.587663  0.935231  0.750000  1
  Cl  Cl58  1  0.761599  0.761599  1.000000  1
  Cl  Cl59  1  0.761599  0.761599  0.500000  1
