# generated using pymatgen
data_Li4FeCo3O8
_symmetry_space_group_name_H-M   'P 1'
_cell_length_a   5.07982214
_cell_length_b   5.54032358
_cell_length_c   6.40684560
_cell_angle_alpha   89.72839432
_cell_angle_beta   89.96772198
_cell_angle_gamma   89.68268644
_symmetry_Int_Tables_number   1
_chemical_formula_structural   Li4FeCo3O8
_chemical_formula_sum   'Li4 Fe1 Co3 O8'
_cell_volume   180.30853785
_cell_formula_units_Z   1
loop_
 _symmetry_equiv_pos_site_id
 _symmetry_equiv_pos_as_xyz
  1  'x, y, z'
loop_
 _atom_site_type_symbol
 _atom_site_label
 _atom_site_symmetry_multiplicity
 _atom_site_fract_x
 _atom_site_fract_y
 _atom_site_fract_z
 _atom_site_occupancy
  Li  Li0  1  0.997164  0.082608  0.623466  1
  Li  Li1  1  0.495356  0.417371  0.125069  1
  Li  Li2  1  0.996351  0.581407  0.875324  1
  Li  Li3  1  0.495991  0.917976  0.375328  1
  Fe  Fe4  1  0.497758  0.921761  0.874177  1
  Co  Co5  1  0.999728  0.081119  0.128831  1
  Co  Co6  1  0.494284  0.418477  0.626183  1
  Co  Co7  1  0.997211  0.579246  0.374724  1
  O  O8  1  0.370599  0.076700  0.118589  1
  O  O9  1  0.393461  0.095298  0.629371  1
  O  O10  1  0.896401  0.404644  0.136998  1
  O  O11  1  0.866445  0.424612  0.613003  1
  O  O12  1  0.367732  0.576543  0.385862  1
  O  O13  1  0.390462  0.591855  0.861302  1
  O  O14  1  0.893350  0.903850  0.363562  1
  O  O15  1  0.874106  0.926532  0.888210  1
