# generated using pymatgen
data_CuH6Se2NClO6
_symmetry_space_group_name_H-M   'P 1'
_cell_length_a   7.42493707
_cell_length_b   9.06481915
_cell_length_c   12.27747844
_cell_angle_alpha   90.00000000
_cell_angle_beta   90.00000000
_cell_angle_gamma   90.00000000
_symmetry_Int_Tables_number   1
_chemical_formula_structural   CuH6Se2NClO6
_chemical_formula_sum   'Cu4 H24 Se8 N4 Cl4 O24'
_cell_volume   826.34442477
_cell_formula_units_Z   4
loop_
 _symmetry_equiv_pos_site_id
 _symmetry_equiv_pos_as_xyz
  1  'x, y, z'
loop_
 _atom_site_type_symbol
 _atom_site_label
 _atom_site_symmetry_multiplicity
 _atom_site_fract_x
 _atom_site_fract_y
 _atom_site_fract_z
 _atom_site_occupancy
  Cu  Cu0  1  0.500000  0.500000  0.000000  1
  Cu  Cu1  1  0.000000  0.000000  0.500000  1
  Cu  Cu2  1  0.500000  0.500000  0.500000  1
  Cu  Cu3  1  0.000000  0.000000  0.000000  1
  H  H4  1  0.389326  0.946404  0.074592  1
  H  H5  1  0.110674  0.446404  0.425408  1
  H  H6  1  0.610674  0.053596  0.574592  1
  H  H7  1  0.889326  0.553596  0.925408  1
  H  H8  1  0.610674  0.053596  0.925408  1
  H  H9  1  0.889326  0.553596  0.574592  1
  H  H10  1  0.389326  0.946404  0.425408  1
  H  H11  1  0.110674  0.446404  0.074592  1
  H  H12  1  0.312473  0.718697  0.250000  1
  H  H13  1  0.187527  0.218697  0.250000  1
  H  H14  1  0.687527  0.281303  0.750000  1
  H  H15  1  0.812473  0.781303  0.750000  1
  H  H16  1  0.178464  0.572171  0.250000  1
  H  H17  1  0.321536  0.072171  0.250000  1
  H  H18  1  0.821536  0.427829  0.750000  1
  H  H19  1  0.678464  0.927829  0.750000  1
  H  H20  1  0.120011  0.726918  0.319234  1
  H  H21  1  0.379989  0.226918  0.180766  1
  H  H22  1  0.879989  0.273082  0.819234  1
  H  H23  1  0.620011  0.773082  0.680766  1
  H  H24  1  0.879989  0.273082  0.680766  1
  H  H25  1  0.620011  0.773082  0.819234  1
  H  H26  1  0.120011  0.726918  0.180766  1
  H  H27  1  0.379989  0.226918  0.319234  1
  Se  Se28  1  0.657414  0.808425  0.076330  1
  Se  Se29  1  0.842586  0.308425  0.423670  1
  Se  Se30  1  0.342586  0.191575  0.576330  1
  Se  Se31  1  0.157414  0.691575  0.923670  1
  Se  Se32  1  0.342586  0.191575  0.923670  1
  Se  Se33  1  0.157414  0.691575  0.576330  1
  Se  Se34  1  0.657414  0.808425  0.423670  1
  Se  Se35  1  0.842586  0.308425  0.076330  1
  N  N36  1  0.180149  0.685916  0.250000  1
  N  N37  1  0.319851  0.185916  0.250000  1
  N  N38  1  0.819851  0.314084  0.750000  1
  N  N39  1  0.680149  0.814084  0.750000  1
  Cl  Cl40  1  0.549352  0.520408  0.250000  1
  Cl  Cl41  1  0.950648  0.020408  0.250000  1
  Cl  Cl42  1  0.450648  0.479592  0.750000  1
  Cl  Cl43  1  0.049352  0.979592  0.750000  1
  O  O44  1  0.559222  0.709318  0.971405  1
  O  O45  1  0.940778  0.209318  0.528595  1
  O  O46  1  0.440778  0.290682  0.471405  1
  O  O47  1  0.059222  0.790682  0.028595  1
  O  O48  1  0.440778  0.290682  0.028595  1
  O  O49  1  0.059222  0.790682  0.471405  1
  O  O50  1  0.559222  0.709318  0.528595  1
  O  O51  1  0.940778  0.209318  0.971405  1
  O  O52  1  0.737860  0.956569  0.000693  1
  O  O53  1  0.762140  0.456569  0.499307  1
  O  O54  1  0.262140  0.043431  0.500693  1
  O  O55  1  0.237860  0.543431  0.999307  1
  O  O56  1  0.262140  0.043431  0.999307  1
  O  O57  1  0.237860  0.543431  0.500693  1
  O  O58  1  0.737860  0.956569  0.499307  1
  O  O59  1  0.762140  0.456569  0.000693  1
  O  O60  1  0.461935  0.893015  0.133615  1
  O  O61  1  0.038065  0.393015  0.366385  1
  O  O62  1  0.538065  0.106985  0.633615  1
  O  O63  1  0.961935  0.606985  0.866385  1
  O  O64  1  0.538065  0.106985  0.866385  1
  O  O65  1  0.961935  0.606985  0.633615  1
  O  O66  1  0.461935  0.893015  0.366385  1
  O  O67  1  0.038065  0.393015  0.133615  1
