# generated using pymatgen
data_Li6CoNiP2(CO7)2
_symmetry_space_group_name_H-M   'P 1'
_cell_length_a   4.98143683
_cell_length_b   6.43172288
_cell_length_c   8.38648292
_cell_angle_alpha   90.00000000
_cell_angle_beta   94.69648826
_cell_angle_gamma   90.00000000
_symmetry_Int_Tables_number   1
_chemical_formula_structural   Li6CoNiP2(CO7)2
_chemical_formula_sum   'Li6 Co1 Ni1 P2 C2 O14'
_cell_volume   267.79420870
_cell_formula_units_Z   1
loop_
 _symmetry_equiv_pos_site_id
 _symmetry_equiv_pos_as_xyz
  1  'x, y, z'
loop_
 _atom_site_type_symbol
 _atom_site_label
 _atom_site_symmetry_multiplicity
 _atom_site_fract_x
 _atom_site_fract_y
 _atom_site_fract_z
 _atom_site_occupancy
  Li  Li0  1  0.762424  0.500000  0.904091  1
  Li  Li1  1  0.246146  0.272019  0.723782  1
  Li  Li2  1  0.246146  0.727981  0.723782  1
  Li  Li3  1  0.752329  0.771119  0.275889  1
  Li  Li4  1  0.752329  0.228881  0.275889  1
  Li  Li5  1  0.237596  0.000000  0.096005  1
  Co  Co6  1  0.208929  0.500000  0.333306  1
  Ni  Ni7  1  0.793279  0.000000  0.668120  1
  P  P8  1  0.719360  0.500000  0.587157  1
  P  P9  1  0.279771  0.000000  0.414648  1
  C  C10  1  0.704558  0.000000  0.961490  1
  C  C11  1  0.296311  0.500000  0.036497  1
  O  O12  1  0.952067  0.000000  0.924911  1
  O  O13  1  0.357537  0.500000  0.889218  1
  O  O14  1  0.514818  0.000000  0.844999  1
  O  O15  1  0.824838  0.312359  0.691831  1
  O  O16  1  0.824838  0.687641  0.691831  1
  O  O17  1  0.170646  0.000000  0.581472  1
  O  O18  1  0.404983  0.500000  0.567129  1
  O  O19  1  0.594029  0.000000  0.437409  1
  O  O20  1  0.824388  0.500000  0.418931  1
  O  O21  1  0.176290  0.187077  0.308696  1
  O  O22  1  0.176290  0.812923  0.308696  1
  O  O23  1  0.488386  0.500000  0.152092  1
  O  O24  1  0.642441  0.000000  0.108819  1
  O  O25  1  0.049271  0.500000  0.073309  1
