# generated using pymatgen
data_Li2Cr3(CO3)6
_symmetry_space_group_name_H-M   'P 1'
_cell_length_a   4.72407875
_cell_length_b   6.03049701
_cell_length_c   12.15376005
_cell_angle_alpha   100.98685567
_cell_angle_beta   90.06771538
_cell_angle_gamma   112.99377572
_symmetry_Int_Tables_number   1
_chemical_formula_structural   Li2Cr3(CO3)6
_chemical_formula_sum   'Li2 Cr3 C6 O18'
_cell_volume   311.79318879
_cell_formula_units_Z   1
loop_
 _symmetry_equiv_pos_site_id
 _symmetry_equiv_pos_as_xyz
  1  'x, y, z'
loop_
 _atom_site_type_symbol
 _atom_site_label
 _atom_site_symmetry_multiplicity
 _atom_site_fract_x
 _atom_site_fract_y
 _atom_site_fract_z
 _atom_site_occupancy
  Li  Li0  1  0.423377  0.849007  0.268769  1
  Li  Li1  1  0.576623  0.150993  0.731231  1
  Cr  Cr2  1  0.165870  0.329105  0.335431  1
  Cr  Cr3  1  0.500000  0.000000  0.000000  1
  Cr  Cr4  1  0.834130  0.670895  0.664569  1
  C  C5  1  0.960380  0.924058  0.135333  1
  C  C6  1  0.288416  0.582562  0.800634  1
  C  C7  1  0.039620  0.075942  0.864667  1
  C  C8  1  0.632458  0.255731  0.468403  1
  C  C9  1  0.367542  0.744269  0.531597  1
  C  C10  1  0.711584  0.417438  0.199366  1
  O  O11  1  0.546853  0.558039  0.785172  1
  O  O12  1  0.453147  0.441961  0.214828  1
  O  O13  1  0.233847  0.158268  0.950869  1
  O  O14  1  0.115265  0.990561  0.767044  1
  O  O15  1  0.884735  0.009439  0.232956  1
  O  O16  1  0.240148  0.684566  0.896729  1
  O  O17  1  0.766153  0.841732  0.049131  1
  O  O18  1  0.070392  0.489342  0.719618  1
  O  O19  1  0.898007  0.245615  0.458723  1
  O  O20  1  0.770506  0.087079  0.870462  1
  O  O21  1  0.572018  0.838773  0.618149  1
  O  O22  1  0.929608  0.510658  0.280382  1
  O  O23  1  0.437564  0.654544  0.435495  1
  O  O24  1  0.759852  0.315434  0.103271  1
  O  O25  1  0.562436  0.345456  0.564505  1
  O  O26  1  0.427982  0.161227  0.381851  1
  O  O27  1  0.229494  0.912921  0.129538  1
  O  O28  1  0.101993  0.754385  0.541277  1
