# generated using pymatgen
data_Li5Fe8(BO3)8
_symmetry_space_group_name_H-M   'P 1'
_cell_length_a   5.25138243
_cell_length_b   9.12913762
_cell_length_c   10.14163181
_cell_angle_alpha   88.09942729
_cell_angle_beta   89.24572525
_cell_angle_gamma   89.14734106
_symmetry_Int_Tables_number   1
_chemical_formula_structural   Li5Fe8(BO3)8
_chemical_formula_sum   'Li5 Fe8 B8 O24'
_cell_volume   485.83551527
_cell_formula_units_Z   1
loop_
 _symmetry_equiv_pos_site_id
 _symmetry_equiv_pos_as_xyz
  1  'x, y, z'
loop_
 _atom_site_type_symbol
 _atom_site_label
 _atom_site_symmetry_multiplicity
 _atom_site_fract_x
 _atom_site_fract_y
 _atom_site_fract_z
 _atom_site_occupancy
  Li  Li0  1  0.176342  0.166984  0.154572  1
  Li  Li1  1  0.320728  0.330761  0.421363  1
  Li  Li2  1  0.335646  0.324499  0.904738  1
  Li  Li3  1  0.657566  0.671978  0.653708  1
  Li  Li4  1  0.833616  0.829785  0.391438  1
  Fe  Fe5  1  0.160942  0.841633  0.634272  1
  Fe  Fe6  1  0.172296  0.505028  0.135386  1
  Fe  Fe7  1  0.313867  0.994579  0.878359  1
  Fe  Fe8  1  0.346069  0.662427  0.375749  1
  Fe  Fe9  1  0.673733  0.337132  0.630018  1
  Fe  Fe10  1  0.666904  0.997810  0.125837  1
  Fe  Fe11  1  0.833776  0.158465  0.382976  1
  Fe  Fe12  1  0.832605  0.498817  0.881325  1
  B  B13  1  0.169306  0.508965  0.631821  1
  B  B14  1  0.169295  0.836842  0.136309  1
  B  B15  1  0.333095  0.998836  0.374862  1
  B  B16  1  0.324669  0.658595  0.867908  1
  B  B17  1  0.660425  0.994699  0.624619  1
  B  B18  1  0.667958  0.324001  0.118592  1
  B  B19  1  0.837471  0.498458  0.382686  1
  B  B20  1  0.830159  0.173050  0.887416  1
  O  O21  1  0.096794  0.487696  0.347606  1
  O  O22  1  0.089149  0.172395  0.889800  1
  O  O23  1  0.190332  0.786347  0.832608  1
  O  O24  1  0.205951  0.876679  0.428377  1
  O  O25  1  0.213060  0.133411  0.357722  1
  O  O26  1  0.193962  0.534263  0.913354  1
  O  O27  1  0.299733  0.381469  0.618508  1
  O  O28  1  0.304707  0.963585  0.094668  1
  O  O29  1  0.286716  0.643335  0.596536  1
  O  O30  1  0.297075  0.709681  0.168493  1
  O  O31  1  0.407437  0.326332  0.110939  1
  O  O32  1  0.408838  0.988228  0.669211  1
  O  O33  1  0.587249  0.982706  0.333415  1
  O  O34  1  0.584381  0.649852  0.852743  1
  O  O35  1  0.696029  0.302167  0.844506  1
  O  O36  1  0.701249  0.370576  0.413405  1
  O  O37  1  0.721924  0.633619  0.392086  1
  O  O38  1  0.683790  0.054964  0.931095  1
  O  O39  1  0.814203  0.442156  0.075358  1
  O  O40  1  0.797560  0.862876  0.613338  1
  O  O41  1  0.767925  0.124925  0.587817  1
  O  O42  1  0.798135  0.195889  0.164695  1
  O  O43  1  0.909681  0.848669  0.147897  1
  O  O44  1  0.914766  0.513204  0.677440  1
