# generated using pymatgen
data_Er3TaO7
_symmetry_space_group_name_H-M   'P 1'
_cell_length_a   6.34978300
_cell_length_b   6.43880718
_cell_length_c   7.55048537
_cell_angle_alpha   106.80178694
_cell_angle_beta   89.63797809
_cell_angle_gamma   97.72587242
_symmetry_Int_Tables_number   1
_chemical_formula_structural   Er3TaO7
_chemical_formula_sum   'Er6 Ta2 O14'
_cell_volume   292.66854166
_cell_formula_units_Z   2
loop_
 _symmetry_equiv_pos_site_id
 _symmetry_equiv_pos_as_xyz
  1  'x, y, z'
loop_
 _atom_site_type_symbol
 _atom_site_label
 _atom_site_symmetry_multiplicity
 _atom_site_fract_x
 _atom_site_fract_y
 _atom_site_fract_z
 _atom_site_occupancy
  Er  Er0  1  0.736567  0.460897  0.115087  1
  Er  Er1  1  0.732496  0.458300  0.608583  1
  Er  Er2  1  0.544589  0.993169  0.749553  1
  Er  Er3  1  0.455411  0.006831  0.250447  1
  Er  Er4  1  0.267504  0.541700  0.391417  1
  Er  Er5  1  0.263433  0.539103  0.884913  1
  Ta  Ta6  1  0.000000  0.000000  0.000000  1
  Ta  Ta7  1  0.000000  0.000000  0.500000  1
  O  O8  1  0.707232  0.065201  0.480225  1
  O  O9  1  0.922976  0.679186  0.959940  1
  O  O10  1  0.706579  0.072790  0.051729  1
  O  O11  1  0.931694  0.665692  0.385602  1
  O  O12  1  0.903840  0.938875  0.734066  1
  O  O13  1  0.558187  0.349376  0.833393  1
  O  O14  1  0.542522  0.361142  0.342790  1
  O  O15  1  0.457478  0.638858  0.657210  1
  O  O16  1  0.441813  0.650624  0.166607  1
  O  O17  1  0.096160  0.061125  0.265934  1
  O  O18  1  0.068306  0.334308  0.614398  1
  O  O19  1  0.293421  0.927210  0.948271  1
  O  O20  1  0.077024  0.320814  0.040060  1
  O  O21  1  0.292768  0.934799  0.519775  1
