# generated using pymatgen
data_Na5CrO4
_symmetry_space_group_name_H-M   'P 1'
_cell_length_a   5.35257189
_cell_length_b   7.25077954
_cell_length_c   7.62236106
_cell_angle_alpha   90.00000000
_cell_angle_beta   90.00000000
_cell_angle_gamma   90.00000000
_symmetry_Int_Tables_number   1
_chemical_formula_structural   Na5CrO4
_chemical_formula_sum   'Na10 Cr2 O8'
_cell_volume   295.82626241
_cell_formula_units_Z   2
loop_
 _symmetry_equiv_pos_site_id
 _symmetry_equiv_pos_as_xyz
  1  'x, y, z'
loop_
 _atom_site_type_symbol
 _atom_site_label
 _atom_site_symmetry_multiplicity
 _atom_site_fract_x
 _atom_site_fract_y
 _atom_site_fract_z
 _atom_site_occupancy
  Na  Na0  1  0.256664  0.738622  0.692081  1
  Na  Na1  1  0.256664  0.261378  0.692081  1
  Na  Na2  1  0.817859  0.000000  0.500000  1
  Na  Na3  1  0.256664  0.261378  0.307919  1
  Na  Na4  1  0.256664  0.738622  0.307919  1
  Na  Na5  1  0.743336  0.238622  0.192081  1
  Na  Na6  1  0.743336  0.761378  0.192081  1
  Na  Na7  1  0.182141  0.500000  0.000000  1
  Na  Na8  1  0.743336  0.238622  0.807919  1
  Na  Na9  1  0.743336  0.761378  0.807919  1
  Cr  Cr10  1  0.781933  0.500000  0.500000  1
  Cr  Cr11  1  0.218067  0.000000  0.000000  1
  O  O12  1  0.966141  0.500000  0.727705  1
  O  O13  1  0.599054  0.274384  0.500000  1
  O  O14  1  0.599054  0.725616  0.500000  1
  O  O15  1  0.966141  0.500000  0.272295  1
  O  O16  1  0.033859  0.000000  0.227705  1
  O  O17  1  0.400946  0.225616  0.000000  1
  O  O18  1  0.400946  0.774384  0.000000  1
  O  O19  1  0.033859  0.000000  0.772295  1
