# generated using pymatgen
data_Li2Fe(SiO3)2
_symmetry_space_group_name_H-M   'P 1'
_cell_length_a   5.44454075
_cell_length_b   4.78133417
_cell_length_c   9.83921037
_cell_angle_alpha   90.00000000
_cell_angle_beta   91.75854156
_cell_angle_gamma   90.00000000
_symmetry_Int_Tables_number   1
_chemical_formula_structural   Li2Fe(SiO3)2
_chemical_formula_sum   'Li4 Fe2 Si4 O12'
_cell_volume   256.01535113
_cell_formula_units_Z   2
loop_
 _symmetry_equiv_pos_site_id
 _symmetry_equiv_pos_as_xyz
  1  'x, y, z'
loop_
 _atom_site_type_symbol
 _atom_site_label
 _atom_site_symmetry_multiplicity
 _atom_site_fract_x
 _atom_site_fract_y
 _atom_site_fract_z
 _atom_site_occupancy
  Li  Li0  1  0.664597  0.196778  0.333508  1
  Li  Li1  1  0.838740  0.704245  0.483487  1
  Li  Li2  1  0.161260  0.204245  0.516513  1
  Li  Li3  1  0.335403  0.696778  0.666492  1
  Fe  Fe4  1  0.716941  0.666076  0.128863  1
  Fe  Fe5  1  0.283059  0.166076  0.871137  1
  Si  Si6  1  0.146834  0.212024  0.183414  1
  Si  Si7  1  0.315522  0.712127  0.343275  1
  Si  Si8  1  0.684478  0.212127  0.656725  1
  Si  Si9  1  0.853166  0.712024  0.816586  1
  O  O10  1  0.312188  0.291668  0.056900  1
  O  O11  1  0.861799  0.301309  0.181828  1
  O  O12  1  0.148789  0.868806  0.219438  1
  O  O13  1  0.289232  0.362155  0.322349  1
  O  O14  1  0.604246  0.788798  0.322351  1
  O  O15  1  0.201660  0.791717  0.487645  1
  O  O16  1  0.798340  0.291717  0.512355  1
  O  O17  1  0.395754  0.288798  0.677649  1
  O  O18  1  0.710768  0.862155  0.677651  1
  O  O19  1  0.851211  0.368806  0.780562  1
  O  O20  1  0.138201  0.801309  0.818172  1
  O  O21  1  0.687812  0.791668  0.943100  1
