# generated using pymatgen
data_Li3Mn8(OF3)4
_symmetry_space_group_name_H-M   'P 1'
_cell_length_a   6.40387781
_cell_length_b   6.40387781
_cell_length_c   10.58868913
_cell_angle_alpha   70.25833055
_cell_angle_beta   109.74166945
_cell_angle_gamma   122.08293980
_symmetry_Int_Tables_number   1
_chemical_formula_structural   Li3Mn8(OF3)4
_chemical_formula_sum   'Li3 Mn8 O4 F12'
_cell_volume   339.39995740
_cell_formula_units_Z   1
loop_
 _symmetry_equiv_pos_site_id
 _symmetry_equiv_pos_as_xyz
  1  'x, y, z'
loop_
 _atom_site_type_symbol
 _atom_site_label
 _atom_site_symmetry_multiplicity
 _atom_site_fract_x
 _atom_site_fract_y
 _atom_site_fract_z
 _atom_site_occupancy
  Li  Li0  1  0.000000  0.000000  0.000000  1
  Li  Li1  1  0.192201  0.807799  0.578909  1
  Li  Li2  1  0.807799  0.192201  0.421091  1
  Mn  Mn3  1  1.000000  0.500000  0.000000  1
  Mn  Mn4  1  0.500000  0.000000  0.000000  1
  Mn  Mn5  1  0.755231  0.743961  0.752198  1
  Mn  Mn6  1  0.256039  0.244769  0.752198  1
  Mn  Mn7  1  0.738597  0.261403  0.723417  1
  Mn  Mn8  1  0.261403  0.738597  0.276583  1
  Mn  Mn9  1  0.244769  0.256039  0.247802  1
  Mn  Mn10  1  0.743961  0.755231  0.247802  1
  O  O11  1  0.123479  0.876521  0.887633  1
  O  O12  1  0.641318  0.358682  0.868492  1
  O  O13  1  0.358682  0.641318  0.131508  1
  O  O14  1  0.876521  0.123479  0.112367  1
  F  F15  1  0.657937  0.900443  0.866197  1
  F  F16  1  0.099557  0.342063  0.866197  1
  F  F17  1  0.379259  0.620741  0.641586  1
  F  F18  1  0.875148  0.124852  0.623849  1
  F  F19  1  0.880327  0.638706  0.629912  1
  F  F20  1  0.361294  0.119673  0.629912  1
  F  F21  1  0.119673  0.361294  0.370088  1
  F  F22  1  0.638706  0.880327  0.370088  1
  F  F23  1  0.124852  0.875148  0.376151  1
  F  F24  1  0.620741  0.379259  0.358414  1
  F  F25  1  0.342063  0.099557  0.133803  1
  F  F26  1  0.900443  0.657937  0.133803  1
