# generated using pymatgen
data_Sm2Pb2O7
_symmetry_space_group_name_H-M   'P 1'
_cell_length_a   7.59562840
_cell_length_b   7.17776163
_cell_length_c   12.68907652
_cell_angle_alpha   90.00000000
_cell_angle_beta   100.98858131
_cell_angle_gamma   90.00000000
_symmetry_Int_Tables_number   1
_chemical_formula_structural   Sm2Pb2O7
_chemical_formula_sum   'Sm8 Pb8 O28'
_cell_volume   679.11941914
_cell_formula_units_Z   4
loop_
 _symmetry_equiv_pos_site_id
 _symmetry_equiv_pos_as_xyz
  1  'x, y, z'
loop_
 _atom_site_type_symbol
 _atom_site_label
 _atom_site_symmetry_multiplicity
 _atom_site_fract_x
 _atom_site_fract_y
 _atom_site_fract_z
 _atom_site_occupancy
  Sm  Sm0  1  0.527663  0.899299  0.355721  1
  Sm  Sm1  1  0.472337  0.399299  0.144279  1
  Sm  Sm2  1  0.729529  0.685668  0.612884  1
  Sm  Sm3  1  0.270471  0.185668  0.887116  1
  Sm  Sm4  1  0.729529  0.814332  0.112884  1
  Sm  Sm5  1  0.270471  0.314332  0.387116  1
  Sm  Sm6  1  0.527663  0.600701  0.855721  1
  Sm  Sm7  1  0.472337  0.100701  0.644279  1
  Pb  Pb8  1  0.232950  0.885327  0.101948  1
  Pb  Pb9  1  0.767050  0.385327  0.398052  1
  Pb  Pb10  1  0.942646  0.110996  0.611924  1
  Pb  Pb11  1  0.057354  0.610996  0.888076  1
  Pb  Pb12  1  0.942646  0.389004  0.111924  1
  Pb  Pb13  1  0.057354  0.889004  0.388076  1
  Pb  Pb14  1  0.232950  0.614673  0.601948  1
  Pb  Pb15  1  0.767050  0.114673  0.898052  1
  O  O16  1  0.001532  0.689117  0.064930  1
  O  O17  1  0.530751  0.234805  0.323790  1
  O  O18  1  0.393090  0.115894  0.067539  1
  O  O19  1  0.785149  0.035724  0.737315  1
  O  O20  1  0.802229  0.606458  0.793967  1
  O  O21  1  0.606910  0.615894  0.432461  1
  O  O22  1  0.682047  0.993758  0.531059  1
  O  O23  1  0.469249  0.734805  0.176210  1
  O  O24  1  0.844198  0.392530  0.576120  1
  O  O25  1  0.785149  0.464276  0.237315  1
  O  O26  1  0.998468  0.189117  0.435070  1
  O  O27  1  0.802229  0.893542  0.293967  1
  O  O28  1  0.155802  0.892530  0.923880  1
  O  O29  1  0.682047  0.506242  0.031059  1
  O  O30  1  0.317953  0.493758  0.968941  1
  O  O31  1  0.844198  0.107470  0.076120  1
  O  O32  1  0.197771  0.106458  0.706033  1
  O  O33  1  0.001532  0.810883  0.564930  1
  O  O34  1  0.214851  0.535724  0.762685  1
  O  O35  1  0.155802  0.607470  0.423880  1
  O  O36  1  0.530751  0.265195  0.823790  1
  O  O37  1  0.317953  0.006242  0.468941  1
  O  O38  1  0.393090  0.384106  0.567539  1
  O  O39  1  0.197771  0.393542  0.206033  1
  O  O40  1  0.214851  0.964276  0.262685  1
  O  O41  1  0.606910  0.884106  0.932461  1
  O  O42  1  0.469249  0.765195  0.676210  1
  O  O43  1  0.998468  0.310883  0.935070  1
