# generated using pymatgen
data_Li2CuPO4
_symmetry_space_group_name_H-M   'P 1'
_cell_length_a   5.06660955
_cell_length_b   5.38333684
_cell_length_c   6.24296221
_cell_angle_alpha   90.25287072
_cell_angle_beta   90.00471681
_cell_angle_gamma   90.31066307
_symmetry_Int_Tables_number   1
_chemical_formula_structural   Li2CuPO4
_chemical_formula_sum   'Li4 Cu2 P2 O8'
_cell_volume   170.27429149
_cell_formula_units_Z   2
loop_
 _symmetry_equiv_pos_site_id
 _symmetry_equiv_pos_as_xyz
  1  'x, y, z'
loop_
 _atom_site_type_symbol
 _atom_site_label
 _atom_site_symmetry_multiplicity
 _atom_site_fract_x
 _atom_site_fract_y
 _atom_site_fract_z
 _atom_site_occupancy
  Li  Li0  1  0.995164  0.672935  0.245774  1
  Li  Li1  1  0.493910  0.327506  0.250207  1
  Li  Li2  1  0.993853  0.154791  0.500540  1
  Li  Li3  1  0.493463  0.324682  0.749660  1
  Cu  Cu4  1  0.488964  0.819713  0.998361  1
  Cu  Cu5  1  0.993052  0.664585  0.761383  1
  P  P6  1  0.997910  0.183494  0.004934  1
  P  P7  1  0.499916  0.831242  0.494231  1
  O  O8  1  0.907920  0.905557  0.014776  1
  O  O9  1  0.304842  0.199653  0.000430  1
  O  O10  1  0.890390  0.319872  0.206841  1
  O  O11  1  0.388131  0.684640  0.296046  1
  O  O12  1  0.807685  0.830231  0.487296  1
  O  O13  1  0.394672  0.100295  0.498656  1
  O  O14  1  0.407649  0.683138  0.698034  1
  O  O15  1  0.885072  0.297667  0.792831  1
