# generated using pymatgen
data_Li4Cr3(CoO4)3
_symmetry_space_group_name_H-M   'P 1'
_cell_length_a   5.84526783
_cell_length_b   5.92258638
_cell_length_c   6.59316159
_cell_angle_alpha   104.11877216
_cell_angle_beta   102.91706936
_cell_angle_gamma   89.61580178
_symmetry_Int_Tables_number   1
_chemical_formula_structural   Li4Cr3(CoO4)3
_chemical_formula_sum   'Li4 Cr3 Co3 O12'
_cell_volume   215.47666202
_cell_formula_units_Z   1
loop_
 _symmetry_equiv_pos_site_id
 _symmetry_equiv_pos_as_xyz
  1  'x, y, z'
loop_
 _atom_site_type_symbol
 _atom_site_label
 _atom_site_symmetry_multiplicity
 _atom_site_fract_x
 _atom_site_fract_y
 _atom_site_fract_z
 _atom_site_occupancy
  Li  Li0  1  0.175567  0.156081  0.657976  1
  Li  Li1  1  0.824433  0.843919  0.342024  1
  Li  Li2  1  0.500000  0.500000  0.000000  1
  Li  Li3  1  0.000000  0.500000  0.000000  1
  Cr  Cr4  1  0.000000  0.000000  0.000000  1
  Cr  Cr5  1  0.665238  0.667776  0.663934  1
  Cr  Cr6  1  0.334762  0.332224  0.336066  1
  Co  Co7  1  0.500000  0.000000  0.000000  1
  Co  Co8  1  0.164608  0.666721  0.663554  1
  Co  Co9  1  0.835392  0.333279  0.336446  1
  O  O10  1  0.405070  0.891272  0.686701  1
  O  O11  1  0.931444  0.889993  0.675572  1
  O  O12  1  0.594930  0.108728  0.313299  1
  O  O13  1  0.238928  0.754273  0.967896  1
  O  O14  1  0.068556  0.110007  0.324428  1
  O  O15  1  0.752615  0.759649  0.988165  1
  O  O16  1  0.598772  0.554581  0.344319  1
  O  O17  1  0.247385  0.240351  0.011835  1
  O  O18  1  0.075305  0.558934  0.353933  1
  O  O19  1  0.761072  0.245727  0.032104  1
  O  O20  1  0.401228  0.445419  0.655681  1
  O  O21  1  0.924695  0.441066  0.646067  1
