# generated using pymatgen
data_SbH5(Cl3O)2
_symmetry_space_group_name_H-M   'P 1'
_cell_length_a   7.10529303
_cell_length_b   7.10529303
_cell_length_c   13.60150093
_cell_angle_alpha   69.38830748
_cell_angle_beta   110.61169252
_cell_angle_gamma   118.82050505
_symmetry_Int_Tables_number   1
_chemical_formula_structural   SbH5(Cl3O)2
_chemical_formula_sum   'Sb2 H10 Cl12 O4'
_cell_volume   549.01297746
_cell_formula_units_Z   2
loop_
 _symmetry_equiv_pos_site_id
 _symmetry_equiv_pos_as_xyz
  1  'x, y, z'
loop_
 _atom_site_type_symbol
 _atom_site_label
 _atom_site_symmetry_multiplicity
 _atom_site_fract_x
 _atom_site_fract_y
 _atom_site_fract_z
 _atom_site_occupancy
  Sb  Sb0  1  0.499192  0.997347  0.748845  1
  Sb  Sb1  1  0.997347  0.499192  0.251155  1
  H  H2  1  0.692648  0.863041  0.583893  1
  H  H3  1  0.763335  0.660194  0.650303  1
  H  H4  1  0.719191  0.719191  0.500000  1
  H  H5  1  0.660194  0.763335  0.349697  1
  H  H6  1  0.134916  0.309877  0.080754  1
  H  H7  1  0.863041  0.692648  0.416107  1
  H  H8  1  0.322283  0.220360  0.149068  1
  H  H9  1  0.278887  0.278887  0.000000  1
  H  H10  1  0.220360  0.322283  0.850932  1
  H  H11  1  0.309877  0.134916  0.919246  1
  Cl  Cl12  1  0.328223  0.763395  0.182194  1
  Cl  Cl13  1  0.850613  0.341959  0.093007  1
  Cl  Cl14  1  0.247580  0.168887  0.656702  1
  Cl  Cl15  1  0.168887  0.247580  0.343298  1
  Cl  Cl16  1  0.341959  0.850613  0.906993  1
  Cl  Cl17  1  0.763395  0.328223  0.817806  1
  Cl  Cl18  1  0.237946  0.671848  0.679745  1
  Cl  Cl19  1  0.662190  0.150294  0.592243  1
  Cl  Cl20  1  0.832722  0.753788  0.159880  1
  Cl  Cl21  1  0.753788  0.832722  0.840120  1
  Cl  Cl22  1  0.150294  0.662190  0.407757  1
  Cl  Cl23  1  0.671848  0.237946  0.320255  1
  O  O24  1  0.689112  0.724290  0.580481  1
  O  O25  1  0.724290  0.689112  0.419519  1
  O  O26  1  0.272894  0.307964  0.079925  1
  O  O27  1  0.307964  0.272894  0.920075  1
