# generated using pymatgen
data_Ti2N
_symmetry_space_group_name_H-M   'P 1'
_cell_length_a   5.32276228
_cell_length_b   5.32276228
_cell_length_c   5.32276228
_cell_angle_alpha   134.09418832
_cell_angle_beta   134.09418832
_cell_angle_gamma   66.94093169
_symmetry_Int_Tables_number   1
_chemical_formula_structural   Ti2N
_chemical_formula_sum   'Ti4 N2'
_cell_volume   76.52406947
_cell_formula_units_Z   2
loop_
 _symmetry_equiv_pos_site_id
 _symmetry_equiv_pos_as_xyz
  1  'x, y, z'
loop_
 _atom_site_type_symbol
 _atom_site_label
 _atom_site_symmetry_multiplicity
 _atom_site_fract_x
 _atom_site_fract_y
 _atom_site_fract_z
 _atom_site_occupancy
  Ti  Ti0  1  0.481235  0.981235  0.500000  1
  Ti  Ti1  1  0.731235  0.731235  0.000000  1
  Ti  Ti2  1  0.018765  0.518765  0.500000  1
  Ti  Ti3  1  0.268765  0.268765  0.000000  1
  N  N4  1  0.250000  0.750000  0.500000  1
  N  N5  1  0.500000  0.500000  0.000000  1
