# generated using pymatgen
data_Li4TiMn3Cr2(PO4)6
_symmetry_space_group_name_H-M   'P 1'
_cell_length_a   8.51666086
_cell_length_b   8.73528891
_cell_length_c   8.74856794
_cell_angle_alpha   62.29840491
_cell_angle_beta   62.74874267
_cell_angle_gamma   62.97158276
_symmetry_Int_Tables_number   1
_chemical_formula_structural   Li4TiMn3Cr2(PO4)6
_chemical_formula_sum   'Li4 Ti1 Mn3 Cr2 P6 O24'
_cell_volume   487.56925590
_cell_formula_units_Z   1
loop_
 _symmetry_equiv_pos_site_id
 _symmetry_equiv_pos_as_xyz
  1  'x, y, z'
loop_
 _atom_site_type_symbol
 _atom_site_label
 _atom_site_symmetry_multiplicity
 _atom_site_fract_x
 _atom_site_fract_y
 _atom_site_fract_z
 _atom_site_occupancy
  Li  Li0  1  0.751850  0.150773  0.352160  1
  Li  Li1  1  0.278656  0.852933  0.650675  1
  Li  Li2  1  0.646113  0.278523  0.858384  1
  Li  Li3  1  0.863257  0.647237  0.284923  1
  Ti  Ti4  1  0.847712  0.843163  0.849258  1
  Mn  Mn5  1  0.154454  0.151043  0.149319  1
  Mn  Mn6  1  0.347795  0.356654  0.349511  1
  Mn  Mn7  1  0.654783  0.652887  0.657624  1
  Cr  Cr8  1  0.011932  0.999280  0.000070  1
  Cr  Cr9  1  0.494191  0.501552  0.506830  1
  P  P10  1  0.242827  0.557978  0.945685  1
  P  P11  1  0.572394  0.953706  0.244574  1
  P  P12  1  0.931561  0.241535  0.549755  1
  P  P13  1  0.055550  0.745077  0.448712  1
  P  P14  1  0.439797  0.047113  0.748623  1
  P  P15  1  0.746974  0.440462  0.053493  1
  O  O16  1  0.098022  0.293906  0.507245  1
  O  O17  1  0.294684  0.535680  0.101157  1
  O  O18  1  0.053981  0.910542  0.274678  1
  O  O19  1  0.564141  0.099933  0.300696  1
  O  O20  1  0.982150  0.808476  0.621207  1
  O  O21  1  0.249546  0.606180  0.445286  1
  O  O22  1  0.252240  0.069857  0.901397  1
  O  O23  1  0.460007  0.226429  0.594164  1
  O  O24  1  0.171865  0.409294  0.984438  1
  O  O25  1  0.605101  0.434425  0.245324  1
  O  O26  1  0.090781  0.757383  0.907478  1
  O  O27  1  0.415751  0.011272  0.172708  1
  O  O28  1  0.609105  0.972989  0.823758  1
  O  O29  1  0.899493  0.253641  0.076163  1
  O  O30  1  0.397445  0.579626  0.754315  1
  O  O31  1  0.812704  0.611732  0.986727  1
  O  O32  1  0.585197  0.762404  0.393976  1
  O  O33  1  0.770633  0.917595  0.087834  1
  O  O34  1  0.739750  0.397656  0.579373  1
  O  O35  1  0.947177  0.180618  0.404900  1
  O  O36  1  0.461356  0.903993  0.679765  1
  O  O37  1  0.907513  0.088659  0.744911  1
  O  O38  1  0.673991  0.463653  0.910944  1
  O  O39  1  0.917519  0.661138  0.474962  1
