# generated using pymatgen
data_YTa3O9
_symmetry_space_group_name_H-M   'P 1'
_cell_length_a   5.56215754
_cell_length_b   8.82358736
_cell_length_c   8.86092101
_cell_angle_alpha   66.50666017
_cell_angle_beta   71.71290865
_cell_angle_gamma   71.65067008
_symmetry_Int_Tables_number   1
_chemical_formula_structural   YTa3O9
_chemical_formula_sum   'Y2 Ta6 O18'
_cell_volume   369.58949112
_cell_formula_units_Z   2
loop_
 _symmetry_equiv_pos_site_id
 _symmetry_equiv_pos_as_xyz
  1  'x, y, z'
loop_
 _atom_site_type_symbol
 _atom_site_label
 _atom_site_symmetry_multiplicity
 _atom_site_fract_x
 _atom_site_fract_y
 _atom_site_fract_z
 _atom_site_occupancy
  Y  Y0  1  0.684188  0.640641  0.998853  1
  Y  Y1  1  0.335625  0.356540  0.002804  1
  Ta  Ta2  1  0.924942  0.409582  0.741737  1
  Ta  Ta3  1  0.418252  0.919209  0.247029  1
  Ta  Ta4  1  0.750651  0.236913  0.266966  1
  Ta  Ta5  1  0.580421  0.080932  0.755212  1
  Ta  Ta6  1  0.250234  0.763645  0.735058  1
  Ta  Ta7  1  0.076346  0.592097  0.256990  1
  O  O8  1  0.420149  0.900516  0.773415  1
  O  O9  1  0.999428  0.500852  0.500112  1
  O  O10  1  0.498270  0.002954  0.000728  1
  O  O11  1  0.809753  0.356085  0.000500  1
  O  O12  1  0.900969  0.898875  0.771729  1
  O  O13  1  0.423300  0.425048  0.221827  1
  O  O14  1  0.242736  0.247878  0.772137  1
  O  O15  1  0.272168  0.749258  0.227828  1
  O  O16  1  0.074802  0.571327  0.780559  1
  O  O17  1  0.174542  0.643593  0.999816  1
  O  O18  1  0.664628  0.165750  0.505703  1
  O  O19  1  0.332718  0.833161  0.496504  1
  O  O20  1  0.749591  0.749372  0.227016  1
  O  O21  1  0.572734  0.576424  0.779319  1
  O  O22  1  0.719728  0.254582  0.772460  1
  O  O23  1  0.096126  0.100905  0.229072  1
  O  O24  1  0.922139  0.427493  0.219399  1
  O  O25  1  0.575781  0.098731  0.231526  1
