# generated using pymatgen
data_Na2CuP2O7
_symmetry_space_group_name_H-M   'P 1'
_cell_length_a   8.83294887
_cell_length_b   8.83294887
_cell_length_c   9.00653912
_cell_angle_alpha   66.22644388
_cell_angle_beta   113.77355612
_cell_angle_gamma   146.03207641
_symmetry_Int_Tables_number   1
_chemical_formula_structural   Na2CuP2O7
_chemical_formula_sum   'Na4 Cu2 P4 O14'
_cell_volume   356.03611445
_cell_formula_units_Z   2
loop_
 _symmetry_equiv_pos_site_id
 _symmetry_equiv_pos_as_xyz
  1  'x, y, z'
loop_
 _atom_site_type_symbol
 _atom_site_label
 _atom_site_symmetry_multiplicity
 _atom_site_fract_x
 _atom_site_fract_y
 _atom_site_fract_z
 _atom_site_occupancy
  Na  Na0  1  0.830939  0.445108  0.567616  1
  Na  Na1  1  0.554892  0.169061  0.067616  1
  Na  Na2  1  0.445108  0.830939  0.932384  1
  Na  Na3  1  0.169061  0.554892  0.432384  1
  Cu  Cu4  1  0.500000  0.500000  0.500000  1
  Cu  Cu5  1  0.500000  0.500000  0.000000  1
  P  P6  1  0.946553  0.762633  0.812094  1
  P  P7  1  0.237367  0.053447  0.312094  1
  P  P8  1  0.762633  0.946553  0.687906  1
  P  P9  1  0.053447  0.237367  0.187906  1
  O  O10  1  0.213944  0.881495  0.877719  1
  O  O11  1  0.118505  0.786056  0.377719  1
  O  O12  1  0.754471  0.572136  0.942807  1
  O  O13  1  0.803595  0.620581  0.659761  1
  O  O14  1  0.427864  0.245529  0.442807  1
  O  O15  1  0.379419  0.196405  0.159761  1
  O  O16  1  0.015213  0.015213  0.750000  1
  O  O17  1  0.984787  0.984787  0.250000  1
  O  O18  1  0.620581  0.803595  0.840239  1
  O  O19  1  0.572136  0.754471  0.557193  1
  O  O20  1  0.196405  0.379419  0.340239  1
  O  O21  1  0.245529  0.427864  0.057193  1
  O  O22  1  0.881495  0.213944  0.622281  1
  O  O23  1  0.786056  0.118505  0.122281  1
