# generated using pymatgen
data_CrSi
_symmetry_space_group_name_H-M   'P 1'
_cell_length_a   4.59952639
_cell_length_b   4.59952639
_cell_length_c   4.59952639
_cell_angle_alpha   90.00000000
_cell_angle_beta   90.00000000
_cell_angle_gamma   90.00000000
_symmetry_Int_Tables_number   1
_chemical_formula_structural   CrSi
_chemical_formula_sum   'Cr4 Si4'
_cell_volume   97.30593833
_cell_formula_units_Z   4
loop_
 _symmetry_equiv_pos_site_id
 _symmetry_equiv_pos_as_xyz
  1  'x, y, z'
loop_
 _atom_site_type_symbol
 _atom_site_label
 _atom_site_symmetry_multiplicity
 _atom_site_fract_x
 _atom_site_fract_y
 _atom_site_fract_z
 _atom_site_occupancy
  Cr  Cr0  1  0.862109  0.637891  0.362109  1
  Cr  Cr1  1  0.637891  0.362109  0.862109  1
  Cr  Cr2  1  0.362109  0.862109  0.637891  1
  Cr  Cr3  1  0.137891  0.137891  0.137891  1
  Si  Si4  1  0.152815  0.347185  0.652815  1
  Si  Si5  1  0.347185  0.652815  0.152815  1
  Si  Si6  1  0.652815  0.152815  0.347185  1
  Si  Si7  1  0.847185  0.847185  0.847185  1
