# generated using pymatgen
data_LiFe(SiO3)2
_symmetry_space_group_name_H-M   'P 1'
_cell_length_a   5.11468379
_cell_length_b   7.85830093
_cell_length_c   8.88891371
_cell_angle_alpha   65.28338524
_cell_angle_beta   89.53484880
_cell_angle_gamma   89.24041715
_symmetry_Int_Tables_number   1
_chemical_formula_structural   LiFe(SiO3)2
_chemical_formula_sum   'Li2 Fe2 Si4 O12'
_cell_volume   324.50927795
_cell_formula_units_Z   2
loop_
 _symmetry_equiv_pos_site_id
 _symmetry_equiv_pos_as_xyz
  1  'x, y, z'
loop_
 _atom_site_type_symbol
 _atom_site_label
 _atom_site_symmetry_multiplicity
 _atom_site_fract_x
 _atom_site_fract_y
 _atom_site_fract_z
 _atom_site_occupancy
  Li  Li0  1  0.637217  0.870093  0.300992  1
  Li  Li1  1  0.136096  0.090723  0.714027  1
  Fe  Fe2  1  0.127223  0.063866  0.377701  1
  Fe  Fe3  1  0.646962  0.091168  0.897447  1
  Si  Si4  1  0.184405  0.497185  0.096049  1
  Si  Si5  1  0.146656  0.894796  0.105640  1
  Si  Si6  1  0.627679  0.927587  0.620256  1
  Si  Si7  1  0.687380  0.510902  0.886084  1
  O  O8  1  0.475412  0.456032  0.038541  1
  O  O9  1  0.085674  0.317824  0.257530  1
  O  O10  1  0.208408  0.676728  0.143790  1
  O  O11  1  0.829964  0.937900  0.096882  1
  O  O12  1  0.337130  0.025306  0.565677  1
  O  O13  1  0.274160  0.930833  0.259154  1
  O  O14  1  0.777174  0.027542  0.724869  1
  O  O15  1  0.794350  0.952525  0.453732  1
  O  O16  1  0.707187  0.343403  0.824481  1
  O  O17  1  0.283578  0.033782  0.928422  1
  O  O18  1  0.588419  0.703703  0.732853  1
  O  O19  1  0.976428  0.549101  0.943375  1
