# generated using pymatgen
data_LiSn3Sb(PO4)6
_symmetry_space_group_name_H-M   'P 1'
_cell_length_a   8.75348864
_cell_length_b   8.75600161
_cell_length_c   8.78419655
_cell_angle_alpha   90.10484049
_cell_angle_beta   119.78342968
_cell_angle_gamma   119.87730261
_symmetry_Int_Tables_number   1
_chemical_formula_structural   LiSn3Sb(PO4)6
_chemical_formula_sum   'Li1 Sn3 Sb1 P6 O24'
_cell_volume   478.07346174
_cell_formula_units_Z   1
loop_
 _symmetry_equiv_pos_site_id
 _symmetry_equiv_pos_as_xyz
  1  'x, y, z'
loop_
 _atom_site_type_symbol
 _atom_site_label
 _atom_site_symmetry_multiplicity
 _atom_site_fract_x
 _atom_site_fract_y
 _atom_site_fract_z
 _atom_site_occupancy
  Li  Li0  1  0.990795  0.498837  0.504242  1
  Sn  Sn1  1  0.718633  0.857346  0.583722  1
  Sn  Sn2  1  0.289761  0.644011  0.928710  1
  Sn  Sn3  1  0.714990  0.354072  0.074844  1
  Sb  Sb4  1  0.281475  0.139324  0.420510  1
  P  P5  1  0.794374  0.255344  0.747807  1
  P  P6  1  0.209181  0.955289  0.748293  1
  P  P7  1  0.500420  0.455541  0.253707  1
  P  P8  1  0.495159  0.535804  0.748951  1
  P  P9  1  0.791043  0.038225  0.247885  1
  P  P10  1  0.212724  0.749837  0.260246  1
  O  O11  1  0.612698  0.609437  0.428287  1
  O  O12  1  0.206762  0.709968  0.086420  1
  O  O13  1  0.788822  0.983478  0.411292  1
  O  O14  1  0.828798  0.100946  0.747333  1
  O  O15  1  0.368134  0.481340  0.072167  1
  O  O16  1  0.574161  0.194694  0.569199  1
  O  O17  1  0.021817  0.925761  0.747651  1
  O  O18  1  0.963785  0.429332  0.736472  1
  O  O19  1  0.592547  0.885014  0.059228  1
  O  O20  1  0.196551  0.771808  0.733547  1
  O  O21  1  0.335206  0.262146  0.247725  1
  O  O22  1  0.310100  0.534868  0.733957  1
  O  O23  1  0.193238  0.001238  0.571867  1
  O  O24  1  0.678958  0.446330  0.265706  1
  O  O25  1  0.812224  0.225600  0.262777  1
  O  O26  1  0.658746  0.723493  0.755434  1
  O  O27  1  0.416007  0.111688  0.929347  1
  O  O28  1  0.379143  0.378125  0.569475  1
  O  O29  1  0.029600  0.581222  0.261200  1
  O  O30  1  0.986143  0.070924  0.253884  1
  O  O31  1  0.420429  0.805191  0.442292  1
  O  O32  1  0.619709  0.502881  0.927332  1
  O  O33  1  0.179726  0.910162  0.253426  1
  O  O34  1  0.812893  0.301630  0.926923  1
