# generated using pymatgen
data_Sc(CuO2)2
_symmetry_space_group_name_H-M   'P 1'
_cell_length_a   6.78934307
_cell_length_b   6.78934307
_cell_length_c   6.78934307
_cell_angle_alpha   130.96240149
_cell_angle_beta   130.96240149
_cell_angle_gamma   71.87282198
_symmetry_Int_Tables_number   1
_chemical_formula_structural   Sc(CuO2)2
_chemical_formula_sum   'Sc2 Cu4 O8'
_cell_volume   174.55395120
_cell_formula_units_Z   2
loop_
 _symmetry_equiv_pos_site_id
 _symmetry_equiv_pos_as_xyz
  1  'x, y, z'
loop_
 _atom_site_type_symbol
 _atom_site_label
 _atom_site_symmetry_multiplicity
 _atom_site_fract_x
 _atom_site_fract_y
 _atom_site_fract_z
 _atom_site_occupancy
  Sc  Sc0  1  0.000000  0.000000  0.000000  1
  Sc  Sc1  1  0.750000  0.250000  0.500000  1
  Cu  Cu2  1  0.375000  0.625000  0.250000  1
  Cu  Cu3  1  0.375000  0.125000  0.750000  1
  Cu  Cu4  1  0.375000  0.625000  0.750000  1
  Cu  Cu5  1  0.875000  0.625000  0.250000  1
  O  O6  1  0.154404  0.881123  0.273280  1
  O  O7  1  0.142157  0.368877  0.773280  1
  O  O8  1  0.118877  0.392157  0.273280  1
  O  O9  1  0.118877  0.845596  0.726720  1
  O  O10  1  0.607843  0.881123  0.726720  1
  O  O11  1  0.595596  0.368877  0.226720  1
  O  O12  1  0.631123  0.857843  0.226720  1
  O  O13  1  0.631123  0.404404  0.773280  1
