# generated using pymatgen
data_Na6MgO4
_symmetry_space_group_name_H-M   'P 1'
_cell_length_a   7.49596797
_cell_length_b   7.49596797
_cell_length_c   5.50849084
_cell_angle_alpha   90.00000000
_cell_angle_beta   90.00000000
_cell_angle_gamma   90.00000000
_symmetry_Int_Tables_number   1
_chemical_formula_structural   Na6MgO4
_chemical_formula_sum   'Na12 Mg2 O8'
_cell_volume   309.51954331
_cell_formula_units_Z   2
loop_
 _symmetry_equiv_pos_site_id
 _symmetry_equiv_pos_as_xyz
  1  'x, y, z'
loop_
 _atom_site_type_symbol
 _atom_site_label
 _atom_site_symmetry_multiplicity
 _atom_site_fract_x
 _atom_site_fract_y
 _atom_site_fract_z
 _atom_site_occupancy
  Na  Na0  1  0.287323  0.287323  0.500000  1
  Na  Na1  1  0.712677  0.287323  0.500000  1
  Na  Na2  1  0.000000  0.500000  0.421446  1
  Na  Na3  1  0.000000  0.500000  0.921446  1
  Na  Na4  1  0.287323  0.712677  0.500000  1
  Na  Na5  1  0.712677  0.712677  0.500000  1
  Na  Na6  1  0.787323  0.787323  0.000000  1
  Na  Na7  1  0.212677  0.787323  0.000000  1
  Na  Na8  1  0.500000  0.000000  0.078554  1
  Na  Na9  1  0.500000  0.000000  0.578554  1
  Na  Na10  1  0.787323  0.212677  0.000000  1
  Na  Na11  1  0.212677  0.212677  0.000000  1
  Mg  Mg12  1  0.500000  0.500000  0.000000  1
  Mg  Mg13  1  0.000000  0.000000  0.500000  1
  O  O14  1  0.000000  0.240954  0.684369  1
  O  O15  1  0.740954  0.500000  0.184369  1
  O  O16  1  0.259046  0.500000  0.184369  1
  O  O17  1  0.000000  0.759046  0.684369  1
  O  O18  1  0.500000  0.740954  0.815631  1
  O  O19  1  0.759046  0.000000  0.315631  1
  O  O20  1  0.240954  0.000000  0.315631  1
  O  O21  1  0.500000  0.259046  0.815631  1
