# generated using pymatgen
data_LiMn(SiO3)2
_symmetry_space_group_name_H-M   'P 1'
_cell_length_a   5.22175199
_cell_length_b   8.92372989
_cell_length_c   18.41524502
_cell_angle_alpha   89.80267059
_cell_angle_beta   89.23607864
_cell_angle_gamma   89.91170253
_symmetry_Int_Tables_number   1
_chemical_formula_structural   LiMn(SiO3)2
_chemical_formula_sum   'Li8 Mn8 Si16 O48'
_cell_volume   858.02214181
_cell_formula_units_Z   8
loop_
 _symmetry_equiv_pos_site_id
 _symmetry_equiv_pos_as_xyz
  1  'x, y, z'
loop_
 _atom_site_type_symbol
 _atom_site_label
 _atom_site_symmetry_multiplicity
 _atom_site_fract_x
 _atom_site_fract_y
 _atom_site_fract_z
 _atom_site_occupancy
  Li  Li0  1  0.627492  0.988023  0.123278  1
  Li  Li1  1  0.127379  0.511144  0.124228  1
  Li  Li2  1  0.622532  0.841241  0.375373  1
  Li  Li3  1  0.625496  0.506170  0.374670  1
  Li  Li4  1  0.873591  0.001975  0.622726  1
  Li  Li5  1  0.875447  0.345118  0.623209  1
  Li  Li6  1  0.376791  0.659627  0.876626  1
  Li  Li7  1  0.874844  0.840550  0.876945  1
  Mn  Mn8  1  0.612618  0.352160  0.125566  1
  Mn  Mn9  1  0.110863  0.146789  0.125841  1
  Mn  Mn10  1  0.119945  0.647923  0.375069  1
  Mn  Mn11  1  0.129200  0.008539  0.373154  1
  Mn  Mn12  1  0.370902  0.511506  0.623696  1
  Mn  Mn13  1  0.379203  0.147721  0.622527  1
  Mn  Mn14  1  0.372026  0.997662  0.875160  1
  Mn  Mn15  1  0.871611  0.501333  0.876128  1
  Si  Si16  1  0.695747  0.659448  0.028953  1
  Si  Si17  1  0.195343  0.840241  0.028983  1
  Si  Si18  1  0.430139  0.657058  0.228402  1
  Si  Si19  1  0.936728  0.836967  0.227848  1
  Si  Si20  1  0.441420  0.163903  0.271900  1
  Si  Si21  1  0.938075  0.340327  0.271872  1
  Si  Si22  1  0.704526  0.163519  0.473243  1
  Si  Si23  1  0.208132  0.339653  0.473321  1
  Si  Si24  1  0.797473  0.664185  0.525336  1
  Si  Si25  1  0.293180  0.840531  0.525481  1
  Si  Si26  1  0.067890  0.661658  0.726988  1
  Si  Si27  1  0.570826  0.844727  0.726635  1
  Si  Si28  1  0.082052  0.156872  0.771292  1
  Si  Si29  1  0.575654  0.339565  0.772373  1
  Si  Si30  1  0.787846  0.163882  0.972324  1
  Si  Si31  1  0.287910  0.335168  0.972412  1
  O  O32  1  0.401835  0.708311  0.053918  1
  O  O33  1  0.900642  0.791419  0.054071  1
  O  O34  1  0.791726  0.161848  0.061311  1
  O  O35  1  0.292722  0.336735  0.061129  1
  O  O36  1  0.780998  0.506706  0.071966  1
  O  O37  1  0.279796  0.992248  0.071994  1
  O  O38  1  0.451226  0.176235  0.182441  1
  O  O39  1  0.954975  0.320508  0.182125  1
  O  O40  1  0.937581  0.004684  0.195038  1
  O  O41  1  0.441272  0.491578  0.193788  1
  O  O42  1  0.662320  0.767955  0.200725  1
  O  O43  1  0.163748  0.728416  0.194969  1
  O  O44  1  0.163503  0.227806  0.305681  1
  O  O45  1  0.671230  0.264964  0.303757  1
  O  O46  1  0.940417  0.506118  0.302822  1
  O  O47  1  0.426291  0.998483  0.309415  1
  O  O48  1  0.426540  0.659598  0.317426  1
  O  O49  1  0.957384  0.834733  0.317375  1
  O  O50  1  0.817587  0.018805  0.429897  1
  O  O51  1  0.297990  0.490732  0.432936  1
  O  O52  1  0.815876  0.651264  0.436942  1
  O  O53  1  0.284668  0.847361  0.436329  1
  O  O54  1  0.405559  0.200921  0.445573  1
  O  O55  1  0.908531  0.299919  0.452613  1
  O  O56  1  0.097896  0.699360  0.552852  1
  O  O57  1  0.593267  0.800138  0.547213  1
  O  O58  1  0.683334  0.151899  0.561977  1
  O  O59  1  0.222916  0.342667  0.563053  1
  O  O60  1  0.684334  0.518500  0.568303  1
  O  O61  1  0.195686  0.989081  0.565761  1
  O  O62  1  0.076073  0.158104  0.683384  1
  O  O63  1  0.547932  0.343873  0.684868  1
  O  O64  1  0.560093  0.008909  0.690844  1
  O  O65  1  0.073130  0.500160  0.684777  1
  O  O66  1  0.350468  0.724558  0.694395  1
  O  O67  1  0.843938  0.772640  0.696474  1
  O  O68  1  0.350156  0.227307  0.806142  1
  O  O69  1  0.850824  0.268462  0.801093  1
  O  O70  1  0.581854  0.501329  0.812738  1
  O  O71  1  0.080344  0.995274  0.812373  1
  O  O72  1  0.058322  0.650141  0.814171  1
  O  O73  1  0.553786  0.844903  0.814537  1
  O  O74  1  0.675459  0.017177  0.932467  1
  O  O75  1  0.175646  0.482898  0.932838  1
  O  O76  1  0.700904  0.646022  0.940911  1
  O  O77  1  0.199731  0.853816  0.940920  1
  O  O78  1  0.092723  0.195515  0.946154  1
  O  O79  1  0.593888  0.304732  0.945956  1
