# generated using pymatgen
data_Sm2Ge2O7
_symmetry_space_group_name_H-M   'P 1'
_cell_length_a   5.92034191
_cell_length_b   5.92034191
_cell_length_c   5.04812547
_cell_angle_alpha   82.78104002
_cell_angle_beta   97.21895998
_cell_angle_gamma   74.98177544
_symmetry_Int_Tables_number   1
_chemical_formula_structural   Sm2Ge2O7
_chemical_formula_sum   'Sm2 Ge2 O7'
_cell_volume   167.21333855
_cell_formula_units_Z   1
loop_
 _symmetry_equiv_pos_site_id
 _symmetry_equiv_pos_as_xyz
  1  'x, y, z'
loop_
 _atom_site_type_symbol
 _atom_site_label
 _atom_site_symmetry_multiplicity
 _atom_site_fract_x
 _atom_site_fract_y
 _atom_site_fract_z
 _atom_site_occupancy
  Sm  Sm0  1  0.304240  0.304240  0.500000  1
  Sm  Sm1  1  0.695760  0.695760  0.500000  1
  Ge  Ge2  1  0.772829  0.227171  0.087544  1
  Ge  Ge3  1  0.227171  0.772829  0.912456  1
  O  O4  1  0.914890  0.395494  0.282596  1
  O  O5  1  0.604506  0.085110  0.282596  1
  O  O6  1  0.605054  0.394946  0.779377  1
  O  O7  1  0.394946  0.605054  0.220623  1
  O  O8  1  0.000000  0.000000  0.000000  1
  O  O9  1  0.085110  0.604506  0.717404  1
  O  O10  1  0.395494  0.914890  0.717404  1
