# generated using pymatgen
data_Mn2F7
_symmetry_space_group_name_H-M   'P 1'
_cell_length_a   7.42407097
_cell_length_b   7.35369298
_cell_length_c   9.50791545
_cell_angle_alpha   90.00000000
_cell_angle_beta   91.50626489
_cell_angle_gamma   90.00000000
_symmetry_Int_Tables_number   1
_chemical_formula_structural   Mn2F7
_chemical_formula_sum   'Mn8 F28'
_cell_volume   518.89899094
_cell_formula_units_Z   4
loop_
 _symmetry_equiv_pos_site_id
 _symmetry_equiv_pos_as_xyz
  1  'x, y, z'
loop_
 _atom_site_type_symbol
 _atom_site_label
 _atom_site_symmetry_multiplicity
 _atom_site_fract_x
 _atom_site_fract_y
 _atom_site_fract_z
 _atom_site_occupancy
  Mn  Mn0  1  0.091560  0.637120  0.900925  1
  Mn  Mn1  1  0.091560  0.862880  0.400925  1
  Mn  Mn2  1  0.373624  0.640540  0.566228  1
  Mn  Mn3  1  0.373624  0.859460  0.066228  1
  Mn  Mn4  1  0.626376  0.140540  0.933772  1
  Mn  Mn5  1  0.626376  0.359460  0.433772  1
  Mn  Mn6  1  0.908440  0.137120  0.599075  1
  Mn  Mn7  1  0.908440  0.362880  0.099075  1
  F  F8  1  0.038511  0.385710  0.912353  1
  F  F9  1  0.038511  0.114290  0.412353  1
  F  F10  1  0.114629  0.192294  0.682049  1
  F  F11  1  0.171911  0.888307  0.929496  1
  F  F12  1  0.208733  0.623533  0.720744  1
  F  F13  1  0.114629  0.307706  0.182049  1
  F  F14  1  0.171911  0.611693  0.429496  1
  F  F15  1  0.208733  0.876467  0.220744  1
  F  F16  1  0.315337  0.610641  0.013115  1
  F  F17  1  0.315337  0.889359  0.513115  1
  F  F18  1  0.432261  0.390181  0.578499  1
  F  F19  1  0.432261  0.109819  0.078499  1
  F  F20  1  0.455010  0.203586  0.813558  1
  F  F21  1  0.455010  0.296414  0.313558  1
  F  F22  1  0.544990  0.703586  0.686442  1
  F  F23  1  0.544990  0.796414  0.186442  1
  F  F24  1  0.567739  0.890181  0.921501  1
  F  F25  1  0.567739  0.609819  0.421501  1
  F  F26  1  0.684663  0.110641  0.486885  1
  F  F27  1  0.684663  0.389359  0.986885  1
  F  F28  1  0.791267  0.123533  0.779256  1
  F  F29  1  0.828089  0.388307  0.570504  1
  F  F30  1  0.885371  0.692294  0.817951  1
  F  F31  1  0.791267  0.376467  0.279256  1
  F  F32  1  0.828089  0.111693  0.070504  1
  F  F33  1  0.885371  0.807706  0.317951  1
  F  F34  1  0.961489  0.885710  0.587647  1
  F  F35  1  0.961489  0.614290  0.087647  1
