# generated using pymatgen
data_Na3Mn(BO3)2
_symmetry_space_group_name_H-M   'P 1'
_cell_length_a   5.57957304
_cell_length_b   9.68658398
_cell_length_c   11.29769421
_cell_angle_alpha   90.00000000
_cell_angle_beta   114.43625940
_cell_angle_gamma   90.00000000
_symmetry_Int_Tables_number   1
_chemical_formula_structural   Na3Mn(BO3)2
_chemical_formula_sum   'Na12 Mn4 B8 O24'
_cell_volume   555.90962938
_cell_formula_units_Z   4
loop_
 _symmetry_equiv_pos_site_id
 _symmetry_equiv_pos_as_xyz
  1  'x, y, z'
loop_
 _atom_site_type_symbol
 _atom_site_label
 _atom_site_symmetry_multiplicity
 _atom_site_fract_x
 _atom_site_fract_y
 _atom_site_fract_z
 _atom_site_occupancy
  Na  Na0  1  0.984589  0.968333  0.642443  1
  Na  Na1  1  0.959394  0.655684  0.626094  1
  Na  Na2  1  0.432277  0.987385  0.118765  1
  Na  Na3  1  0.040606  0.155684  0.873906  1
  Na  Na4  1  0.015411  0.468333  0.857557  1
  Na  Na5  1  0.567723  0.487385  0.381235  1
  Na  Na6  1  0.432277  0.512615  0.618765  1
  Na  Na7  1  0.984589  0.531667  0.142443  1
  Na  Na8  1  0.959394  0.844316  0.126094  1
  Na  Na9  1  0.567723  0.012615  0.881235  1
  Na  Na10  1  0.040606  0.344316  0.373906  1
  Na  Na11  1  0.015411  0.031667  0.357557  1
  Mn  Mn12  1  0.489000  0.304745  0.125670  1
  Mn  Mn13  1  0.511000  0.804745  0.374330  1
  Mn  Mn14  1  0.489000  0.195255  0.625670  1
  Mn  Mn15  1  0.511000  0.695255  0.874330  1
  B  B16  1  0.948115  0.310361  0.618347  1
  B  B17  1  0.472794  0.652071  0.132282  1
  B  B18  1  0.051885  0.810361  0.881653  1
  B  B19  1  0.527206  0.152071  0.367718  1
  B  B20  1  0.472794  0.847929  0.632282  1
  B  B21  1  0.948115  0.189639  0.118347  1
  B  B22  1  0.527206  0.347929  0.867718  1
  B  B23  1  0.051885  0.689639  0.381653  1
  O  O24  1  0.373414  0.315426  0.935610  1
  O  O25  1  0.827813  0.694410  0.406835  1
  O  O26  1  0.177770  0.932697  0.886583  1
  O  O27  1  0.143474  0.686133  0.851513  1
  O  O28  1  0.607316  0.264702  0.313017  1
  O  O29  1  0.594784  0.019514  0.351603  1
  O  O30  1  0.856526  0.186133  0.648487  1
  O  O31  1  0.822230  0.432697  0.613417  1
  O  O32  1  0.405216  0.519514  0.148397  1
  O  O33  1  0.392684  0.764702  0.186983  1
  O  O34  1  0.626586  0.815426  0.564390  1
  O  O35  1  0.172187  0.194410  0.093165  1
  O  O36  1  0.827813  0.805590  0.906835  1
  O  O37  1  0.373414  0.184574  0.435610  1
  O  O38  1  0.607316  0.235298  0.813017  1
  O  O39  1  0.594784  0.480486  0.851603  1
  O  O40  1  0.177770  0.567303  0.386583  1
  O  O41  1  0.143474  0.813867  0.351513  1
  O  O42  1  0.405216  0.980486  0.648397  1
  O  O43  1  0.392684  0.735298  0.686983  1
  O  O44  1  0.856526  0.313867  0.148487  1
  O  O45  1  0.822230  0.067303  0.113417  1
  O  O46  1  0.172187  0.305590  0.593165  1
  O  O47  1  0.626586  0.684574  0.064390  1
