# generated using pymatgen
data_NaLi3Fe4(SiO3)8
_symmetry_space_group_name_H-M   'P 1'
_cell_length_a   5.36610090
_cell_length_b   6.60034305
_cell_length_c   25.56865931
_cell_angle_alpha   86.84573278
_cell_angle_beta   87.05604505
_cell_angle_gamma   75.34245145
_symmetry_Int_Tables_number   1
_chemical_formula_structural   NaLi3Fe4(SiO3)8
_chemical_formula_sum   'Na2 Li6 Fe8 Si16 O48'
_cell_volume   874.13694763
_cell_formula_units_Z   2
loop_
 _symmetry_equiv_pos_site_id
 _symmetry_equiv_pos_as_xyz
  1  'x, y, z'
loop_
 _atom_site_type_symbol
 _atom_site_label
 _atom_site_symmetry_multiplicity
 _atom_site_fract_x
 _atom_site_fract_y
 _atom_site_fract_z
 _atom_site_occupancy
  Na  Na0  1  0.824000  0.709403  0.571824  1
  Na  Na1  1  0.072006  0.708780  0.823045  1
  Li  Li2  1  0.309295  0.749699  0.064025  1
  Li  Li3  1  0.936052  0.250419  0.187751  1
  Li  Li4  1  0.189437  0.252122  0.436789  1
  Li  Li5  1  0.561705  0.749339  0.313044  1
  Li  Li6  1  0.438042  0.252078  0.686516  1
  Li  Li7  1  0.684101  0.250728  0.937541  1
  Fe  Fe8  1  0.473692  0.102949  0.224549  1
  Fe  Fe9  1  0.770906  0.898128  0.026782  1
  Fe  Fe10  1  0.024875  0.897775  0.275263  1
  Fe  Fe11  1  0.729045  0.101757  0.473256  1
  Fe  Fe12  1  0.279772  0.897957  0.524052  1
  Fe  Fe13  1  0.974752  0.101989  0.724229  1
  Fe  Fe14  1  0.219205  0.103324  0.975432  1
  Fe  Fe15  1  0.525683  0.898577  0.775593  1
  Si  Si16  1  0.326929  0.207649  0.096818  1
  Si  Si17  1  0.782287  0.386039  0.052011  1
  Si  Si18  1  0.034639  0.386541  0.300964  1
  Si  Si19  1  0.465019  0.615044  0.198226  1
  Si  Si20  1  0.579050  0.208692  0.345617  1
  Si  Si21  1  0.919931  0.793573  0.153953  1
  Si  Si22  1  0.170963  0.793971  0.402459  1
  Si  Si23  1  0.302355  0.382392  0.550358  1
  Si  Si24  1  0.714373  0.616420  0.446537  1
  Si  Si25  1  0.844065  0.205895  0.595195  1
  Si  Si26  1  0.091881  0.205105  0.846395  1
  Si  Si27  1  0.406037  0.796959  0.653892  1
  Si  Si28  1  0.550126  0.382124  0.801423  1
  Si  Si29  1  0.953047  0.616927  0.698328  1
  Si  Si30  1  0.204040  0.615805  0.949821  1
  Si  Si31  1  0.655237  0.797025  0.905324  1
  O  O32  1  0.396907  0.031051  0.051022  1
  O  O33  1  0.853522  0.202946  0.007793  1
  O  O34  1  0.033564  0.354502  0.088404  1
  O  O35  1  0.323542  0.113228  0.156428  1
  O  O36  1  0.533470  0.353742  0.088622  1
  O  O37  1  0.694438  0.625241  0.028501  1
  O  O38  1  0.107492  0.202284  0.257118  1
  O  O39  1  0.214804  0.647506  0.161219  1
  O  O40  1  0.649603  0.031701  0.299831  1
  O  O41  1  0.552372  0.375516  0.221425  1
  O  O42  1  0.714136  0.646827  0.161401  1
  O  O43  1  0.922620  0.888852  0.094174  1
  O  O44  1  0.285722  0.355761  0.337326  1
  O  O45  1  0.574866  0.115674  0.405337  1
  O  O46  1  0.392031  0.798774  0.242096  1
  O  O47  1  0.785273  0.355011  0.337474  1
  O  O48  1  0.947318  0.625441  0.277232  1
  O  O49  1  0.848751  0.969799  0.199615  1
  O  O50  1  0.366055  0.198049  0.507054  1
  O  O51  1  0.173000  0.890583  0.342875  1
  O  O52  1  0.465674  0.646992  0.409198  1
  O  O53  1  0.908337  0.037226  0.548049  1
  O  O54  1  0.803325  0.377762  0.470443  1
  O  O55  1  0.964585  0.647893  0.409954  1
  O  O56  1  0.052146  0.353197  0.588039  1
  O  O57  1  0.223921  0.618284  0.525047  1
  O  O58  1  0.101831  0.969682  0.448365  1
  O  O59  1  0.551039  0.356668  0.587375  1
  O  O60  1  0.833758  0.112187  0.654985  1
  O  O61  1  0.640571  0.803263  0.489444  1
  O  O62  1  0.155513  0.036575  0.799300  1
  O  O63  1  0.044764  0.378829  0.722109  1
  O  O64  1  0.200609  0.649331  0.660896  1
  O  O65  1  0.612093  0.198866  0.757768  1
  O  O66  1  0.401066  0.896875  0.594845  1
  O  O67  1  0.700803  0.646857  0.661623  1
  O  O68  1  0.082013  0.109934  0.906058  1
  O  O69  1  0.300337  0.352072  0.839214  1
  O  O70  1  0.471240  0.618373  0.776421  1
  O  O71  1  0.346299  0.970631  0.700139  1
  O  O72  1  0.798923  0.355773  0.838488  1
  O  O73  1  0.884574  0.804603  0.740859  1
  O  O74  1  0.293610  0.376791  0.972865  1
  O  O75  1  0.451142  0.648122  0.912331  1
  O  O76  1  0.649925  0.896386  0.846188  1
  O  O77  1  0.950730  0.648232  0.913261  1
  O  O78  1  0.135945  0.800107  0.993355  1
  O  O79  1  0.593191  0.970811  0.951423  1
