# generated using pymatgen
data_Li4Si2NiO7
_symmetry_space_group_name_H-M   'P 1'
_cell_length_a   7.18567325
_cell_length_b   7.18567325
_cell_length_c   8.01996216
_cell_angle_alpha   84.88556553
_cell_angle_beta   95.11443447
_cell_angle_gamma   135.33548174
_symmetry_Int_Tables_number   1
_chemical_formula_structural   Li4Si2NiO7
_chemical_formula_sum   'Li8 Si4 Ni2 O14'
_cell_volume   289.73978503
_cell_formula_units_Z   2
loop_
 _symmetry_equiv_pos_site_id
 _symmetry_equiv_pos_as_xyz
  1  'x, y, z'
loop_
 _atom_site_type_symbol
 _atom_site_label
 _atom_site_symmetry_multiplicity
 _atom_site_fract_x
 _atom_site_fract_y
 _atom_site_fract_z
 _atom_site_occupancy
  Li  Li0  1  0.417732  0.265879  0.875525  1
  Li  Li1  1  0.734121  0.582268  0.375525  1
  Li  Li2  1  0.535264  0.118933  0.595986  1
  Li  Li3  1  0.881067  0.464736  0.095986  1
  Li  Li4  1  0.425319  0.869507  0.947334  1
  Li  Li5  1  0.130493  0.574681  0.447334  1
  Li  Li6  1  0.815549  0.808676  0.022207  1
  Li  Li7  1  0.191324  0.184451  0.522207  1
  Si  Si8  1  0.966979  0.693661  0.740658  1
  Si  Si9  1  0.306339  0.033021  0.240658  1
  Si  Si10  1  0.593355  0.743849  0.667739  1
  Si  Si11  1  0.256151  0.406645  0.167739  1
  Ni  Ni12  1  0.014898  0.307471  0.796872  1
  Ni  Ni13  1  0.692529  0.985102  0.296872  1
  O  O14  1  0.839756  0.784042  0.602012  1
  O  O15  1  0.215958  0.160244  0.102012  1
  O  O16  1  0.791766  0.572307  0.906029  1
  O  O17  1  0.427693  0.208234  0.406029  1
  O  O18  1  0.280078  0.955366  0.773380  1
  O  O19  1  0.044634  0.719922  0.273380  1
  O  O20  1  0.917092  0.464327  0.646997  1
  O  O21  1  0.535673  0.082908  0.146997  1
  O  O22  1  0.525600  0.857646  0.514955  1
  O  O23  1  0.142354  0.474400  0.014955  1
  O  O24  1  0.700565  0.919293  0.834826  1
  O  O25  1  0.080707  0.299435  0.334826  1
  O  O26  1  0.333135  0.427100  0.705161  1
  O  O27  1  0.572900  0.666865  0.205161  1
