# generated using pymatgen
data_LiCo(SiO3)2
_symmetry_space_group_name_H-M   'P 1'
_cell_length_a   6.53571261
_cell_length_b   6.53571261
_cell_length_c   5.33971552
_cell_angle_alpha   75.07796640
_cell_angle_beta   104.92203360
_cell_angle_gamma   96.51802716
_symmetry_Int_Tables_number   1
_chemical_formula_structural   LiCo(SiO3)2
_chemical_formula_sum   'Li2 Co2 Si4 O12'
_cell_volume   212.69222137
_cell_formula_units_Z   2
loop_
 _symmetry_equiv_pos_site_id
 _symmetry_equiv_pos_as_xyz
  1  'x, y, z'
loop_
 _atom_site_type_symbol
 _atom_site_label
 _atom_site_symmetry_multiplicity
 _atom_site_fract_x
 _atom_site_fract_y
 _atom_site_fract_z
 _atom_site_occupancy
  Li  Li0  1  0.740994  0.740994  0.250000  1
  Li  Li1  1  0.259006  0.259006  0.750000  1
  Co  Co2  1  0.899633  0.899633  0.750000  1
  Co  Co3  1  0.100367  0.100367  0.250000  1
  Si  Si4  1  0.385325  0.793836  0.765362  1
  Si  Si5  1  0.206164  0.614675  0.265362  1
  Si  Si6  1  0.793836  0.385325  0.734638  1
  Si  Si7  1  0.614675  0.206164  0.234638  1
  O  O8  1  0.202769  0.971159  0.651226  1
  O  O9  1  0.628568  0.887520  0.827603  1
  O  O10  1  0.028841  0.797231  0.151226  1
  O  O11  1  0.352258  0.640612  0.557260  1
  O  O12  1  0.887520  0.628568  0.672397  1
  O  O13  1  0.359388  0.647742  0.057260  1
  O  O14  1  0.640612  0.352258  0.942740  1
  O  O15  1  0.112480  0.371432  0.327603  1
  O  O16  1  0.647742  0.359388  0.442740  1
  O  O17  1  0.971159  0.202769  0.848774  1
  O  O18  1  0.371432  0.112480  0.172397  1
  O  O19  1  0.797231  0.028841  0.348774  1
