# generated using pymatgen
data_Li2MnV2O6
_symmetry_space_group_name_H-M   'P 1'
_cell_length_a   5.92326483
_cell_length_b   6.59936886
_cell_length_c   6.83021486
_cell_angle_alpha   72.34748251
_cell_angle_beta   76.43063668
_cell_angle_gamma   64.46540815
_symmetry_Int_Tables_number   1
_chemical_formula_structural   Li2MnV2O6
_chemical_formula_sum   'Li4 Mn2 V4 O12'
_cell_volume   227.88712553
_cell_formula_units_Z   2
loop_
 _symmetry_equiv_pos_site_id
 _symmetry_equiv_pos_as_xyz
  1  'x, y, z'
loop_
 _atom_site_type_symbol
 _atom_site_label
 _atom_site_symmetry_multiplicity
 _atom_site_fract_x
 _atom_site_fract_y
 _atom_site_fract_z
 _atom_site_occupancy
  Li  Li0  1  0.749058  0.496541  0.500175  1
  Li  Li1  1  0.250942  0.503459  0.499825  1
  Li  Li2  1  0.913897  0.845505  0.161215  1
  Li  Li3  1  0.086103  0.154495  0.838785  1
  Mn  Mn4  1  0.500000  0.000000  0.500000  1
  Mn  Mn5  1  0.000000  0.000000  0.500000  1
  V  V6  1  0.669909  0.342736  0.163514  1
  V  V7  1  0.180597  0.316264  0.158232  1
  V  V8  1  0.819403  0.683736  0.841768  1
  V  V9  1  0.330091  0.657264  0.836486  1
  O  O10  1  0.639187  0.245161  0.468806  1
  O  O11  1  0.118210  0.239509  0.479890  1
  O  O12  1  0.811228  0.556415  0.160893  1
  O  O13  1  0.309029  0.561209  0.147036  1
  O  O14  1  0.360813  0.754839  0.531194  1
  O  O15  1  0.881790  0.760491  0.520110  1
  O  O16  1  0.540901  0.101962  0.196371  1
  O  O17  1  0.016960  0.109106  0.157764  1
  O  O18  1  0.690971  0.438791  0.852964  1
  O  O19  1  0.188772  0.443585  0.839107  1
  O  O20  1  0.459099  0.898038  0.803629  1
  O  O21  1  0.983040  0.890894  0.842236  1
