# generated using pymatgen
data_Cr3Fe(PO4)6
_symmetry_space_group_name_H-M   'P 1'
_cell_length_a   8.82019163
_cell_length_b   8.82019163
_cell_length_c   8.82019163
_cell_angle_alpha   58.38213256
_cell_angle_beta   58.38213256
_cell_angle_gamma   58.38213256
_symmetry_Int_Tables_number   1
_chemical_formula_structural   Cr3Fe(PO4)6
_chemical_formula_sum   'Cr3 Fe1 P6 O24'
_cell_volume   467.22901145
_cell_formula_units_Z   1
loop_
 _symmetry_equiv_pos_site_id
 _symmetry_equiv_pos_as_xyz
  1  'x, y, z'
loop_
 _atom_site_type_symbol
 _atom_site_label
 _atom_site_symmetry_multiplicity
 _atom_site_fract_x
 _atom_site_fract_y
 _atom_site_fract_z
 _atom_site_occupancy
  Cr  Cr0  1  0.857112  0.857112  0.857112  1
  Cr  Cr1  1  0.642742  0.642742  0.642742  1
  Cr  Cr2  1  0.357293  0.357293  0.357293  1
  Fe  Fe3  1  0.143062  0.143062  0.143062  1
  P  P4  1  0.249416  0.535818  0.965720  1
  P  P5  1  0.965720  0.249416  0.535818  1
  P  P6  1  0.535818  0.965720  0.249416  1
  P  P7  1  0.467634  0.033257  0.747848  1
  P  P8  1  0.033257  0.747848  0.467634  1
  P  P9  1  0.747848  0.467634  0.033257  1
  O  O10  1  0.712998  0.498073  0.863909  1
  O  O11  1  0.498073  0.863909  0.712998  1
  O  O12  1  0.077156  0.719410  0.937037  1
  O  O13  1  0.863909  0.712998  0.498073  1
  O  O14  1  0.421240  0.570134  0.781393  1
  O  O15  1  0.227519  0.365472  0.984923  1
  O  O16  1  0.937037  0.077156  0.719410  1
  O  O17  1  0.781393  0.421240  0.570134  1
  O  O18  1  0.570134  0.781393  0.421240  1
  O  O19  1  0.638073  0.007887  0.777238  1
  O  O20  1  0.285677  0.057641  0.919005  1
  O  O21  1  0.007887  0.777238  0.638073  1
  O  O22  1  0.984923  0.227519  0.365472  1
  O  O23  1  0.719410  0.937037  0.077156  1
  O  O24  1  0.365472  0.984923  0.227519  1
  O  O25  1  0.440686  0.216105  0.573828  1
  O  O26  1  0.216105  0.573828  0.440686  1
  O  O27  1  0.057641  0.919005  0.285677  1
  O  O28  1  0.777238  0.638073  0.007887  1
  O  O29  1  0.573828  0.440686  0.216105  1
  O  O30  1  0.137036  0.278733  0.508925  1
  O  O31  1  0.919005  0.285677  0.057641  1
  O  O32  1  0.508925  0.137036  0.278733  1
  O  O33  1  0.278733  0.508925  0.137036  1
