# generated using pymatgen
data_FeOF
_symmetry_space_group_name_H-M   'P 1'
_cell_length_a   4.77181970
_cell_length_b   4.77181970
_cell_length_c   12.22597134
_cell_angle_alpha   90.00000000
_cell_angle_beta   90.00000000
_cell_angle_gamma   90.04477885
_symmetry_Int_Tables_number   1
_chemical_formula_structural   FeOF
_chemical_formula_sum   'Fe8 O8 F8'
_cell_volume   278.38850138
_cell_formula_units_Z   8
loop_
 _symmetry_equiv_pos_site_id
 _symmetry_equiv_pos_as_xyz
  1  'x, y, z'
loop_
 _atom_site_type_symbol
 _atom_site_label
 _atom_site_symmetry_multiplicity
 _atom_site_fract_x
 _atom_site_fract_y
 _atom_site_fract_z
 _atom_site_occupancy
  Fe  Fe0  1  0.036420  0.963580  0.000000  1
  Fe  Fe1  1  0.945262  0.017550  0.250000  1
  Fe  Fe2  1  0.036420  0.963580  0.500000  1
  Fe  Fe3  1  0.982450  0.054738  0.750000  1
  Fe  Fe4  1  0.529073  0.528769  0.124643  1
  Fe  Fe5  1  0.471231  0.470927  0.624643  1
  Fe  Fe6  1  0.471231  0.470927  0.875357  1
  Fe  Fe7  1  0.529073  0.528769  0.375357  1
  O  O8  1  0.182856  0.185017  0.622065  1
  O  O9  1  0.182856  0.185017  0.877935  1
  O  O10  1  0.686403  0.326998  0.250000  1
  O  O11  1  0.673002  0.313597  0.750000  1
  O  O12  1  0.320872  0.679128  0.000000  1
  O  O13  1  0.320872  0.679128  0.500000  1
  O  O14  1  0.814983  0.817144  0.122065  1
  O  O15  1  0.814983  0.817144  0.377935  1
  F  F16  1  0.202353  0.199877  0.127096  1
  F  F17  1  0.202353  0.199877  0.372904  1
  F  F18  1  0.704258  0.295742  0.000000  1
  F  F19  1  0.704258  0.295742  0.500000  1
  F  F20  1  0.304899  0.716354  0.250000  1
  F  F21  1  0.283646  0.695101  0.750000  1
  F  F22  1  0.800123  0.797647  0.627096  1
  F  F23  1  0.800123  0.797647  0.872904  1
