# generated using pymatgen
data_Co(Bi5O8)5
_symmetry_space_group_name_H-M   'P 1'
_cell_length_a   10.34986223
_cell_length_b   10.34986223
_cell_length_c   10.34986223
_cell_angle_alpha   90.00000000
_cell_angle_beta   90.00000000
_cell_angle_gamma   90.00000000
_symmetry_Int_Tables_number   1
_chemical_formula_structural   Co(Bi5O8)5
_chemical_formula_sum   'Co1 Bi25 O40'
_cell_volume   1108.67360079
_cell_formula_units_Z   1
loop_
 _symmetry_equiv_pos_site_id
 _symmetry_equiv_pos_as_xyz
  1  'x, y, z'
loop_
 _atom_site_type_symbol
 _atom_site_label
 _atom_site_symmetry_multiplicity
 _atom_site_fract_x
 _atom_site_fract_y
 _atom_site_fract_z
 _atom_site_occupancy
  Co  Co0  1  0.000000  0.000000  0.000000  1
  Bi  Bi1  1  0.981785  0.319607  0.176812  1
  Bi  Bi2  1  0.981785  0.680393  0.823188  1
  Bi  Bi3  1  0.823188  0.018215  0.319607  1
  Bi  Bi4  1  0.823188  0.981785  0.680393  1
  Bi  Bi5  1  0.819129  0.321721  0.510609  1
  Bi  Bi6  1  0.819129  0.678279  0.489391  1
  Bi  Bi7  1  0.680393  0.176812  0.018215  1
  Bi  Bi8  1  0.680393  0.823188  0.981785  1
  Bi  Bi9  1  0.678279  0.510609  0.180871  1
  Bi  Bi10  1  0.678279  0.489391  0.819129  1
  Bi  Bi11  1  0.510609  0.819129  0.321721  1
  Bi  Bi12  1  0.510609  0.180871  0.678279  1
  Bi  Bi13  1  0.500000  0.500000  0.500000  1
  Bi  Bi14  1  0.489391  0.180871  0.321721  1
  Bi  Bi15  1  0.489391  0.819129  0.678279  1
  Bi  Bi16  1  0.321721  0.510609  0.819129  1
  Bi  Bi17  1  0.321721  0.489391  0.180871  1
  Bi  Bi18  1  0.319607  0.823188  0.018215  1
  Bi  Bi19  1  0.319607  0.176812  0.981785  1
  Bi  Bi20  1  0.180871  0.321721  0.489391  1
  Bi  Bi21  1  0.180871  0.678279  0.510609  1
  Bi  Bi22  1  0.176812  0.981785  0.319607  1
  Bi  Bi23  1  0.176812  0.018215  0.680393  1
  Bi  Bi24  1  0.018215  0.680393  0.176812  1
  Bi  Bi25  1  0.018215  0.319607  0.823188  1
  O  O26  1  0.989950  0.751650  0.366489  1
  O  O27  1  0.989950  0.248350  0.633511  1
  O  O28  1  0.905103  0.905103  0.094897  1
  O  O29  1  0.905103  0.094897  0.905103  1
  O  O30  1  0.871648  0.490966  0.244387  1
  O  O31  1  0.871648  0.509034  0.755613  1
  O  O32  1  0.805381  0.194619  0.194619  1
  O  O33  1  0.805381  0.805381  0.805381  1
  O  O34  1  0.751650  0.633511  0.010050  1
  O  O35  1  0.751650  0.366489  0.989950  1
  O  O36  1  0.755613  0.128352  0.490966  1
  O  O37  1  0.755613  0.871648  0.509034  1
  O  O38  1  0.685017  0.685017  0.314983  1
  O  O39  1  0.685017  0.314983  0.685017  1
  O  O40  1  0.633511  0.010050  0.751650  1
  O  O41  1  0.633511  0.989950  0.248350  1
  O  O42  1  0.626388  0.626388  0.626388  1
  O  O43  1  0.626388  0.373612  0.373612  1
  O  O44  1  0.509034  0.244387  0.128352  1
  O  O45  1  0.509034  0.755613  0.871648  1
  O  O46  1  0.490966  0.755613  0.128352  1
  O  O47  1  0.490966  0.244387  0.871648  1
  O  O48  1  0.373612  0.626388  0.373612  1
  O  O49  1  0.373612  0.373612  0.626388  1
  O  O50  1  0.366489  0.010050  0.248350  1
  O  O51  1  0.366489  0.989950  0.751650  1
  O  O52  1  0.314983  0.685017  0.685017  1
  O  O53  1  0.314983  0.314983  0.314983  1
  O  O54  1  0.244387  0.871648  0.490966  1
  O  O55  1  0.244387  0.128352  0.509034  1
  O  O56  1  0.248350  0.366489  0.010050  1
  O  O57  1  0.248350  0.633511  0.989950  1
  O  O58  1  0.194619  0.805381  0.194619  1
  O  O59  1  0.194619  0.194619  0.805381  1
  O  O60  1  0.128352  0.509034  0.244387  1
  O  O61  1  0.128352  0.490966  0.755613  1
  O  O62  1  0.094897  0.094897  0.094897  1
  O  O63  1  0.094897  0.905103  0.905103  1
  O  O64  1  0.010050  0.751650  0.633511  1
  O  O65  1  0.010050  0.248350  0.366489  1
