# generated using pymatgen
data_Zr4MnO9
_symmetry_space_group_name_H-M   'P 1'
_cell_length_a   5.21126400
_cell_length_b   6.27646894
_cell_length_c   6.29003256
_cell_angle_alpha   80.76857138
_cell_angle_beta   66.24256087
_cell_angle_gamma   66.74067311
_symmetry_Int_Tables_number   1
_chemical_formula_structural   Zr4MnO9
_chemical_formula_sum   'Zr4 Mn1 O9'
_cell_volume   172.99810682
_cell_formula_units_Z   1
loop_
 _symmetry_equiv_pos_site_id
 _symmetry_equiv_pos_as_xyz
  1  'x, y, z'
loop_
 _atom_site_type_symbol
 _atom_site_label
 _atom_site_symmetry_multiplicity
 _atom_site_fract_x
 _atom_site_fract_y
 _atom_site_fract_z
 _atom_site_occupancy
  Zr  Zr0  1  0.417913  0.802859  0.420074  1
  Zr  Zr1  1  0.948065  0.030070  0.005471  1
  Zr  Zr2  1  0.581098  0.230823  0.614563  1
  Zr  Zr3  1  0.837147  0.605037  0.774611  1
  Mn  Mn4  1  0.200273  0.362360  0.202007  1
  O  O5  1  0.807097  0.723609  0.087905  1
  O  O6  1  0.920283  0.947453  0.688774  1
  O  O7  1  0.779516  0.473957  0.484953  1
  O  O8  1  0.153529  0.006187  0.231887  1
  O  O9  1  0.561022  0.097021  0.343824  1
  O  O10  1  0.246898  0.539144  0.485551  1
  O  O11  1  0.417266  0.837869  0.756988  1
  O  O12  1  0.159135  0.296487  0.866928  1
  O  O13  1  0.620755  0.347124  0.936462  1
