# generated using pymatgen
data_CaHfO3
_symmetry_space_group_name_H-M   'P 1'
_cell_length_a   5.58080359
_cell_length_b   5.76822869
_cell_length_c   8.01690839
_cell_angle_alpha   90.00000000
_cell_angle_beta   90.00000000
_cell_angle_gamma   90.00000000
_symmetry_Int_Tables_number   1
_chemical_formula_structural   CaHfO3
_chemical_formula_sum   'Ca4 Hf4 O12'
_cell_volume   258.07511497
_cell_formula_units_Z   4
loop_
 _symmetry_equiv_pos_site_id
 _symmetry_equiv_pos_as_xyz
  1  'x, y, z'
loop_
 _atom_site_type_symbol
 _atom_site_label
 _atom_site_symmetry_multiplicity
 _atom_site_fract_x
 _atom_site_fract_y
 _atom_site_fract_z
 _atom_site_occupancy
  Ca  Ca0  1  0.013098  0.948907  0.750000  1
  Ca  Ca1  1  0.486902  0.448907  0.750000  1
  Ca  Ca2  1  0.513098  0.551093  0.250000  1
  Ca  Ca3  1  0.986902  0.051093  0.250000  1
  Hf  Hf4  1  0.000000  0.500000  0.000000  1
  Hf  Hf5  1  0.000000  0.500000  0.500000  1
  Hf  Hf6  1  0.500000  0.000000  0.000000  1
  Hf  Hf7  1  0.500000  0.000000  0.500000  1
  O  O8  1  0.102192  0.462660  0.250000  1
  O  O9  1  0.198515  0.201074  0.553973  1
  O  O10  1  0.198515  0.201074  0.946027  1
  O  O11  1  0.301485  0.701074  0.553973  1
  O  O12  1  0.301485  0.701074  0.946027  1
  O  O13  1  0.397808  0.962660  0.250000  1
  O  O14  1  0.602192  0.037340  0.750000  1
  O  O15  1  0.698515  0.298926  0.053973  1
  O  O16  1  0.698515  0.298926  0.446027  1
  O  O17  1  0.801485  0.798926  0.053973  1
  O  O18  1  0.801485  0.798926  0.446027  1
  O  O19  1  0.897808  0.537340  0.750000  1
