# generated using pymatgen
data_NaV5O8
_symmetry_space_group_name_H-M   'P 1'
_cell_length_a   7.81941627
_cell_length_b   7.81941627
_cell_length_c   7.33247428
_cell_angle_alpha   73.74463032
_cell_angle_beta   106.25536968
_cell_angle_gamma   157.32652567
_symmetry_Int_Tables_number   1
_chemical_formula_structural   NaV5O8
_chemical_formula_sum   'Na1 V5 O8'
_cell_volume   165.62978657
_cell_formula_units_Z   1
loop_
 _symmetry_equiv_pos_site_id
 _symmetry_equiv_pos_as_xyz
  1  'x, y, z'
loop_
 _atom_site_type_symbol
 _atom_site_label
 _atom_site_symmetry_multiplicity
 _atom_site_fract_x
 _atom_site_fract_y
 _atom_site_fract_z
 _atom_site_occupancy
  Na  Na0  1  0.000000  0.000000  0.000000  1
  V  V1  1  0.154213  0.845787  0.431304  1
  V  V2  1  0.202978  0.797022  0.833955  1
  V  V3  1  0.797022  0.202978  0.166045  1
  V  V4  1  0.845787  0.154213  0.568696  1
  V  V5  1  0.500000  0.500000  0.500000  1
  O  O6  1  0.081851  0.918149  0.626371  1
  O  O7  1  0.575742  0.424258  0.305283  1
  O  O8  1  0.673769  0.326231  0.982156  1
  O  O9  1  0.730958  0.269042  0.643091  1
  O  O10  1  0.269042  0.730958  0.356909  1
  O  O11  1  0.326231  0.673769  0.017844  1
  O  O12  1  0.424258  0.575742  0.694717  1
  O  O13  1  0.918149  0.081851  0.373629  1
