# generated using pymatgen
data_Li4Ti3V3(CuO8)2
_symmetry_space_group_name_H-M   'P 1'
_cell_length_a   5.83829461
_cell_length_b   5.87382660
_cell_length_c   9.81199789
_cell_angle_alpha   91.15023807
_cell_angle_beta   92.40883810
_cell_angle_gamma   118.88026797
_symmetry_Int_Tables_number   1
_chemical_formula_structural   Li4Ti3V3(CuO8)2
_chemical_formula_sum   'Li4 Ti3 V3 Cu2 O16'
_cell_volume   294.06190976
_cell_formula_units_Z   1
loop_
 _symmetry_equiv_pos_site_id
 _symmetry_equiv_pos_as_xyz
  1  'x, y, z'
loop_
 _atom_site_type_symbol
 _atom_site_label
 _atom_site_symmetry_multiplicity
 _atom_site_fract_x
 _atom_site_fract_y
 _atom_site_fract_z
 _atom_site_occupancy
  Li  Li0  1  0.321517  0.660972  0.103901  1
  Li  Li1  1  0.021766  0.021936  0.004801  1
  Li  Li2  1  0.020171  0.006653  0.503354  1
  Li  Li3  1  0.653597  0.322099  0.603994  1
  Ti  Ti4  1  0.192307  0.346615  0.780425  1
  Ti  Ti5  1  0.155992  0.819181  0.779744  1
  Ti  Ti6  1  0.343759  0.191363  0.279945  1
  V  V7  1  0.669238  0.851444  0.794103  1
  V  V8  1  0.850297  0.659064  0.292147  1
  V  V9  1  0.818673  0.149836  0.284940  1
  Cu  Cu10  1  0.333313  0.666864  0.506455  1
  Cu  Cu11  1  0.667530  0.329098  0.005956  1
  O  O12  1  0.155574  0.320002  0.392368  1
  O  O13  1  0.007744  0.507473  0.682618  1
  O  O14  1  0.341051  0.678735  0.895173  1
  O  O15  1  0.991542  0.003399  0.686058  1
  O  O16  1  0.997192  0.988694  0.187318  1
  O  O17  1  0.173216  0.835369  0.395306  1
  O  O18  1  0.462809  0.508675  0.663177  1
  O  O19  1  0.469934  0.952178  0.669603  1
  O  O20  1  0.331891  0.171055  0.894418  1
  O  O21  1  0.705192  0.835220  0.388258  1
  O  O22  1  0.513917  0.017369  0.182446  1
  O  O23  1  0.497357  0.464833  0.167755  1
  O  O24  1  0.673113  0.337169  0.396877  1
  O  O25  1  0.843610  0.170433  0.896265  1
  O  O26  1  0.946196  0.477309  0.165055  1
  O  O27  1  0.841501  0.706661  0.889700  1
