# generated using pymatgen
data_Fe4O3F5
_symmetry_space_group_name_H-M   'P 1'
_cell_length_a   4.80889868
_cell_length_b   4.80889868
_cell_length_c   6.19003681
_cell_angle_alpha   90.00000000
_cell_angle_beta   90.00000000
_cell_angle_gamma   94.03397553
_symmetry_Int_Tables_number   1
_chemical_formula_structural   Fe4O3F5
_chemical_formula_sum   'Fe4 O3 F5'
_cell_volume   142.79308967
_cell_formula_units_Z   1
loop_
 _symmetry_equiv_pos_site_id
 _symmetry_equiv_pos_as_xyz
  1  'x, y, z'
loop_
 _atom_site_type_symbol
 _atom_site_label
 _atom_site_symmetry_multiplicity
 _atom_site_fract_x
 _atom_site_fract_y
 _atom_site_fract_z
 _atom_site_occupancy
  Fe  Fe0  1  0.988918  0.988918  1.000000  1
  Fe  Fe1  1  0.022948  0.022948  0.500000  1
  Fe  Fe2  1  0.488118  0.488118  0.238070  1
  Fe  Fe3  1  0.488118  0.488118  0.761930  1
  O  O4  1  0.290154  0.290154  1.000000  1
  O  O5  1  0.328887  0.328887  0.500000  1
  O  O6  1  0.694322  0.694322  1.000000  1
  F  F7  1  0.799424  0.196843  0.241612  1
  F  F8  1  0.799424  0.196843  0.758388  1
  F  F9  1  0.705996  0.705996  0.500000  1
  F  F10  1  0.196843  0.799424  0.758388  1
  F  F11  1  0.196843  0.799424  0.241612  1
