# generated using pymatgen
data_CaPbI4
_symmetry_space_group_name_H-M   'P 1'
_cell_length_a   9.52107681
_cell_length_b   7.82861246
_cell_length_c   17.60842525
_cell_angle_alpha   90.00000000
_cell_angle_beta   119.33813552
_cell_angle_gamma   90.00000000
_symmetry_Int_Tables_number   1
_chemical_formula_structural   CaPbI4
_chemical_formula_sum   'Ca4 Pb4 I16'
_cell_volume   1144.14225582
_cell_formula_units_Z   4
loop_
 _symmetry_equiv_pos_site_id
 _symmetry_equiv_pos_as_xyz
  1  'x, y, z'
loop_
 _atom_site_type_symbol
 _atom_site_label
 _atom_site_symmetry_multiplicity
 _atom_site_fract_x
 _atom_site_fract_y
 _atom_site_fract_z
 _atom_site_occupancy
  Ca  Ca0  1  0.211892  0.372049  0.620237  1
  Ca  Ca1  1  0.211892  0.127951  0.120237  1
  Ca  Ca2  1  0.788108  0.872049  0.879763  1
  Ca  Ca3  1  0.788108  0.627951  0.379763  1
  Pb  Pb4  1  0.242506  0.073772  0.864139  1
  Pb  Pb5  1  0.242506  0.426228  0.364139  1
  Pb  Pb6  1  0.757494  0.573772  0.635861  1
  Pb  Pb7  1  0.757494  0.926228  0.135861  1
  I  I8  1  0.964135  0.207971  0.667418  1
  I  I9  1  0.964135  0.292029  0.167418  1
  I  I10  1  0.029161  0.717555  0.579085  1
  I  I11  1  0.029161  0.782445  0.079085  1
  I  I12  1  0.467392  0.263478  0.805789  1
  I  I13  1  0.463834  0.281523  0.559453  1
  I  I14  1  0.467392  0.236522  0.305789  1
  I  I15  1  0.536166  0.781523  0.940547  1
  I  I16  1  0.463834  0.218477  0.059453  1
  I  I17  1  0.532608  0.763478  0.694211  1
  I  I18  1  0.536166  0.718477  0.440547  1
  I  I19  1  0.532608  0.736522  0.194211  1
  I  I20  1  0.970839  0.217555  0.920915  1
  I  I21  1  0.970839  0.282445  0.420915  1
  I  I22  1  0.035865  0.707971  0.832582  1
  I  I23  1  0.035865  0.792029  0.332582  1
