# generated using pymatgen
data_LiTi2(PO4)3
_symmetry_space_group_name_H-M   'P 1'
_cell_length_a   8.36768990
_cell_length_b   8.96536642
_cell_length_c   14.49782554
_cell_angle_alpha   105.46501396
_cell_angle_beta   90.27387429
_cell_angle_gamma   117.65073288
_symmetry_Int_Tables_number   1
_chemical_formula_structural   LiTi2(PO4)3
_chemical_formula_sum   'Li4 Ti8 P12 O48'
_cell_volume   917.94027690
_cell_formula_units_Z   4
loop_
 _symmetry_equiv_pos_site_id
 _symmetry_equiv_pos_as_xyz
  1  'x, y, z'
loop_
 _atom_site_type_symbol
 _atom_site_label
 _atom_site_symmetry_multiplicity
 _atom_site_fract_x
 _atom_site_fract_y
 _atom_site_fract_z
 _atom_site_occupancy
  Li  Li0  1  0.073004  0.758932  0.371704  1
  Li  Li1  1  0.737058  0.972276  0.160381  1
  Li  Li2  1  0.262942  0.027724  0.839619  1
  Li  Li3  1  0.926996  0.241068  0.628296  1
  Ti  Ti4  1  0.149393  0.362981  0.071672  1
  Ti  Ti5  1  0.347645  0.880993  0.171433  1
  Ti  Ti6  1  0.145491  0.858815  0.573120  1
  Ti  Ti7  1  0.639541  0.612225  0.326185  1
  Ti  Ti8  1  0.360459  0.387775  0.673815  1
  Ti  Ti9  1  0.652355  0.119007  0.828567  1
  Ti  Ti10  1  0.854509  0.141185  0.426880  1
  Ti  Ti11  1  0.850607  0.637019  0.928328  1
  P  P12  1  0.031356  0.017238  0.232730  1
  P  P13  1  0.035904  0.516512  0.731326  1
  P  P14  1  0.465092  0.871497  0.374238  1
  P  P15  1  0.540267  0.627660  0.124253  1
  P  P16  1  0.248367  0.768058  0.981535  1
  P  P17  1  0.246131  0.265028  0.484155  1
  P  P18  1  0.753869  0.734972  0.515845  1
  P  P19  1  0.751633  0.231942  0.018465  1
  P  P20  1  0.459733  0.372340  0.875747  1
  P  P21  1  0.534908  0.128503  0.625762  1
  P  P22  1  0.968644  0.982762  0.767270  1
  P  P23  1  0.964096  0.483488  0.268674  1
  O  O24  1  0.167864  0.949875  0.244878  1
  O  O25  1  0.221605  0.817322  0.080616  1
  O  O26  1  0.155462  0.646627  0.263882  1
  O  O27  1  0.260648  0.825582  0.439467  1
  O  O28  1  0.002589  0.110360  0.312783  1
  O  O29  1  0.998187  0.603190  0.813459  1
  O  O30  1  0.120551  0.145502  0.133090  1
  O  O31  1  0.117438  0.644053  0.632776  1
  O  O32  1  0.488494  0.927389  0.266493  1
  O  O33  1  0.529047  0.796639  0.113186  1
  O  O34  1  0.100785  0.279063  0.444633  1
  O  O35  1  0.116547  0.796029  0.935913  1
  O  O36  1  0.379950  0.976478  0.601893  1
  O  O37  1  0.377301  0.481385  0.101541  1
  O  O38  1  0.486276  0.709799  0.389182  1
  O  O39  1  0.180742  0.458311  0.737588  1
  O  O40  1  0.207870  0.312236  0.584049  1
  O  O41  1  0.523956  0.571009  0.228945  1
  O  O42  1  0.208033  0.078823  0.497563  1
  O  O43  1  0.201924  0.579886  0.995945  1
  O  O44  1  0.736857  0.670189  0.052307  1
  O  O45  1  0.165307  0.134777  0.762350  1
  O  O46  1  0.456642  0.391662  0.414283  1
  O  O47  1  0.460642  0.893515  0.911582  1
  O  O48  1  0.539358  0.106485  0.088418  1
  O  O49  1  0.543358  0.608338  0.585717  1
  O  O50  1  0.834693  0.865223  0.237650  1
  O  O51  1  0.263143  0.329811  0.947693  1
  O  O52  1  0.798076  0.420114  0.004055  1
  O  O53  1  0.791967  0.921177  0.502437  1
  O  O54  1  0.476044  0.428991  0.771055  1
  O  O55  1  0.792130  0.687764  0.415951  1
  O  O56  1  0.819258  0.541689  0.262412  1
  O  O57  1  0.513724  0.290201  0.610818  1
  O  O58  1  0.620050  0.023522  0.398107  1
  O  O59  1  0.622699  0.518615  0.898459  1
  O  O60  1  0.899215  0.720937  0.555367  1
  O  O61  1  0.883453  0.203971  0.064087  1
  O  O62  1  0.470953  0.203361  0.886814  1
  O  O63  1  0.511506  0.072611  0.733507  1
  O  O64  1  0.882562  0.355947  0.367224  1
  O  O65  1  0.879449  0.854498  0.866910  1
  O  O66  1  0.997411  0.889640  0.687217  1
  O  O67  1  0.001813  0.396810  0.186542  1
  O  O68  1  0.739352  0.174418  0.560533  1
  O  O69  1  0.844538  0.353373  0.736118  1
  O  O70  1  0.778395  0.182678  0.919384  1
  O  O71  1  0.832136  0.050125  0.755122  1
