# generated using pymatgen
data_Li2Mn3(BO3)3
_symmetry_space_group_name_H-M   'P 1'
_cell_length_a   5.29382169
_cell_length_b   7.86957475
_cell_length_c   9.59069128
_cell_angle_alpha   105.02789291
_cell_angle_beta   104.21495018
_cell_angle_gamma   87.38293633
_symmetry_Int_Tables_number   1
_chemical_formula_structural   Li2Mn3(BO3)3
_chemical_formula_sum   'Li4 Mn6 B6 O18'
_cell_volume   374.00018935
_cell_formula_units_Z   2
loop_
 _symmetry_equiv_pos_site_id
 _symmetry_equiv_pos_as_xyz
  1  'x, y, z'
loop_
 _atom_site_type_symbol
 _atom_site_label
 _atom_site_symmetry_multiplicity
 _atom_site_fract_x
 _atom_site_fract_y
 _atom_site_fract_z
 _atom_site_occupancy
  Li  Li0  1  0.547539  0.747982  0.908116  1
  Li  Li1  1  0.136831  0.893075  0.416911  1
  Li  Li2  1  0.452461  0.252018  0.091884  1
  Li  Li3  1  0.863169  0.106925  0.583089  1
  Mn  Mn4  1  0.105347  0.700191  0.047347  1
  Mn  Mn5  1  0.775262  0.377642  0.378207  1
  Mn  Mn6  1  0.224738  0.622358  0.621793  1
  Mn  Mn7  1  0.442998  0.028808  0.721570  1
  Mn  Mn8  1  0.894653  0.299809  0.952653  1
  Mn  Mn9  1  0.557002  0.971192  0.278430  1
  B  B10  1  0.352155  0.415566  0.848798  1
  B  B11  1  0.987056  0.917926  0.827914  1
  B  B12  1  0.647845  0.584434  0.151202  1
  B  B13  1  0.012944  0.082074  0.172086  1
  B  B14  1  0.677520  0.752262  0.502782  1
  B  B15  1  0.322480  0.247738  0.497218  1
  O  O16  1  0.123469  0.460561  0.893004  1
  O  O17  1  0.455202  0.511665  0.775446  1
  O  O18  1  0.176869  0.390606  0.462820  1
  O  O19  1  0.224340  0.860125  0.789939  1
  O  O20  1  0.876531  0.539439  0.106996  1
  O  O21  1  0.872636  0.833527  0.903604  1
  O  O22  1  0.544798  0.488335  0.224554  1
  O  O23  1  0.865243  0.062750  0.778696  1
  O  O24  1  0.512997  0.728226  0.107323  1
  O  O25  1  0.134757  0.937250  0.221304  1
  O  O26  1  0.823131  0.609394  0.537180  1
  O  O27  1  0.127364  0.166473  0.096396  1
  O  O28  1  0.787137  0.863652  0.443022  1
  O  O29  1  0.775660  0.139875  0.210061  1
  O  O30  1  0.437314  0.785891  0.538407  1
  O  O31  1  0.487003  0.271774  0.892677  1
  O  O32  1  0.212863  0.136348  0.556978  1
  O  O33  1  0.562686  0.214109  0.461593  1
