# generated using pymatgen
data_NaCo2H3(SO5)2
_symmetry_space_group_name_H-M   'P 1'
_cell_length_a   6.32390072
_cell_length_b   6.32390072
_cell_length_c   7.49151308
_cell_angle_alpha   67.02706574
_cell_angle_beta   112.97293426
_cell_angle_gamma   122.14029131
_symmetry_Int_Tables_number   1
_chemical_formula_structural   NaCo2H3(SO5)2
_chemical_formula_sum   'Na1 Co2 H3 S2 O10'
_cell_volume   227.06294434
_cell_formula_units_Z   1
loop_
 _symmetry_equiv_pos_site_id
 _symmetry_equiv_pos_as_xyz
  1  'x, y, z'
loop_
 _atom_site_type_symbol
 _atom_site_label
 _atom_site_symmetry_multiplicity
 _atom_site_fract_x
 _atom_site_fract_y
 _atom_site_fract_z
 _atom_site_occupancy
  Na  Na0  1  0.497164  0.502836  0.483335  1
  Co  Co1  1  0.007724  0.507681  0.989027  1
  Co  Co2  1  0.492319  0.992276  0.989027  1
  H  H3  1  0.097861  0.902139  0.678219  1
  H  H4  1  0.531925  0.468075  0.047554  1
  H  H5  1  0.885968  0.114032  0.294346  1
  S  S6  1  0.957356  0.042644  0.740947  1
  S  S7  1  0.037521  0.962479  0.257300  1
  O  O8  1  0.634530  0.365470  0.120805  1
  O  O9  1  0.319151  0.680849  0.694963  1
  O  O10  1  0.759933  0.240067  0.878844  1
  O  O11  1  0.750889  0.884446  0.268777  1
  O  O12  1  0.871750  0.763532  0.713625  1
  O  O13  1  0.115554  0.249111  0.268777  1
  O  O14  1  0.236468  0.128250  0.713625  1
  O  O15  1  0.227209  0.772791  0.110029  1
  O  O16  1  0.668473  0.331527  0.327199  1
  O  O17  1  0.354205  0.645795  0.893601  1
