# generated using pymatgen
data_Mg3P2(H22O15)2
_symmetry_space_group_name_H-M   'P 1'
_cell_length_a   6.92644873
_cell_length_b   7.02035526
_cell_length_c   15.96127702
_cell_angle_alpha   88.37409622
_cell_angle_beta   94.30459932
_cell_angle_gamma   119.38588798
_symmetry_Int_Tables_number   1
_chemical_formula_structural   Mg3P2(H22O15)2
_chemical_formula_sum   'Mg3 P2 H44 O30'
_cell_volume   674.33384340
_cell_formula_units_Z   1
loop_
 _symmetry_equiv_pos_site_id
 _symmetry_equiv_pos_as_xyz
  1  'x, y, z'
loop_
 _atom_site_type_symbol
 _atom_site_label
 _atom_site_symmetry_multiplicity
 _atom_site_fract_x
 _atom_site_fract_y
 _atom_site_fract_z
 _atom_site_occupancy
  Mg  Mg0  1  0.000000  0.000000  0.000000  1
  Mg  Mg1  1  0.784477  0.890710  0.343930  1
  Mg  Mg2  1  0.215523  0.109290  0.656070  1
  P  P3  1  0.905447  0.445293  0.760191  1
  P  P4  1  0.094553  0.554707  0.239809  1
  H  H5  1  0.984212  0.671400  0.393942  1
  H  H6  1  0.015788  0.328600  0.606058  1
  H  H7  1  0.006006  0.217328  0.516982  1
  H  H8  1  0.993994  0.782672  0.483018  1
  H  H9  1  0.970568  0.327703  0.383208  1
  H  H10  1  0.029432  0.672297  0.616792  1
  H  H11  1  0.732833  0.181722  0.417729  1
  H  H12  1  0.267167  0.818278  0.582271  1
  H  H13  1  0.858515  0.809379  0.739143  1
  H  H14  1  0.141485  0.190621  0.260857  1
  H  H15  1  0.859585  0.039526  0.741603  1
  H  H16  1  0.140415  0.960474  0.258397  1
  H  H17  1  0.766091  0.923623  0.151443  1
  H  H18  1  0.233909  0.076377  0.848557  1
  H  H19  1  0.778000  0.717251  0.122783  1
  H  H20  1  0.222000  0.282749  0.877217  1
  H  H21  1  0.798391  0.641488  0.887195  1
  H  H22  1  0.201609  0.358512  0.112805  1
  H  H23  1  0.751868  0.561005  0.982381  1
  H  H24  1  0.248132  0.438995  0.017619  1
  H  H25  1  0.777398  0.142718  0.893490  1
  H  H26  1  0.222602  0.857282  0.106510  1
  H  H27  1  0.727751  0.176921  0.988099  1
  H  H28  1  0.272249  0.823079  0.011901  1
  H  H29  1  0.512256  0.074314  0.773977  1
  H  H30  1  0.487744  0.925686  0.226023  1
  H  H31  1  0.715643  0.161657  0.227079  1
  H  H32  1  0.284357  0.838343  0.772921  1
  H  H33  1  0.745043  0.373792  0.105839  1
  H  H34  1  0.254957  0.626208  0.894161  1
  H  H35  1  0.511207  0.266107  0.051827  1
  H  H36  1  0.488793  0.733893  0.948173  1
  H  H37  1  0.707583  0.522145  0.250522  1
  H  H38  1  0.292417  0.477855  0.749478  1
  H  H39  1  0.478002  0.533023  0.251521  1
  H  H40  1  0.521998  0.466977  0.748479  1
  H  H41  1  0.653391  0.294536  0.615289  1
  H  H42  1  0.346609  0.705464  0.384711  1
  H  H43  1  0.498309  0.244865  0.529145  1
  H  H44  1  0.501691  0.755135  0.470855  1
  H  H45  1  0.543067  0.393319  0.393314  1
  H  H46  1  0.456933  0.606681  0.606686  1
  H  H47  1  0.644908  0.850603  0.611194  1
  H  H48  1  0.355092  0.149397  0.388806  1
  O  O49  1  0.906827  0.444720  0.662359  1
  O  O50  1  0.093173  0.555280  0.337641  1
  O  O51  1  0.786455  0.204892  0.790597  1
  O  O52  1  0.213545  0.795108  0.209403  1
  O  O53  1  0.783692  0.568776  0.785961  1
  O  O54  1  0.216308  0.431224  0.214039  1
  O  O55  1  0.847390  0.432388  0.202480  1
  O  O56  1  0.152610  0.567612  0.797520  1
  O  O57  1  0.917509  0.743454  0.426087  1
  O  O58  1  0.082491  0.256546  0.573913  1
  O  O59  1  0.875459  0.182824  0.412257  1
  O  O60  1  0.124541  0.817176  0.587743  1
  O  O61  1  0.900833  0.948731  0.707213  1
  O  O62  1  0.099167  0.051269  0.292787  1
  O  O63  1  0.810653  0.864067  0.105540  1
  O  O64  1  0.189347  0.135933  0.894460  1
  O  O65  1  0.797059  0.691009  0.945184  1
  O  O66  1  0.202941  0.308991  0.054816  1
  O  O67  1  0.766176  0.087447  0.952560  1
  O  O68  1  0.233824  0.912553  0.047440  1
  O  O69  1  0.655451  0.001143  0.236773  1
  O  O70  1  0.344549  0.998857  0.763227  1
  O  O71  1  0.672968  0.344872  0.046870  1
  O  O72  1  0.327032  0.655128  0.953130  1
  O  O73  1  0.630949  0.588474  0.280088  1
  O  O74  1  0.369051  0.411526  0.719912  1
  O  O75  1  0.503571  0.783198  0.409639  1
  O  O76  1  0.496429  0.216802  0.590361  1
  O  O77  1  0.494826  0.250635  0.420481  1
  O  O78  1  0.505174  0.749365  0.579519  1
