# generated using pymatgen
data_Al2ZnTe4
_symmetry_space_group_name_H-M   'P 1'
_cell_length_a   7.37665785
_cell_length_b   7.37665785
_cell_length_c   7.37665785
_cell_angle_alpha   131.22338698
_cell_angle_beta   131.22338698
_cell_angle_gamma   71.45840351
_symmetry_Int_Tables_number   1
_chemical_formula_structural   Al2ZnTe4
_chemical_formula_sum   'Al2 Zn1 Te4'
_cell_volume   222.23337541
_cell_formula_units_Z   1
loop_
 _symmetry_equiv_pos_site_id
 _symmetry_equiv_pos_as_xyz
  1  'x, y, z'
loop_
 _atom_site_type_symbol
 _atom_site_label
 _atom_site_symmetry_multiplicity
 _atom_site_fract_x
 _atom_site_fract_y
 _atom_site_fract_z
 _atom_site_occupancy
  Al  Al0  1  0.250000  0.750000  0.500000  1
  Al  Al1  1  0.500000  0.500000  0.000000  1
  Zn  Zn2  1  0.000000  0.000000  0.000000  1
  Te  Te3  1  0.397700  0.892483  0.024512  1
  Te  Te4  1  0.107517  0.132029  0.505218  1
  Te  Te5  1  0.626812  0.602300  0.494782  1
  Te  Te6  1  0.867971  0.373188  0.975488  1
