# generated using pymatgen
data_Li5Fe8(BO3)8
_symmetry_space_group_name_H-M   'P 1'
_cell_length_a   5.24495744
_cell_length_b   9.06812746
_cell_length_c   10.22098561
_cell_angle_alpha   89.01247129
_cell_angle_beta   89.58822192
_cell_angle_gamma   89.50564061
_symmetry_Int_Tables_number   1
_chemical_formula_structural   Li5Fe8(BO3)8
_chemical_formula_sum   'Li5 Fe8 B8 O24'
_cell_volume   486.02759097
_cell_formula_units_Z   1
loop_
 _symmetry_equiv_pos_site_id
 _symmetry_equiv_pos_as_xyz
  1  'x, y, z'
loop_
 _atom_site_type_symbol
 _atom_site_label
 _atom_site_symmetry_multiplicity
 _atom_site_fract_x
 _atom_site_fract_y
 _atom_site_fract_z
 _atom_site_occupancy
  Li  Li0  1  0.153875  0.171884  0.661437  1
  Li  Li1  1  0.188919  0.162372  0.167065  1
  Li  Li2  1  0.336793  0.322736  0.906093  1
  Li  Li3  1  0.683241  0.665586  0.150637  1
  Li  Li4  1  0.825017  0.828895  0.410690  1
  Fe  Fe5  1  0.175242  0.827010  0.634442  1
  Fe  Fe6  1  0.183685  0.498304  0.133425  1
  Fe  Fe7  1  0.322518  0.989174  0.885097  1
  Fe  Fe8  1  0.333852  0.648926  0.381535  1
  Fe  Fe9  1  0.649380  0.353678  0.624346  1
  Fe  Fe10  1  0.686292  0.997080  0.118900  1
  Fe  Fe11  1  0.816779  0.172097  0.380524  1
  Fe  Fe12  1  0.831199  0.505915  0.875665  1
  B  B13  1  0.151236  0.498524  0.635381  1
  B  B14  1  0.176309  0.833232  0.132986  1
  B  B15  1  0.322393  0.995367  0.382925  1
  B  B16  1  0.332958  0.658702  0.875752  1
  B  B17  1  0.672116  0.002729  0.622210  1
  B  B18  1  0.669714  0.331958  0.124669  1
  B  B19  1  0.840478  0.500580  0.371366  1
  B  B20  1  0.828029  0.172768  0.876575  1
  O  O21  1  0.091716  0.492221  0.331823  1
  O  O22  1  0.090379  0.167811  0.860531  1
  O  O23  1  0.207315  0.782965  0.825560  1
  O  O24  1  0.218675  0.863687  0.430259  1
  O  O25  1  0.168345  0.115516  0.357273  1
  O  O26  1  0.190707  0.534750  0.916100  1
  O  O27  1  0.277127  0.365811  0.636058  1
  O  O28  1  0.295605  0.965436  0.094917  1
  O  O29  1  0.268721  0.626578  0.588197  1
  O  O30  1  0.323410  0.708526  0.162212  1
  O  O31  1  0.409661  0.319980  0.107782  1
  O  O32  1  0.413185  0.999609  0.657881  1
  O  O33  1  0.585391  0.003251  0.355583  1
  O  O34  1  0.590099  0.657157  0.888840  1
  O  O35  1  0.695656  0.306531  0.848544  1
  O  O36  1  0.720326  0.372109  0.418647  1
  O  O37  1  0.709316  0.632605  0.364917  1
  O  O38  1  0.689524  0.053516  0.918683  1
  O  O39  1  0.798076  0.459890  0.085564  1
  O  O40  1  0.818273  0.876391  0.616519  1
  O  O41  1  0.786253  0.138100  0.585716  1
  O  O42  1  0.808460  0.211542  0.178262  1
  O  O43  1  0.915254  0.826858  0.142282  1
  O  O44  1  0.902022  0.508849  0.682091  1
