# generated using pymatgen
data_Na3CoO3
_symmetry_space_group_name_H-M   'P 1'
_cell_length_a   6.44379940
_cell_length_b   9.63011726
_cell_length_c   6.89606517
_cell_angle_alpha   90.00000000
_cell_angle_beta   116.15701456
_cell_angle_gamma   90.00000000
_symmetry_Int_Tables_number   1
_chemical_formula_structural   Na3CoO3
_chemical_formula_sum   'Na12 Co4 O12'
_cell_volume   384.10736584
_cell_formula_units_Z   4
loop_
 _symmetry_equiv_pos_site_id
 _symmetry_equiv_pos_as_xyz
  1  'x, y, z'
loop_
 _atom_site_type_symbol
 _atom_site_label
 _atom_site_symmetry_multiplicity
 _atom_site_fract_x
 _atom_site_fract_y
 _atom_site_fract_z
 _atom_site_occupancy
  Na  Na0  1  0.035943  0.210067  0.008708  1
  Na  Na1  1  0.535943  0.289933  0.008708  1
  Na  Na2  1  0.249392  0.057861  0.761667  1
  Na  Na3  1  0.209165  0.780774  0.536122  1
  Na  Na4  1  0.749392  0.442139  0.761667  1
  Na  Na5  1  0.290835  0.280774  0.463878  1
  Na  Na6  1  0.709165  0.719226  0.536122  1
  Na  Na7  1  0.250608  0.557861  0.238333  1
  Na  Na8  1  0.790835  0.219226  0.463878  1
  Na  Na9  1  0.750608  0.942139  0.238333  1
  Na  Na10  1  0.464057  0.710067  0.991292  1
  Na  Na11  1  0.964057  0.789933  0.991292  1
  Co  Co12  1  0.182128  0.486650  0.729547  1
  Co  Co13  1  0.682128  0.013350  0.729547  1
  Co  Co14  1  0.317872  0.986650  0.270453  1
  Co  Co15  1  0.817872  0.513350  0.270453  1
  O  O16  1  0.046326  0.609715  0.827354  1
  O  O17  1  0.138922  0.304034  0.739445  1
  O  O18  1  0.546326  0.890285  0.827354  1
  O  O19  1  0.399681  0.554257  0.664843  1
  O  O20  1  0.638922  0.195966  0.739445  1
  O  O21  1  0.100319  0.054257  0.335157  1
  O  O22  1  0.899681  0.945743  0.664843  1
  O  O23  1  0.361078  0.804034  0.260555  1
  O  O24  1  0.600319  0.445743  0.335157  1
  O  O25  1  0.453674  0.109715  0.172646  1
  O  O26  1  0.861078  0.695966  0.260555  1
  O  O27  1  0.953674  0.390285  0.172646  1
