# generated using pymatgen
data_Sr16V8O31
_symmetry_space_group_name_H-M   'P 1'
_cell_length_a   6.91823371
_cell_length_b   11.06271467
_cell_length_c   11.78383541
_cell_angle_alpha   117.34503781
_cell_angle_beta   102.15539576
_cell_angle_gamma   89.65105595
_symmetry_Int_Tables_number   1
_chemical_formula_structural   Sr16V8O31
_chemical_formula_sum   'Sr16 V8 O31'
_cell_volume   778.85351510
_cell_formula_units_Z   1
loop_
 _symmetry_equiv_pos_site_id
 _symmetry_equiv_pos_as_xyz
  1  'x, y, z'
loop_
 _atom_site_type_symbol
 _atom_site_label
 _atom_site_symmetry_multiplicity
 _atom_site_fract_x
 _atom_site_fract_y
 _atom_site_fract_z
 _atom_site_occupancy
  Sr  Sr0  1  0.402803  0.467989  0.194437  1
  Sr  Sr1  1  0.161464  0.603619  0.953950  1
  Sr  Sr2  1  0.597197  0.532011  0.805563  1
  Sr  Sr3  1  0.913294  0.735623  0.706534  1
  Sr  Sr4  1  0.359661  0.661373  0.560508  1
  Sr  Sr5  1  0.161376  0.099240  0.951054  1
  Sr  Sr6  1  0.838624  0.900760  0.048946  1
  Sr  Sr7  1  0.664971  0.857789  0.450699  1
  Sr  Sr8  1  0.097046  0.785282  0.306432  1
  Sr  Sr9  1  0.597373  0.027634  0.807634  1
  Sr  Sr10  1  0.402627  0.972366  0.192366  1
  Sr  Sr11  1  0.902954  0.214718  0.693568  1
  Sr  Sr12  1  0.335029  0.142211  0.549301  1
  Sr  Sr13  1  0.086706  0.264377  0.293466  1
  Sr  Sr14  1  0.640339  0.338627  0.439492  1
  Sr  Sr15  1  0.838536  0.396381  0.046050  1
  V  V16  1  0.372911  0.812589  0.873957  1
  V  V17  1  0.871556  0.566288  0.368861  1
  V  V18  1  0.129124  0.938378  0.628187  1
  V  V19  1  0.624211  0.688132  0.123617  1
  V  V20  1  0.627089  0.187411  0.126043  1
  V  V21  1  0.375789  0.311868  0.876383  1
  V  V22  1  0.870876  0.061622  0.371813  1
  V  V23  1  0.128444  0.433712  0.631139  1
  O  O24  1  0.244190  0.624908  0.743750  1
  O  O25  1  0.500000  0.500000  0.000000  1
  O  O26  1  0.884026  0.483932  0.680218  1
  O  O27  1  0.614702  0.771080  0.793175  1
  O  O28  1  0.132709  0.852498  0.954085  1
  O  O29  1  0.115974  0.516068  0.319782  1
  O  O30  1  0.258281  0.877938  0.756201  1
  O  O31  1  0.379480  0.719960  0.201508  1
  O  O32  1  0.673604  0.589419  0.465548  1
  O  O33  1  0.750214  0.620348  0.247661  1
  O  O34  1  0.857913  0.641315  0.037858  1
  O  O35  1  0.492467  0.745793  0.992813  1
  O  O36  1  0.500000  0.000000  0.000000  1
  O  O37  1  0.371241  0.897271  0.545164  1
  O  O38  1  0.006955  0.739666  0.505043  1
  O  O39  1  0.887942  0.981123  0.708241  1
  O  O40  1  0.739128  0.864442  0.240453  1
  O  O41  1  0.260872  0.135558  0.759547  1
  O  O42  1  0.385298  0.228920  0.206825  1
  O  O43  1  0.741719  0.122062  0.243799  1
  O  O44  1  0.507533  0.254207  0.007187  1
  O  O45  1  0.142087  0.358685  0.962142  1
  O  O46  1  0.620520  0.280040  0.798492  1
  O  O47  1  0.000000  0.000000  0.500000  1
  O  O48  1  0.628759  0.102729  0.454836  1
  O  O49  1  0.112058  0.018877  0.291759  1
  O  O50  1  0.249786  0.379652  0.752339  1
  O  O51  1  0.867291  0.147502  0.045915  1
  O  O52  1  0.326396  0.410581  0.534452  1
  O  O53  1  0.755810  0.375092  0.256250  1
  O  O54  1  0.993045  0.260334  0.494957  1
