# generated using pymatgen
data_Li3Al(FeO3)2
_symmetry_space_group_name_H-M   'P 1'
_cell_length_a   5.94677438
_cell_length_b   10.34856208
_cell_length_c   10.09067371
_cell_angle_alpha   90.00000000
_cell_angle_beta   125.49663555
_cell_angle_gamma   90.00000000
_symmetry_Int_Tables_number   1
_chemical_formula_structural   Li3Al(FeO3)2
_chemical_formula_sum   'Li12 Al4 Fe8 O24'
_cell_volume   505.57530987
_cell_formula_units_Z   4
loop_
 _symmetry_equiv_pos_site_id
 _symmetry_equiv_pos_as_xyz
  1  'x, y, z'
loop_
 _atom_site_type_symbol
 _atom_site_label
 _atom_site_symmetry_multiplicity
 _atom_site_fract_x
 _atom_site_fract_y
 _atom_site_fract_z
 _atom_site_occupancy
  Li  Li0  1  0.521181  0.997779  0.363930  1
  Li  Li1  1  0.556860  0.657980  0.376067  1
  Li  Li2  1  0.035306  0.997084  0.883899  1
  Li  Li3  1  0.443140  0.157980  0.123933  1
  Li  Li4  1  0.964694  0.497084  0.616101  1
  Li  Li5  1  0.478819  0.497779  0.136070  1
  Li  Li6  1  0.521181  0.502221  0.863930  1
  Li  Li7  1  0.035306  0.502916  0.383899  1
  Li  Li8  1  0.556860  0.842020  0.876067  1
  Li  Li9  1  0.964694  0.002916  0.116101  1
  Li  Li10  1  0.443140  0.342020  0.623933  1
  Li  Li11  1  0.478819  0.002221  0.636070  1
  Al  Al12  1  0.039442  0.332476  0.873539  1
  Al  Al13  1  0.960558  0.832476  0.626461  1
  Al  Al14  1  0.039442  0.167524  0.373539  1
  Al  Al15  1  0.960558  0.667524  0.126461  1
  Fe  Fe16  1  0.549135  0.333810  0.378615  1
  Fe  Fe17  1  0.047266  0.653451  0.873077  1
  Fe  Fe18  1  0.450865  0.833810  0.121385  1
  Fe  Fe19  1  0.952734  0.153451  0.626923  1
  Fe  Fe20  1  0.047266  0.846549  0.373077  1
  Fe  Fe21  1  0.549135  0.166190  0.878615  1
  Fe  Fe22  1  0.952734  0.346549  0.126923  1
  Fe  Fe23  1  0.450865  0.666190  0.621385  1
  O  O24  1  0.267897  0.330481  0.116454  1
  O  O25  1  0.795568  0.681869  0.629156  1
  O  O26  1  0.303407  0.987743  0.123515  1
  O  O27  1  0.818610  0.985393  0.628904  1
  O  O28  1  0.792406  0.316958  0.633087  1
  O  O29  1  0.266166  0.671820  0.119442  1
  O  O30  1  0.733834  0.171820  0.380558  1
  O  O31  1  0.207594  0.816958  0.866913  1
  O  O32  1  0.181390  0.485393  0.871096  1
  O  O33  1  0.696593  0.487743  0.376485  1
  O  O34  1  0.732103  0.830481  0.383546  1
  O  O35  1  0.204432  0.181869  0.870844  1
  O  O36  1  0.795568  0.818131  0.129156  1
  O  O37  1  0.267897  0.169519  0.616454  1
  O  O38  1  0.303407  0.512257  0.623515  1
  O  O39  1  0.818610  0.514607  0.128904  1
  O  O40  1  0.792406  0.183042  0.133087  1
  O  O41  1  0.266166  0.828180  0.619442  1
  O  O42  1  0.733834  0.328180  0.880558  1
  O  O43  1  0.207594  0.683042  0.366913  1
  O  O44  1  0.181390  0.014607  0.371096  1
  O  O45  1  0.696593  0.012257  0.876485  1
  O  O46  1  0.204432  0.318131  0.370844  1
  O  O47  1  0.732103  0.669519  0.883546  1
