# generated using pymatgen
data_Bi7(O2F3)3
_symmetry_space_group_name_H-M   'P 1'
_cell_length_a   20.27979846
_cell_length_b   20.27979846
_cell_length_c   11.78279844
_cell_angle_alpha   90.00000000
_cell_angle_beta   90.00000000
_cell_angle_gamma   163.67078900
_symmetry_Int_Tables_number   1
_chemical_formula_structural   Bi7(O2F3)3
_chemical_formula_sum   'Bi28 O24 F36'
_cell_volume   1362.45788518
_cell_formula_units_Z   4
loop_
 _symmetry_equiv_pos_site_id
 _symmetry_equiv_pos_as_xyz
  1  'x, y, z'
loop_
 _atom_site_type_symbol
 _atom_site_label
 _atom_site_symmetry_multiplicity
 _atom_site_fract_x
 _atom_site_fract_y
 _atom_site_fract_z
 _atom_site_occupancy
  Bi  Bi0  1  0.704354  0.774784  0.892655  1
  Bi  Bi1  1  0.273893  0.203127  0.893202  1
  Bi  Bi2  1  0.386318  0.031003  0.897334  1
  Bi  Bi3  1  0.562953  0.916664  0.892025  1
  Bi  Bi4  1  0.053617  0.554476  0.886339  1
  Bi  Bi5  1  0.178569  0.391847  0.898212  1
  Bi  Bi6  1  0.884592  0.671652  0.896574  1
  Bi  Bi7  1  0.391847  0.178569  0.101788  1
  Bi  Bi8  1  0.671652  0.884592  0.103426  1
  Bi  Bi9  1  0.554476  0.053617  0.113661  1
  Bi  Bi10  1  0.031003  0.386318  0.102666  1
  Bi  Bi11  1  0.916664  0.562953  0.107975  1
  Bi  Bi12  1  0.774784  0.704354  0.107345  1
  Bi  Bi13  1  0.203127  0.273893  0.106798  1
  Bi  Bi14  1  0.703127  0.773893  0.393202  1
  Bi  Bi15  1  0.274784  0.204354  0.392655  1
  Bi  Bi16  1  0.416664  0.062953  0.392025  1
  Bi  Bi17  1  0.531003  0.886318  0.397334  1
  Bi  Bi18  1  0.054476  0.553617  0.386339  1
  Bi  Bi19  1  0.891847  0.678569  0.398212  1
  Bi  Bi20  1  0.171652  0.384592  0.396574  1
  Bi  Bi21  1  0.384592  0.171652  0.603426  1
  Bi  Bi22  1  0.678569  0.891847  0.601788  1
  Bi  Bi23  1  0.553617  0.054476  0.613661  1
  Bi  Bi24  1  0.062953  0.416664  0.607975  1
  Bi  Bi25  1  0.886318  0.531003  0.602666  1
  Bi  Bi26  1  0.204354  0.274784  0.607345  1
  Bi  Bi27  1  0.773893  0.703127  0.606798  1
  O  O28  1  0.800348  0.232237  0.988992  1
  O  O29  1  0.947159  0.092199  0.995670  1
  O  O30  1  0.592127  0.448069  0.994145  1
  O  O31  1  0.851334  0.138660  0.988823  1
  O  O32  1  0.643214  0.352541  0.994017  1
  O  O33  1  0.491686  0.491686  0.000000  1
  O  O34  1  0.991061  0.991061  0.000000  1
  O  O35  1  0.352541  0.643214  0.005983  1
  O  O36  1  0.138660  0.851334  0.011177  1
  O  O37  1  0.092199  0.947159  0.004330  1
  O  O38  1  0.448069  0.592127  0.005855  1
  O  O39  1  0.232237  0.800348  0.011008  1
  O  O40  1  0.732237  0.300348  0.488992  1
  O  O41  1  0.948069  0.092127  0.494145  1
  O  O42  1  0.592199  0.447159  0.495670  1
  O  O43  1  0.852541  0.143214  0.494017  1
  O  O44  1  0.638660  0.351334  0.488823  1
  O  O45  1  0.491061  0.491061  0.500000  1
  O  O46  1  0.991686  0.991686  0.500000  1
  O  O47  1  0.351334  0.638660  0.511177  1
  O  O48  1  0.143214  0.852541  0.505983  1
  O  O49  1  0.447159  0.592199  0.504330  1
  O  O50  1  0.092127  0.948069  0.505855  1
  O  O51  1  0.300348  0.732237  0.511008  1
  F  F52  1  0.064604  0.064807  0.750446  1
  F  F53  1  0.564604  0.564807  0.749554  1
  F  F54  1  0.364758  0.493373  0.773184  1
  F  F55  1  0.988566  0.859876  0.772294  1
  F  F56  1  0.507879  0.768203  0.786946  1
  F  F57  1  0.246110  0.987018  0.791407  1
  F  F58  1  0.173375  0.560055  0.810429  1
  F  F59  1  0.041115  0.654862  0.807158  1
  F  F60  1  0.425442  0.924426  0.811232  1
  F  F61  1  0.732476  0.302694  0.982770  1
  F  F62  1  0.302694  0.732476  0.017230  1
  F  F63  1  0.924426  0.425442  0.188768  1
  F  F64  1  0.654862  0.041115  0.192842  1
  F  F65  1  0.560055  0.173375  0.189571  1
  F  F66  1  0.987018  0.246110  0.208593  1
  F  F67  1  0.768203  0.507879  0.213054  1
  F  F68  1  0.859876  0.988566  0.227706  1
  F  F69  1  0.493373  0.364758  0.226816  1
  F  F70  1  0.064807  0.064604  0.249554  1
  F  F71  1  0.564807  0.564604  0.250446  1
  F  F72  1  0.993373  0.864758  0.273184  1
  F  F73  1  0.359876  0.488566  0.272294  1
  F  F74  1  0.487018  0.746110  0.291407  1
  F  F75  1  0.268203  0.007879  0.286946  1
  F  F76  1  0.060055  0.673375  0.310429  1
  F  F77  1  0.154862  0.541115  0.307158  1
  F  F78  1  0.424426  0.925442  0.311232  1
  F  F79  1  0.802694  0.232476  0.482770  1
  F  F80  1  0.232476  0.802694  0.517230  1
  F  F81  1  0.925442  0.424426  0.688768  1
  F  F82  1  0.541115  0.154862  0.692842  1
  F  F83  1  0.673375  0.060055  0.689571  1
  F  F84  1  0.007879  0.268203  0.713054  1
  F  F85  1  0.746110  0.487018  0.708593  1
  F  F86  1  0.488566  0.359876  0.727706  1
  F  F87  1  0.864758  0.993373  0.726816  1
