# generated using pymatgen
data_Li2Cu2F7
_symmetry_space_group_name_H-M   'P 1'
_cell_length_a   5.90006211
_cell_length_b   7.02866279
_cell_length_c   13.03595161
_cell_angle_alpha   90.00000000
_cell_angle_beta   90.00000000
_cell_angle_gamma   90.00000000
_symmetry_Int_Tables_number   1
_chemical_formula_structural   Li2Cu2F7
_chemical_formula_sum   'Li8 Cu8 F28'
_cell_volume   540.59500794
_cell_formula_units_Z   4
loop_
 _symmetry_equiv_pos_site_id
 _symmetry_equiv_pos_as_xyz
  1  'x, y, z'
loop_
 _atom_site_type_symbol
 _atom_site_label
 _atom_site_symmetry_multiplicity
 _atom_site_fract_x
 _atom_site_fract_y
 _atom_site_fract_z
 _atom_site_occupancy
  Li  Li0  1  0.408270  0.256846  0.048296  1
  Li  Li1  1  0.336295  0.753952  0.188131  1
  Li  Li2  1  0.836295  0.253952  0.311869  1
  Li  Li3  1  0.908270  0.756846  0.451704  1
  Li  Li4  1  0.091730  0.256846  0.548296  1
  Li  Li5  1  0.163705  0.753952  0.688131  1
  Li  Li6  1  0.663705  0.253952  0.811869  1
  Li  Li7  1  0.591730  0.756846  0.951704  1
  Cu  Cu8  1  0.851671  0.522636  0.103252  1
  Cu  Cu9  1  0.869800  0.995845  0.104558  1
  Cu  Cu10  1  0.369800  0.495845  0.395442  1
  Cu  Cu11  1  0.351671  0.022636  0.396748  1
  Cu  Cu12  1  0.648329  0.522636  0.603252  1
  Cu  Cu13  1  0.630200  0.995845  0.604558  1
  Cu  Cu14  1  0.130200  0.495845  0.895442  1
  Cu  Cu15  1  0.148329  0.022636  0.896748  1
  F  F16  1  0.183004  0.449545  0.036153  1
  F  F17  1  0.204131  0.053494  0.040581  1
  F  F18  1  0.595146  0.723515  0.101866  1
  F  F19  1  0.720015  0.249590  0.093825  1
  F  F20  1  0.031938  0.758225  0.120185  1
  F  F21  1  0.914197  0.474572  0.238355  1
  F  F22  1  0.906222  0.029873  0.240563  1
  F  F23  1  0.406222  0.529873  0.259437  1
  F  F24  1  0.414197  0.974572  0.261645  1
  F  F25  1  0.531938  0.258225  0.379815  1
  F  F26  1  0.220015  0.749590  0.406175  1
  F  F27  1  0.095146  0.223515  0.398134  1
  F  F28  1  0.704131  0.553494  0.459419  1
  F  F29  1  0.683004  0.949545  0.463847  1
  F  F30  1  0.316996  0.449545  0.536153  1
  F  F31  1  0.295869  0.053494  0.540581  1
  F  F32  1  0.904854  0.723515  0.601866  1
  F  F33  1  0.779985  0.249590  0.593825  1
  F  F34  1  0.468062  0.758225  0.620185  1
  F  F35  1  0.585803  0.474572  0.738355  1
  F  F36  1  0.593778  0.029873  0.740563  1
  F  F37  1  0.093778  0.529873  0.759437  1
  F  F38  1  0.085803  0.974572  0.761645  1
  F  F39  1  0.968062  0.258225  0.879815  1
  F  F40  1  0.279985  0.749590  0.906175  1
  F  F41  1  0.404854  0.223515  0.898134  1
  F  F42  1  0.795869  0.553494  0.959419  1
  F  F43  1  0.816996  0.949545  0.963847  1
