# generated using pymatgen
data_MnAlP2(HO)15
_symmetry_space_group_name_H-M   'P 1'
_cell_length_a   7.00475142
_cell_length_b   9.58281282
_cell_length_c   10.14644134
_cell_angle_alpha   99.28749950
_cell_angle_beta   109.02255592
_cell_angle_gamma   98.31778719
_symmetry_Int_Tables_number   1
_chemical_formula_structural   MnAlP2(HO)15
_chemical_formula_sum   'Mn2 Al2 P4 H30 O30'
_cell_volume   621.08180000
_cell_formula_units_Z   2
loop_
 _symmetry_equiv_pos_site_id
 _symmetry_equiv_pos_as_xyz
  1  'x, y, z'
loop_
 _atom_site_type_symbol
 _atom_site_label
 _atom_site_symmetry_multiplicity
 _atom_site_fract_x
 _atom_site_fract_y
 _atom_site_fract_z
 _atom_site_occupancy
  Mn  Mn0  1  0.322531  0.700973  0.049076  1
  Mn  Mn1  1  0.677469  0.299027  0.950924  1
  Al  Al2  1  0.500000  0.500000  0.500000  1
  Al  Al3  1  0.000000  0.500000  0.500000  1
  P  P4  1  0.737766  0.708551  0.354411  1
  P  P5  1  0.262234  0.291449  0.645589  1
  P  P6  1  0.900534  0.703621  0.748687  1
  P  P7  1  0.099466  0.296379  0.251313  1
  H  H8  1  0.903208  0.880478  0.542660  1
  H  H9  1  0.096792  0.119522  0.457340  1
  H  H10  1  0.686586  0.316180  0.443717  1
  H  H11  1  0.313414  0.683820  0.556283  1
  H  H12  1  0.987144  0.944741  0.800960  1
  H  H13  1  0.012856  0.055259  0.199040  1
  H  H14  1  0.211548  0.578234  0.245324  1
  H  H15  1  0.788452  0.421766  0.754676  1
  H  H16  1  0.268162  0.739540  0.306062  1
  H  H17  1  0.731838  0.260460  0.693938  1
  H  H18  1  0.269014  0.404702  0.916703  1
  H  H19  1  0.730986  0.595298  0.083297  1
  H  H20  1  0.151200  0.401256  0.027156  1
  H  H21  1  0.848800  0.598744  0.972844  1
  H  H22  1  0.505974  0.637525  0.844085  1
  H  H23  1  0.494026  0.362475  0.155915  1
  H  H24  1  0.287538  0.678298  0.777176  1
  H  H25  1  0.712462  0.321702  0.222824  1
  H  H26  1  0.457249  0.000292  0.215115  1
  H  H27  1  0.542751  0.999708  0.784885  1
  H  H28  1  0.331430  0.997778  0.051469  1
  H  H29  1  0.668570  0.002222  0.948531  1
  H  H30  1  0.762302  0.859299  0.130458  1
  H  H31  1  0.237698  0.140701  0.869542  1
  H  H32  1  0.891244  0.855591  0.028036  1
  H  H33  1  0.108756  0.144409  0.971965  1
  H  H34  1  0.483504  0.131911  0.446349  1
  H  H35  1  0.516496  0.868089  0.553651  1
  H  H36  1  0.681486  0.062326  0.459147  1
  H  H37  1  0.318514  0.937674  0.540853  1
  O  O38  1  0.642887  0.719117  0.197736  1
  O  O39  1  0.357113  0.280883  0.802264  1
  O  O40  1  0.900900  0.617006  0.371598  1
  O  O41  1  0.099100  0.382994  0.628402  1
  O  O42  1  0.577922  0.662946  0.422223  1
  O  O43  1  0.422078  0.337054  0.577777  1
  O  O44  1  0.683100  0.606245  0.691783  1
  O  O45  1  0.316900  0.393755  0.308217  1
  O  O46  1  0.033932  0.652776  0.663032  1
  O  O47  1  0.966068  0.347224  0.336968  1
  O  O48  1  0.004651  0.715120  0.910661  1
  O  O49  1  0.995349  0.284880  0.089339  1
  O  O50  1  0.850042  0.874284  0.438520  1
  O  O51  1  0.149958  0.125716  0.561480  1
  O  O52  1  0.722454  0.421396  0.479308  1
  O  O53  1  0.277546  0.578604  0.520692  1
  O  O54  1  0.877108  0.863430  0.725450  1
  O  O55  1  0.122892  0.136570  0.274550  1
  O  O56  1  0.193594  0.670013  0.215727  1
  O  O57  1  0.806406  0.329987  0.784273  1
  O  O58  1  0.260316  0.460854  0.004811  1
  O  O59  1  0.739684  0.539146  0.995189  1
  O  O60  1  0.414322  0.699445  0.864397  1
  O  O61  1  0.585678  0.300555  0.135603  1
  O  O62  1  0.389185  0.937184  0.118435  1
  O  O63  1  0.610815  0.062816  0.881565  1
  O  O64  1  0.834959  0.921822  0.083607  1
  O  O65  1  0.165041  0.078178  0.916393  1
  O  O66  1  0.579531  0.107161  0.398842  1
  O  O67  1  0.420469  0.892839  0.601158  1
