# generated using pymatgen
data_CoP6(WO8)3
_symmetry_space_group_name_H-M   'P 1'
_cell_length_a   8.94125580
_cell_length_b   8.94125580
_cell_length_c   8.94125580
_cell_angle_alpha   58.87544630
_cell_angle_beta   58.87544630
_cell_angle_gamma   58.87544630
_symmetry_Int_Tables_number   1
_chemical_formula_structural   CoP6(WO8)3
_chemical_formula_sum   'Co1 P6 W3 O24'
_cell_volume   492.47769005
_cell_formula_units_Z   1
loop_
 _symmetry_equiv_pos_site_id
 _symmetry_equiv_pos_as_xyz
  1  'x, y, z'
loop_
 _atom_site_type_symbol
 _atom_site_label
 _atom_site_symmetry_multiplicity
 _atom_site_fract_x
 _atom_site_fract_y
 _atom_site_fract_z
 _atom_site_occupancy
  Co  Co0  1  0.140530  0.140530  0.140530  1
  P  P1  1  0.248208  0.530916  0.965488  1
  P  P2  1  0.965488  0.248208  0.530916  1
  P  P3  1  0.530916  0.965488  0.248208  1
  P  P4  1  0.460296  0.037071  0.754541  1
  P  P5  1  0.037071  0.754541  0.460296  1
  P  P6  1  0.754541  0.460296  0.037071  1
  W  W7  1  0.857880  0.857880  0.857880  1
  W  W8  1  0.642543  0.642543  0.642543  1
  W  W9  1  0.357576  0.357576  0.357576  1
  O  O10  1  0.708747  0.508527  0.864615  1
  O  O11  1  0.508527  0.864615  0.708747  1
  O  O12  1  0.081551  0.715005  0.935761  1
  O  O13  1  0.864615  0.708747  0.508527  1
  O  O14  1  0.421901  0.573857  0.785695  1
  O  O15  1  0.230152  0.366094  0.982489  1
  O  O16  1  0.935761  0.081551  0.715005  1
  O  O17  1  0.785695  0.421901  0.573857  1
  O  O18  1  0.573857  0.785695  0.421901  1
  O  O19  1  0.635606  0.008124  0.778108  1
  O  O20  1  0.287800  0.052219  0.918521  1
  O  O21  1  0.008124  0.778108  0.635606  1
  O  O22  1  0.982489  0.230152  0.366094  1
  O  O23  1  0.715005  0.935761  0.081551  1
  O  O24  1  0.366094  0.982489  0.230152  1
  O  O25  1  0.443276  0.209326  0.574926  1
  O  O26  1  0.209326  0.574926  0.443276  1
  O  O27  1  0.052219  0.918521  0.287800  1
  O  O28  1  0.778108  0.635606  0.008124  1
  O  O29  1  0.574926  0.443276  0.209326  1
  O  O30  1  0.131418  0.281936  0.509298  1
  O  O31  1  0.918521  0.287800  0.052219  1
  O  O32  1  0.509298  0.131418  0.281936  1
  O  O33  1  0.281936  0.509298  0.131418  1
