# generated using pymatgen
data_Li2MgCr3Se3(SO8)3
_symmetry_space_group_name_H-M   'P 1'
_cell_length_a   8.54089856
_cell_length_b   8.56344350
_cell_length_c   9.08139743
_cell_angle_alpha   63.61232271
_cell_angle_beta   62.64458588
_cell_angle_gamma   60.82664103
_symmetry_Int_Tables_number   1
_chemical_formula_structural   Li2MgCr3Se3(SO8)3
_chemical_formula_sum   'Li2 Mg1 Cr3 Se3 S3 O24'
_cell_volume   493.84817642
_cell_formula_units_Z   1
loop_
 _symmetry_equiv_pos_site_id
 _symmetry_equiv_pos_as_xyz
  1  'x, y, z'
loop_
 _atom_site_type_symbol
 _atom_site_label
 _atom_site_symmetry_multiplicity
 _atom_site_fract_x
 _atom_site_fract_y
 _atom_site_fract_z
 _atom_site_occupancy
  Li  Li0  1  0.769218  0.169637  0.634056  1
  Li  Li1  1  0.422054  0.760730  0.624058  1
  Mg  Mg2  1  0.167320  0.152510  0.541110  1
  Cr  Cr3  1  0.845255  0.849344  0.452319  1
  Cr  Cr4  1  0.644692  0.654137  0.068680  1
  Cr  Cr5  1  0.351855  0.351813  0.931863  1
  Se  Se6  1  0.945681  0.254893  0.252338  1
  Se  Se7  1  0.757768  0.458539  0.751653  1
  Se  Se8  1  0.256354  0.544644  0.246279  1
  S  S9  1  0.470235  0.030964  0.750320  1
  S  S10  1  0.546641  0.954034  0.253968  1
  S  S11  1  0.030172  0.756674  0.743464  1
  O  O12  1  0.977199  0.032049  0.293533  1
  O  O13  1  0.960098  0.275140  0.421452  1
  O  O14  1  0.980033  0.321410  0.704811  1
  O  O15  1  0.659274  0.024466  0.608004  1
  O  O16  1  0.508054  0.101779  0.099722  1
  O  O17  1  0.728642  0.402210  0.242223  1
  O  O18  1  0.352195  0.996713  0.697246  1
  O  O19  1  0.620109  0.365086  0.758182  1
  O  O20  1  0.688680  0.484663  0.944568  1
  O  O21  1  0.894802  0.701726  0.914261  1
  O  O22  1  0.383168  0.219792  0.769708  1
  O  O23  1  0.700110  0.670193  0.602378  1
  O  O24  1  0.302315  0.338303  0.391432  1
  O  O25  1  0.636085  0.765364  0.226392  1
  O  O26  1  0.105720  0.302738  0.066755  1
  O  O27  1  0.301243  0.531155  0.052631  1
  O  O28  1  0.385234  0.655244  0.226941  1
  O  O29  1  0.679604  0.977907  0.299174  1
  O  O30  1  0.226361  0.643814  0.747991  1
  O  O31  1  0.503467  0.888738  0.911652  1
  O  O32  1  0.368988  0.955949  0.405373  1
  O  O33  1  0.026924  0.680183  0.300350  1
  O  O34  1  0.007499  0.719946  0.608420  1
  O  O35  1  0.999251  0.958213  0.697493  1
