# generated using pymatgen
data_Na7Co3O8
_symmetry_space_group_name_H-M   'P 1'
_cell_length_a   5.51780772
_cell_length_b   8.24105411
_cell_length_c   10.46683014
_cell_angle_alpha   89.62461263
_cell_angle_beta   89.42248460
_cell_angle_gamma   88.88947769
_symmetry_Int_Tables_number   1
_chemical_formula_structural   Na7Co3O8
_chemical_formula_sum   'Na14 Co6 O16'
_cell_volume   475.83028927
_cell_formula_units_Z   2
loop_
 _symmetry_equiv_pos_site_id
 _symmetry_equiv_pos_as_xyz
  1  'x, y, z'
loop_
 _atom_site_type_symbol
 _atom_site_label
 _atom_site_symmetry_multiplicity
 _atom_site_fract_x
 _atom_site_fract_y
 _atom_site_fract_z
 _atom_site_occupancy
  Na  Na0  1  0.277754  0.349999  0.020286  1
  Na  Na1  1  0.476094  0.877265  0.126256  1
  Na  Na2  1  0.141419  0.621535  0.174444  1
  Na  Na3  1  0.713652  0.385048  0.240696  1
  Na  Na4  1  0.283855  0.114077  0.276446  1
  Na  Na5  1  0.479988  0.632631  0.379270  1
  Na  Na6  1  0.743175  0.117491  0.473004  1
  Na  Na7  1  0.256825  0.882509  0.526996  1
  Na  Na8  1  0.520012  0.367369  0.620730  1
  Na  Na9  1  0.716145  0.885923  0.723554  1
  Na  Na10  1  0.286348  0.614952  0.759304  1
  Na  Na11  1  0.858581  0.378465  0.825556  1
  Na  Na12  1  0.523906  0.122735  0.873744  1
  Na  Na13  1  0.722246  0.650001  0.979714  1
  Co  Co14  1  0.863753  0.108606  0.078718  1
  Co  Co15  1  0.881838  0.839051  0.303561  1
  Co  Co16  1  0.136349  0.378354  0.437479  1
  Co  Co17  1  0.863651  0.621646  0.562521  1
  Co  Co18  1  0.118162  0.160949  0.696439  1
  Co  Co19  1  0.136247  0.891394  0.921282  1
  O  O20  1  0.760175  0.308830  0.026128  1
  O  O21  1  0.205712  0.069231  0.039183  1
  O  O22  1  0.738505  0.684263  0.208990  1
  O  O23  1  0.260503  0.396697  0.277302  1
  O  O24  1  0.756825  0.059132  0.244704  1
  O  O25  1  0.205488  0.844182  0.307741  1
  O  O26  1  0.795505  0.428218  0.459791  1
  O  O27  1  0.766076  0.819331  0.486046  1
  O  O28  1  0.233924  0.180669  0.513954  1
  O  O29  1  0.204495  0.571782  0.540209  1
  O  O30  1  0.794512  0.155818  0.692259  1
  O  O31  1  0.243175  0.940868  0.755296  1
  O  O32  1  0.739497  0.603303  0.722698  1
  O  O33  1  0.261495  0.315737  0.791010  1
  O  O34  1  0.794288  0.930769  0.960817  1
  O  O35  1  0.239825  0.691170  0.973872  1
