# generated using pymatgen
data_Mn2OF3
_symmetry_space_group_name_H-M   'P 1'
_cell_length_a   4.89243182
_cell_length_b   4.89243182
_cell_length_c   12.64426184
_cell_angle_alpha   90.00000000
_cell_angle_beta   90.00000000
_cell_angle_gamma   93.28941584
_symmetry_Int_Tables_number   1
_chemical_formula_structural   Mn2OF3
_chemical_formula_sum   'Mn8 O4 F12'
_cell_volume   302.15301019
_cell_formula_units_Z   4
loop_
 _symmetry_equiv_pos_site_id
 _symmetry_equiv_pos_as_xyz
  1  'x, y, z'
loop_
 _atom_site_type_symbol
 _atom_site_label
 _atom_site_symmetry_multiplicity
 _atom_site_fract_x
 _atom_site_fract_y
 _atom_site_fract_z
 _atom_site_occupancy
  Mn  Mn0  1  0.968897  0.968897  0.625174  1
  Mn  Mn1  1  0.968897  0.968897  0.874826  1
  Mn  Mn2  1  0.031103  0.031103  0.125174  1
  Mn  Mn3  1  0.031103  0.031103  0.374826  1
  Mn  Mn4  1  0.500691  0.500691  0.250000  1
  Mn  Mn5  1  0.499309  0.499309  0.750000  1
  Mn  Mn6  1  0.500000  0.500000  0.000000  1
  Mn  Mn7  1  0.500000  0.500000  0.500000  1
  O  O8  1  0.327820  0.327820  0.125068  1
  O  O9  1  0.327820  0.327820  0.374932  1
  O  O10  1  0.672180  0.672180  0.625068  1
  O  O11  1  0.672180  0.672180  0.874933  1
  F  F12  1  0.786212  0.176071  0.750000  1
  F  F13  1  0.799225  0.200775  0.000000  1
  F  F14  1  0.823929  0.213788  0.250000  1
  F  F15  1  0.799225  0.200775  0.500000  1
  F  F16  1  0.287970  0.287970  0.630778  1
  F  F17  1  0.287970  0.287970  0.869222  1
  F  F18  1  0.712030  0.712030  0.130778  1
  F  F19  1  0.712030  0.712030  0.369222  1
  F  F20  1  0.176071  0.786212  0.750000  1
  F  F21  1  0.200775  0.799225  0.000000  1
  F  F22  1  0.213788  0.823929  0.250000  1
  F  F23  1  0.200775  0.799225  0.500000  1
