# generated using pymatgen
data_Na2FeO3
_symmetry_space_group_name_H-M   'P 1'
_cell_length_a   10.16252887
_cell_length_b   9.59523418
_cell_length_c   5.65319710
_cell_angle_alpha   78.97322035
_cell_angle_beta   67.93317153
_cell_angle_gamma   33.09360811
_symmetry_Int_Tables_number   1
_chemical_formula_structural   Na2FeO3
_chemical_formula_sum   'Na8 Fe4 O12'
_cell_volume   270.50845196
_cell_formula_units_Z   4
loop_
 _symmetry_equiv_pos_site_id
 _symmetry_equiv_pos_as_xyz
  1  'x, y, z'
loop_
 _atom_site_type_symbol
 _atom_site_label
 _atom_site_symmetry_multiplicity
 _atom_site_fract_x
 _atom_site_fract_y
 _atom_site_fract_z
 _atom_site_occupancy
  Na  Na0  1  0.991396  0.999872  0.508828  1
  Na  Na1  1  0.419138  0.425706  0.581895  1
  Na  Na2  1  0.824294  0.830862  0.676740  1
  Na  Na3  1  0.250128  0.258604  0.750096  1
  Na  Na4  1  0.741172  0.750096  0.258604  1
  Na  Na5  1  0.668105  0.676740  0.830862  1
  Na  Na6  1  0.573260  0.581895  0.425706  1
  Na  Na7  1  0.499904  0.508828  0.999872  1
  Fe  Fe8  1  0.909458  0.922475  0.087593  1
  Fe  Fe9  1  0.327525  0.340542  0.169526  1
  Fe  Fe10  1  0.162407  0.169526  0.340542  1
  Fe  Fe11  1  0.080474  0.087593  0.922475  1
  O  O12  1  0.634108  0.178475  0.890803  1
  O  O13  1  0.174638  0.638451  0.306389  1
  O  O14  1  0.611549  0.075362  0.369479  1
  O  O15  1  0.071525  0.615892  0.953385  1
  O  O16  1  0.435468  0.064532  0.064532  1
  O  O17  1  0.052766  0.447234  0.447234  1
  O  O18  1  0.943611  0.369479  0.075362  1
  O  O19  1  0.359197  0.953385  0.615892  1
  O  O20  1  0.296615  0.890803  0.178475  1
  O  O21  1  0.880521  0.306389  0.638451  1
  O  O22  1  0.802766  0.197234  0.197234  1
  O  O23  1  0.185468  0.814532  0.814532  1
