# generated using pymatgen
data_K4Mo3H4O17
_symmetry_space_group_name_H-M   'P 1'
_cell_length_a   8.61007713
_cell_length_b   8.65902886
_cell_length_c   12.47728116
_cell_angle_alpha   103.22016691
_cell_angle_beta   104.41400880
_cell_angle_gamma   103.78991659
_symmetry_Int_Tables_number   1
_chemical_formula_structural   K4Mo3H4O17
_chemical_formula_sum   'K8 Mo6 H8 O34'
_cell_volume   832.95886348
_cell_formula_units_Z   2
loop_
 _symmetry_equiv_pos_site_id
 _symmetry_equiv_pos_as_xyz
  1  'x, y, z'
loop_
 _atom_site_type_symbol
 _atom_site_label
 _atom_site_symmetry_multiplicity
 _atom_site_fract_x
 _atom_site_fract_y
 _atom_site_fract_z
 _atom_site_occupancy
  K  K0  1  0.434046  0.696183  0.575690  1
  K  K1  1  0.565954  0.303817  0.424310  1
  K  K2  1  0.765431  0.442728  0.038752  1
  K  K3  1  0.234569  0.557272  0.961248  1
  K  K4  1  0.157936  0.025311  0.916172  1
  K  K5  1  0.842064  0.974689  0.083828  1
  K  K6  1  0.926527  0.764999  0.521288  1
  K  K7  1  0.073473  0.235001  0.478712  1
  Mo  Mo8  1  0.771257  0.584511  0.774334  1
  Mo  Mo9  1  0.228743  0.415489  0.225666  1
  Mo  Mo10  1  0.799378  0.141967  0.738563  1
  Mo  Mo11  1  0.200622  0.858033  0.261437  1
  Mo  Mo12  1  0.413441  0.189543  0.727917  1
  Mo  Mo13  1  0.586559  0.810457  0.272083  1
  H  H14  1  0.202663  0.673580  0.705882  1
  H  H15  1  0.797337  0.326420  0.294118  1
  H  H16  1  0.039753  0.524808  0.645955  1
  H  H17  1  0.960247  0.475192  0.354045  1
  H  H18  1  0.501984  0.766951  0.833933  1
  H  H19  1  0.498016  0.233049  0.166067  1
  H  H20  1  0.411629  0.844644  0.914364  1
  H  H21  1  0.588371  0.155356  0.085636  1
  O  O22  1  0.825277  0.156862  0.906785  1
  O  O23  1  0.174723  0.843138  0.093215  1
  O  O24  1  0.979689  0.255108  0.892353  1
  O  O25  1  0.020311  0.744892  0.107647  1
  O  O26  1  0.935495  0.288658  0.670748  1
  O  O27  1  0.064505  0.711342  0.329252  1
  O  O28  1  0.764450  0.194145  0.588517  1
  O  O29  1  0.235550  0.805855  0.411483  1
  O  O30  1  0.469502  0.192216  0.897255  1
  O  O31  1  0.530498  0.807784  0.102745  1
  O  O32  1  0.403918  0.329087  0.874944  1
  O  O33  1  0.596082  0.670913  0.125056  1
  O  O34  1  0.374320  0.369238  0.660982  1
  O  O35  1  0.625680  0.630762  0.339018  1
  O  O36  1  0.416003  0.242841  0.581429  1
  O  O37  1  0.583997  0.757159  0.418571  1
  O  O38  1  0.702751  0.373383  0.793030  1
  O  O39  1  0.297249  0.626617  0.206970  1
  O  O40  1  0.553579  0.046830  0.699228  1
  O  O41  1  0.446421  0.953170  0.300772  1
  O  O42  1  0.851241  0.959407  0.701270  1
  O  O43  1  0.148759  0.040593  0.298730  1
  O  O44  1  0.212513  0.044254  0.675648  1
  O  O45  1  0.787487  0.955746  0.324352  1
  O  O46  1  0.679009  0.719241  0.851364  1
  O  O47  1  0.320991  0.280759  0.148636  1
  O  O48  1  0.994734  0.669967  0.834226  1
  O  O49  1  0.005266  0.330033  0.165774  1
  O  O50  1  0.711655  0.572987  0.624907  1
  O  O51  1  0.288345  0.427013  0.375093  1
  O  O52  1  0.126736  0.600674  0.627929  1
  O  O53  1  0.873264  0.399326  0.372071  1
  O  O54  1  0.392021  0.789630  0.832975  1
  O  O55  1  0.607979  0.210370  0.167025  1
