# generated using pymatgen
data_Li3Mn4(PO4)6
_symmetry_space_group_name_H-M   'P 1'
_cell_length_a   8.47305661
_cell_length_b   8.51115330
_cell_length_c   8.60378355
_cell_angle_alpha   89.72216490
_cell_angle_beta   119.09949489
_cell_angle_gamma   119.60909613
_symmetry_Int_Tables_number   1
_chemical_formula_structural   Li3Mn4(PO4)6
_chemical_formula_sum   'Li3 Mn4 P6 O24'
_cell_volume   448.14541059
_cell_formula_units_Z   1
loop_
 _symmetry_equiv_pos_site_id
 _symmetry_equiv_pos_as_xyz
  1  'x, y, z'
loop_
 _atom_site_type_symbol
 _atom_site_label
 _atom_site_symmetry_multiplicity
 _atom_site_fract_x
 _atom_site_fract_y
 _atom_site_fract_z
 _atom_site_occupancy
  Li  Li0  1  0.977704  0.630617  0.950064  1
  Li  Li1  1  0.413260  0.106751  0.661849  1
  Li  Li2  1  0.805265  0.968642  0.447077  1
  Mn  Mn3  1  0.290370  0.153694  0.933982  1
  Mn  Mn4  1  0.719919  0.355848  0.566511  1
  Mn  Mn5  1  0.278929  0.642152  0.426887  1
  Mn  Mn6  1  0.711539  0.849481  0.067593  1
  P  P7  1  0.508296  0.478351  0.758013  1
  P  P8  1  0.780588  0.035288  0.744709  1
  P  P9  1  0.225128  0.757036  0.751415  1
  P  P10  1  0.787913  0.251372  0.255836  1
  P  P11  1  0.198430  0.955114  0.245406  1
  P  P12  1  0.494695  0.527964  0.245002  1
  O  O13  1  0.189722  0.986569  0.063606  1
  O  O14  1  0.650997  0.486279  0.392664  1
  O  O15  1  0.773331  0.213877  0.746253  1
  O  O16  1  0.358453  0.278880  0.762613  1
  O  O17  1  0.028853  0.611669  0.753617  1
  O  O18  1  0.577640  0.872099  0.557240  1
  O  O19  1  0.674080  0.632799  0.951823  1
  O  O20  1  0.011004  0.943347  0.247236  1
  O  O21  1  0.271274  0.958904  0.787256  1
  O  O22  1  0.596576  0.257349  0.102082  1
  O  O23  1  0.344888  0.537680  0.289269  1
  O  O24  1  0.819507  0.271995  0.448735  1
  O  O25  1  0.192158  0.728964  0.555711  1
  O  O26  1  0.660335  0.463253  0.719491  1
  O  O27  1  0.973347  0.062258  0.737506  1
  O  O28  1  0.414128  0.748436  0.901649  1
  O  O29  1  0.401744  0.109719  0.426819  1
  O  O30  1  0.332911  0.372585  0.051251  1
  O  O31  1  0.173405  0.758868  0.232410  1
  O  O32  1  0.755563  0.056535  0.217340  1
  O  O33  1  0.646948  0.727910  0.241359  1
  O  O34  1  0.987813  0.410021  0.260696  1
  O  O35  1  0.350534  0.516324  0.606041  1
  O  O36  1  0.795358  0.993411  0.921960  1
