# generated using pymatgen
data_Li2FePO5
_symmetry_space_group_name_H-M   'P 1'
_cell_length_a   4.88632306
_cell_length_b   5.60831504
_cell_length_c   16.55680578
_cell_angle_alpha   90.00000000
_cell_angle_beta   106.67447357
_cell_angle_gamma   90.00000000
_symmetry_Int_Tables_number   1
_chemical_formula_structural   Li2FePO5
_chemical_formula_sum   'Li8 Fe4 P4 O20'
_cell_volume   434.64447857
_cell_formula_units_Z   4
loop_
 _symmetry_equiv_pos_site_id
 _symmetry_equiv_pos_as_xyz
  1  'x, y, z'
loop_
 _atom_site_type_symbol
 _atom_site_label
 _atom_site_symmetry_multiplicity
 _atom_site_fract_x
 _atom_site_fract_y
 _atom_site_fract_z
 _atom_site_occupancy
  Li  Li0  1  0.591940  0.577038  0.588930  1
  Li  Li1  1  0.910276  0.086712  0.906675  1
  Li  Li2  1  0.493292  0.092814  0.489934  1
  Li  Li3  1  0.193655  0.423932  0.693824  1
  Li  Li4  1  0.910276  0.913288  0.406675  1
  Li  Li5  1  0.591940  0.422962  0.088930  1
  Li  Li6  1  0.493292  0.907186  0.989934  1
  Li  Li7  1  0.193655  0.576068  0.193824  1
  Fe  Fe8  1  0.708055  0.081495  0.702308  1
  Fe  Fe9  1  0.810009  0.584344  0.802919  1
  Fe  Fe10  1  0.708055  0.918505  0.202308  1
  Fe  Fe11  1  0.810009  0.415656  0.302919  1
  P  P12  1  0.111430  0.084763  0.098450  1
  P  P13  1  0.408576  0.590101  0.403707  1
  P  P14  1  0.111430  0.915237  0.598450  1
  P  P15  1  0.408576  0.409899  0.903707  1
  O  O16  1  0.291383  0.923807  0.174681  1
  O  O17  1  0.438240  0.479781  0.317636  1
  O  O18  1  0.871027  0.911192  0.800102  1
  O  O19  1  0.792889  0.411382  0.701513  1
  O  O20  1  0.519949  0.845652  0.412202  1
  O  O21  1  0.218498  0.341203  0.111279  1
  O  O22  1  0.125594  0.971884  0.015818  1
  O  O23  1  0.554776  0.430690  0.478486  1
  O  O24  1  0.790743  0.928855  0.604908  1
  O  O25  1  0.074305  0.408880  0.890413  1
  O  O26  1  0.291383  0.076193  0.674681  1
  O  O27  1  0.438240  0.520219  0.817636  1
  O  O28  1  0.871027  0.088808  0.300102  1
  O  O29  1  0.792889  0.588618  0.201513  1
  O  O30  1  0.218498  0.658797  0.611279  1
  O  O31  1  0.519949  0.154348  0.912202  1
  O  O32  1  0.125594  0.028116  0.515818  1
  O  O33  1  0.554776  0.569310  0.978486  1
  O  O34  1  0.790743  0.071145  0.104908  1
  O  O35  1  0.074305  0.591120  0.390413  1
