# generated using pymatgen
data_Ca8MgAl6Si5O28
_symmetry_space_group_name_H-M   'P 1'
_cell_length_a   8.51200427
_cell_length_b   9.05354721
_cell_length_c   9.38348597
_cell_angle_alpha   96.35256719
_cell_angle_beta   113.34386982
_cell_angle_gamma   102.42704338
_symmetry_Int_Tables_number   1
_chemical_formula_structural   Ca8MgAl6Si5O28
_chemical_formula_sum   'Ca8 Mg1 Al6 Si5 O28'
_cell_volume   632.71172998
_cell_formula_units_Z   1
loop_
 _symmetry_equiv_pos_site_id
 _symmetry_equiv_pos_as_xyz
  1  'x, y, z'
loop_
 _atom_site_type_symbol
 _atom_site_label
 _atom_site_symmetry_multiplicity
 _atom_site_fract_x
 _atom_site_fract_y
 _atom_site_fract_z
 _atom_site_occupancy
  Ca  Ca0  1  0.485832  0.176871  0.226314  1
  Ca  Ca1  1  0.682929  0.542519  0.890713  1
  Ca  Ca2  1  0.363972  0.176283  0.821325  1
  Ca  Ca3  1  0.187115  0.340449  0.374705  1
  Ca  Ca4  1  0.920218  0.239663  0.892944  1
  Ca  Ca5  1  0.829526  0.912004  0.208210  1
  Ca  Ca6  1  0.188676  0.655136  0.160236  1
  Ca  Ca7  1  0.983441  0.666285  0.702488  1
  Mg  Mg8  1  0.922835  0.250989  0.522956  1
  Al  Al9  1  0.692838  0.874283  0.824746  1
  Al  Al10  1  0.521448  0.503048  0.123114  1
  Al  Al11  1  0.099587  0.940878  0.014438  1
  Al  Al12  1  0.225210  0.458441  0.749200  1
  Al  Al13  1  0.325620  0.971542  0.416458  1
  Al  Al14  1  0.533307  0.583403  0.445309  1
  Si  Si15  1  0.722705  0.924207  0.520607  1
  Si  Si16  1  0.443395  0.811476  0.031573  1
  Si  Si17  1  0.367161  0.743650  0.607117  1
  Si  Si18  1  0.572963  0.292578  0.585388  1
  Si  Si19  1  0.827043  0.435926  0.197808  1
  O  O20  1  0.268160  0.884566  0.555807  1
  O  O21  1  0.728848  0.737340  0.505130  1
  O  O22  1  0.024068  0.432809  0.770034  1
  O  O23  1  0.574636  0.479439  0.602344  1
  O  O24  1  0.881647  0.786020  0.895191  1
  O  O25  1  0.414936  0.447261  0.909322  1
  O  O26  1  0.945791  0.445973  0.092892  1
  O  O27  1  0.220674  0.105957  0.977055  1
  O  O28  1  0.186948  0.290359  0.611144  1
  O  O29  1  0.328489  0.623744  0.430631  1
  O  O30  1  0.693627  0.260711  0.499129  1
  O  O31  1  0.620234  0.269083  0.765828  1
  O  O32  1  0.984008  0.085871  0.094958  1
  O  O33  1  0.785272  0.050602  0.996456  1
  O  O34  1  0.369986  0.177780  0.451070  1
  O  O35  1  0.767499  0.603198  0.193224  1
  O  O36  1  0.560169  0.978610  0.144107  1
  O  O37  1  0.860623  0.016570  0.457302  1
  O  O38  1  0.933429  0.387681  0.362674  1
  O  O39  1  0.224195  0.799602  0.948179  1
  O  O40  1  0.515193  0.922035  0.422744  1
  O  O41  1  0.165139  0.899734  0.216146  1
  O  O42  1  0.786696  0.994851  0.710921  1
  O  O43  1  0.449229  0.438449  0.269337  1
  O  O44  1  0.571020  0.773926  0.941376  1
  O  O45  1  0.237633  0.629393  0.669719  1
  O  O46  1  0.444097  0.674432  0.135775  1
  O  O47  1  0.619802  0.323712  0.102839  1
