# generated using pymatgen
data_Na2Li4Ni2C4SO16
_symmetry_space_group_name_H-M   'P 1'
_cell_length_a   9.75899499
_cell_length_b   9.55987567
_cell_length_c   9.53181421
_cell_angle_alpha   61.48265330
_cell_angle_beta   59.40027423
_cell_angle_gamma   59.11707247
_symmetry_Int_Tables_number   1
_chemical_formula_structural   Na2Li4Ni2C4SO16
_chemical_formula_sum   'Na4 Li8 Ni4 C8 S2 O32'
_cell_volume   628.15918613
_cell_formula_units_Z   2
loop_
 _symmetry_equiv_pos_site_id
 _symmetry_equiv_pos_as_xyz
  1  'x, y, z'
loop_
 _atom_site_type_symbol
 _atom_site_label
 _atom_site_symmetry_multiplicity
 _atom_site_fract_x
 _atom_site_fract_y
 _atom_site_fract_z
 _atom_site_occupancy
  Na  Na0  1  0.474150  0.474150  0.025850  1
  Na  Na1  1  0.224150  0.224150  0.775850  1
  Na  Na2  1  0.025850  0.025850  0.474150  1
  Na  Na3  1  0.775850  0.775850  0.224150  1
  Li  Li4  1  0.099154  0.636515  0.310893  1
  Li  Li5  1  0.296562  0.939107  0.613484  1
  Li  Li6  1  0.310893  0.953438  0.099154  1
  Li  Li7  1  0.613485  0.150846  0.296562  1
  Li  Li8  1  0.636515  0.099154  0.953438  1
  Li  Li9  1  0.939107  0.296562  0.150846  1
  Li  Li10  1  0.953438  0.310893  0.636515  1
  Li  Li11  1  0.150846  0.613485  0.939107  1
  Ni  Ni12  1  0.625000  0.625000  0.125000  1
  Ni  Ni13  1  0.625000  0.125000  0.625000  1
  Ni  Ni14  1  0.625000  0.625000  0.625000  1
  Ni  Ni15  1  0.125000  0.625000  0.625000  1
  C  C16  1  0.412407  0.404531  0.398895  1
  C  C17  1  0.465832  0.851105  0.845469  1
  C  C18  1  0.404531  0.412407  0.784168  1
  C  C19  1  0.398895  0.784168  0.412407  1
  C  C20  1  0.851105  0.465832  0.837593  1
  C  C21  1  0.845469  0.837593  0.465832  1
  C  C22  1  0.784168  0.398895  0.404531  1
  C  C23  1  0.837593  0.845469  0.851105  1
  S  S24  1  0.000000  1.000000  1.000000  1
  S  S25  1  0.250000  0.250000  0.250000  1
  O  O26  1  0.268666  0.529235  0.420056  1
  O  O27  1  0.467956  0.829944  0.720765  1
  O  O28  1  0.466563  0.731306  0.987773  1
  O  O29  1  0.435641  0.262227  0.518694  1
  O  O30  1  0.535806  0.415230  0.252086  1
  O  O31  1  0.809058  0.064305  0.065935  1
  O  O32  1  0.731306  0.466563  0.814359  1
  O  O33  1  0.453122  0.997914  0.834770  1
  O  O34  1  0.189298  0.184065  0.185695  1
  O  O35  1  0.262227  0.435641  0.783437  1
  O  O36  1  0.252086  0.796878  0.535806  1
  O  O37  1  0.834770  0.714194  0.453122  1
  O  O38  1  0.420056  0.782044  0.268666  1
  O  O39  1  0.720765  0.981334  0.467956  1
  O  O40  1  0.064305  0.809058  0.060702  1
  O  O41  1  0.065935  0.060702  0.809058  1
  O  O42  1  0.184065  0.189298  0.440942  1
  O  O43  1  0.185695  0.440942  0.189298  1
  O  O44  1  0.529235  0.268666  0.782044  1
  O  O45  1  0.829944  0.467956  0.981334  1
  O  O46  1  0.415230  0.535806  0.796878  1
  O  O47  1  0.997914  0.453122  0.714194  1
  O  O48  1  0.987773  0.814359  0.466563  1
  O  O49  1  0.060702  0.065935  0.064305  1
  O  O50  1  0.796878  0.252086  0.415230  1
  O  O51  1  0.518694  0.783437  0.435641  1
  O  O52  1  0.440942  0.185695  0.184065  1
  O  O53  1  0.714194  0.834770  0.997914  1
  O  O54  1  0.814359  0.987773  0.731306  1
  O  O55  1  0.783437  0.518694  0.262227  1
  O  O56  1  0.782044  0.420056  0.529235  1
  O  O57  1  0.981334  0.720765  0.829944  1
