# generated using pymatgen
data_Li5FeS4
_symmetry_space_group_name_H-M   'P 1'
_cell_length_a   7.70874739
_cell_length_b   7.70874739
_cell_length_c   7.70874739
_cell_angle_alpha   152.05326455
_cell_angle_beta   128.06889938
_cell_angle_gamma   60.00051068
_symmetry_Int_Tables_number   1
_chemical_formula_structural   Li5FeS4
_chemical_formula_sum   'Li5 Fe1 S4'
_cell_volume   167.76904727
_cell_formula_units_Z   1
loop_
 _symmetry_equiv_pos_site_id
 _symmetry_equiv_pos_as_xyz
  1  'x, y, z'
loop_
 _atom_site_type_symbol
 _atom_site_label
 _atom_site_symmetry_multiplicity
 _atom_site_fract_x
 _atom_site_fract_y
 _atom_site_fract_z
 _atom_site_occupancy
  Li  Li0  1  0.958110  0.176503  0.781606  1
  Li  Li1  1  0.394897  0.176503  0.218394  1
  Li  Li2  1  0.605265  0.820584  0.784681  1
  Li  Li3  1  0.035903  0.820584  0.215319  1
  Li  Li4  1  0.496132  0.496132  0.000000  1
  Fe  Fe5  1  0.995393  0.495393  0.500000  1
  S  S6  1  0.247094  0.999972  0.247122  1
  S  S7  1  0.202836  0.702836  0.500000  1
  S  S8  1  0.797441  0.297441  0.500000  1
  S  S9  1  0.752850  0.999972  0.752878  1
