# generated using pymatgen
data_LiVPO4
_symmetry_space_group_name_H-M   'P 1'
_cell_length_a   5.55230687
_cell_length_b   6.47122966
_cell_length_c   9.47707238
_cell_angle_alpha   73.08920881
_cell_angle_beta   79.00308427
_cell_angle_gamma   76.27265004
_symmetry_Int_Tables_number   1
_chemical_formula_structural   LiVPO4
_chemical_formula_sum   'Li4 V4 P4 O16'
_cell_volume   313.75736856
_cell_formula_units_Z   4
loop_
 _symmetry_equiv_pos_site_id
 _symmetry_equiv_pos_as_xyz
  1  'x, y, z'
loop_
 _atom_site_type_symbol
 _atom_site_label
 _atom_site_symmetry_multiplicity
 _atom_site_fract_x
 _atom_site_fract_y
 _atom_site_fract_z
 _atom_site_occupancy
  Li  Li0  1  0.682955  0.358667  0.889713  1
  Li  Li1  1  0.190963  0.479184  0.750179  1
  Li  Li2  1  0.809037  0.520816  0.249821  1
  Li  Li3  1  0.317045  0.641333  0.110287  1
  V  V4  1  0.287569  0.948628  0.786510  1
  V  V5  1  0.774423  0.167912  0.583281  1
  V  V6  1  0.225577  0.832088  0.416719  1
  V  V7  1  0.712431  0.051372  0.213490  1
  P  P8  1  0.814559  0.816817  0.921830  1
  P  P9  1  0.677775  0.694825  0.549195  1
  P  P10  1  0.322225  0.305175  0.450805  1
  P  P11  1  0.185441  0.183183  0.078170  1
  O  O12  1  0.604934  0.716678  0.892154  1
  O  O13  1  0.082164  0.684566  0.885666  1
  O  O14  1  0.228826  0.183402  0.912291  1
  O  O15  1  0.814240  0.057369  0.820320  1
  O  O16  1  0.854554  0.846011  0.551937  1
  O  O17  1  0.401588  0.759694  0.621763  1
  O  O18  1  0.788638  0.460905  0.632761  1
  O  O19  1  0.354799  0.272711  0.617973  1
  O  O20  1  0.645201  0.727289  0.382027  1
  O  O21  1  0.211362  0.539095  0.367239  1
  O  O22  1  0.598412  0.240306  0.378237  1
  O  O23  1  0.145446  0.153989  0.448063  1
  O  O24  1  0.185760  0.942631  0.179680  1
  O  O25  1  0.771174  0.816598  0.087709  1
  O  O26  1  0.917836  0.315434  0.114334  1
  O  O27  1  0.395066  0.283322  0.107846  1
