# generated using pymatgen
data_Li7W5O16
_symmetry_space_group_name_H-M   'P 1'
_cell_length_a   6.04448680
_cell_length_b   6.05342957
_cell_length_c   9.92142411
_cell_angle_alpha   90.16178368
_cell_angle_beta   90.03300716
_cell_angle_gamma   119.47966741
_symmetry_Int_Tables_number   1
_chemical_formula_structural   Li7W5O16
_chemical_formula_sum   'Li7 W5 O16'
_cell_volume   316.02107021
_cell_formula_units_Z   1
loop_
 _symmetry_equiv_pos_site_id
 _symmetry_equiv_pos_as_xyz
  1  'x, y, z'
loop_
 _atom_site_type_symbol
 _atom_site_label
 _atom_site_symmetry_multiplicity
 _atom_site_fract_x
 _atom_site_fract_y
 _atom_site_fract_z
 _atom_site_occupancy
  Li  Li0  1  0.174261  0.340979  0.212736  1
  Li  Li1  1  0.322470  0.669640  0.912757  1
  Li  Li2  1  0.998638  0.007140  0.997389  1
  Li  Li3  1  0.980057  0.013221  0.479103  1
  Li  Li4  1  0.659813  0.827462  0.211921  1
  Li  Li5  1  0.832834  0.161147  0.714999  1
  Li  Li6  1  0.670321  0.331961  0.400593  1
  W  W7  1  0.355704  0.659473  0.475137  1
  W  W8  1  0.174230  0.827434  0.221797  1
  W  W9  1  0.672473  0.334082  0.993920  1
  W  W10  1  0.338723  0.163980  0.712058  1
  W  W11  1  0.825569  0.654142  0.712106  1
  O  O12  1  0.202687  0.336858  0.601473  1
  O  O13  1  0.480095  0.513731  0.359102  1
  O  O14  1  0.317594  0.681157  0.109078  1
  O  O15  1  0.006658  0.996562  0.292292  1
  O  O16  1  0.002533  0.995677  0.810927  1
  O  O17  1  0.674686  0.823001  0.591330  1
  O  O18  1  0.035273  0.537780  0.355161  1
  O  O19  1  0.469538  0.967577  0.353040  1
  O  O20  1  0.821761  0.171839  0.071845  1
  O  O21  1  0.181792  0.836186  0.599146  1
  O  O22  1  0.499730  0.047185  0.843574  1
  O  O23  1  0.946818  0.488832  0.851254  1
  O  O24  1  0.666552  0.325394  0.603415  1
  O  O25  1  0.352680  0.164069  0.085585  1
  O  O26  1  0.504442  0.476107  0.847340  1
  O  O27  1  0.831768  0.647082  0.088759  1
