# generated using pymatgen
data_Sb9PO25
_symmetry_space_group_name_H-M   'P 1'
_cell_length_a   11.11361892
_cell_length_b   11.11361892
_cell_length_c   11.11361892
_cell_angle_alpha   91.81985405
_cell_angle_beta   91.81985405
_cell_angle_gamma   159.46952584
_symmetry_Int_Tables_number   1
_chemical_formula_structural   Sb9PO25
_chemical_formula_sum   'Sb9 P1 O25'
_cell_volume   473.69769141
_cell_formula_units_Z   1
loop_
 _symmetry_equiv_pos_site_id
 _symmetry_equiv_pos_as_xyz
  1  'x, y, z'
loop_
 _atom_site_type_symbol
 _atom_site_label
 _atom_site_symmetry_multiplicity
 _atom_site_fract_x
 _atom_site_fract_y
 _atom_site_fract_z
 _atom_site_occupancy
  Sb  Sb0  1  0.000000  0.000000  0.000000  1
  Sb  Sb1  1  0.120588  0.794887  0.881669  1
  Sb  Sb2  1  0.859255  0.652630  0.552199  1
  Sb  Sb3  1  0.692944  0.140745  0.793375  1
  Sb  Sb4  1  0.205113  0.086782  0.325701  1
  Sb  Sb5  1  0.761081  0.879412  0.674299  1
  Sb  Sb6  1  0.347370  0.899569  0.206625  1
  Sb  Sb7  1  0.100431  0.307056  0.447801  1
  Sb  Sb8  1  0.913218  0.238919  0.118331  1
  P  P9  1  0.750000  0.250000  0.500000  1
  O  O10  1  0.500000  0.500000  0.000000  1
  O  O11  1  0.072568  0.892634  0.973118  1
  O  O12  1  0.782791  0.748601  0.584782  1
  O  O13  1  0.627319  0.257766  0.848934  1
  O  O14  1  0.008662  0.757333  0.718860  1
  O  O15  1  0.801991  0.217209  0.965810  1
  O  O16  1  0.171454  0.667560  0.796060  1
  O  O17  1  0.332440  0.128500  0.503893  1
  O  O18  1  0.742234  0.591168  0.369553  1
  O  O19  1  0.578290  0.091113  0.616329  1
  O  O20  1  0.107366  0.080483  0.179934  1
  O  O21  1  0.908887  0.525216  0.487177  1
  O  O22  1  0.710198  0.991338  0.748672  1
  O  O23  1  0.242667  0.961526  0.251328  1
  O  O24  1  0.038039  0.421710  0.512823  1
  O  O25  1  0.900549  0.927432  0.820066  1
  O  O26  1  0.474784  0.961961  0.383671  1
  O  O27  1  0.221616  0.372681  0.630447  1
  O  O28  1  0.624606  0.828546  0.496107  1
  O  O29  1  0.871500  0.375394  0.203940  1
  O  O30  1  0.251399  0.836181  0.034190  1
  O  O31  1  0.038474  0.289802  0.281140  1
  O  O32  1  0.408832  0.778384  0.151066  1
  O  O33  1  0.163819  0.198009  0.415218  1
  O  O34  1  0.919517  0.099451  0.026882  1
