# generated using pymatgen
data_Li2Mn4O7F
_symmetry_space_group_name_H-M   'P 1'
_cell_length_a   5.91001999
_cell_length_b   5.91001999
_cell_length_c   5.97419907
_cell_angle_alpha   60.23749348
_cell_angle_beta   119.76250652
_cell_angle_gamma   117.80405279
_symmetry_Int_Tables_number   1
_chemical_formula_structural   Li2Mn4O7F
_chemical_formula_sum   'Li2 Mn4 O7 F1'
_cell_volume   150.39669462
_cell_formula_units_Z   1
loop_
 _symmetry_equiv_pos_site_id
 _symmetry_equiv_pos_as_xyz
  1  'x, y, z'
loop_
 _atom_site_type_symbol
 _atom_site_label
 _atom_site_symmetry_multiplicity
 _atom_site_fract_x
 _atom_site_fract_y
 _atom_site_fract_z
 _atom_site_occupancy
  Li  Li0  1  0.884241  0.115759  0.637894  1
  Li  Li1  1  0.498930  0.501070  0.501592  1
  Mn  Mn2  1  0.114018  0.885982  0.361553  1
  Mn  Mn3  1  0.003643  0.508044  0.008919  1
  Mn  Mn4  1  0.491956  0.996357  0.008919  1
  Mn  Mn5  1  0.501022  0.498978  0.994966  1
  O  O6  1  0.294405  0.257716  0.787205  1
  O  O7  1  0.742284  0.705595  0.787205  1
  O  O8  1  0.741140  0.258860  0.213510  1
  O  O9  1  0.252361  0.747639  0.227543  1
  O  O10  1  0.259811  0.740189  0.779740  1
  O  O11  1  0.706628  0.743291  0.215014  1
  O  O12  1  0.256709  0.293372  0.215014  1
  F  F13  1  0.746963  0.253037  0.760954  1
