# generated using pymatgen
data_LiNbFeO4
_symmetry_space_group_name_H-M   'P 1'
_cell_length_a   6.15393187
_cell_length_b   6.15393187
_cell_length_c   8.78140937
_cell_angle_alpha   90.00000000
_cell_angle_beta   90.00000000
_cell_angle_gamma   90.00000000
_symmetry_Int_Tables_number   1
_chemical_formula_structural   LiNbFeO4
_chemical_formula_sum   'Li4 Nb4 Fe4 O16'
_cell_volume   332.55967818
_cell_formula_units_Z   4
loop_
 _symmetry_equiv_pos_site_id
 _symmetry_equiv_pos_as_xyz
  1  'x, y, z'
loop_
 _atom_site_type_symbol
 _atom_site_label
 _atom_site_symmetry_multiplicity
 _atom_site_fract_x
 _atom_site_fract_y
 _atom_site_fract_z
 _atom_site_occupancy
  Li  Li0  1  0.000000  0.234271  0.000000  1
  Li  Li1  1  0.000000  0.765729  0.500000  1
  Li  Li2  1  0.234271  0.000000  0.250000  1
  Li  Li3  1  0.765729  0.000000  0.750000  1
  Nb  Nb4  1  0.250988  0.250988  0.625000  1
  Nb  Nb5  1  0.250988  0.749012  0.875000  1
  Nb  Nb6  1  0.749012  0.250988  0.375000  1
  Nb  Nb7  1  0.749012  0.749012  0.125000  1
  Fe  Fe8  1  0.244608  0.500000  0.250000  1
  Fe  Fe9  1  0.500000  0.244608  0.000000  1
  Fe  Fe10  1  0.500000  0.755392  0.500000  1
  Fe  Fe11  1  0.755392  0.500000  0.750000  1
  O  O12  1  0.000975  0.254911  0.253851  1
  O  O13  1  0.000975  0.745089  0.246149  1
  O  O14  1  0.254911  0.000975  0.996149  1
  O  O15  1  0.254911  0.999025  0.503851  1
  O  O16  1  0.254986  0.498272  0.001653  1
  O  O17  1  0.254986  0.501728  0.498347  1
  O  O18  1  0.498272  0.254986  0.248347  1
  O  O19  1  0.498272  0.745014  0.251653  1
  O  O20  1  0.501728  0.254986  0.751653  1
  O  O21  1  0.501728  0.745014  0.748347  1
  O  O22  1  0.745014  0.501728  0.501653  1
  O  O23  1  0.745014  0.498272  0.998347  1
  O  O24  1  0.745089  0.000975  0.003851  1
  O  O25  1  0.745089  0.999025  0.496149  1
  O  O26  1  0.999025  0.254911  0.746149  1
  O  O27  1  0.999025  0.745089  0.753851  1
