# generated using pymatgen
data_Cr3Sb5O16
_symmetry_space_group_name_H-M   'P 1'
_cell_length_a   6.15203000
_cell_length_b   6.15203000
_cell_length_c   9.90460595
_cell_angle_alpha   89.85054686
_cell_angle_beta   90.14945314
_cell_angle_gamma   119.86367677
_symmetry_Int_Tables_number   1
_chemical_formula_structural   Cr3Sb5O16
_chemical_formula_sum   'Cr3 Sb5 O16'
_cell_volume   325.08557272
_cell_formula_units_Z   1
loop_
 _symmetry_equiv_pos_site_id
 _symmetry_equiv_pos_as_xyz
  1  'x, y, z'
loop_
 _atom_site_type_symbol
 _atom_site_label
 _atom_site_symmetry_multiplicity
 _atom_site_fract_x
 _atom_site_fract_y
 _atom_site_fract_z
 _atom_site_occupancy
  Cr  Cr0  1  0.168525  0.342710  0.804059  1
  Cr  Cr1  1  0.657290  0.831475  0.804059  1
  Cr  Cr2  1  0.833753  0.166247  0.274169  1
  Sb  Sb3  1  0.346961  0.653039  0.537139  1
  Sb  Sb4  1  0.673517  0.326483  0.003908  1
  Sb  Sb5  1  0.167264  0.832736  0.799881  1
  Sb  Sb6  1  0.327470  0.166358  0.272931  1
  Sb  Sb7  1  0.833642  0.672530  0.272931  1
  O  O8  1  0.160336  0.313139  0.374338  1
  O  O9  1  0.479594  0.520406  0.690895  1
  O  O10  1  0.328452  0.671548  0.904384  1
  O  O11  1  0.999999  0.000001  0.713684  1
  O  O12  1  0.997487  0.002513  0.166007  1
  O  O13  1  0.686861  0.839664  0.374338  1
  O  O14  1  0.039798  0.521937  0.682761  1
  O  O15  1  0.478063  0.960202  0.682761  1
  O  O16  1  0.833082  0.166918  0.909149  1
  O  O17  1  0.163218  0.836782  0.370717  1
  O  O18  1  0.519908  0.050274  0.152037  1
  O  O19  1  0.949726  0.480092  0.152037  1
  O  O20  1  0.662847  0.337153  0.377065  1
  O  O21  1  0.338201  0.166562  0.909640  1
  O  O22  1  0.520439  0.479561  0.145773  1
  O  O23  1  0.833438  0.661799  0.909640  1
