# generated using pymatgen
data_Mn2Cr(PO4)3
_symmetry_space_group_name_H-M   'P 1'
_cell_length_a   8.44516464
_cell_length_b   8.44516464
_cell_length_c   8.44516464
_cell_angle_alpha   61.61267249
_cell_angle_beta   61.61267249
_cell_angle_gamma   61.61267249
_symmetry_Int_Tables_number   1
_chemical_formula_structural   Mn2Cr(PO4)3
_chemical_formula_sum   'Mn4 Cr2 P6 O24'
_cell_volume   441.30727061
_cell_formula_units_Z   2
loop_
 _symmetry_equiv_pos_site_id
 _symmetry_equiv_pos_as_xyz
  1  'x, y, z'
loop_
 _atom_site_type_symbol
 _atom_site_label
 _atom_site_symmetry_multiplicity
 _atom_site_fract_x
 _atom_site_fract_y
 _atom_site_fract_z
 _atom_site_occupancy
  Mn  Mn0  1  0.855179  0.855179  0.855179  1
  Mn  Mn1  1  0.644821  0.644821  0.644821  1
  Mn  Mn2  1  0.355179  0.355179  0.355179  1
  Mn  Mn3  1  0.144821  0.144821  0.144821  1
  Cr  Cr4  1  0.000000  0.000000  0.000000  1
  Cr  Cr5  1  0.500000  0.500000  0.500000  1
  P  P6  1  0.548062  0.951938  0.250000  1
  P  P7  1  0.250000  0.548062  0.951938  1
  P  P8  1  0.951938  0.250000  0.548062  1
  P  P9  1  0.048062  0.750000  0.451938  1
  P  P10  1  0.750000  0.451938  0.048062  1
  P  P11  1  0.451938  0.048062  0.750000  1
  O  O12  1  0.487582  0.893536  0.681629  1
  O  O13  1  0.893536  0.681629  0.487582  1
  O  O14  1  0.751272  0.937100  0.094524  1
  O  O15  1  0.681629  0.487582  0.893536  1
  O  O16  1  0.393536  0.987582  0.181629  1
  O  O17  1  0.562900  0.748728  0.405476  1
  O  O18  1  0.094524  0.751272  0.937100  1
  O  O19  1  0.405476  0.562900  0.748728  1
  O  O20  1  0.012418  0.818371  0.606464  1
  O  O21  1  0.748728  0.405476  0.562900  1
  O  O22  1  0.062900  0.905476  0.248728  1
  O  O23  1  0.818371  0.606464  0.012418  1
  O  O24  1  0.181629  0.393536  0.987582  1
  O  O25  1  0.937100  0.094524  0.751272  1
  O  O26  1  0.251272  0.594524  0.437100  1
  O  O27  1  0.987582  0.181629  0.393536  1
  O  O28  1  0.594524  0.437100  0.251272  1
  O  O29  1  0.905476  0.248728  0.062900  1
  O  O30  1  0.437100  0.251272  0.594524  1
  O  O31  1  0.606464  0.012418  0.818371  1
  O  O32  1  0.318371  0.512418  0.106464  1
  O  O33  1  0.248728  0.062900  0.905476  1
  O  O34  1  0.106464  0.318371  0.512418  1
  O  O35  1  0.512418  0.106464  0.318371  1
