# generated using pymatgen
data_LiY4Ti4(S2O5)2
_symmetry_space_group_name_H-M   'P 1'
_cell_length_a   11.62896883
_cell_length_b   11.62896883
_cell_length_c   5.46536837
_cell_angle_alpha   89.79161629
_cell_angle_beta   90.20838371
_cell_angle_gamma   27.17887307
_symmetry_Int_Tables_number   1
_chemical_formula_structural   LiY4Ti4(S2O5)2
_chemical_formula_sum   'Li1 Y4 Ti4 S4 O10'
_cell_volume   337.55716509
_cell_formula_units_Z   1
loop_
 _symmetry_equiv_pos_site_id
 _symmetry_equiv_pos_as_xyz
  1  'x, y, z'
loop_
 _atom_site_type_symbol
 _atom_site_label
 _atom_site_symmetry_multiplicity
 _atom_site_fract_x
 _atom_site_fract_y
 _atom_site_fract_z
 _atom_site_occupancy
  Li  Li0  1  0.000000  0.000000  0.500000  1
  Y  Y1  1  0.917148  0.414569  0.251499  1
  Y  Y2  1  0.585431  0.082852  0.251499  1
  Y  Y3  1  0.414569  0.917148  0.748501  1
  Y  Y4  1  0.082852  0.585431  0.748501  1
  Ti  Ti5  1  0.172733  0.662725  0.244895  1
  Ti  Ti6  1  0.337275  0.827267  0.244895  1
  Ti  Ti7  1  0.662725  0.172733  0.755105  1
  Ti  Ti8  1  0.827267  0.337275  0.755105  1
  S  S9  1  0.043930  0.546722  0.250999  1
  S  S10  1  0.453278  0.956070  0.250999  1
  S  S11  1  0.546722  0.043930  0.749001  1
  S  S12  1  0.956070  0.453278  0.749001  1
  O  O13  1  0.899447  0.899447  0.000000  1
  O  O14  1  0.242086  0.757914  0.258041  1
  O  O15  1  0.601029  0.601029  0.000000  1
  O  O16  1  0.094525  0.094525  0.500000  1
  O  O17  1  0.757914  0.242086  0.741959  1
  O  O18  1  0.399355  0.399355  0.500000  1
  O  O19  1  0.398971  0.398971  0.000000  1
  O  O20  1  0.100553  0.100553  0.000000  1
  O  O21  1  0.600645  0.600645  0.500000  1
  O  O22  1  0.905475  0.905475  0.500000  1
