# generated using pymatgen
data_LiVF4
_symmetry_space_group_name_H-M   'P 1'
_cell_length_a   6.18425466
_cell_length_b   6.18425466
_cell_length_c   5.12095643
_cell_angle_alpha   71.62368166
_cell_angle_beta   108.37631834
_cell_angle_gamma   121.18994046
_symmetry_Int_Tables_number   1
_chemical_formula_structural   LiVF4
_chemical_formula_sum   'Li2 V2 F8'
_cell_volume   156.18674955
_cell_formula_units_Z   2
loop_
 _symmetry_equiv_pos_site_id
 _symmetry_equiv_pos_as_xyz
  1  'x, y, z'
loop_
 _atom_site_type_symbol
 _atom_site_label
 _atom_site_symmetry_multiplicity
 _atom_site_fract_x
 _atom_site_fract_y
 _atom_site_fract_z
 _atom_site_occupancy
  Li  Li0  1  0.000000  0.500000  0.000000  1
  Li  Li1  1  0.500000  1.000000  0.500000  1
  V  V2  1  0.149677  0.149677  0.750000  1
  V  V3  1  0.850323  0.850323  0.250000  1
  F  F4  1  0.789515  0.991586  0.826221  1
  F  F5  1  0.207763  0.457160  0.812695  1
  F  F6  1  0.008414  0.210485  0.326221  1
  F  F7  1  0.542840  0.792237  0.312695  1
  F  F8  1  0.792237  0.542840  0.187305  1
  F  F9  1  0.210485  0.008414  0.173779  1
  F  F10  1  0.457160  0.207763  0.687305  1
  F  F11  1  0.991586  0.789515  0.673779  1
