# generated using pymatgen
data_LiCrPH2O5
_symmetry_space_group_name_H-M   'P 1'
_cell_length_a   6.05726360
_cell_length_b   7.29328340
_cell_length_c   9.86693984
_cell_angle_alpha   90.00000000
_cell_angle_beta   94.20468725
_cell_angle_gamma   90.00000000
_symmetry_Int_Tables_number   1
_chemical_formula_structural   LiCrPH2O5
_chemical_formula_sum   'Li4 Cr4 P4 H8 O20'
_cell_volume   434.72193744
_cell_formula_units_Z   4
loop_
 _symmetry_equiv_pos_site_id
 _symmetry_equiv_pos_as_xyz
  1  'x, y, z'
loop_
 _atom_site_type_symbol
 _atom_site_label
 _atom_site_symmetry_multiplicity
 _atom_site_fract_x
 _atom_site_fract_y
 _atom_site_fract_z
 _atom_site_occupancy
  Li  Li0  1  0.578755  0.440339  0.350645  1
  Li  Li1  1  0.078755  0.059661  0.350645  1
  Li  Li2  1  0.921245  0.940339  0.649355  1
  Li  Li3  1  0.421245  0.559661  0.649355  1
  Cr  Cr4  1  0.791599  0.194436  0.012653  1
  Cr  Cr5  1  0.291599  0.305564  0.012653  1
  Cr  Cr6  1  0.708401  0.694436  0.987347  1
  Cr  Cr7  1  0.208401  0.805564  0.987347  1
  P  P8  1  0.996014  0.528389  0.201760  1
  P  P9  1  0.496014  0.971611  0.201760  1
  P  P10  1  0.503986  0.028389  0.798240  1
  P  P11  1  0.003986  0.471611  0.798240  1
  H  H12  1  0.855642  0.733018  0.415617  1
  H  H13  1  0.689864  0.895856  0.442028  1
  H  H14  1  0.355642  0.766982  0.415617  1
  H  H15  1  0.189864  0.604144  0.442028  1
  H  H16  1  0.810136  0.395856  0.557972  1
  H  H17  1  0.644358  0.233018  0.584383  1
  H  H18  1  0.310136  0.104144  0.557972  1
  H  H19  1  0.144358  0.266982  0.584383  1
  O  O20  1  0.808162  0.455100  0.092121  1
  O  O21  1  0.308162  0.044900  0.092121  1
  O  O22  1  0.546463  0.774232  0.153395  1
  O  O23  1  0.046463  0.725768  0.153395  1
  O  O24  1  0.697569  0.103069  0.197613  1
  O  O25  1  0.197569  0.396931  0.197613  1
  O  O26  1  0.904404  0.529151  0.341672  1
  O  O27  1  0.404404  0.970849  0.341672  1
  O  O28  1  0.844724  0.855786  0.459924  1
  O  O29  1  0.344724  0.644214  0.459924  1
  O  O30  1  0.655276  0.355786  0.540076  1
  O  O31  1  0.155276  0.144214  0.540076  1
  O  O32  1  0.595596  0.029151  0.658328  1
  O  O33  1  0.095596  0.470849  0.658328  1
  O  O34  1  0.802431  0.603069  0.802387  1
  O  O35  1  0.302431  0.896931  0.802387  1
  O  O36  1  0.953537  0.274232  0.846605  1
  O  O37  1  0.453537  0.225768  0.846605  1
  O  O38  1  0.691838  0.955100  0.907879  1
  O  O39  1  0.191838  0.544900  0.907879  1
