# generated using pymatgen
data_NaMnPCO7
_symmetry_space_group_name_H-M   'P 1'
_cell_length_a   10.30084602
_cell_length_b   6.24364632
_cell_length_c   10.43862361
_cell_angle_alpha   90.00000000
_cell_angle_beta   118.45219359
_cell_angle_gamma   90.00000000
_symmetry_Int_Tables_number   1
_chemical_formula_structural   NaMnPCO7
_chemical_formula_sum   'Na4 Mn4 P4 C4 O28'
_cell_volume   590.26833471
_cell_formula_units_Z   4
loop_
 _symmetry_equiv_pos_site_id
 _symmetry_equiv_pos_as_xyz
  1  'x, y, z'
loop_
 _atom_site_type_symbol
 _atom_site_label
 _atom_site_symmetry_multiplicity
 _atom_site_fract_x
 _atom_site_fract_y
 _atom_site_fract_z
 _atom_site_occupancy
  Na  Na0  1  0.759129  0.970113  0.006145  1
  Na  Na1  1  0.759129  0.529887  0.506145  1
  Na  Na2  1  0.240871  0.029887  0.993855  1
  Na  Na3  1  0.240871  0.470113  0.493855  1
  Mn  Mn4  1  0.658300  0.252370  0.187793  1
  Mn  Mn5  1  0.658300  0.247630  0.687793  1
  Mn  Mn6  1  0.341700  0.747630  0.812207  1
  Mn  Mn7  1  0.341700  0.752370  0.312207  1
  P  P8  1  0.567136  0.749764  0.174437  1
  P  P9  1  0.567136  0.750236  0.674437  1
  P  P10  1  0.432864  0.250236  0.825563  1
  P  P11  1  0.432864  0.249764  0.325563  1
  C  C12  1  0.923238  0.240781  0.346915  1
  C  C13  1  0.923238  0.259219  0.846915  1
  C  C14  1  0.076762  0.759219  0.653085  1
  C  C15  1  0.076762  0.740781  0.153085  1
  O  O16  1  0.942583  0.763441  0.570774  1
  O  O17  1  0.942583  0.736559  0.070774  1
  O  O18  1  0.858666  0.240094  0.202769  1
  O  O19  1  0.858666  0.259906  0.702769  1
  O  O20  1  0.821426  0.248813  0.391071  1
  O  O21  1  0.821426  0.251187  0.891071  1
  O  O22  1  0.667306  0.943354  0.186876  1
  O  O23  1  0.671916  0.557558  0.200316  1
  O  O24  1  0.671916  0.942442  0.700316  1
  O  O25  1  0.667306  0.556646  0.686876  1
  O  O26  1  0.524384  0.749181  0.798773  1
  O  O27  1  0.574154  0.251157  0.973054  1
  O  O28  1  0.524384  0.750819  0.298773  1
  O  O29  1  0.574154  0.248843  0.473054  1
  O  O30  1  0.425846  0.748843  0.026946  1
  O  O31  1  0.475616  0.250819  0.201227  1
  O  O32  1  0.425846  0.751157  0.526946  1
  O  O33  1  0.475616  0.249181  0.701227  1
  O  O34  1  0.328084  0.442442  0.799684  1
  O  O35  1  0.332694  0.056646  0.813124  1
  O  O36  1  0.332694  0.443354  0.313124  1
  O  O37  1  0.328084  0.057558  0.299684  1
  O  O38  1  0.178574  0.751187  0.608929  1
  O  O39  1  0.178574  0.748813  0.108929  1
  O  O40  1  0.141334  0.759906  0.797231  1
  O  O41  1  0.141334  0.740094  0.297231  1
  O  O42  1  0.057417  0.236559  0.429226  1
  O  O43  1  0.057417  0.263441  0.929226  1
