# generated using pymatgen
data_Li4NbIn3(PO4)6
_symmetry_space_group_name_H-M   'P 1'
_cell_length_a   8.75089737
_cell_length_b   9.01364836
_cell_length_c   15.20923974
_cell_angle_alpha   90.00000000
_cell_angle_beta   124.76787564
_cell_angle_gamma   90.00000000
_symmetry_Int_Tables_number   1
_chemical_formula_structural   Li4NbIn3(PO4)6
_chemical_formula_sum   'Li8 Nb2 In6 P12 O48'
_cell_volume   985.48931782
_cell_formula_units_Z   2
loop_
 _symmetry_equiv_pos_site_id
 _symmetry_equiv_pos_as_xyz
  1  'x, y, z'
loop_
 _atom_site_type_symbol
 _atom_site_label
 _atom_site_symmetry_multiplicity
 _atom_site_fract_x
 _atom_site_fract_y
 _atom_site_fract_z
 _atom_site_occupancy
  Li  Li0  1  0.968144  0.046074  0.175502  1
  Li  Li1  1  0.593372  0.970150  0.825713  1
  Li  Li2  1  0.402601  0.467690  0.672627  1
  Li  Li3  1  0.035746  0.536635  0.327992  1
  Li  Li4  1  0.968144  0.953926  0.675502  1
  Li  Li5  1  0.593372  0.029850  0.325713  1
  Li  Li6  1  0.402601  0.532310  0.172627  1
  Li  Li7  1  0.035746  0.463365  0.827992  1
  Nb  Nb8  1  0.858122  0.710053  0.109801  1
  Nb  Nb9  1  0.858122  0.289947  0.609801  1
  In  In10  1  0.634217  0.290432  0.887292  1
  In  In11  1  0.364062  0.793137  0.611654  1
  In  In12  1  0.138832  0.209024  0.390503  1
  In  In13  1  0.634217  0.709568  0.387292  1
  In  In14  1  0.364062  0.206863  0.111654  1
  In  In15  1  0.138832  0.790976  0.890503  1
  P  P16  1  0.454351  0.502930  0.499266  1
  P  P17  1  0.743693  0.641127  0.849750  1
  P  P18  1  0.046261  0.360223  0.148976  1
  P  P19  1  0.953528  0.859675  0.346610  1
  P  P20  1  0.252369  0.140726  0.649399  1
  P  P21  1  0.544328  0.995570  0.001870  1
  P  P22  1  0.454351  0.497070  0.999266  1
  P  P23  1  0.743693  0.358873  0.349750  1
  P  P24  1  0.046261  0.639777  0.648976  1
  P  P25  1  0.953528  0.140325  0.846610  1
  P  P26  1  0.252369  0.859274  0.149399  1
  P  P27  1  0.544328  0.004430  0.501870  1
  O  O28  1  0.544171  0.919764  0.588113  1
  O  O29  1  0.399392  0.125240  0.444597  1
  O  O30  1  0.789377  0.128538  0.857760  1
  O  O31  1  0.094257  0.834568  0.169274  1
  O  O32  1  0.485580  0.596657  0.592725  1
  O  O33  1  0.829436  0.663743  0.973982  1
  O  O34  1  0.095752  0.245623  0.236501  1
  O  O35  1  0.657150  0.485399  0.815213  1
  O  O36  1  0.010098  0.518718  0.181381  1
  O  O37  1  0.264173  0.425631  0.446817  1
  O  O38  1  0.866936  0.307505  0.047212  1
  O  O39  1  0.597097  0.763182  0.788564  1
  O  O40  1  0.402492  0.260268  0.713276  1
  O  O41  1  0.132284  0.798827  0.446104  1
  O  O42  1  0.743883  0.912979  0.063959  1
  O  O43  1  0.980642  0.009370  0.307670  1
  O  O44  1  0.332187  0.982455  0.689096  1
  O  O45  1  0.899661  0.739882  0.255570  1
  O  O46  1  0.156266  0.151870  0.529122  1
  O  O47  1  0.541197  0.090307  0.916958  1
  O  O48  1  0.902153  0.352429  0.334003  1
  O  O49  1  0.208614  0.621158  0.636099  1
  O  O50  1  0.458091  0.416684  0.913086  1
  O  O51  1  0.619485  0.615924  0.055964  1
  O  O52  1  0.399392  0.874760  0.944597  1
  O  O53  1  0.544171  0.080236  0.088113  1
  O  O54  1  0.789377  0.871462  0.357760  1
  O  O55  1  0.094257  0.165432  0.669274  1
  O  O56  1  0.485580  0.403343  0.092725  1
  O  O57  1  0.829436  0.336257  0.473982  1
  O  O58  1  0.095752  0.754377  0.736501  1
  O  O59  1  0.657150  0.514601  0.315213  1
  O  O60  1  0.010098  0.481282  0.681381  1
  O  O61  1  0.264173  0.574369  0.946817  1
  O  O62  1  0.866936  0.692495  0.547212  1
  O  O63  1  0.597097  0.236818  0.288564  1
  O  O64  1  0.402492  0.739732  0.213276  1
  O  O65  1  0.132284  0.201173  0.946104  1
  O  O66  1  0.743883  0.087021  0.563959  1
  O  O67  1  0.980642  0.990630  0.807670  1
  O  O68  1  0.332187  0.017545  0.189096  1
  O  O69  1  0.899661  0.260118  0.755570  1
  O  O70  1  0.156266  0.848130  0.029122  1
  O  O71  1  0.541197  0.909693  0.416958  1
  O  O72  1  0.902153  0.647571  0.834003  1
  O  O73  1  0.208614  0.378842  0.136099  1
  O  O74  1  0.619485  0.384076  0.555964  1
  O  O75  1  0.458091  0.583316  0.413086  1
