# generated using pymatgen
data_LiMnV(PO4)3
_symmetry_space_group_name_H-M   'P 1'
_cell_length_a   8.27202981
_cell_length_b   8.28784580
_cell_length_c   8.85337078
_cell_angle_alpha   89.63109602
_cell_angle_beta   116.70351303
_cell_angle_gamma   119.04717053
_symmetry_Int_Tables_number   1
_chemical_formula_structural   LiMnV(PO4)3
_chemical_formula_sum   'Li2 Mn2 V2 P6 O24'
_cell_volume   456.27024631
_cell_formula_units_Z   2
loop_
 _symmetry_equiv_pos_site_id
 _symmetry_equiv_pos_as_xyz
  1  'x, y, z'
loop_
 _atom_site_type_symbol
 _atom_site_label
 _atom_site_symmetry_multiplicity
 _atom_site_fract_x
 _atom_site_fract_y
 _atom_site_fract_z
 _atom_site_occupancy
  Li  Li0  1  0.947213  0.260452  0.876494  1
  Li  Li1  1  0.052787  0.739548  0.123506  1
  Mn  Mn2  1  0.289468  0.153120  0.434018  1
  Mn  Mn3  1  0.710532  0.846880  0.565982  1
  V  V4  1  0.309342  0.656534  0.947650  1
  V  V5  1  0.690658  0.343466  0.052350  1
  P  P6  1  0.220130  0.260452  0.751679  1
  P  P7  1  0.501866  0.971472  0.745601  1
  P  P8  1  0.793796  0.544584  0.752602  1
  P  P9  1  0.206204  0.455416  0.247398  1
  P  P10  1  0.498134  0.028528  0.254399  1
  P  P11  1  0.779870  0.739548  0.248321  1
  O  O12  1  0.397338  0.231749  0.894798  1
  O  O13  1  0.011660  0.137491  0.749332  1
  O  O14  1  0.298578  0.478586  0.812880  1
  O  O15  1  0.361393  0.834976  0.821855  1
  O  O16  1  0.681935  0.170142  0.889506  1
  O  O17  1  0.755025  0.527688  0.913163  1
  O  O18  1  0.201171  0.227400  0.575248  1
  O  O19  1  0.622079  0.889354  0.725435  1
  O  O20  1  0.352078  0.987736  0.576386  1
  O  O21  1  0.002913  0.535701  0.817845  1
  O  O22  1  0.857223  0.747809  0.738297  1
  O  O23  1  0.612887  0.384765  0.589438  1
  O  O24  1  0.387113  0.615235  0.410562  1
  O  O25  1  0.142777  0.252191  0.261703  1
  O  O26  1  0.997087  0.464299  0.182155  1
  O  O27  1  0.647922  0.012264  0.423614  1
  O  O28  1  0.377921  0.110646  0.274565  1
  O  O29  1  0.798829  0.772600  0.424752  1
  O  O30  1  0.244975  0.472312  0.086837  1
  O  O31  1  0.318065  0.829858  0.110494  1
  O  O32  1  0.638607  0.165024  0.178145  1
  O  O33  1  0.701422  0.521414  0.187120  1
  O  O34  1  0.988340  0.862509  0.250668  1
  O  O35  1  0.602662  0.768251  0.105202  1
