# generated using pymatgen
data_Li2VCr(P2O7)2
_symmetry_space_group_name_H-M   'P 1'
_cell_length_a   4.87126805
_cell_length_b   7.02670991
_cell_length_c   8.22406022
_cell_angle_alpha   89.69379733
_cell_angle_beta   89.78188830
_cell_angle_gamma   71.26941008
_symmetry_Int_Tables_number   1
_chemical_formula_structural   Li2VCr(P2O7)2
_chemical_formula_sum   'Li2 V1 Cr1 P4 O14'
_cell_volume   266.58820070
_cell_formula_units_Z   1
loop_
 _symmetry_equiv_pos_site_id
 _symmetry_equiv_pos_as_xyz
  1  'x, y, z'
loop_
 _atom_site_type_symbol
 _atom_site_label
 _atom_site_symmetry_multiplicity
 _atom_site_fract_x
 _atom_site_fract_y
 _atom_site_fract_z
 _atom_site_occupancy
  Li  Li0  1  0.822592  0.676536  0.862815  1
  Li  Li1  1  0.176582  0.324492  0.362395  1
  V  V2  1  0.783076  0.729799  0.499782  1
  Cr  Cr3  1  0.213743  0.272741  0.999752  1
  P  P4  1  0.600458  0.520585  0.179676  1
  P  P5  1  0.788349  0.086223  0.786136  1
  P  P6  1  0.213956  0.914392  0.281706  1
  P  P7  1  0.400356  0.476025  0.680651  1
  O  O8  1  0.949613  0.853185  0.322493  1
  O  O9  1  0.869813  0.885253  0.697652  1
  O  O10  1  0.813689  0.481676  0.036742  1
  O  O11  1  0.751647  0.505185  0.344233  1
  O  O12  1  0.600406  0.605830  0.679342  1
  O  O13  1  0.396850  0.918642  0.432765  1
  O  O14  1  0.406673  0.753174  0.151269  1
  O  O15  1  0.595920  0.246327  0.652068  1
  O  O16  1  0.599685  0.084627  0.935424  1
  O  O17  1  0.397525  0.393575  0.178470  1
  O  O18  1  0.248010  0.490075  0.846087  1
  O  O19  1  0.185251  0.518382  0.538851  1
  O  O20  1  0.132723  0.116305  0.192629  1
  O  O21  1  0.053083  0.146967  0.824640  1
