# generated using pymatgen
data_Mn2FeO4
_symmetry_space_group_name_H-M   'P 1'
_cell_length_a   6.27036023
_cell_length_b   6.27036023
_cell_length_c   6.27036023
_cell_angle_alpha   123.75919974
_cell_angle_beta   123.75919974
_cell_angle_gamma   83.60354402
_symmetry_Int_Tables_number   1
_chemical_formula_structural   Mn2FeO4
_chemical_formula_sum   'Mn4 Fe2 O8'
_cell_volume   163.30586889
_cell_formula_units_Z   2
loop_
 _symmetry_equiv_pos_site_id
 _symmetry_equiv_pos_as_xyz
  1  'x, y, z'
loop_
 _atom_site_type_symbol
 _atom_site_label
 _atom_site_symmetry_multiplicity
 _atom_site_fract_x
 _atom_site_fract_y
 _atom_site_fract_z
 _atom_site_occupancy
  Mn  Mn0  1  0.375000  0.625000  0.250000  1
  Mn  Mn1  1  0.375000  0.625000  0.750000  1
  Mn  Mn2  1  0.875000  0.625000  0.250000  1
  Mn  Mn3  1  0.375000  0.125000  0.750000  1
  Fe  Fe4  1  0.750000  0.250000  0.500000  1
  Fe  Fe5  1  0.000000  0.000000  0.000000  1
  O  O6  1  0.130264  0.407543  0.277278  1
  O  O7  1  0.592457  0.869736  0.722722  1
  O  O8  1  0.157543  0.380264  0.777278  1
  O  O9  1  0.147014  0.869736  0.277278  1
  O  O10  1  0.619736  0.397014  0.777278  1
  O  O11  1  0.130264  0.852986  0.722722  1
  O  O12  1  0.619736  0.842457  0.222722  1
  O  O13  1  0.602986  0.380264  0.222722  1
