# generated using pymatgen
data_Sm2Ge5Ru3
_symmetry_space_group_name_H-M   'P 1'
_cell_length_a   8.53917659
_cell_length_b   8.53917659
_cell_length_c   8.53917659
_cell_angle_alpha   139.93957931
_cell_angle_beta   108.55198930
_cell_angle_gamma   85.20843203
_symmetry_Int_Tables_number   1
_chemical_formula_structural   Sm2Ge5Ru3
_chemical_formula_sum   'Sm4 Ge10 Ru6'
_cell_volume   366.62210188
_cell_formula_units_Z   2
loop_
 _symmetry_equiv_pos_site_id
 _symmetry_equiv_pos_as_xyz
  1  'x, y, z'
loop_
 _atom_site_type_symbol
 _atom_site_label
 _atom_site_symmetry_multiplicity
 _atom_site_fract_x
 _atom_site_fract_y
 _atom_site_fract_z
 _atom_site_occupancy
  Sm  Sm0  1  0.129752  0.361045  0.768707  1
  Sm  Sm1  1  0.407661  0.138955  0.268707  1
  Sm  Sm2  1  0.592339  0.861045  0.731293  1
  Sm  Sm3  1  0.870248  0.638955  0.231293  1
  Ge  Ge4  1  0.086526  0.911853  0.174673  1
  Ge  Ge5  1  0.207767  0.457767  0.250000  1
  Ge  Ge6  1  0.262820  0.588147  0.674673  1
  Ge  Ge7  1  0.207767  0.957767  0.750000  1
  Ge  Ge8  1  0.500000  0.250000  0.750000  1
  Ge  Ge9  1  0.500000  0.750000  0.250000  1
  Ge  Ge10  1  0.792233  0.042233  0.250000  1
  Ge  Ge11  1  0.737180  0.411853  0.325327  1
  Ge  Ge12  1  0.792233  0.542233  0.750000  1
  Ge  Ge13  1  0.913474  0.088147  0.825327  1
  Ru  Ru14  1  0.261838  0.853120  0.408718  1
  Ru  Ru15  1  0.555598  0.646880  0.908718  1
  Ru  Ru16  1  0.444402  0.353120  0.091282  1
  Ru  Ru17  1  0.738162  0.146880  0.591282  1
  Ru  Ru18  1  0.000000  0.250000  0.250000  1
  Ru  Ru19  1  0.000000  0.750000  0.750000  1
