# generated using pymatgen
data_Li2VCr(P2O7)2
_symmetry_space_group_name_H-M   'P 1'
_cell_length_a   7.02720634
_cell_length_b   8.22779095
_cell_length_c   9.73405600
_cell_angle_alpha   90.00000000
_cell_angle_beta   108.78856394
_cell_angle_gamma   90.00000000
_symmetry_Int_Tables_number   1
_chemical_formula_structural   Li2VCr(P2O7)2
_chemical_formula_sum   'Li4 V2 Cr2 P8 O28'
_cell_volume   532.81739534
_cell_formula_units_Z   2
loop_
 _symmetry_equiv_pos_site_id
 _symmetry_equiv_pos_as_xyz
  1  'x, y, z'
loop_
 _atom_site_type_symbol
 _atom_site_label
 _atom_site_symmetry_multiplicity
 _atom_site_fract_x
 _atom_site_fract_y
 _atom_site_fract_z
 _atom_site_occupancy
  Li  Li0  1  0.676812  0.863009  0.338477  1
  Li  Li1  1  0.323188  0.363009  0.661523  1
  Li  Li2  1  0.676357  0.862827  0.838270  1
  Li  Li3  1  0.323643  0.362827  0.161730  1
  V  V4  1  0.729291  0.499459  0.358061  1
  V  V5  1  0.270709  0.999459  0.641939  1
  Cr  Cr6  1  0.727288  0.500204  0.857359  1
  Cr  Cr7  1  0.272712  0.000204  0.142641  1
  P  P8  1  0.521619  0.179792  0.449625  1
  P  P9  1  0.086509  0.784635  0.355114  1
  P  P10  1  0.913491  0.284635  0.644886  1
  P  P11  1  0.478381  0.679792  0.550375  1
  P  P12  1  0.522798  0.180573  0.950434  1
  P  P13  1  0.084809  0.783140  0.856999  1
  P  P14  1  0.915191  0.283140  0.143001  1
  P  P15  1  0.477202  0.680573  0.049566  1
  O  O16  1  0.853436  0.322282  0.275495  1
  O  O17  1  0.885127  0.696919  0.314967  1
  O  O18  1  0.481774  0.036548  0.343334  1
  O  O19  1  0.504319  0.344046  0.373111  1
  O  O20  1  0.605856  0.678260  0.448488  1
  O  O21  1  0.917258  0.434947  0.551669  1
  O  O22  1  0.753193  0.152409  0.547231  1
  O  O23  1  0.246807  0.652409  0.452769  1
  O  O24  1  0.082742  0.934947  0.448331  1
  O  O25  1  0.394144  0.178260  0.551512  1
  O  O26  1  0.495681  0.844046  0.626889  1
  O  O27  1  0.518226  0.536548  0.656666  1
  O  O28  1  0.852407  0.324173  0.777046  1
  O  O29  1  0.883334  0.693340  0.815775  1
  O  O30  1  0.114873  0.196919  0.685033  1
  O  O31  1  0.146564  0.822282  0.724505  1
  O  O32  1  0.481944  0.038302  0.842952  1
  O  O33  1  0.509448  0.346014  0.874367  1
  O  O34  1  0.606089  0.679719  0.949419  1
  O  O35  1  0.917612  0.433624  0.050722  1
  O  O36  1  0.754046  0.151357  0.047201  1
  O  O37  1  0.245954  0.651357  0.952799  1
  O  O38  1  0.082388  0.933624  0.949278  1
  O  O39  1  0.393911  0.179719  0.050581  1
  O  O40  1  0.490552  0.846014  0.125633  1
  O  O41  1  0.518056  0.538302  0.157048  1
  O  O42  1  0.116666  0.193340  0.184225  1
  O  O43  1  0.147593  0.824173  0.222954  1
