# generated using pymatgen
data_Li2SiNiO4
_symmetry_space_group_name_H-M   'P 1'
_cell_length_a   5.27452364
_cell_length_b   6.24375433
_cell_length_c   5.32534771
_cell_angle_alpha   90.00000000
_cell_angle_beta   93.39869526
_cell_angle_gamma   90.00000000
_symmetry_Int_Tables_number   1
_chemical_formula_structural   Li2SiNiO4
_chemical_formula_sum   'Li4 Si2 Ni2 O8'
_cell_volume   175.07030990
_cell_formula_units_Z   2
loop_
 _symmetry_equiv_pos_site_id
 _symmetry_equiv_pos_as_xyz
  1  'x, y, z'
loop_
 _atom_site_type_symbol
 _atom_site_label
 _atom_site_symmetry_multiplicity
 _atom_site_fract_x
 _atom_site_fract_y
 _atom_site_fract_z
 _atom_site_occupancy
  Li  Li0  1  0.686443  0.249880  0.182983  1
  Li  Li1  1  0.189105  0.499438  0.314246  1
  Li  Li2  1  0.810895  0.999438  0.685754  1
  Li  Li3  1  0.313557  0.749880  0.817017  1
  Si  Si4  1  0.681159  0.749742  0.170621  1
  Si  Si5  1  0.318841  0.249742  0.829379  1
  Ni  Ni6  1  0.182373  0.994481  0.326005  1
  Ni  Ni7  1  0.817627  0.494481  0.673995  1
  O  O8  1  0.286298  0.245298  0.135621  1
  O  O9  1  0.369653  0.750881  0.196788  1
  O  O10  1  0.805313  0.968095  0.305002  1
  O  O11  1  0.812505  0.534217  0.304257  1
  O  O12  1  0.187495  0.034217  0.695743  1
  O  O13  1  0.194687  0.468095  0.694998  1
  O  O14  1  0.630347  0.250881  0.803212  1
  O  O15  1  0.713702  0.745298  0.864379  1
