# generated using pymatgen
data_MnZn4O5
_symmetry_space_group_name_H-M   'P 1'
_cell_length_a   3.31757387
_cell_length_b   6.29362439
_cell_length_c   12.69421817
_cell_angle_alpha   93.15822699
_cell_angle_beta   90.01876280
_cell_angle_gamma   105.26719386
_symmetry_Int_Tables_number   1
_chemical_formula_structural   MnZn4O5
_chemical_formula_sum   'Mn2 Zn8 O10'
_cell_volume   255.27706438
_cell_formula_units_Z   2
loop_
 _symmetry_equiv_pos_site_id
 _symmetry_equiv_pos_as_xyz
  1  'x, y, z'
loop_
 _atom_site_type_symbol
 _atom_site_label
 _atom_site_symmetry_multiplicity
 _atom_site_fract_x
 _atom_site_fract_y
 _atom_site_fract_z
 _atom_site_occupancy
  Mn  Mn0  1  0.872580  0.731913  0.768802  1
  Mn  Mn1  1  0.055877  0.131177  0.365220  1
  Zn  Zn2  1  0.927303  0.860961  0.130870  1
  Zn  Zn3  1  0.725271  0.465057  0.533873  1
  Zn  Zn4  1  0.536961  0.068013  0.934803  1
  Zn  Zn5  1  0.667582  0.330801  0.165160  1
  Zn  Zn6  1  0.333980  0.663187  0.331564  1
  Zn  Zn7  1  0.134630  0.262218  0.731990  1
  Zn  Zn8  1  0.262923  0.528877  0.968120  1
  Zn  Zn9  1  0.457812  0.931279  0.566168  1
  O  O10  1  0.777932  0.558036  0.056690  1
  O  O11  1  0.974568  0.963656  0.654747  1
  O  O12  1  0.572486  0.163478  0.461803  1
  O  O13  1  0.510646  0.026847  0.091149  1
  O  O14  1  0.713527  0.421443  0.689592  1
  O  O15  1  0.911408  0.819587  0.287224  1
  O  O16  1  0.185376  0.366379  0.252940  1
  O  O17  1  0.388263  0.764113  0.865175  1
  O  O18  1  0.307041  0.627857  0.489570  1
  O  O19  1  0.116490  0.228039  0.889767  1
