# generated using pymatgen
data_Li4Ti3V2(Fe2O9)2
_symmetry_space_group_name_H-M   'P 1'
_cell_length_a   2.95529824
_cell_length_b   9.17777954
_cell_length_c   25.50941798
_cell_angle_alpha   90.00000000
_cell_angle_beta   90.00000000
_cell_angle_gamma   90.00000000
_symmetry_Int_Tables_number   1
_chemical_formula_structural   Li4Ti3V2(Fe2O9)2
_chemical_formula_sum   'Li8 Ti6 V4 Fe8 O36'
_cell_volume   691.89387567
_cell_formula_units_Z   2
loop_
 _symmetry_equiv_pos_site_id
 _symmetry_equiv_pos_as_xyz
  1  'x, y, z'
loop_
 _atom_site_type_symbol
 _atom_site_label
 _atom_site_symmetry_multiplicity
 _atom_site_fract_x
 _atom_site_fract_y
 _atom_site_fract_z
 _atom_site_occupancy
  Li  Li0  1  0.500000  0.949805  0.989374  1
  Li  Li1  1  0.500000  0.948035  0.183098  1
  Li  Li2  1  0.500000  0.051965  0.683098  1
  Li  Li3  1  0.500000  0.050195  0.489374  1
  Li  Li4  1  0.500000  0.444494  0.509351  1
  Li  Li5  1  0.500000  0.438232  0.311298  1
  Li  Li6  1  0.500000  0.561768  0.811298  1
  Li  Li7  1  0.500000  0.555506  0.009351  1
  Ti  Ti8  1  0.500000  0.750636  0.099156  1
  Ti  Ti9  1  0.500000  0.249364  0.599156  1
  Ti  Ti10  1  0.500000  0.244210  0.400322  1
  Ti  Ti11  1  0.000000  0.403577  0.690315  1
  Ti  Ti12  1  0.000000  0.596423  0.190315  1
  Ti  Ti13  1  0.500000  0.755790  0.900322  1
  V  V14  1  0.500000  0.748019  0.499922  1
  V  V15  1  0.000000  0.904427  0.809356  1
  V  V16  1  0.000000  0.095573  0.309356  1
  V  V17  1  0.500000  0.251981  0.999922  1
  Fe  Fe18  1  0.500000  0.753392  0.305990  1
  Fe  Fe19  1  0.000000  0.896446  0.587248  1
  Fe  Fe20  1  0.000000  0.103554  0.087248  1
  Fe  Fe21  1  0.500000  0.246608  0.805990  1
  Fe  Fe22  1  0.500000  0.253690  0.196247  1
  Fe  Fe23  1  0.000000  0.403399  0.913087  1
  Fe  Fe24  1  0.000000  0.596601  0.413087  1
  Fe  Fe25  1  0.500000  0.746310  0.696247  1
  O  O26  1  0.500000  0.742777  0.425721  1
  O  O27  1  0.500000  0.752796  0.574532  1
  O  O28  1  0.000000  0.812236  0.943575  1
  O  O29  1  0.000000  0.795664  0.155251  1
  O  O30  1  0.000000  0.873489  0.666076  1
  O  O31  1  0.500000  0.845494  0.763291  1
  O  O32  1  0.000000  0.896775  0.503936  1
  O  O33  1  0.000000  0.896858  0.291297  1
  O  O34  1  0.500000  0.937670  0.859311  1
  O  O35  1  0.500000  0.952671  0.083985  1
  O  O36  1  0.500000  0.047329  0.583985  1
  O  O37  1  0.500000  0.062330  0.359311  1
  O  O38  1  0.000000  0.103142  0.791297  1
  O  O39  1  0.000000  0.103225  0.003936  1
  O  O40  1  0.500000  0.154506  0.263291  1
  O  O41  1  0.000000  0.126511  0.166076  1
  O  O42  1  0.000000  0.204336  0.655251  1
  O  O43  1  0.000000  0.187764  0.443575  1
  O  O44  1  0.500000  0.247204  0.074532  1
  O  O45  1  0.500000  0.257223  0.925721  1
  O  O46  1  0.000000  0.308525  0.556296  1
  O  O47  1  0.000000  0.291361  0.343107  1
  O  O48  1  0.000000  0.372843  0.834543  1
  O  O49  1  0.500000  0.344858  0.738271  1
  O  O50  1  0.000000  0.400814  0.996186  1
  O  O51  1  0.000000  0.394463  0.211544  1
  O  O52  1  0.500000  0.435678  0.641789  1
  O  O53  1  0.500000  0.448158  0.415910  1
  O  O54  1  0.500000  0.551842  0.915910  1
  O  O55  1  0.500000  0.564322  0.141789  1
  O  O56  1  0.000000  0.605537  0.711544  1
  O  O57  1  0.000000  0.599186  0.496186  1
  O  O58  1  0.500000  0.655142  0.238271  1
  O  O59  1  0.000000  0.627157  0.334543  1
  O  O60  1  0.000000  0.708639  0.843107  1
  O  O61  1  0.000000  0.691475  0.056296  1
