# generated using pymatgen
data_Mn6O7F5
_symmetry_space_group_name_H-M   'P 1'
_cell_length_a   5.63129387
_cell_length_b   5.63129387
_cell_length_c   7.57700434
_cell_angle_alpha   69.48024565
_cell_angle_beta   110.51975435
_cell_angle_gamma   110.74865291
_symmetry_Int_Tables_number   1
_chemical_formula_structural   Mn6O7F5
_chemical_formula_sum   'Mn6 O7 F5'
_cell_volume   203.28843583
_cell_formula_units_Z   1
loop_
 _symmetry_equiv_pos_site_id
 _symmetry_equiv_pos_as_xyz
  1  'x, y, z'
loop_
 _atom_site_type_symbol
 _atom_site_label
 _atom_site_symmetry_multiplicity
 _atom_site_fract_x
 _atom_site_fract_y
 _atom_site_fract_z
 _atom_site_occupancy
  Mn  Mn0  1  0.690989  0.318810  0.155164  1
  Mn  Mn1  1  0.338257  0.670761  0.321223  1
  Mn  Mn2  1  0.670761  0.338257  0.678777  1
  Mn  Mn3  1  0.318810  0.690989  0.844836  1
  Mn  Mn4  1  0.005679  0.005679  0.500000  1
  Mn  Mn5  1  0.975004  0.975004  0.000000  1
  O  O6  1  0.646567  0.974459  0.330739  1
  O  O7  1  0.974459  0.646567  0.669261  1
  O  O8  1  0.217603  0.773974  0.043415  1
  O  O9  1  0.773974  0.217603  0.956585  1
  O  O10  1  0.364392  0.037265  0.668181  1
  O  O11  1  0.037265  0.364392  0.331819  1
  O  O12  1  0.677107  0.677107  0.000000  1
  F  F13  1  0.906154  0.102458  0.698116  1
  F  F14  1  0.578309  0.426343  0.383335  1
  F  F15  1  0.102458  0.906154  0.301884  1
  F  F16  1  0.426343  0.578309  0.616665  1
  F  F17  1  0.295871  0.295871  0.000000  1
