# generated using pymatgen
data_CaGd2O4
_symmetry_space_group_name_H-M   'P 1'
_cell_length_a   5.87161116
_cell_length_b   5.87161116
_cell_length_c   11.06238319
_cell_angle_alpha   90.00000000
_cell_angle_beta   90.00000000
_cell_angle_gamma   146.64068681
_symmetry_Int_Tables_number   1
_chemical_formula_structural   CaGd2O4
_chemical_formula_sum   'Ca2 Gd4 O8'
_cell_volume   209.71878163
_cell_formula_units_Z   2
loop_
 _symmetry_equiv_pos_site_id
 _symmetry_equiv_pos_as_xyz
  1  'x, y, z'
loop_
 _atom_site_type_symbol
 _atom_site_label
 _atom_site_symmetry_multiplicity
 _atom_site_fract_x
 _atom_site_fract_y
 _atom_site_fract_z
 _atom_site_occupancy
  Ca  Ca0  1  0.110965  0.889035  0.750000  1
  Ca  Ca1  1  0.889035  0.110965  0.250000  1
  Gd  Gd2  1  0.367853  0.632147  0.574880  1
  Gd  Gd3  1  0.367853  0.632147  0.925120  1
  Gd  Gd4  1  0.632147  0.367853  0.425120  1
  Gd  Gd5  1  0.632147  0.367853  0.074880  1
  O  O6  1  0.000000  0.000000  0.000000  1
  O  O7  1  0.000000  0.000000  0.500000  1
  O  O8  1  0.266738  0.733262  0.386032  1
  O  O9  1  0.471217  0.528783  0.750000  1
  O  O10  1  0.528783  0.471217  0.250000  1
  O  O11  1  0.733262  0.266738  0.613968  1
  O  O12  1  0.266738  0.733262  0.113968  1
  O  O13  1  0.733262  0.266738  0.886032  1
