# generated using pymatgen
data_Mn2(CO3)3
_symmetry_space_group_name_H-M   'P 1'
_cell_length_a   7.52188881
_cell_length_b   7.58708138
_cell_length_c   7.66219903
_cell_angle_alpha   119.14407025
_cell_angle_beta   93.41082469
_cell_angle_gamma   91.71637705
_symmetry_Int_Tables_number   1
_chemical_formula_structural   Mn2(CO3)3
_chemical_formula_sum   'Mn4 C6 O18'
_cell_volume   380.36715263
_cell_formula_units_Z   2
loop_
 _symmetry_equiv_pos_site_id
 _symmetry_equiv_pos_as_xyz
  1  'x, y, z'
loop_
 _atom_site_type_symbol
 _atom_site_label
 _atom_site_symmetry_multiplicity
 _atom_site_fract_x
 _atom_site_fract_y
 _atom_site_fract_z
 _atom_site_occupancy
  Mn  Mn0  1  0.956456  0.662334  0.326521  1
  Mn  Mn1  1  0.543709  0.668037  0.336345  1
  Mn  Mn2  1  0.456291  0.331963  0.663655  1
  Mn  Mn3  1  0.043544  0.337666  0.673479  1
  C  C4  1  0.257475  0.936506  0.345255  1
  C  C5  1  0.246385  0.404375  0.060886  1
  C  C6  1  0.753574  0.349386  0.409367  1
  C  C7  1  0.246426  0.650614  0.590633  1
  C  C8  1  0.753615  0.595625  0.939114  1
  C  C9  1  0.742525  0.063494  0.654745  1
  O  O10  1  0.100322  0.848541  0.273522  1
  O  O11  1  0.400395  0.852970  0.273901  1
  O  O12  1  0.757135  0.640477  0.128506  1
  O  O13  1  0.405423  0.422452  0.147659  1
  O  O14  1  0.104862  0.419369  0.146025  1
  O  O15  1  0.754195  0.495234  0.361783  1
  O  O16  1  0.737832  0.875644  0.508912  1
  O  O17  1  0.094239  0.718368  0.573956  1
  O  O18  1  0.394650  0.721481  0.573150  1
  O  O19  1  0.605350  0.278519  0.426850  1
  O  O20  1  0.905761  0.281632  0.426044  1
  O  O21  1  0.262168  0.124356  0.491088  1
  O  O22  1  0.245805  0.504766  0.638217  1
  O  O23  1  0.895138  0.580631  0.853975  1
  O  O24  1  0.594577  0.577548  0.852341  1
  O  O25  1  0.242865  0.359523  0.871494  1
  O  O26  1  0.599605  0.147030  0.726099  1
  O  O27  1  0.899678  0.151459  0.726478  1
