# generated using pymatgen
data_Li2V(CO3)2
_symmetry_space_group_name_H-M   'P 1'
_cell_length_a   7.92449628
_cell_length_b   7.92449628
_cell_length_c   9.04340577
_cell_angle_alpha   73.72587325
_cell_angle_beta   106.27412675
_cell_angle_gamma   73.21759744
_symmetry_Int_Tables_number   1
_chemical_formula_structural   Li2V(CO3)2
_chemical_formula_sum   'Li8 V4 C8 O24'
_cell_volume   479.94473568
_cell_formula_units_Z   4
loop_
 _symmetry_equiv_pos_site_id
 _symmetry_equiv_pos_as_xyz
  1  'x, y, z'
loop_
 _atom_site_type_symbol
 _atom_site_label
 _atom_site_symmetry_multiplicity
 _atom_site_fract_x
 _atom_site_fract_y
 _atom_site_fract_z
 _atom_site_occupancy
  Li  Li0  1  0.249340  0.886011  0.065894  1
  Li  Li1  1  0.276759  0.209837  0.366693  1
  Li  Li2  1  0.666435  0.158911  0.517881  1
  Li  Li3  1  0.841089  0.333565  0.017881  1
  Li  Li4  1  0.303824  0.226700  0.854283  1
  Li  Li5  1  0.773300  0.696176  0.354283  1
  Li  Li6  1  0.113989  0.750660  0.565894  1
  Li  Li7  1  0.790163  0.723241  0.866693  1
  V  V8  1  0.241352  0.501919  0.996885  1
  V  V9  1  0.498082  0.758647  0.496885  1
  V  V10  1  0.744169  0.001056  0.000411  1
  V  V11  1  0.998944  0.255831  0.500411  1
  C  C12  1  0.066037  0.036966  0.259571  1
  C  C13  1  0.527145  0.071499  0.228177  1
  C  C14  1  0.963034  0.933963  0.759571  1
  C  C15  1  0.928501  0.472855  0.728177  1
  C  C16  1  0.432727  0.965285  0.732743  1
  C  C17  1  0.034715  0.567273  0.232743  1
  C  C18  1  0.559266  0.535599  0.261863  1
  C  C19  1  0.464401  0.440734  0.761863  1
  O  O20  1  0.182119  0.880660  0.387278  1
  O  O21  1  0.012712  0.039280  0.108269  1
  O  O22  1  0.119340  0.817881  0.887278  1
  O  O23  1  0.524788  0.808050  0.722727  1
  O  O24  1  0.686236  0.977217  0.223181  1
  O  O25  1  0.516805  0.043551  0.376324  1
  O  O26  1  0.375276  0.185764  0.094907  1
  O  O27  1  0.304196  0.111283  0.599329  1
  O  O28  1  0.473799  0.980663  0.876885  1
  O  O29  1  0.960720  0.987288  0.608269  1
  O  O30  1  0.800272  0.997928  0.774633  1
  O  O31  1  0.022783  0.313764  0.723181  1
  O  O32  1  0.002072  0.199728  0.274633  1
  O  O33  1  0.191950  0.475212  0.222727  1
  O  O34  1  0.019337  0.526201  0.376885  1
  O  O35  1  0.501113  0.515289  0.124248  1
  O  O36  1  0.691480  0.393886  0.397426  1
  O  O37  1  0.606114  0.308520  0.897426  1
  O  O38  1  0.484711  0.498887  0.624248  1
  O  O39  1  0.294444  0.509913  0.768636  1
  O  O40  1  0.490087  0.705556  0.268636  1
  O  O41  1  0.888717  0.695804  0.099329  1
  O  O42  1  0.814236  0.624724  0.594907  1
  O  O43  1  0.956449  0.483195  0.876324  1
