# generated using pymatgen
data_Li6Mn2C4SO16
_symmetry_space_group_name_H-M   'P 1'
_cell_length_a   9.52052238
_cell_length_b   9.52052238
_cell_length_c   9.52052238
_cell_angle_alpha   60.00000000
_cell_angle_beta   60.00000000
_cell_angle_gamma   60.00000000
_symmetry_Int_Tables_number   1
_chemical_formula_structural   Li6Mn2C4SO16
_chemical_formula_sum   'Li12 Mn4 C8 S2 O32'
_cell_volume   610.19316263
_cell_formula_units_Z   2
loop_
 _symmetry_equiv_pos_site_id
 _symmetry_equiv_pos_as_xyz
  1  'x, y, z'
loop_
 _atom_site_type_symbol
 _atom_site_label
 _atom_site_symmetry_multiplicity
 _atom_site_fract_x
 _atom_site_fract_y
 _atom_site_fract_z
 _atom_site_occupancy
  Li  Li0  1  0.283189  0.716811  0.716811  1
  Li  Li1  1  0.533189  0.966811  0.966811  1
  Li  Li2  1  0.283189  0.716811  0.283189  1
  Li  Li3  1  0.716811  0.283189  0.716811  1
  Li  Li4  1  0.533189  0.533189  0.966811  1
  Li  Li5  1  0.966811  0.966811  0.533189  1
  Li  Li6  1  0.716811  0.716811  0.283189  1
  Li  Li7  1  0.283189  0.283189  0.716811  1
  Li  Li8  1  0.533189  0.966811  0.533189  1
  Li  Li9  1  0.966811  0.533189  0.533189  1
  Li  Li10  1  0.966811  0.533189  0.966811  1
  Li  Li11  1  0.716811  0.283189  0.283189  1
  Mn  Mn12  1  0.125000  0.125000  0.625000  1
  Mn  Mn13  1  0.625000  0.125000  0.125000  1
  Mn  Mn14  1  0.125000  0.625000  0.125000  1
  Mn  Mn15  1  0.125000  0.125000  0.125000  1
  C  C16  1  0.351306  0.946082  0.351306  1
  C  C17  1  0.303918  0.898694  0.898694  1
  C  C18  1  0.898694  0.898694  0.303918  1
  C  C19  1  0.351306  0.351306  0.351306  1
  C  C20  1  0.898694  0.898694  0.898694  1
  C  C21  1  0.351306  0.351306  0.946082  1
  C  C22  1  0.946082  0.351306  0.351306  1
  C  C23  1  0.898694  0.303918  0.898694  1
  S  S24  1  0.750000  0.750000  0.750000  1
  S  S25  1  0.500000  0.500000  0.500000  1
  O  O26  1  0.942518  0.685827  0.685827  1
  O  O27  1  0.685827  0.685827  0.942518  1
  O  O28  1  0.685827  0.685827  0.685827  1
  O  O29  1  0.685827  0.942518  0.685827  1
  O  O30  1  0.758860  0.031913  0.905197  1
  O  O31  1  0.905197  0.304030  0.758860  1
  O  O32  1  0.304030  0.758860  0.905197  1
  O  O33  1  0.491140  0.945970  0.218087  1
  O  O34  1  0.304030  0.905197  0.031913  1
  O  O35  1  0.031913  0.758860  0.304030  1
  O  O36  1  0.304030  0.031913  0.758860  1
  O  O37  1  0.218087  0.945970  0.344803  1
  O  O38  1  0.491140  0.344803  0.945970  1
  O  O39  1  0.905197  0.758860  0.031913  1
  O  O40  1  0.344803  0.218087  0.945970  1
  O  O41  1  0.031913  0.905197  0.758860  1
  O  O42  1  0.905197  0.031913  0.304030  1
  O  O43  1  0.218087  0.344803  0.491140  1
  O  O44  1  0.344803  0.491140  0.218087  1
  O  O45  1  0.758860  0.905197  0.304030  1
  O  O46  1  0.031913  0.304030  0.905197  1
  O  O47  1  0.945970  0.218087  0.491140  1
  O  O48  1  0.218087  0.491140  0.945970  1
  O  O49  1  0.945970  0.344803  0.218087  1
  O  O50  1  0.945970  0.491140  0.344803  1
  O  O51  1  0.758860  0.304030  0.031913  1
  O  O52  1  0.344803  0.945970  0.491140  1
  O  O53  1  0.491140  0.218087  0.344803  1
  O  O54  1  0.564173  0.307482  0.564173  1
  O  O55  1  0.564173  0.564173  0.564173  1
  O  O56  1  0.564173  0.564173  0.307482  1
  O  O57  1  0.307482  0.564173  0.564173  1
