# generated using pymatgen
data_Cd(BO2)2
_symmetry_space_group_name_H-M   'P 1'
_cell_length_a   6.46109487
_cell_length_b   11.35028108
_cell_length_c   11.37281755
_cell_angle_alpha   90.00000000
_cell_angle_beta   90.00000000
_cell_angle_gamma   90.00000000
_symmetry_Int_Tables_number   1
_chemical_formula_structural   Cd(BO2)2
_chemical_formula_sum   'Cd12 B24 O48'
_cell_volume   834.02833702
_cell_formula_units_Z   12
loop_
 _symmetry_equiv_pos_site_id
 _symmetry_equiv_pos_as_xyz
  1  'x, y, z'
loop_
 _atom_site_type_symbol
 _atom_site_label
 _atom_site_symmetry_multiplicity
 _atom_site_fract_x
 _atom_site_fract_y
 _atom_site_fract_z
 _atom_site_occupancy
  Cd  Cd0  1  0.345595  0.967702  0.232930  1
  Cd  Cd1  1  0.951245  0.927353  0.003332  1
  Cd  Cd2  1  0.385683  0.753202  0.774691  1
  Cd  Cd3  1  0.885683  0.746798  0.274691  1
  Cd  Cd4  1  0.451245  0.572647  0.503332  1
  Cd  Cd5  1  0.845595  0.532298  0.732930  1
  Cd  Cd6  1  0.154405  0.467702  0.232930  1
  Cd  Cd7  1  0.548755  0.427353  0.003332  1
  Cd  Cd8  1  0.114317  0.253202  0.774691  1
  Cd  Cd9  1  0.614317  0.246798  0.274691  1
  Cd  Cd10  1  0.048755  0.072647  0.503332  1
  Cd  Cd11  1  0.654405  0.032298  0.732930  1
  B  B12  1  0.124825  0.974221  0.751341  1
  B  B13  1  0.479713  0.962648  0.980269  1
  B  B14  1  0.751045  0.862088  0.538225  1
  B  B15  1  0.403724  0.823482  0.443216  1
  B  B16  1  0.883269  0.787920  0.740763  1
  B  B17  1  0.080298  0.751299  0.548934  1
  B  B18  1  0.580298  0.748701  0.048934  1
  B  B19  1  0.383269  0.712080  0.240763  1
  B  B20  1  0.903724  0.676518  0.943216  1
  B  B21  1  0.251045  0.637912  0.038225  1
  B  B22  1  0.979713  0.537352  0.480269  1
  B  B23  1  0.624825  0.525779  0.251341  1
  B  B24  1  0.375175  0.474221  0.751341  1
  B  B25  1  0.020287  0.462648  0.980269  1
  B  B26  1  0.748955  0.362088  0.538225  1
  B  B27  1  0.096276  0.323482  0.443216  1
  B  B28  1  0.616731  0.287920  0.740763  1
  B  B29  1  0.419702  0.251299  0.548934  1
  B  B30  1  0.919702  0.248701  0.048934  1
  B  B31  1  0.116731  0.212080  0.240763  1
  B  B32  1  0.596276  0.176518  0.943216  1
  B  B33  1  0.248955  0.137912  0.038225  1
  B  B34  1  0.520287  0.037352  0.480269  1
  B  B35  1  0.875175  0.025779  0.251341  1
  O  O36  1  0.702520  0.996122  0.530015  1
  O  O37  1  0.365125  0.958593  0.450255  1
  O  O38  1  0.328263  0.947367  0.755540  1
  O  O39  1  0.962525  0.925209  0.203061  1
  O  O40  1  0.976553  0.895418  0.803409  1
  O  O41  1  0.970860  0.858198  0.512512  1
  O  O42  1  0.511606  0.845487  0.967089  1
  O  O43  1  0.710464  0.829619  0.664496  1
  O  O44  1  0.627092  0.801666  0.449018  1
  O  O45  1  0.303002  0.792057  0.330252  1
  O  O46  1  0.536942  0.778896  0.172861  1
  O  O47  1  0.306110  0.761364  0.539906  1
  O  O48  1  0.806110  0.738636  0.039906  1
  O  O49  1  0.036942  0.721104  0.672861  1
  O  O50  1  0.803002  0.707943  0.830252  1
  O  O51  1  0.127092  0.698334  0.949018  1
  O  O52  1  0.210464  0.670381  0.164496  1
  O  O53  1  0.011606  0.654513  0.467089  1
  O  O54  1  0.470860  0.641802  0.012512  1
  O  O55  1  0.476553  0.604582  0.303409  1
  O  O56  1  0.462525  0.574791  0.703061  1
  O  O57  1  0.828263  0.552633  0.255540  1
  O  O58  1  0.865125  0.541407  0.950255  1
  O  O59  1  0.202520  0.503878  0.030015  1
  O  O60  1  0.797480  0.496122  0.530015  1
  O  O61  1  0.134875  0.458593  0.450255  1
  O  O62  1  0.171737  0.447367  0.755540  1
  O  O63  1  0.537475  0.425209  0.203061  1
  O  O64  1  0.523447  0.395418  0.803409  1
  O  O65  1  0.529140  0.358198  0.512512  1
  O  O66  1  0.988394  0.345487  0.967089  1
  O  O67  1  0.789536  0.329619  0.664496  1
  O  O68  1  0.872908  0.301666  0.449018  1
  O  O69  1  0.196998  0.292057  0.330252  1
  O  O70  1  0.963058  0.278896  0.172861  1
  O  O71  1  0.193890  0.261364  0.539906  1
  O  O72  1  0.693890  0.238636  0.039906  1
  O  O73  1  0.463058  0.221104  0.672861  1
  O  O74  1  0.696998  0.207943  0.830252  1
  O  O75  1  0.372908  0.198334  0.949018  1
  O  O76  1  0.289536  0.170381  0.164496  1
  O  O77  1  0.488394  0.154513  0.467089  1
  O  O78  1  0.029140  0.141802  0.012512  1
  O  O79  1  0.023447  0.104582  0.303409  1
  O  O80  1  0.037475  0.074791  0.703061  1
  O  O81  1  0.671737  0.052633  0.255540  1
  O  O82  1  0.634875  0.041407  0.950255  1
  O  O83  1  0.297480  0.003878  0.030015  1
