# generated using pymatgen
data_Na6FeO4
_symmetry_space_group_name_H-M   'P 1'
_cell_length_a   7.61470288
_cell_length_b   7.61470288
_cell_length_c   5.42079429
_cell_angle_alpha   90.00000000
_cell_angle_beta   90.00000000
_cell_angle_gamma   90.00000000
_symmetry_Int_Tables_number   1
_chemical_formula_structural   Na6FeO4
_chemical_formula_sum   'Na12 Fe2 O8'
_cell_volume   314.31770942
_cell_formula_units_Z   2
loop_
 _symmetry_equiv_pos_site_id
 _symmetry_equiv_pos_as_xyz
  1  'x, y, z'
loop_
 _atom_site_type_symbol
 _atom_site_label
 _atom_site_symmetry_multiplicity
 _atom_site_fract_x
 _atom_site_fract_y
 _atom_site_fract_z
 _atom_site_occupancy
  Na  Na0  1  0.290244  0.290244  0.500000  1
  Na  Na1  1  0.709756  0.290244  0.500000  1
  Na  Na2  1  0.000000  0.500000  0.404293  1
  Na  Na3  1  0.000000  0.500000  0.904293  1
  Na  Na4  1  0.290244  0.709756  0.500000  1
  Na  Na5  1  0.709756  0.709756  0.500000  1
  Na  Na6  1  0.790244  0.790244  0.000000  1
  Na  Na7  1  0.209756  0.790244  0.000000  1
  Na  Na8  1  0.500000  0.000000  0.095707  1
  Na  Na9  1  0.500000  0.000000  0.595707  1
  Na  Na10  1  0.790244  0.209756  0.000000  1
  Na  Na11  1  0.209756  0.209756  0.000000  1
  Fe  Fe12  1  0.500000  0.500000  0.000000  1
  Fe  Fe13  1  0.000000  0.000000  0.500000  1
  O  O14  1  0.000000  0.249337  0.671161  1
  O  O15  1  0.749337  0.500000  0.171161  1
  O  O16  1  0.250663  0.500000  0.171161  1
  O  O17  1  0.000000  0.750663  0.671161  1
  O  O18  1  0.500000  0.749337  0.828839  1
  O  O19  1  0.750663  0.000000  0.328839  1
  O  O20  1  0.249337  0.000000  0.328839  1
  O  O21  1  0.500000  0.250663  0.828839  1
