# generated using pymatgen
data_Cr4OF11
_symmetry_space_group_name_H-M   'P 1'
_cell_length_a   5.05806836
_cell_length_b   5.34240289
_cell_length_c   16.91962046
_cell_angle_alpha   83.27198352
_cell_angle_beta   81.41894060
_cell_angle_gamma   61.77912921
_symmetry_Int_Tables_number   1
_chemical_formula_structural   Cr4OF11
_chemical_formula_sum   'Cr8 O2 F22'
_cell_volume   397.77865029
_cell_formula_units_Z   2
loop_
 _symmetry_equiv_pos_site_id
 _symmetry_equiv_pos_as_xyz
  1  'x, y, z'
loop_
 _atom_site_type_symbol
 _atom_site_label
 _atom_site_symmetry_multiplicity
 _atom_site_fract_x
 _atom_site_fract_y
 _atom_site_fract_z
 _atom_site_occupancy
  Cr  Cr0  1  0.391850  0.365505  0.879008  1
  Cr  Cr1  1  0.872757  0.871554  0.375301  1
  Cr  Cr2  1  0.248335  0.249756  0.249945  1
  Cr  Cr3  1  0.757573  0.749133  0.749310  1
  Cr  Cr4  1  0.138134  0.135025  0.622226  1
  Cr  Cr5  1  0.621215  0.627477  0.123845  1
  Cr  Cr6  1  0.490035  0.489277  0.504191  1
  Cr  Cr7  1  0.980243  0.011237  0.996966  1
  O  O8  1  0.595714  0.217516  0.968010  1
  O  O9  1  0.344076  0.342514  0.593137  1
  F  F10  1  0.686394  0.063538  0.812203  1
  F  F11  1  0.563422  0.187520  0.437329  1
  F  F12  1  0.069594  0.686410  0.937275  1
  F  F13  1  0.654304  0.031744  0.281791  1
  F  F14  1  0.155990  0.530195  0.785324  1
  F  F15  1  0.404947  0.407213  0.156568  1
  F  F16  1  0.912526  0.912824  0.656877  1
  F  F17  1  0.094576  0.718030  0.468775  1
  F  F18  1  0.158847  0.157463  0.906029  1
  F  F19  1  0.182908  0.562074  0.312495  1
  F  F20  1  0.821796  0.436271  0.686734  1
  F  F21  1  0.844130  0.842315  0.091802  1
  F  F22  1  0.092939  0.090759  0.343325  1
  F  F23  1  0.594483  0.593985  0.842887  1
  F  F24  1  0.903340  0.281740  0.531231  1
  F  F25  1  0.844045  0.468601  0.217422  1
  F  F26  1  0.653514  0.654951  0.410411  1
  F  F27  1  0.350590  0.965432  0.716671  1
  F  F28  1  0.930838  0.312379  0.061513  1
  F  F29  1  0.432232  0.811224  0.562231  1
  F  F30  1  0.315725  0.937380  0.187490  1
  F  F31  1  0.392925  0.788961  0.031679  1
