# generated using pymatgen
data_LiMn7O12
_symmetry_space_group_name_H-M   'P 1'
_cell_length_a   5.17499444
_cell_length_b   5.17499444
_cell_length_c   9.98316722
_cell_angle_alpha   83.90583930
_cell_angle_beta   96.09416070
_cell_angle_gamma   60.57229747
_symmetry_Int_Tables_number   1
_chemical_formula_structural   LiMn7O12
_chemical_formula_sum   'Li1 Mn7 O12'
_cell_volume   227.64193390
_cell_formula_units_Z   1
loop_
 _symmetry_equiv_pos_site_id
 _symmetry_equiv_pos_as_xyz
  1  'x, y, z'
loop_
 _atom_site_type_symbol
 _atom_site_label
 _atom_site_symmetry_multiplicity
 _atom_site_fract_x
 _atom_site_fract_y
 _atom_site_fract_z
 _atom_site_occupancy
  Li  Li0  1  0.076181  0.076181  0.500000  1
  Mn  Mn1  1  0.921615  0.921615  0.000000  1
  Mn  Mn2  1  0.746265  0.746265  0.500000  1
  Mn  Mn3  1  0.585784  0.585784  0.000000  1
  Mn  Mn4  1  0.422566  0.422566  0.500000  1
  Mn  Mn5  1  0.481912  0.998720  0.735437  1
  Mn  Mn6  1  0.254975  0.254975  0.000000  1
  Mn  Mn7  1  0.998720  0.481912  0.264563  1
  O  O8  1  0.819353  0.662219  0.882097  1
  O  O9  1  0.961103  0.241866  0.105805  1
  O  O10  1  0.708906  0.468893  0.398930  1
  O  O11  1  0.662219  0.819353  0.117903  1
  O  O12  1  0.468893  0.708906  0.601070  1
  O  O13  1  0.745459  0.040791  0.610693  1
  O  O14  1  0.241866  0.961103  0.894195  1
  O  O15  1  0.553085  0.278175  0.903872  1
  O  O16  1  0.359902  0.171916  0.382900  1
  O  O17  1  0.278175  0.553085  0.096128  1
  O  O18  1  0.040791  0.745459  0.389307  1
  O  O19  1  0.171916  0.359902  0.617100  1
