# generated using pymatgen
data_V2OF5
_symmetry_space_group_name_H-M   'P 1'
_cell_length_a   5.20338606
_cell_length_b   5.23242556
_cell_length_c   5.41455218
_cell_angle_alpha   90.95773004
_cell_angle_beta   118.23973636
_cell_angle_gamma   119.18145894
_symmetry_Int_Tables_number   1
_chemical_formula_structural   V2OF5
_chemical_formula_sum   'V2 O1 F5'
_cell_volume   107.36215956
_cell_formula_units_Z   1
loop_
 _symmetry_equiv_pos_site_id
 _symmetry_equiv_pos_as_xyz
  1  'x, y, z'
loop_
 _atom_site_type_symbol
 _atom_site_label
 _atom_site_symmetry_multiplicity
 _atom_site_fract_x
 _atom_site_fract_y
 _atom_site_fract_z
 _atom_site_occupancy
  V  V0  1  0.692600  0.332351  0.006846  1
  V  V1  1  0.684997  0.846306  0.528338  1
  O  O2  1  0.758232  0.179326  0.785154  1
  F  F3  1  0.596535  0.499041  0.268634  1
  F  F4  1  0.184259  0.994373  0.790261  1
  F  F5  1  0.794884  0.105420  0.287192  1
  F  F6  1  0.181266  0.696162  0.267326  1
  F  F7  1  0.573147  0.585266  0.771015  1
