# generated using pymatgen
data_Li4MnCrO6
_symmetry_space_group_name_H-M   'P 1'
_cell_length_a   5.00526567
_cell_length_b   5.00526567
_cell_length_c   19.29164414
_cell_angle_alpha   87.17427590
_cell_angle_beta   92.82572410
_cell_angle_gamma   60.52720606
_symmetry_Int_Tables_number   1
_chemical_formula_structural   Li4MnCrO6
_chemical_formula_sum   'Li16 Mn4 Cr4 O24'
_cell_volume   418.74453132
_cell_formula_units_Z   4
loop_
 _symmetry_equiv_pos_site_id
 _symmetry_equiv_pos_as_xyz
  1  'x, y, z'
loop_
 _atom_site_type_symbol
 _atom_site_label
 _atom_site_symmetry_multiplicity
 _atom_site_fract_x
 _atom_site_fract_y
 _atom_site_fract_z
 _atom_site_occupancy
  Li  Li0  1  0.499605  0.250303  0.875015  1
  Li  Li1  1  0.376640  0.376640  0.500000  1
  Li  Li2  1  0.408669  0.661774  0.625044  1
  Li  Li3  1  0.001042  0.749537  0.375175  1
  Li  Li4  1  0.872328  0.872328  0.000000  1
  Li  Li5  1  0.749537  0.001042  0.624825  1
  Li  Li6  1  0.902715  0.169504  0.125274  1
  Li  Li7  1  0.250303  0.499605  0.124985  1
  Li  Li8  1  0.335856  0.090733  0.375395  1
  Li  Li9  1  0.169504  0.902715  0.874726  1
  Li  Li10  1  0.830756  0.597068  0.875311  1
  Li  Li11  1  0.661774  0.408669  0.374956  1
  Li  Li12  1  0.090733  0.335856  0.624605  1
  Li  Li13  1  0.127886  0.627083  0.749948  1
  Li  Li14  1  0.597068  0.830756  0.124689  1
  Li  Li15  1  0.627083  0.127886  0.250052  1
  Mn  Mn16  1  0.457654  0.957376  0.749935  1
  Mn  Mn17  1  0.957376  0.457654  0.250065  1
  Mn  Mn18  1  0.707521  0.707521  0.500000  1
  Mn  Mn19  1  0.542410  0.542410  0.000000  1
  Cr  Cr20  1  0.796451  0.295428  0.750005  1
  Cr  Cr21  1  0.295428  0.796451  0.249995  1
  Cr  Cr22  1  0.204006  0.204006  0.000000  1
  Cr  Cr23  1  0.045342  0.045342  0.500000  1
  O  O24  1  0.463816  0.285093  0.692952  1
  O  O25  1  0.784980  0.964976  0.806903  1
  O  O26  1  0.964976  0.784980  0.193097  1
  O  O27  1  0.360552  0.747544  0.443446  1
  O  O28  1  0.497193  0.610942  0.806625  1
  O  O29  1  0.285093  0.463816  0.307048  1
  O  O30  1  0.393500  0.995387  0.555684  1
  O  O31  1  0.857191  0.254555  0.944222  1
  O  O32  1  0.997310  0.111306  0.306813  1
  O  O33  1  0.747544  0.360552  0.556554  1
  O  O34  1  0.745168  0.642808  0.694293  1
  O  O35  1  0.888982  0.502872  0.056600  1
  O  O36  1  0.111306  0.997310  0.693187  1
  O  O37  1  0.254555  0.857191  0.055778  1
  O  O38  1  0.245494  0.143074  0.194231  1
  O  O39  1  0.995387  0.393500  0.444316  1
  O  O40  1  0.143074  0.245494  0.805769  1
  O  O41  1  0.610942  0.497193  0.193375  1
  O  O42  1  0.714020  0.035133  0.443013  1
  O  O43  1  0.502872  0.888982  0.943400  1
  O  O44  1  0.642808  0.745168  0.305707  1
  O  O45  1  0.035133  0.714020  0.556987  1
  O  O46  1  0.214747  0.535670  0.943065  1
  O  O47  1  0.535670  0.214747  0.056935  1
