# generated using pymatgen
data_La4Ti3O12
_symmetry_space_group_name_H-M   'P 1'
_cell_length_a   5.57554869
_cell_length_b   5.71209943
_cell_length_c   7.97116604
_cell_angle_alpha   91.22957349
_cell_angle_beta   90.69269794
_cell_angle_gamma   90.51634379
_symmetry_Int_Tables_number   1
_chemical_formula_structural   La4Ti3O12
_chemical_formula_sum   'La4 Ti3 O12'
_cell_volume   253.77848375
_cell_formula_units_Z   1
loop_
 _symmetry_equiv_pos_site_id
 _symmetry_equiv_pos_as_xyz
  1  'x, y, z'
loop_
 _atom_site_type_symbol
 _atom_site_label
 _atom_site_symmetry_multiplicity
 _atom_site_fract_x
 _atom_site_fract_y
 _atom_site_fract_z
 _atom_site_occupancy
  La  La0  1  0.010641  0.042036  0.268619  1
  La  La1  1  0.486953  0.571682  0.273867  1
  La  La2  1  0.513047  0.428318  0.726133  1
  La  La3  1  0.989359  0.957964  0.731381  1
  Ti  Ti4  1  0.000000  0.500000  0.000000  1
  Ti  Ti5  1  0.000000  0.500000  0.500000  1
  Ti  Ti6  1  0.500000  0.000000  0.000000  1
  O  O7  1  0.083243  0.515028  0.757042  1
  O  O8  1  0.215639  0.780516  0.048278  1
  O  O9  1  0.177114  0.785542  0.461126  1
  O  O10  1  0.276707  0.288685  0.049956  1
  O  O11  1  0.283213  0.323043  0.456130  1
  O  O12  1  0.407133  0.020947  0.773817  1
  O  O13  1  0.592867  0.979053  0.226183  1
  O  O14  1  0.716787  0.676957  0.543870  1
  O  O15  1  0.723293  0.711315  0.950044  1
  O  O16  1  0.822886  0.214458  0.538874  1
  O  O17  1  0.784361  0.219484  0.951722  1
  O  O18  1  0.916757  0.484972  0.242958  1
