# generated using pymatgen
data_LaMgI5
_symmetry_space_group_name_H-M   'P 1'
_cell_length_a   10.96242535
_cell_length_b   12.29427130
_cell_length_c   12.61272589
_cell_angle_alpha   90.00000000
_cell_angle_beta   102.13884587
_cell_angle_gamma   90.00000000
_symmetry_Int_Tables_number   1
_chemical_formula_structural   LaMgI5
_chemical_formula_sum   'La4 Mg4 I20'
_cell_volume   1661.87271716
_cell_formula_units_Z   4
loop_
 _symmetry_equiv_pos_site_id
 _symmetry_equiv_pos_as_xyz
  1  'x, y, z'
loop_
 _atom_site_type_symbol
 _atom_site_label
 _atom_site_symmetry_multiplicity
 _atom_site_fract_x
 _atom_site_fract_y
 _atom_site_fract_z
 _atom_site_occupancy
  La  La0  1  0.510957  0.738612  0.247247  1
  La  La1  1  0.489043  0.238612  0.252753  1
  La  La2  1  0.510957  0.761388  0.747247  1
  La  La3  1  0.489043  0.261388  0.752753  1
  Mg  Mg4  1  0.124575  0.495829  0.114803  1
  Mg  Mg5  1  0.124575  0.004171  0.614803  1
  Mg  Mg6  1  0.875425  0.995829  0.385197  1
  Mg  Mg7  1  0.875425  0.504171  0.885197  1
  I  I8  1  0.218322  0.691392  0.205157  1
  I  I9  1  0.198533  0.296920  0.207960  1
  I  I10  1  0.481163  0.216898  0.000007  1
  I  I11  1  0.445085  0.986886  0.268327  1
  I  I12  1  0.869469  0.506364  0.101736  1
  I  I13  1  0.130531  0.006364  0.398264  1
  I  I14  1  0.554915  0.486886  0.231673  1
  I  I15  1  0.218322  0.808608  0.705157  1
  I  I16  1  0.518837  0.716898  0.499993  1
  I  I17  1  0.198533  0.203080  0.707960  1
  I  I18  1  0.801467  0.796920  0.292040  1
  I  I19  1  0.481163  0.283102  0.500007  1
  I  I20  1  0.781678  0.191392  0.294843  1
  I  I21  1  0.445085  0.513114  0.768327  1
  I  I22  1  0.869469  0.993636  0.601736  1
  I  I23  1  0.130531  0.493636  0.898264  1
  I  I24  1  0.554915  0.013114  0.731673  1
  I  I25  1  0.518837  0.783102  0.999993  1
  I  I26  1  0.801467  0.703080  0.792040  1
  I  I27  1  0.781678  0.308608  0.794843  1
