# generated using pymatgen
data_LiFeBO3
_symmetry_space_group_name_H-M   'P 1'
_cell_length_a   3.16102954
_cell_length_b   14.46426327
_cell_length_c   14.47145282
_cell_angle_alpha   60.07779629
_cell_angle_beta   89.20958530
_cell_angle_gamma   89.28442422
_symmetry_Int_Tables_number   1
_chemical_formula_structural   LiFeBO3
_chemical_formula_sum   'Li9 Fe9 B9 O27'
_cell_volume   573.39927494
_cell_formula_units_Z   9
loop_
 _symmetry_equiv_pos_site_id
 _symmetry_equiv_pos_as_xyz
  1  'x, y, z'
loop_
 _atom_site_type_symbol
 _atom_site_label
 _atom_site_symmetry_multiplicity
 _atom_site_fract_x
 _atom_site_fract_y
 _atom_site_fract_z
 _atom_site_occupancy
  Li  Li0  1  0.508172  0.883192  0.900323  1
  Li  Li1  1  0.486436  0.562562  0.884783  1
  Li  Li2  1  0.560501  0.884049  0.552944  1
  Li  Li3  1  0.505934  0.216382  0.883899  1
  Li  Li4  1  0.449520  0.553778  0.563143  1
  Li  Li5  1  0.503122  0.250885  0.546717  1
  Li  Li6  1  0.494122  0.900365  0.216550  1
  Li  Li7  1  0.489334  0.546358  0.203231  1
  Li  Li8  1  0.500542  0.202526  0.251588  1
  Fe  Fe9  1  0.064428  0.804506  0.752571  1
  Fe  Fe10  1  0.007957  0.442150  0.805961  1
  Fe  Fe11  1  0.010639  0.112842  0.774274  1
  Fe  Fe12  1  0.940971  0.753391  0.442825  1
  Fe  Fe13  1  0.974515  0.464377  0.430133  1
  Fe  Fe14  1  0.022518  0.105806  0.465215  1
  Fe  Fe15  1  0.985816  0.774174  0.113675  1
  Fe  Fe16  1  0.987401  0.429070  0.106781  1
  Fe  Fe17  1  0.009625  0.113133  0.112950  1
  B  B18  1  0.996407  0.662625  0.991318  1
  B  B19  1  0.000608  0.667018  0.666627  1
  B  B20  1  0.986577  0.346221  0.663512  1
  B  B21  1  0.015826  0.990944  0.346401  1
  B  B22  1  0.530567  0.013737  0.668106  1
  B  B23  1  0.466971  0.667703  0.319217  1
  B  B24  1  0.998153  0.332970  0.334026  1
  B  B25  1  0.007041  0.999735  0.000316  1
  B  B26  1  0.503582  0.317984  0.014742  1
  O  O27  1  0.010219  0.915224  0.980093  1
  O  O28  1  0.970246  0.573158  0.978859  1
  O  O29  1  0.077198  0.763051  0.903564  1
  O  O30  1  0.563543  0.913401  0.678796  1
  O  O31  1  0.503693  0.407713  0.914413  1
  O  O32  1  0.007471  0.592602  0.774319  1
  O  O33  1  0.072453  0.773471  0.632989  1
  O  O34  1  0.024704  0.104251  0.916064  1
  O  O35  1  0.054830  0.978159  0.448165  1
  O  O36  1  0.056672  0.332826  0.764494  1
  O  O37  1  0.921662  0.634945  0.593068  1
  O  O38  1  0.918999  0.904058  0.333668  1
  O  O39  1  0.945631  0.257394  0.651039  1
  O  O40  1  0.960007  0.448363  0.574449  1
  O  O41  1  0.514740  0.024266  0.758556  1
  O  O42  1  0.446661  0.678878  0.408702  1
  O  O43  1  0.474326  0.565669  0.331969  1
  O  O44  1  0.513810  0.102916  0.566353  1
  O  O45  1  0.986423  0.979585  0.104910  1
  O  O46  1  0.480455  0.757918  0.218296  1
  O  O47  1  0.009472  0.326439  0.432922  1
  O  O48  1  0.984142  0.240595  0.327447  1
  O  O49  1  0.000633  0.431921  0.241792  1
  O  O50  1  0.944454  0.650560  0.092409  1
  O  O51  1  0.069571  0.091489  0.257411  1
  O  O52  1  0.495864  0.330405  0.104168  1
  O  O53  1  0.510656  0.217170  0.024786  1
