# generated using pymatgen
data_Li4Mn3Co3(CuO8)2
_symmetry_space_group_name_H-M   'P 1'
_cell_length_a   5.74049714
_cell_length_b   5.74049714
_cell_length_c   9.54958030
_cell_angle_alpha   89.87128988
_cell_angle_beta   90.12871012
_cell_angle_gamma   120.02950151
_symmetry_Int_Tables_number   1
_chemical_formula_structural   Li4Mn3Co3(CuO8)2
_chemical_formula_sum   'Li4 Mn3 Co3 Cu2 O16'
_cell_volume   272.44778617
_cell_formula_units_Z   1
loop_
 _symmetry_equiv_pos_site_id
 _symmetry_equiv_pos_as_xyz
  1  'x, y, z'
loop_
 _atom_site_type_symbol
 _atom_site_label
 _atom_site_symmetry_multiplicity
 _atom_site_fract_x
 _atom_site_fract_y
 _atom_site_fract_z
 _atom_site_occupancy
  Li  Li0  1  0.664916  0.335084  0.100282  1
  Li  Li1  1  0.004441  0.995559  0.001938  1
  Li  Li2  1  0.005382  0.994618  0.506174  1
  Li  Li3  1  0.331706  0.668294  0.605670  1
  Mn  Mn4  1  0.830803  0.169197  0.785815  1
  Mn  Mn5  1  0.661718  0.830516  0.284475  1
  Mn  Mn6  1  0.169484  0.338282  0.284475  1
  Co  Co7  1  0.830609  0.661818  0.786679  1
  Co  Co8  1  0.338182  0.169391  0.786679  1
  Co  Co9  1  0.168784  0.831216  0.287768  1
  Cu  Cu10  1  0.666883  0.333117  0.516585  1
  Cu  Cu11  1  0.332382  0.667618  0.003319  1
  O  O12  1  0.843616  0.676140  0.392585  1
  O  O13  1  0.516277  0.483723  0.675012  1
  O  O14  1  0.667119  0.332881  0.891413  1
  O  O15  1  0.999894  0.000106  0.691335  1
  O  O16  1  0.001517  0.998483  0.188640  1
  O  O17  1  0.323860  0.156384  0.392585  1
  O  O18  1  0.961418  0.484815  0.666479  1
  O  O19  1  0.515185  0.038582  0.666479  1
  O  O20  1  0.159093  0.840907  0.892103  1
  O  O21  1  0.841854  0.158146  0.394854  1
  O  O22  1  0.475932  0.963855  0.168644  1
  O  O23  1  0.036145  0.524068  0.168644  1
  O  O24  1  0.334018  0.665982  0.391928  1
  O  O25  1  0.680750  0.839966  0.897230  1
  O  O26  1  0.482241  0.517759  0.166774  1
  O  O27  1  0.160034  0.319250  0.897230  1
