# generated using pymatgen
data_Sr16V12O39
_symmetry_space_group_name_H-M   'P 1'
_cell_length_a   7.85984754
_cell_length_b   8.78278518
_cell_length_c   14.42090689
_cell_angle_alpha   79.46602012
_cell_angle_beta   82.13324699
_cell_angle_gamma   63.48039967
_symmetry_Int_Tables_number   1
_chemical_formula_structural   Sr16V12O39
_chemical_formula_sum   'Sr16 V12 O39'
_cell_volume   874.00999866
_cell_formula_units_Z   1
loop_
 _symmetry_equiv_pos_site_id
 _symmetry_equiv_pos_as_xyz
  1  'x, y, z'
loop_
 _atom_site_type_symbol
 _atom_site_label
 _atom_site_symmetry_multiplicity
 _atom_site_fract_x
 _atom_site_fract_y
 _atom_site_fract_z
 _atom_site_occupancy
  Sr  Sr0  1  0.924680  0.847437  0.598323  1
  Sr  Sr1  1  0.888891  0.778087  0.863583  1
  Sr  Sr2  1  0.401428  0.778098  0.862991  1
  Sr  Sr3  1  0.428765  0.848547  0.594577  1
  Sr  Sr4  1  0.853070  0.709592  0.134063  1
  Sr  Sr5  1  0.820618  0.646168  0.404380  1
  Sr  Sr6  1  0.330252  0.647210  0.404554  1
  Sr  Sr7  1  0.370278  0.710047  0.133764  1
  Sr  Sr8  1  0.673306  0.352501  0.595441  1
  Sr  Sr9  1  0.633042  0.290030  0.863261  1
  Sr  Sr10  1  0.144647  0.290495  0.863390  1
  Sr  Sr11  1  0.175130  0.355368  0.595387  1
  Sr  Sr12  1  0.595898  0.223420  0.133926  1
  Sr  Sr13  1  0.567671  0.151234  0.405496  1
  Sr  Sr14  1  0.113671  0.223045  0.133910  1
  Sr  Sr15  1  0.078811  0.150384  0.405377  1
  V  V16  1  0.963526  0.926782  0.292639  1
  V  V17  1  0.465171  0.930846  0.276870  1
  V  V18  1  0.786557  0.566448  0.718027  1
  V  V19  1  0.283958  0.573915  0.717931  1
  V  V20  1  0.715605  0.428485  0.279163  1
  V  V21  1  0.250014  0.499690  0.000668  1
  V  V22  1  0.749687  0.500179  0.000564  1
  V  V23  1  0.214250  0.431381  0.279385  1
  V  V24  1  0.534242  0.070119  0.720434  1
  V  V25  1  0.035630  0.070772  0.717594  1
  V  V26  1  0.001659  0.003119  0.987357  1
  V  V27  1  0.499936  0.000070  0.000063  1
  O  O28  1  0.946844  0.894483  0.423559  1
  O  O29  1  0.662773  0.811159  0.725865  1
  O  O30  1  0.483376  0.966647  0.133463  1
  O  O31  1  0.198166  0.933182  0.266945  1
  O  O32  1  0.735179  0.933101  0.267195  1
  O  O33  1  0.165208  0.809130  0.721499  1
  O  O34  1  0.447661  0.895131  0.418875  1
  O  O35  1  0.770270  0.523027  0.868419  1
  O  O36  1  0.627182  0.747853  0.998030  1
  O  O37  1  0.801071  0.607626  0.578337  1
  O  O38  1  0.534487  0.568926  0.724251  1
  O  O39  1  0.261377  0.543446  0.868808  1
  O  O40  1  0.034573  0.568777  0.724334  1
  O  O41  1  0.091143  0.682734  0.272228  1
  O  O42  1  0.115255  0.762591  0.014262  1
  O  O43  1  0.591219  0.678587  0.275757  1
  O  O44  1  0.305434  0.601300  0.578355  1
  O  O45  1  0.904935  0.329895  0.721770  1
  O  O46  1  0.966929  0.429755  0.276580  1
  O  O47  1  0.499898  0.499480  0.002142  1
  O  O48  1  0.999231  0.499277  0.003266  1
  O  O49  1  0.698033  0.393946  0.417982  1
  O  O50  1  0.732994  0.466631  0.136939  1
  O  O51  1  0.232882  0.465249  0.136610  1
  O  O52  1  0.464470  0.431785  0.276455  1
  O  O53  1  0.405608  0.325994  0.726163  1
  O  O54  1  0.197773  0.396518  0.418186  1
  O  O55  1  0.881316  0.230713  0.013768  1
  O  O56  1  0.775310  0.069120  0.723477  1
  O  O57  1  0.841752  0.181981  0.271917  1
  O  O58  1  0.052887  0.106454  0.578829  1
  O  O59  1  0.516797  0.033507  0.866109  1
  O  O60  1  0.017937  0.034781  0.859098  1
  O  O61  1  0.373419  0.253281  0.997964  1
  O  O62  1  0.551364  0.105640  0.580761  1
  O  O63  1  0.339855  0.182453  0.275813  1
  O  O64  1  0.293716  0.069384  0.723665  1
  O  O65  1  0.753646  0.998833  0.005438  1
  O  O66  1  0.244898  0.998674  0.005664  1
