# generated using pymatgen
data_Li3V2CrO6
_symmetry_space_group_name_H-M   'P 1'
_cell_length_a   6.63924676
_cell_length_b   6.63924676
_cell_length_c   5.97723512
_cell_angle_alpha   76.98058828
_cell_angle_beta   103.01941172
_cell_angle_gamma   153.76815007
_symmetry_Int_Tables_number   1
_chemical_formula_structural   Li3V2CrO6
_chemical_formula_sum   'Li3 V2 Cr1 O6'
_cell_volume   113.29831277
_cell_formula_units_Z   1
loop_
 _symmetry_equiv_pos_site_id
 _symmetry_equiv_pos_as_xyz
  1  'x, y, z'
loop_
 _atom_site_type_symbol
 _atom_site_label
 _atom_site_symmetry_multiplicity
 _atom_site_fract_x
 _atom_site_fract_y
 _atom_site_fract_z
 _atom_site_occupancy
  Li  Li0  1  0.000000  0.000000  0.000000  1
  Li  Li1  1  0.335117  0.664883  0.660979  1
  Li  Li2  1  0.664883  0.335117  0.339021  1
  V  V3  1  0.332336  0.667664  0.166310  1
  V  V4  1  0.667664  0.332336  0.833690  1
  Cr  Cr5  1  0.000000  0.000000  0.500000  1
  O  O6  1  0.838972  0.161028  0.404027  1
  O  O7  1  0.171144  0.828856  0.074498  1
  O  O8  1  0.161028  0.838972  0.595973  1
  O  O9  1  0.505719  0.494281  0.734356  1
  O  O10  1  0.494281  0.505719  0.265644  1
  O  O11  1  0.828856  0.171144  0.925502  1
