# generated using pymatgen
data_Li2Mn3(BO3)3
_symmetry_space_group_name_H-M   'P 1'
_cell_length_a   14.75215763
_cell_length_b   14.75215763
_cell_length_c   8.24519773
_cell_angle_alpha   89.93844938
_cell_angle_beta   90.06155062
_cell_angle_gamma   155.18416670
_symmetry_Int_Tables_number   1
_chemical_formula_structural   Li2Mn3(BO3)3
_chemical_formula_sum   'Li8 Mn12 B12 O36'
_cell_volume   753.10216558
_cell_formula_units_Z   4
loop_
 _symmetry_equiv_pos_site_id
 _symmetry_equiv_pos_as_xyz
  1  'x, y, z'
loop_
 _atom_site_type_symbol
 _atom_site_label
 _atom_site_symmetry_multiplicity
 _atom_site_fract_x
 _atom_site_fract_y
 _atom_site_fract_z
 _atom_site_occupancy
  Li  Li0  1  0.743634  0.256366  0.294050  1
  Li  Li1  1  0.243676  0.756324  0.289512  1
  Li  Li2  1  0.428954  0.571046  0.339595  1
  Li  Li3  1  0.073674  0.926326  0.371948  1
  Li  Li4  1  0.994042  0.005958  0.789063  1
  Li  Li5  1  0.493569  0.506431  0.789468  1
  Li  Li6  1  0.678935  0.321065  0.837147  1
  Li  Li7  1  0.823203  0.176797  0.873341  1
  Mn  Mn8  1  0.751475  0.747786  0.143837  1
  Mn  Mn9  1  0.252214  0.248525  0.143837  1
  Mn  Mn10  1  0.906112  0.599183  0.170879  1
  Mn  Mn11  1  0.400817  0.093888  0.170879  1
  Mn  Mn12  1  0.590794  0.908813  0.188371  1
  Mn  Mn13  1  0.091187  0.409206  0.188371  1
  Mn  Mn14  1  0.499058  0.995887  0.643551  1
  Mn  Mn15  1  0.004113  0.500942  0.643551  1
  Mn  Mn16  1  0.657790  0.849240  0.670911  1
  Mn  Mn17  1  0.150760  0.342210  0.670911  1
  Mn  Mn18  1  0.843490  0.662600  0.685091  1
  Mn  Mn19  1  0.337400  0.156510  0.685091  1
  B  B20  1  0.992365  0.496290  0.006772  1
  B  B21  1  0.503710  0.007635  0.006772  1
  B  B22  1  0.915612  0.084388  0.998635  1
  B  B23  1  0.417356  0.582644  0.995703  1
  B  B24  1  0.081052  0.918948  0.002776  1
  B  B25  1  0.581443  0.418557  0.992274  1
  B  B26  1  0.751232  0.754908  0.504772  1
  B  B27  1  0.245092  0.248768  0.504772  1
  B  B28  1  0.331198  0.668802  0.493122  1
  B  B29  1  0.831235  0.168765  0.504945  1
  B  B30  1  0.667520  0.332480  0.496170  1
  B  B31  1  0.165093  0.834907  0.496630  1
  O  O32  1  0.465091  0.534909  0.017926  1
  O  O33  1  0.963152  0.036848  0.018210  1
  O  O34  1  0.629887  0.370113  0.011846  1
  O  O35  1  0.128563  0.871437  0.025009  1
  O  O36  1  0.052163  0.947837  0.139089  1
  O  O37  1  0.552851  0.447149  0.122823  1
  O  O38  1  0.884822  0.115178  0.126380  1
  O  O39  1  0.388865  0.611135  0.130865  1
  O  O40  1  0.977134  0.525736  0.156897  1
  O  O41  1  0.474264  0.022866  0.156897  1
  O  O42  1  0.812680  0.187320  0.349717  1
  O  O43  1  0.313214  0.686786  0.334867  1
  O  O44  1  0.651026  0.348974  0.339042  1
  O  O45  1  0.146058  0.853942  0.341299  1
  O  O46  1  0.705366  0.760115  0.365528  1
  O  O47  1  0.239885  0.294634  0.365528  1
  O  O48  1  0.820496  0.729141  0.497916  1
  O  O49  1  0.270859  0.179504  0.497916  1
  O  O50  1  0.212565  0.787435  0.516693  1
  O  O51  1  0.715073  0.284927  0.521981  1
  O  O52  1  0.878896  0.121104  0.526730  1
  O  O53  1  0.379573  0.620427  0.513274  1
  O  O54  1  0.802553  0.197447  0.640936  1
  O  O55  1  0.302234  0.697766  0.623022  1
  O  O56  1  0.638308  0.361692  0.630009  1
  O  O57  1  0.134420  0.865580  0.624782  1
  O  O58  1  0.728186  0.775606  0.656108  1
  O  O59  1  0.224394  0.271814  0.656108  1
  O  O60  1  0.062294  0.937706  0.847961  1
  O  O61  1  0.563313  0.436687  0.834012  1
  O  O62  1  0.896474  0.103526  0.843291  1
  O  O63  1  0.400585  0.599415  0.839126  1
  O  O64  1  0.958212  0.513001  0.866054  1
  O  O65  1  0.486999  0.041788  0.866054  1
  O  O66  1  0.563465  0.970417  0.001535  1
  O  O67  1  0.029583  0.436535  0.001535  1
