# generated using pymatgen
data_H8Se2N2O5
_symmetry_space_group_name_H-M   'P 1'
_cell_length_a   7.06424251
_cell_length_b   7.55196120
_cell_length_c   13.53868571
_cell_angle_alpha   90.00000000
_cell_angle_beta   90.00000000
_cell_angle_gamma   90.00000000
_symmetry_Int_Tables_number   1
_chemical_formula_structural   H8Se2N2O5
_chemical_formula_sum   'H32 Se8 N8 O20'
_cell_volume   722.27379164
_cell_formula_units_Z   4
loop_
 _symmetry_equiv_pos_site_id
 _symmetry_equiv_pos_as_xyz
  1  'x, y, z'
loop_
 _atom_site_type_symbol
 _atom_site_label
 _atom_site_symmetry_multiplicity
 _atom_site_fract_x
 _atom_site_fract_y
 _atom_site_fract_z
 _atom_site_occupancy
  H  H0  1  0.210726  0.629974  0.953518  1
  H  H1  1  0.710726  0.870026  0.046482  1
  H  H2  1  0.789274  0.129974  0.546482  1
  H  H3  1  0.289274  0.370026  0.453518  1
  H  H4  1  0.135153  0.632082  0.076069  1
  H  H5  1  0.635153  0.867918  0.923931  1
  H  H6  1  0.864847  0.132082  0.423931  1
  H  H7  1  0.364847  0.367918  0.576069  1
  H  H8  1  0.070576  0.793984  0.993055  1
  H  H9  1  0.570576  0.706016  0.006945  1
  H  H10  1  0.929424  0.293984  0.506945  1
  H  H11  1  0.429424  0.206016  0.493055  1
  H  H12  1  0.984156  0.582562  0.980079  1
  H  H13  1  0.484156  0.917438  0.019921  1
  H  H14  1  0.015844  0.082562  0.519921  1
  H  H15  1  0.515844  0.417438  0.480079  1
  H  H16  1  0.632722  0.247303  0.253697  1
  H  H17  1  0.132722  0.252697  0.746303  1
  H  H18  1  0.367278  0.747303  0.246303  1
  H  H19  1  0.867278  0.752697  0.753697  1
  H  H20  1  0.600428  0.456563  0.290860  1
  H  H21  1  0.100428  0.043437  0.709140  1
  H  H22  1  0.399572  0.956563  0.209140  1
  H  H23  1  0.899572  0.543437  0.790860  1
  H  H24  1  0.545595  0.401053  0.170285  1
  H  H25  1  0.045595  0.098947  0.829715  1
  H  H26  1  0.454405  0.901053  0.329715  1
  H  H27  1  0.954405  0.598947  0.670285  1
  H  H28  1  0.407509  0.334406  0.266935  1
  H  H29  1  0.907509  0.165594  0.733065  1
  H  H30  1  0.592491  0.834406  0.233065  1
  H  H31  1  0.092491  0.665594  0.766935  1
  Se  Se32  1  0.147960  0.174781  0.034459  1
  Se  Se33  1  0.647960  0.325219  0.965541  1
  Se  Se34  1  0.852040  0.674781  0.465541  1
  Se  Se35  1  0.352040  0.825219  0.534459  1
  Se  Se36  1  0.957903  0.992512  0.225777  1
  Se  Se37  1  0.457903  0.507488  0.774223  1
  Se  Se38  1  0.042097  0.492512  0.274223  1
  Se  Se39  1  0.542097  0.007488  0.725777  1
  N  N40  1  0.099791  0.658631  0.002039  1
  N  N41  1  0.599791  0.841369  0.997961  1
  N  N42  1  0.900209  0.158631  0.497961  1
  N  N43  1  0.400209  0.341369  0.502039  1
  N  N44  1  0.546412  0.359171  0.244371  1
  N  N45  1  0.046412  0.140829  0.755629  1
  N  N46  1  0.453588  0.859171  0.255629  1
  N  N47  1  0.953588  0.640829  0.744371  1
  O  O48  1  0.326484  0.067737  0.094130  1
  O  O49  1  0.826484  0.432263  0.905870  1
  O  O50  1  0.673516  0.567737  0.405870  1
  O  O51  1  0.173516  0.932263  0.594130  1
  O  O52  1  0.058883  0.023679  0.954560  1
  O  O53  1  0.558883  0.476321  0.045440  1
  O  O54  1  0.941117  0.523679  0.545440  1
  O  O55  1  0.441117  0.976321  0.454560  1
  O  O56  1  0.959524  0.179182  0.131033  1
  O  O57  1  0.459524  0.320818  0.868967  1
  O  O58  1  0.040476  0.679182  0.368967  1
  O  O59  1  0.540476  0.820818  0.631033  1
  O  O60  1  0.795702  0.088486  0.300839  1
  O  O61  1  0.295702  0.411514  0.699161  1
  O  O62  1  0.204298  0.588486  0.199161  1
  O  O63  1  0.704298  0.911514  0.800839  1
  O  O64  1  0.833684  0.837243  0.163786  1
  O  O65  1  0.333684  0.662757  0.836214  1
  O  O66  1  0.166316  0.337243  0.336214  1
  O  O67  1  0.666316  0.162757  0.663786  1
