# generated using pymatgen
data_Li2Mn4OF8
_symmetry_space_group_name_H-M   'P 1'
_cell_length_a   5.46299988
_cell_length_b   9.45643945
_cell_length_c   14.59456776
_cell_angle_alpha   90.00000000
_cell_angle_beta   90.00000000
_cell_angle_gamma   90.00000000
_symmetry_Int_Tables_number   1
_chemical_formula_structural   Li2Mn4OF8
_chemical_formula_sum   'Li8 Mn16 O4 F32'
_cell_volume   753.96307029
_cell_formula_units_Z   4
loop_
 _symmetry_equiv_pos_site_id
 _symmetry_equiv_pos_as_xyz
  1  'x, y, z'
loop_
 _atom_site_type_symbol
 _atom_site_label
 _atom_site_symmetry_multiplicity
 _atom_site_fract_x
 _atom_site_fract_y
 _atom_site_fract_z
 _atom_site_occupancy
  Li  Li0  1  0.752467  0.004137  0.898022  1
  Li  Li1  1  0.752467  0.995863  0.101978  1
  Li  Li2  1  0.247533  0.495863  0.398022  1
  Li  Li3  1  0.247533  0.504137  0.601978  1
  Li  Li4  1  0.266841  0.524186  0.097494  1
  Li  Li5  1  0.266841  0.475814  0.902506  1
  Li  Li6  1  0.733159  0.024186  0.402506  1
  Li  Li7  1  0.733159  0.975814  0.597494  1
  Mn  Mn8  1  0.771155  0.330584  0.058834  1
  Mn  Mn9  1  0.771155  0.669416  0.941166  1
  Mn  Mn10  1  0.769212  0.666143  0.238208  1
  Mn  Mn11  1  0.769212  0.333857  0.761792  1
  Mn  Mn12  1  0.230788  0.166143  0.261792  1
  Mn  Mn13  1  0.230788  0.833857  0.738208  1
  Mn  Mn14  1  0.228845  0.830584  0.441166  1
  Mn  Mn15  1  0.228845  0.169416  0.558834  1
  Mn  Mn16  1  0.238082  0.839890  0.936985  1
  Mn  Mn17  1  0.238082  0.160110  0.063015  1
  Mn  Mn18  1  0.234546  0.174042  0.759166  1
  Mn  Mn19  1  0.234546  0.825958  0.240834  1
  Mn  Mn20  1  0.765454  0.674042  0.740834  1
  Mn  Mn21  1  0.765454  0.325958  0.259166  1
  Mn  Mn22  1  0.761918  0.660110  0.436985  1
  Mn  Mn23  1  0.761918  0.339890  0.563015  1
  O  O24  1  0.952877  0.194156  0.159107  1
  O  O25  1  0.952877  0.805844  0.840893  1
  O  O26  1  0.047123  0.305844  0.659107  1
  O  O27  1  0.047123  0.694156  0.340893  1
  F  F28  1  0.880875  0.149081  0.496742  1
  F  F29  1  0.880875  0.850919  0.503258  1
  F  F30  1  0.907972  0.838855  0.164579  1
  F  F31  1  0.907972  0.161145  0.835421  1
  F  F32  1  0.912301  0.495737  0.160453  1
  F  F33  1  0.912301  0.504263  0.839547  1
  F  F34  1  0.968646  0.500000  0.500000  1
  F  F35  1  0.031354  0.000000  0.000000  1
  F  F36  1  0.087699  0.995737  0.339547  1
  F  F37  1  0.087699  0.004263  0.660453  1
  F  F38  1  0.092028  0.338855  0.335421  1
  F  F39  1  0.092028  0.661145  0.664579  1
  F  F40  1  0.119125  0.350919  0.996742  1
  F  F41  1  0.119125  0.649081  0.003258  1
  F  F42  1  0.412942  0.649314  0.495072  1
  F  F43  1  0.412942  0.350686  0.504928  1
  F  F44  1  0.426629  0.665542  0.172938  1
  F  F45  1  0.426629  0.334458  0.827062  1
  F  F46  1  0.394702  0.004711  0.166872  1
  F  F47  1  0.394702  0.995289  0.833128  1
  F  F48  1  0.453674  0.325995  0.158461  1
  F  F49  1  0.453674  0.674005  0.841539  1
  F  F50  1  0.430606  0.000000  0.500000  1
  F  F51  1  0.569394  0.500000  0.000000  1
  F  F52  1  0.546326  0.174005  0.658461  1
  F  F53  1  0.546326  0.825995  0.341539  1
  F  F54  1  0.605298  0.495289  0.666872  1
  F  F55  1  0.605298  0.504711  0.333128  1
  F  F56  1  0.573371  0.165542  0.327062  1
  F  F57  1  0.573371  0.834458  0.672938  1
  F  F58  1  0.587058  0.149314  0.004928  1
  F  F59  1  0.587058  0.850686  0.995072  1
