# generated using pymatgen
data_Li7Mn3(SiO6)2
_symmetry_space_group_name_H-M   'P 1'
_cell_length_a   4.93175372
_cell_length_b   4.93175372
_cell_length_c   9.78403993
_cell_angle_alpha   86.58487008
_cell_angle_beta   93.41512992
_cell_angle_gamma   62.04193390
_symmetry_Int_Tables_number   1
_chemical_formula_structural   Li7Mn3(SiO6)2
_chemical_formula_sum   'Li7 Mn3 Si2 O12'
_cell_volume   208.78718768
_cell_formula_units_Z   1
loop_
 _symmetry_equiv_pos_site_id
 _symmetry_equiv_pos_as_xyz
  1  'x, y, z'
loop_
 _atom_site_type_symbol
 _atom_site_label
 _atom_site_symmetry_multiplicity
 _atom_site_fract_x
 _atom_site_fract_y
 _atom_site_fract_z
 _atom_site_occupancy
  Li  Li0  1  0.748997  0.251003  0.239648  1
  Li  Li1  1  0.000000  0.000000  0.000000  1
  Li  Li2  1  0.916269  0.409688  0.754415  1
  Li  Li3  1  0.409688  0.916269  0.245585  1
  Li  Li4  1  0.251003  0.748997  0.760352  1
  Li  Li5  1  0.590312  0.083731  0.754415  1
  Li  Li6  1  0.083731  0.590312  0.245585  1
  Mn  Mn7  1  0.500000  0.500000  0.500000  1
  Mn  Mn8  1  0.833374  0.833374  0.500000  1
  Mn  Mn9  1  0.166626  0.166626  0.500000  1
  Si  Si10  1  0.668134  0.668134  0.000000  1
  Si  Si11  1  0.331866  0.331866  0.000000  1
  O  O12  1  0.902878  0.097122  0.623415  1
  O  O13  1  0.023902  0.347728  0.101416  1
  O  O14  1  0.765990  0.567739  0.379103  1
  O  O15  1  0.594403  0.405597  0.895904  1
  O  O16  1  0.976098  0.652272  0.898584  1
  O  O17  1  0.567739  0.765990  0.620897  1
  O  O18  1  0.405597  0.594403  0.104096  1
  O  O19  1  0.097122  0.902878  0.376585  1
  O  O20  1  0.432261  0.234010  0.379103  1
  O  O21  1  0.652272  0.976098  0.101416  1
  O  O22  1  0.347728  0.023902  0.898584  1
  O  O23  1  0.234010  0.432261  0.620897  1
