# generated using pymatgen
data_Li2TiFeO4
_symmetry_space_group_name_H-M   'P 1'
_cell_length_a   5.20610212
_cell_length_b   3.00271301
_cell_length_c   5.24592094
_cell_angle_alpha   90.00000000
_cell_angle_beta   109.24765529
_cell_angle_gamma   90.00000000
_symmetry_Int_Tables_number   1
_chemical_formula_structural   Li2TiFeO4
_chemical_formula_sum   'Li2 Ti1 Fe1 O4'
_cell_volume   77.42253795
_cell_formula_units_Z   1
loop_
 _symmetry_equiv_pos_site_id
 _symmetry_equiv_pos_as_xyz
  1  'x, y, z'
loop_
 _atom_site_type_symbol
 _atom_site_label
 _atom_site_symmetry_multiplicity
 _atom_site_fract_x
 _atom_site_fract_y
 _atom_site_fract_z
 _atom_site_occupancy
  Li  Li0  1  0.000000  0.000000  0.500000  1
  Li  Li1  1  0.000000  0.500000  0.000000  1
  Ti  Ti2  1  0.500000  0.000000  0.000000  1
  Fe  Fe3  1  0.500000  0.500000  0.500000  1
  O  O4  1  0.730513  0.000000  0.766529  1
  O  O5  1  0.728601  0.500000  0.220247  1
  O  O6  1  0.269487  0.000000  0.233471  1
  O  O7  1  0.271399  0.500000  0.779753  1
