# generated using pymatgen
data_Li2V3CuO8
_symmetry_space_group_name_H-M   'P 1'
_cell_length_a   8.60816247
_cell_length_b   8.60816247
_cell_length_c   8.07928560
_cell_angle_alpha   90.00000000
_cell_angle_beta   90.00000000
_cell_angle_gamma   90.00000000
_symmetry_Int_Tables_number   1
_chemical_formula_structural   Li2V3CuO8
_chemical_formula_sum   'Li8 V12 Cu4 O32'
_cell_volume   598.67878825
_cell_formula_units_Z   4
loop_
 _symmetry_equiv_pos_site_id
 _symmetry_equiv_pos_as_xyz
  1  'x, y, z'
loop_
 _atom_site_type_symbol
 _atom_site_label
 _atom_site_symmetry_multiplicity
 _atom_site_fract_x
 _atom_site_fract_y
 _atom_site_fract_z
 _atom_site_occupancy
  Li  Li0  1  0.503268  0.755883  0.002518  1
  Li  Li1  1  0.750420  0.004132  0.248465  1
  Li  Li2  1  0.249580  0.995868  0.748465  1
  Li  Li3  1  0.496732  0.244117  0.502518  1
  Li  Li4  1  0.004132  0.249580  0.998465  1
  Li  Li5  1  0.755883  0.496732  0.752518  1
  Li  Li6  1  0.244117  0.503268  0.252518  1
  Li  Li7  1  0.995868  0.750420  0.498465  1
  V  V8  1  0.633352  0.876939  0.620412  1
  V  V9  1  0.878602  0.875941  0.881074  1
  V  V10  1  0.124059  0.878602  0.131074  1
  V  V11  1  0.875941  0.121398  0.631074  1
  V  V12  1  0.121398  0.124059  0.381074  1
  V  V13  1  0.366648  0.123061  0.120412  1
  V  V14  1  0.876939  0.366648  0.370412  1
  V  V15  1  0.620125  0.368108  0.120111  1
  V  V16  1  0.368108  0.379875  0.870111  1
  V  V17  1  0.631892  0.620125  0.370111  1
  V  V18  1  0.379875  0.631892  0.620111  1
  V  V19  1  0.123061  0.633352  0.870412  1
  Cu  Cu20  1  0.384607  0.884917  0.375092  1
  Cu  Cu21  1  0.615393  0.115083  0.875092  1
  Cu  Cu22  1  0.115083  0.384607  0.625092  1
  Cu  Cu23  1  0.884917  0.615393  0.125092  1
  O  O24  1  0.642004  0.850957  0.392538  1
  O  O25  1  0.403750  0.863103  0.622547  1
  O  O26  1  0.113753  0.867370  0.889106  1
  O  O27  1  0.650138  0.878433  0.859624  1
  O  O28  1  0.891256  0.887026  0.102841  1
  O  O29  1  0.867370  0.886247  0.639106  1
  O  O30  1  0.112974  0.891256  0.352841  1
  O  O31  1  0.357725  0.897734  0.129639  1
  O  O32  1  0.642275  0.102266  0.629639  1
  O  O33  1  0.887026  0.108744  0.852841  1
  O  O34  1  0.132630  0.113753  0.139106  1
  O  O35  1  0.108744  0.112974  0.602841  1
  O  O36  1  0.349862  0.121567  0.359624  1
  O  O37  1  0.886247  0.132630  0.389106  1
  O  O38  1  0.596250  0.136897  0.122547  1
  O  O39  1  0.357996  0.149043  0.892538  1
  O  O40  1  0.878433  0.349862  0.609624  1
  O  O41  1  0.102266  0.357725  0.379639  1
  O  O42  1  0.387085  0.367552  0.112914  1
  O  O43  1  0.850957  0.357996  0.142538  1
  O  O44  1  0.606981  0.371838  0.893785  1
  O  O45  1  0.632448  0.387085  0.362914  1
  O  O46  1  0.371838  0.393019  0.643785  1
  O  O47  1  0.136897  0.403750  0.872547  1
  O  O48  1  0.863103  0.596250  0.372547  1
  O  O49  1  0.628162  0.606981  0.143785  1
  O  O50  1  0.367552  0.612915  0.862914  1
  O  O51  1  0.393019  0.628162  0.393785  1
  O  O52  1  0.149043  0.642004  0.642538  1
  O  O53  1  0.612915  0.632448  0.612914  1
  O  O54  1  0.897734  0.642275  0.879639  1
  O  O55  1  0.121567  0.650138  0.109624  1
