# generated using pymatgen
data_Li4Cr3Fe3(SnO8)2
_symmetry_space_group_name_H-M   'P 1'
_cell_length_a   5.96658517
_cell_length_b   5.98626977
_cell_length_c   9.74699335
_cell_angle_alpha   89.52651772
_cell_angle_beta   89.61672362
_cell_angle_gamma   60.10843119
_symmetry_Int_Tables_number   1
_chemical_formula_structural   Li4Cr3Fe3(SnO8)2
_chemical_formula_sum   'Li4 Cr3 Fe3 Sn2 O16'
_cell_volume   301.81455227
_cell_formula_units_Z   1
loop_
 _symmetry_equiv_pos_site_id
 _symmetry_equiv_pos_as_xyz
  1  'x, y, z'
loop_
 _atom_site_type_symbol
 _atom_site_label
 _atom_site_symmetry_multiplicity
 _atom_site_fract_x
 _atom_site_fract_y
 _atom_site_fract_z
 _atom_site_occupancy
  Li  Li0  1  0.328912  0.668909  0.103845  1
  Li  Li1  1  0.002453  0.999215  0.006564  1
  Li  Li2  1  0.000273  0.000024  0.506484  1
  Li  Li3  1  0.667310  0.336648  0.605331  1
  Cr  Cr4  1  0.170060  0.338549  0.785483  1
  Cr  Cr5  1  0.176592  0.833598  0.782310  1
  Cr  Cr6  1  0.344400  0.176438  0.282900  1
  Fe  Fe7  1  0.663640  0.829058  0.787530  1
  Fe  Fe8  1  0.830302  0.169696  0.284926  1
  Fe  Fe9  1  0.836312  0.662964  0.286982  1
  Sn  Sn10  1  0.334803  0.664226  0.508317  1
  Sn  Sn11  1  0.666580  0.329977  0.006896  1
  O  O12  1  0.161485  0.321562  0.400300  1
  O  O13  1  0.035366  0.521059  0.662522  1
  O  O14  1  0.319997  0.670953  0.891405  1
  O  O15  1  0.010208  0.995018  0.693301  1
  O  O16  1  0.014651  0.006179  0.193688  1
  O  O17  1  0.168124  0.845861  0.400228  1
  O  O18  1  0.486774  0.521994  0.662646  1
  O  O19  1  0.473569  0.966831  0.663788  1
  O  O20  1  0.321186  0.158037  0.899151  1
  O  O21  1  0.679934  0.836918  0.400204  1
  O  O22  1  0.512759  0.033820  0.160704  1
  O  O23  1  0.502315  0.470009  0.162981  1
  O  O24  1  0.648897  0.322921  0.392764  1
  O  O25  1  0.837401  0.155320  0.900217  1
  O  O26  1  0.962285  0.485768  0.160150  1
  O  O27  1  0.843414  0.678145  0.900546  1
