# generated using pymatgen
data_Ce2Th2O7
_symmetry_space_group_name_H-M   'P 1'
_cell_length_a   3.95086439
_cell_length_b   3.95086439
_cell_length_c   11.19501700
_cell_angle_alpha   90.00000000
_cell_angle_beta   90.00000000
_cell_angle_gamma   90.00000000
_symmetry_Int_Tables_number   1
_chemical_formula_structural   Ce2Th2O7
_chemical_formula_sum   'Ce2 Th2 O7'
_cell_volume   174.74670809
_cell_formula_units_Z   1
loop_
 _symmetry_equiv_pos_site_id
 _symmetry_equiv_pos_as_xyz
  1  'x, y, z'
loop_
 _atom_site_type_symbol
 _atom_site_label
 _atom_site_symmetry_multiplicity
 _atom_site_fract_x
 _atom_site_fract_y
 _atom_site_fract_z
 _atom_site_occupancy
  Ce  Ce0  1  0.500000  0.000000  0.867472  1
  Ce  Ce1  1  0.000000  0.500000  0.132528  1
  Th  Th2  1  0.500000  0.000000  0.373816  1
  Th  Th3  1  0.000000  0.500000  0.626184  1
  O  O4  1  0.000000  0.000000  0.000000  1
  O  O5  1  0.500000  0.500000  0.239469  1
  O  O6  1  0.000000  0.000000  0.255531  1
  O  O7  1  0.000000  0.000000  0.500000  1
  O  O8  1  0.500000  0.500000  0.500000  1
  O  O9  1  0.000000  0.000000  0.744469  1
  O  O10  1  0.500000  0.500000  0.760531  1
