# generated using pymatgen
data_Li7(CoO3)2
_symmetry_space_group_name_H-M   'P 1'
_cell_length_a   5.28860679
_cell_length_b   5.35241312
_cell_length_c   5.84703042
_cell_angle_alpha   116.93740263
_cell_angle_beta   87.39758655
_cell_angle_gamma   97.73981821
_symmetry_Int_Tables_number   1
_chemical_formula_structural   Li7(CoO3)2
_chemical_formula_sum   'Li7 Co2 O6'
_cell_volume   146.18613433
_cell_formula_units_Z   1
loop_
 _symmetry_equiv_pos_site_id
 _symmetry_equiv_pos_as_xyz
  1  'x, y, z'
loop_
 _atom_site_type_symbol
 _atom_site_label
 _atom_site_symmetry_multiplicity
 _atom_site_fract_x
 _atom_site_fract_y
 _atom_site_fract_z
 _atom_site_occupancy
  Li  Li0  1  0.855934  0.463189  0.149298  1
  Li  Li1  1  0.880236  0.989655  0.811643  1
  Li  Li2  1  0.492610  0.835486  0.059684  1
  Li  Li3  1  0.398967  0.272045  0.838623  1
  Li  Li4  1  0.036032  0.937291  0.374985  1
  Li  Li5  1  0.185170  0.218267  0.174664  1
  Li  Li6  1  0.102084  0.573098  0.829203  1
  Co  Co7  1  0.380894  0.697224  0.499392  1
  Co  Co8  1  0.688019  0.326102  0.498371  1
  O  O9  1  0.813578  0.092663  0.185874  1
  O  O10  1  0.769051  0.356721  0.807980  1
  O  O11  1  0.751780  0.693027  0.488876  1
  O  O12  1  0.313815  0.295080  0.511177  1
  O  O13  1  0.235789  0.590430  0.155792  1
  O  O14  1  0.258761  0.927995  0.840526  1
