# generated using pymatgen
data_CuPH4O5F
_symmetry_space_group_name_H-M   'P 1'
_cell_length_a   7.66301433
_cell_length_b   7.88476769
_cell_length_c   9.26787500
_cell_angle_alpha   90.00000000
_cell_angle_beta   112.99300002
_cell_angle_gamma   90.00000000
_symmetry_Int_Tables_number   1
_chemical_formula_structural   CuPH4O5F
_chemical_formula_sum   'Cu4 P4 H16 O20 F4'
_cell_volume   515.48651503
_cell_formula_units_Z   4
loop_
 _symmetry_equiv_pos_site_id
 _symmetry_equiv_pos_as_xyz
  1  'x, y, z'
loop_
 _atom_site_type_symbol
 _atom_site_label
 _atom_site_symmetry_multiplicity
 _atom_site_fract_x
 _atom_site_fract_y
 _atom_site_fract_z
 _atom_site_occupancy
  Cu  Cu0  1  0.603572  0.689139  0.048662  1
  Cu  Cu1  1  0.396428  0.189139  0.451338  1
  Cu  Cu2  1  0.396428  0.310861  0.951338  1
  Cu  Cu3  1  0.603572  0.810861  0.548662  1
  P  P4  1  0.539234  0.499060  0.314487  1
  P  P5  1  0.460766  0.999060  0.185513  1
  P  P6  1  0.460766  0.500940  0.685513  1
  P  P7  1  0.539234  0.000940  0.814487  1
  H  H8  1  0.995209  0.777892  0.818465  1
  H  H9  1  0.004791  0.277892  0.681535  1
  H  H10  1  0.004791  0.222108  0.181535  1
  H  H11  1  0.995209  0.722108  0.318465  1
  H  H12  1  0.178579  0.764770  0.977419  1
  H  H13  1  0.821421  0.264770  0.522581  1
  H  H14  1  0.821421  0.235230  0.022581  1
  H  H15  1  0.178579  0.735230  0.477419  1
  H  H16  1  0.931265  0.671419  0.036966  1
  H  H17  1  0.068735  0.171419  0.463034  1
  H  H18  1  0.068735  0.328581  0.963034  1
  H  H19  1  0.931265  0.828581  0.536966  1
  H  H20  1  0.901103  0.494202  0.109221  1
  H  H21  1  0.098897  0.994202  0.390779  1
  H  H22  1  0.098897  0.505798  0.890779  1
  H  H23  1  0.901103  0.005798  0.609221  1
  O  O24  1  0.565022  0.487901  0.158345  1
  O  O25  1  0.434978  0.987901  0.341655  1
  O  O26  1  0.434978  0.512099  0.841655  1
  O  O27  1  0.565022  0.012099  0.658345  1
  O  O28  1  0.581742  0.330257  0.402809  1
  O  O29  1  0.418258  0.830257  0.097191  1
  O  O30  1  0.418258  0.669743  0.597191  1
  O  O31  1  0.581742  0.169743  0.902809  1
  O  O32  1  0.647225  0.648854  0.410542  1
  O  O33  1  0.352775  0.148854  0.089458  1
  O  O34  1  0.352775  0.351146  0.589458  1
  O  O35  1  0.647225  0.851146  0.910542  1
  O  O36  1  0.053983  0.711788  0.916039  1
  O  O37  1  0.946017  0.211788  0.583961  1
  O  O38  1  0.946017  0.288212  0.083961  1
  O  O39  1  0.053983  0.788212  0.416039  1
  O  O40  1  0.880341  0.620185  0.111566  1
  O  O41  1  0.119659  0.120185  0.388434  1
  O  O42  1  0.119659  0.379815  0.888434  1
  O  O43  1  0.880341  0.879815  0.611566  1
  F  F44  1  0.318668  0.531797  0.267261  1
  F  F45  1  0.681332  0.031797  0.232739  1
  F  F46  1  0.681332  0.468203  0.732739  1
  F  F47  1  0.318668  0.968203  0.767261  1
