# generated using pymatgen
data_Ho2P4O13
_symmetry_space_group_name_H-M   'P 1'
_cell_length_a   8.73913786
_cell_length_b   9.73593188
_cell_length_c   14.08219162
_cell_angle_alpha   90.00000000
_cell_angle_beta   105.33700451
_cell_angle_gamma   90.00000000
_symmetry_Int_Tables_number   1
_chemical_formula_structural   Ho2P4O13
_chemical_formula_sum   'Ho8 P16 O52'
_cell_volume   1155.49380543
_cell_formula_units_Z   4
loop_
 _symmetry_equiv_pos_site_id
 _symmetry_equiv_pos_as_xyz
  1  'x, y, z'
loop_
 _atom_site_type_symbol
 _atom_site_label
 _atom_site_symmetry_multiplicity
 _atom_site_fract_x
 _atom_site_fract_y
 _atom_site_fract_z
 _atom_site_occupancy
  Ho  Ho0  1  0.215581  0.999184  0.009480  1
  Ho  Ho1  1  0.286690  0.995769  0.487883  1
  Ho  Ho2  1  0.215581  0.500816  0.509480  1
  Ho  Ho3  1  0.286690  0.504231  0.987883  1
  Ho  Ho4  1  0.713310  0.495769  0.012117  1
  Ho  Ho5  1  0.784419  0.499184  0.490520  1
  Ho  Ho6  1  0.713310  0.004231  0.512117  1
  Ho  Ho7  1  0.784419  0.000816  0.990520  1
  P  P8  1  0.469924  0.719563  0.404846  1
  P  P9  1  0.386701  0.754967  0.186284  1
  P  P10  1  0.264258  0.267995  0.315188  1
  P  P11  1  0.469924  0.780437  0.904846  1
  P  P12  1  0.386701  0.745033  0.686284  1
  P  P13  1  0.040660  0.280818  0.098302  1
  P  P14  1  0.264258  0.232005  0.815188  1
  P  P15  1  0.959340  0.780819  0.401698  1
  P  P16  1  0.040660  0.219182  0.598302  1
  P  P17  1  0.735742  0.767996  0.184812  1
  P  P18  1  0.959340  0.719182  0.901698  1
  P  P19  1  0.613299  0.254967  0.313716  1
  P  P20  1  0.530076  0.219563  0.095154  1
  P  P21  1  0.735742  0.732005  0.684812  1
  P  P22  1  0.613299  0.245033  0.813716  1
  P  P23  1  0.530076  0.280437  0.595154  1
  O  O24  1  0.431156  0.308767  0.292583  1
  O  O25  1  0.374287  0.152720  0.097288  1
  O  O26  1  0.488395  0.871236  0.440274  1
  O  O27  1  0.362225  0.624626  0.127119  1
  O  O28  1  0.362161  0.722656  0.292113  1
  O  O29  1  0.376521  0.637824  0.461951  1
  O  O30  1  0.276788  0.872373  0.145274  1
  O  O31  1  0.431156  0.191233  0.792583  1
  O  O32  1  0.374287  0.347280  0.597288  1
  O  O33  1  0.488395  0.628764  0.940274  1
  O  O34  1  0.135678  0.367770  0.044845  1
  O  O35  1  0.272794  0.125197  0.356399  1
  O  O36  1  0.362225  0.875374  0.627119  1
  O  O37  1  0.362161  0.777344  0.792113  1
  O  O38  1  0.220636  0.380894  0.376352  1
  O  O39  1  0.138288  0.269712  0.211870  1
  O  O40  1  0.376521  0.862176  0.961951  1
  O  O41  1  0.117004  0.846373  0.402295  1
  O  O42  1  0.018788  0.129745  0.058884  1
  O  O43  1  0.276788  0.627627  0.645274  1
  O  O44  1  0.135678  0.132230  0.544845  1
  O  O45  1  0.272794  0.374803  0.856399  1
  O  O46  1  0.220636  0.119106  0.876352  1
  O  O47  1  0.138288  0.230288  0.711870  1
  O  O48  1  0.981212  0.629745  0.441116  1
  O  O49  1  0.882996  0.346373  0.097705  1
  O  O50  1  0.117004  0.653627  0.902295  1
  O  O51  1  0.018788  0.370255  0.558884  1
  O  O52  1  0.861712  0.769712  0.288130  1
  O  O53  1  0.779364  0.880894  0.123648  1
  O  O54  1  0.727206  0.625197  0.143601  1
  O  O55  1  0.864322  0.867770  0.455155  1
  O  O56  1  0.723212  0.372373  0.354726  1
  O  O57  1  0.981212  0.870255  0.941116  1
  O  O58  1  0.882996  0.153627  0.597705  1
  O  O59  1  0.623479  0.137824  0.038049  1
  O  O60  1  0.861712  0.730288  0.788130  1
  O  O61  1  0.779364  0.619106  0.623648  1
  O  O62  1  0.637839  0.222656  0.207887  1
  O  O63  1  0.637775  0.124626  0.372881  1
  O  O64  1  0.727206  0.874803  0.643601  1
  O  O65  1  0.864322  0.632230  0.955155  1
  O  O66  1  0.511605  0.371236  0.059726  1
  O  O67  1  0.625713  0.652720  0.402712  1
  O  O68  1  0.568844  0.808767  0.207417  1
  O  O69  1  0.723212  0.127627  0.854726  1
  O  O70  1  0.623479  0.362176  0.538049  1
  O  O71  1  0.637839  0.277344  0.707887  1
  O  O72  1  0.637775  0.375374  0.872881  1
  O  O73  1  0.511605  0.128764  0.559726  1
  O  O74  1  0.625713  0.847280  0.902712  1
  O  O75  1  0.568844  0.691233  0.707417  1
