# generated using pymatgen
data_Li3Mn(PO4)2
_symmetry_space_group_name_H-M   'P 1'
_cell_length_a   5.08477520
_cell_length_b   5.08477520
_cell_length_c   13.78888164
_cell_angle_alpha   81.41735149
_cell_angle_beta   98.58264851
_cell_angle_gamma   124.36374168
_symmetry_Int_Tables_number   1
_chemical_formula_structural   Li3Mn(PO4)2
_chemical_formula_sum   'Li6 Mn2 P4 O16'
_cell_volume   290.06944887
_cell_formula_units_Z   2
loop_
 _symmetry_equiv_pos_site_id
 _symmetry_equiv_pos_as_xyz
  1  'x, y, z'
loop_
 _atom_site_type_symbol
 _atom_site_label
 _atom_site_symmetry_multiplicity
 _atom_site_fract_x
 _atom_site_fract_y
 _atom_site_fract_z
 _atom_site_occupancy
  Li  Li0  1  0.678593  0.346857  0.660878  1
  Li  Li1  1  0.653143  0.321407  0.160878  1
  Li  Li2  1  0.346857  0.678593  0.839122  1
  Li  Li3  1  0.321407  0.653143  0.339122  1
  Li  Li4  1  0.019744  0.019744  0.750000  1
  Li  Li5  1  0.980256  0.980256  0.250000  1
  Mn  Mn6  1  0.000000  0.000000  0.500000  1
  Mn  Mn7  1  0.000000  0.000000  0.000000  1
  P  P8  1  0.652322  0.339473  0.883710  1
  P  P9  1  0.660527  0.347678  0.383710  1
  P  P10  1  0.339473  0.652322  0.616290  1
  P  P11  1  0.347678  0.660527  0.116290  1
  O  O12  1  0.776292  0.697994  0.859619  1
  O  O13  1  0.302006  0.223708  0.359619  1
  O  O14  1  0.430737  0.212448  0.968039  1
  O  O15  1  0.787552  0.569263  0.468039  1
  O  O16  1  0.472073  0.138082  0.794321  1
  O  O17  1  0.324652  0.954187  0.582743  1
  O  O18  1  0.861918  0.527927  0.294321  1
  O  O19  1  0.045814  0.675348  0.082743  1
  O  O20  1  0.954187  0.324652  0.917257  1
  O  O21  1  0.138082  0.472073  0.705679  1
  O  O22  1  0.675348  0.045814  0.417257  1
  O  O23  1  0.527927  0.861918  0.205679  1
  O  O24  1  0.212448  0.430737  0.531961  1
  O  O25  1  0.569263  0.787552  0.031961  1
  O  O26  1  0.697994  0.776292  0.640381  1
  O  O27  1  0.223708  0.302006  0.140381  1
