# generated using pymatgen
data_FeCo(PO4)2
_symmetry_space_group_name_H-M   'P 1'
_cell_length_a   8.37318578
_cell_length_b   8.37318578
_cell_length_c   8.37318578
_cell_angle_alpha   62.07735668
_cell_angle_beta   62.07735668
_cell_angle_gamma   62.07735668
_symmetry_Int_Tables_number   1
_chemical_formula_structural   FeCo(PO4)2
_chemical_formula_sum   'Fe3 Co3 P6 O24'
_cell_volume   434.38140357
_cell_formula_units_Z   3
loop_
 _symmetry_equiv_pos_site_id
 _symmetry_equiv_pos_as_xyz
  1  'x, y, z'
loop_
 _atom_site_type_symbol
 _atom_site_label
 _atom_site_symmetry_multiplicity
 _atom_site_fract_x
 _atom_site_fract_y
 _atom_site_fract_z
 _atom_site_occupancy
  Fe  Fe0  1  0.645174  0.645174  0.645174  1
  Fe  Fe1  1  0.855156  0.855156  0.855156  1
  Fe  Fe2  1  0.354805  0.354805  0.354805  1
  Co  Co3  1  0.001602  0.001602  0.001602  1
  Co  Co4  1  0.146361  0.146361  0.146361  1
  Co  Co5  1  0.499663  0.499663  0.499663  1
  P  P6  1  0.952753  0.249540  0.546894  1
  P  P7  1  0.546894  0.952753  0.249540  1
  P  P8  1  0.249540  0.546894  0.952753  1
  P  P9  1  0.751099  0.451570  0.047815  1
  P  P10  1  0.451570  0.047815  0.751099  1
  P  P11  1  0.047815  0.751099  0.451570  1
  O  O12  1  0.503675  0.107246  0.324560  1
  O  O13  1  0.324560  0.503675  0.107246  1
  O  O14  1  0.107246  0.324560  0.503675  1
  O  O15  1  0.938030  0.096097  0.749643  1
  O  O16  1  0.995927  0.175293  0.390812  1
  O  O17  1  0.750222  0.404018  0.560262  1
  O  O18  1  0.749643  0.938030  0.096097  1
  O  O19  1  0.560262  0.750222  0.404018  1
  O  O20  1  0.824761  0.607033  0.004431  1
  O  O21  1  0.404018  0.560262  0.750222  1
  O  O22  1  0.905666  0.249193  0.063047  1
  O  O23  1  0.607033  0.004431  0.824761  1
  O  O24  1  0.390812  0.995927  0.175293  1
  O  O25  1  0.096097  0.749643  0.938030  1
  O  O26  1  0.596749  0.436259  0.250644  1
  O  O27  1  0.175293  0.390812  0.995927  1
  O  O28  1  0.436259  0.250644  0.596749  1
  O  O29  1  0.249193  0.063047  0.905666  1
  O  O30  1  0.250644  0.596749  0.436259  1
  O  O31  1  0.004431  0.824761  0.607033  1
  O  O32  1  0.063047  0.905666  0.249193  1
  O  O33  1  0.892186  0.677855  0.493971  1
  O  O34  1  0.677855  0.493971  0.892186  1
  O  O35  1  0.493971  0.892186  0.677855  1
