# generated using pymatgen
data_Li2Mn2Si4O11
_symmetry_space_group_name_H-M   'P 1'
_cell_length_a   7.05472541
_cell_length_b   7.64342889
_cell_length_c   8.95261655
_cell_angle_alpha   100.05928898
_cell_angle_beta   100.85309246
_cell_angle_gamma   104.11133304
_symmetry_Int_Tables_number   1
_chemical_formula_structural   Li2Mn2Si4O11
_chemical_formula_sum   'Li4 Mn4 Si8 O22'
_cell_volume   447.30467119
_cell_formula_units_Z   2
loop_
 _symmetry_equiv_pos_site_id
 _symmetry_equiv_pos_as_xyz
  1  'x, y, z'
loop_
 _atom_site_type_symbol
 _atom_site_label
 _atom_site_symmetry_multiplicity
 _atom_site_fract_x
 _atom_site_fract_y
 _atom_site_fract_z
 _atom_site_occupancy
  Li  Li0  1  0.391336  0.217435  0.806143  1
  Li  Li1  1  0.865335  0.255658  0.850191  1
  Li  Li2  1  0.134665  0.744342  0.149809  1
  Li  Li3  1  0.608664  0.782565  0.193857  1
  Mn  Mn4  1  0.117207  0.372880  0.611305  1
  Mn  Mn5  1  0.629023  0.380584  0.602709  1
  Mn  Mn6  1  0.370977  0.619416  0.397291  1
  Mn  Mn7  1  0.882793  0.627120  0.388695  1
  Si  Si8  1  0.759573  0.614538  0.965602  1
  Si  Si9  1  0.040002  0.771778  0.767959  1
  Si  Si10  1  0.476309  0.774919  0.773649  1
  Si  Si11  1  0.234425  0.029391  0.398937  1
  Si  Si12  1  0.765575  0.970609  0.601063  1
  Si  Si13  1  0.523691  0.225081  0.226351  1
  Si  Si14  1  0.959998  0.228222  0.232041  1
  Si  Si15  1  0.240427  0.385462  0.034398  1
  O  O16  1  0.185496  0.367541  0.849297  1
  O  O17  1  0.600325  0.741636  0.936182  1
  O  O18  1  0.678451  0.409016  0.849755  1
  O  O19  1  0.974347  0.736317  0.930469  1
  O  O20  1  0.286243  0.842594  0.816118  1
  O  O21  1  0.611772  0.953595  0.723416  1
  O  O22  1  0.321350  0.186726  0.561980  1
  O  O23  1  0.415964  0.589804  0.633718  1
  O  O24  1  0.816831  0.187645  0.595681  1
  O  O25  1  0.972202  0.942918  0.707835  1
  O  O26  1  0.941199  0.584248  0.630356  1
  O  O27  1  0.058801  0.415752  0.369644  1
  O  O28  1  0.027798  0.057082  0.292165  1
  O  O29  1  0.183169  0.812355  0.404319  1
  O  O30  1  0.584036  0.410196  0.366282  1
  O  O31  1  0.678650  0.813274  0.438020  1
  O  O32  1  0.388228  0.046405  0.276584  1
  O  O33  1  0.713757  0.157406  0.183882  1
  O  O34  1  0.025653  0.263683  0.069531  1
  O  O35  1  0.321549  0.590984  0.150245  1
  O  O36  1  0.399675  0.258364  0.063818  1
  O  O37  1  0.814504  0.632459  0.150703  1
