# generated using pymatgen
data_BaNb5O8
_symmetry_space_group_name_H-M   'P 1'
_cell_length_a   6.70492872
_cell_length_b   6.70492872
_cell_length_c   4.16968398
_cell_angle_alpha   90.00000000
_cell_angle_beta   90.00000000
_cell_angle_gamma   90.00000000
_symmetry_Int_Tables_number   1
_chemical_formula_structural   BaNb5O8
_chemical_formula_sum   'Ba1 Nb5 O8'
_cell_volume   187.45260116
_cell_formula_units_Z   1
loop_
 _symmetry_equiv_pos_site_id
 _symmetry_equiv_pos_as_xyz
  1  'x, y, z'
loop_
 _atom_site_type_symbol
 _atom_site_label
 _atom_site_symmetry_multiplicity
 _atom_site_fract_x
 _atom_site_fract_y
 _atom_site_fract_z
 _atom_site_occupancy
  Ba  Ba0  1  0.000000  0.000000  0.000000  1
  Nb  Nb1  1  0.401584  0.211895  0.500000  1
  Nb  Nb2  1  0.788105  0.401584  0.500000  1
  Nb  Nb3  1  0.500000  0.500000  0.000000  1
  Nb  Nb4  1  0.211895  0.598416  0.500000  1
  Nb  Nb5  1  0.598416  0.788105  0.500000  1
  O  O6  1  0.698860  0.099407  0.500000  1
  O  O7  1  0.387548  0.204215  0.000000  1
  O  O8  1  0.099407  0.301140  0.500000  1
  O  O9  1  0.795785  0.387548  0.000000  1
  O  O10  1  0.204215  0.612452  0.000000  1
  O  O11  1  0.900593  0.698860  0.500000  1
  O  O12  1  0.612452  0.795785  0.000000  1
  O  O13  1  0.301140  0.900593  0.500000  1
