# generated using pymatgen
data_LiNiOF
_symmetry_space_group_name_H-M   'P 1'
_cell_length_a   2.95292198
_cell_length_b   2.95292198
_cell_length_c   12.63850247
_cell_angle_alpha   90.00000000
_cell_angle_beta   90.00000000
_cell_angle_gamma   90.00000000
_symmetry_Int_Tables_number   1
_chemical_formula_structural   LiNiOF
_chemical_formula_sum   'Li3 Ni3 O3 F3'
_cell_volume   110.20455953
_cell_formula_units_Z   3
loop_
 _symmetry_equiv_pos_site_id
 _symmetry_equiv_pos_as_xyz
  1  'x, y, z'
loop_
 _atom_site_type_symbol
 _atom_site_label
 _atom_site_symmetry_multiplicity
 _atom_site_fract_x
 _atom_site_fract_y
 _atom_site_fract_z
 _atom_site_occupancy
  Li  Li0  1  0.500000  0.500000  0.665743  1
  Li  Li1  1  0.500000  0.500000  0.334257  1
  Li  Li2  1  0.000000  0.000000  0.500000  1
  Ni  Ni3  1  0.000000  0.000000  0.833682  1
  Ni  Ni4  1  0.500000  0.500000  0.000000  1
  Ni  Ni5  1  0.000000  0.000000  0.166318  1
  O  O6  1  0.500000  0.500000  0.831066  1
  O  O7  1  0.000000  0.000000  0.000000  1
  O  O8  1  0.500000  0.500000  0.168934  1
  F  F9  1  0.000000  0.000000  0.660670  1
  F  F10  1  0.000000  0.000000  0.339330  1
  F  F11  1  0.500000  0.500000  0.500000  1
