# generated using pymatgen
data_Li2Cr2O7
_symmetry_space_group_name_H-M   'P 1'
_cell_length_a   5.72791967
_cell_length_b   5.72791967
_cell_length_c   9.98118160
_cell_angle_alpha   75.69702344
_cell_angle_beta   104.30297656
_cell_angle_gamma   83.83125906
_symmetry_Int_Tables_number   1
_chemical_formula_structural   Li2Cr2O7
_chemical_formula_sum   'Li4 Cr4 O14'
_cell_volume   302.49545813
_cell_formula_units_Z   2
loop_
 _symmetry_equiv_pos_site_id
 _symmetry_equiv_pos_as_xyz
  1  'x, y, z'
loop_
 _atom_site_type_symbol
 _atom_site_label
 _atom_site_symmetry_multiplicity
 _atom_site_fract_x
 _atom_site_fract_y
 _atom_site_fract_z
 _atom_site_occupancy
  Li  Li0  1  0.708115  0.655568  0.490216  1
  Li  Li1  1  0.655568  0.708115  0.009784  1
  Li  Li2  1  0.344432  0.291885  0.990216  1
  Li  Li3  1  0.291885  0.344432  0.509784  1
  Cr  Cr4  1  0.209786  0.810078  0.207564  1
  Cr  Cr5  1  0.189922  0.790214  0.707564  1
  Cr  Cr6  1  0.810078  0.209786  0.292436  1
  Cr  Cr7  1  0.790214  0.189922  0.792436  1
  O  O8  1  0.017787  0.676372  0.116015  1
  O  O9  1  0.381318  0.930495  0.109298  1
  O  O10  1  0.380759  0.612083  0.359638  1
  O  O11  1  0.323628  0.982213  0.616015  1
  O  O12  1  0.046999  0.046999  0.250000  1
  O  O13  1  0.069505  0.618682  0.609298  1
  O  O14  1  0.387917  0.619241  0.859638  1
  O  O15  1  0.612083  0.380759  0.140362  1
  O  O16  1  0.930495  0.381318  0.390702  1
  O  O17  1  0.953001  0.953001  0.750000  1
  O  O18  1  0.676372  0.017787  0.383985  1
  O  O19  1  0.619241  0.387917  0.640362  1
  O  O20  1  0.618682  0.069505  0.890702  1
  O  O21  1  0.982213  0.323628  0.883985  1
