# generated using pymatgen
data_CaPbI4
_symmetry_space_group_name_H-M   'P 1'
_cell_length_a   9.35560609
_cell_length_b   7.91114419
_cell_length_c   16.33129046
_cell_angle_alpha   90.00000000
_cell_angle_beta   92.14120558
_cell_angle_gamma   90.00000000
_symmetry_Int_Tables_number   1
_chemical_formula_structural   CaPbI4
_chemical_formula_sum   'Ca4 Pb4 I16'
_cell_volume   1207.89280081
_cell_formula_units_Z   4
loop_
 _symmetry_equiv_pos_site_id
 _symmetry_equiv_pos_as_xyz
  1  'x, y, z'
loop_
 _atom_site_type_symbol
 _atom_site_label
 _atom_site_symmetry_multiplicity
 _atom_site_fract_x
 _atom_site_fract_y
 _atom_site_fract_z
 _atom_site_occupancy
  Ca  Ca0  1  0.313829  0.816698  0.606680  1
  Ca  Ca1  1  0.313829  0.683302  0.106680  1
  Ca  Ca2  1  0.686171  0.316698  0.893320  1
  Ca  Ca3  1  0.686171  0.183302  0.393320  1
  Pb  Pb4  1  0.143468  0.506244  0.872302  1
  Pb  Pb5  1  0.143468  0.993756  0.372302  1
  Pb  Pb6  1  0.856532  0.006244  0.627698  1
  Pb  Pb7  1  0.856532  0.493756  0.127698  1
  I  I8  1  0.059302  0.665793  0.689167  1
  I  I9  1  0.059302  0.834207  0.189167  1
  I  I10  1  0.175912  0.151586  0.556289  1
  I  I11  1  0.175912  0.348414  0.056289  1
  I  I12  1  0.319221  0.819761  0.935943  1
  I  I13  1  0.319221  0.680239  0.435943  1
  I  I14  1  0.406307  0.319703  0.797927  1
  I  I15  1  0.406307  0.180297  0.297927  1
  I  I16  1  0.593693  0.819703  0.702073  1
  I  I17  1  0.593693  0.680297  0.202073  1
  I  I18  1  0.680779  0.319761  0.564057  1
  I  I19  1  0.680779  0.180239  0.064057  1
  I  I20  1  0.824088  0.651586  0.943711  1
  I  I21  1  0.824088  0.848414  0.443711  1
  I  I22  1  0.940698  0.165793  0.810833  1
  I  I23  1  0.940698  0.334207  0.310833  1
