# generated using pymatgen
data_Li4V3Cr3(CuO8)2
_symmetry_space_group_name_H-M   'P 1'
_cell_length_a   5.83872497
_cell_length_b   5.84457829
_cell_length_c   9.75097164
_cell_angle_alpha   92.67301359
_cell_angle_beta   90.61733917
_cell_angle_gamma   119.34978381
_symmetry_Int_Tables_number   1
_chemical_formula_structural   Li4V3Cr3(CuO8)2
_chemical_formula_sum   'Li4 V3 Cr3 Cu2 O16'
_cell_volume   289.50833328
_cell_formula_units_Z   1
loop_
 _symmetry_equiv_pos_site_id
 _symmetry_equiv_pos_as_xyz
  1  'x, y, z'
loop_
 _atom_site_type_symbol
 _atom_site_label
 _atom_site_symmetry_multiplicity
 _atom_site_fract_x
 _atom_site_fract_y
 _atom_site_fract_z
 _atom_site_occupancy
  Li  Li0  1  0.316824  0.656159  0.097583  1
  Li  Li1  1  0.017980  0.033396  0.004681  1
  Li  Li2  1  0.024223  0.015104  0.507421  1
  Li  Li3  1  0.646644  0.323817  0.605416  1
  V  V4  1  0.790640  0.641591  0.273224  1
  V  V5  1  0.139908  0.814599  0.789449  1
  V  V6  1  0.328305  0.117109  0.297223  1
  Cr  Cr7  1  0.655860  0.848106  0.782537  1
  Cr  Cr8  1  0.171340  0.344125  0.786974  1
  Cr  Cr9  1  0.850310  0.179310  0.287042  1
  Cu  Cu10  1  0.351042  0.662811  0.516527  1
  Cu  Cu11  1  0.671552  0.333415  0.999259  1
  O  O12  1  0.704706  0.842474  0.392154  1
  O  O13  1  0.472694  0.514653  0.667161  1
  O  O14  1  0.331166  0.693716  0.894413  1
  O  O15  1  0.995309  0.991435  0.687836  1
  O  O16  1  0.009660  0.985380  0.188570  1
  O  O17  1  0.193594  0.322050  0.394799  1
  O  O18  1  0.456206  0.956708  0.661005  1
  O  O19  1  0.014597  0.518636  0.673824  1
  O  O20  1  0.848567  0.175925  0.898338  1
  O  O21  1  0.183209  0.843670  0.396518  1
  O  O22  1  0.961625  0.478866  0.168472  1
  O  O23  1  0.500220  0.017746  0.180039  1
  O  O24  1  0.669067  0.345981  0.391724  1
  O  O25  1  0.856532  0.703715  0.894379  1
  O  O26  1  0.511836  0.479445  0.161943  1
  O  O27  1  0.326678  0.160357  0.893648  1
