# generated using pymatgen
data_TlNi4(PO4)3
_symmetry_space_group_name_H-M   'P 1'
_cell_length_a   8.75270331
_cell_length_b   8.75270331
_cell_length_c   9.76835390
_cell_angle_alpha   90.00000000
_cell_angle_beta   90.00000000
_cell_angle_gamma   137.65100246
_symmetry_Int_Tables_number   1
_chemical_formula_structural   TlNi4(PO4)3
_chemical_formula_sum   'Tl2 Ni8 P6 O24'
_cell_volume   504.12327277
_cell_formula_units_Z   2
loop_
 _symmetry_equiv_pos_site_id
 _symmetry_equiv_pos_as_xyz
  1  'x, y, z'
loop_
 _atom_site_type_symbol
 _atom_site_label
 _atom_site_symmetry_multiplicity
 _atom_site_fract_x
 _atom_site_fract_y
 _atom_site_fract_z
 _atom_site_occupancy
  Tl  Tl0  1  0.973799  0.026201  0.464680  1
  Tl  Tl1  1  0.026201  0.973799  0.964680  1
  Ni  Ni2  1  0.046975  0.453861  0.998144  1
  Ni  Ni3  1  0.953025  0.546139  0.498144  1
  Ni  Ni4  1  0.621781  0.378219  0.197556  1
  Ni  Ni5  1  0.378219  0.621781  0.697556  1
  Ni  Ni6  1  0.453861  0.046975  0.498144  1
  Ni  Ni7  1  0.546139  0.953025  0.998144  1
  Ni  Ni8  1  0.379875  0.620125  0.233495  1
  Ni  Ni9  1  0.620125  0.379875  0.733495  1
  P  P10  1  0.533829  0.466171  0.487387  1
  P  P11  1  0.179811  0.820189  0.211665  1
  P  P12  1  0.820189  0.179811  0.711665  1
  P  P13  1  0.200377  0.799623  0.786183  1
  P  P14  1  0.466171  0.533829  0.987387  1
  P  P15  1  0.799623  0.200377  0.286183  1
  O  O16  1  0.470789  0.529211  0.829489  1
  O  O17  1  0.225186  0.393496  0.052575  1
  O  O18  1  0.774814  0.606504  0.552575  1
  O  O19  1  0.731991  0.268009  0.635930  1
  O  O20  1  0.554999  0.445001  0.031713  1
  O  O21  1  0.219152  0.780848  0.628568  1
  O  O22  1  0.938463  0.668672  0.165316  1
  O  O23  1  0.331328  0.061537  0.165316  1
  O  O24  1  0.606504  0.774814  0.052575  1
  O  O25  1  0.668672  0.938463  0.665316  1
  O  O26  1  0.445001  0.554999  0.531713  1
  O  O27  1  0.634604  0.951730  0.330966  1
  O  O28  1  0.951730  0.634604  0.830966  1
  O  O29  1  0.061537  0.331328  0.665316  1
  O  O30  1  0.365396  0.048270  0.830966  1
  O  O31  1  0.288937  0.711063  0.859186  1
  O  O32  1  0.711063  0.288937  0.359186  1
  O  O33  1  0.393496  0.225186  0.552575  1
  O  O34  1  0.193627  0.806373  0.369926  1
  O  O35  1  0.529211  0.470789  0.329489  1
  O  O36  1  0.806373  0.193627  0.869926  1
  O  O37  1  0.048270  0.365396  0.330966  1
  O  O38  1  0.268009  0.731991  0.135930  1
  O  O39  1  0.780848  0.219152  0.128568  1
