# generated using pymatgen
data_Li4TiCu3(PO4)4
_symmetry_space_group_name_H-M   'P 1'
_cell_length_a   5.09405342
_cell_length_b   6.34655718
_cell_length_c   10.12610480
_cell_angle_alpha   89.98033718
_cell_angle_beta   89.15834232
_cell_angle_gamma   88.84829919
_symmetry_Int_Tables_number   1
_chemical_formula_structural   Li4TiCu3(PO4)4
_chemical_formula_sum   'Li4 Ti1 Cu3 P4 O16'
_cell_volume   327.27249388
_cell_formula_units_Z   1
loop_
 _symmetry_equiv_pos_site_id
 _symmetry_equiv_pos_as_xyz
  1  'x, y, z'
loop_
 _atom_site_type_symbol
 _atom_site_label
 _atom_site_symmetry_multiplicity
 _atom_site_fract_x
 _atom_site_fract_y
 _atom_site_fract_z
 _atom_site_occupancy
  Li  Li0  1  0.102422  0.969054  0.871488  1
  Li  Li1  1  0.434641  0.981362  0.406144  1
  Li  Li2  1  0.607629  0.465081  0.625404  1
  Li  Li3  1  0.878507  0.437225  0.109812  1
  Ti  Ti4  1  0.966634  0.754625  0.286069  1
  Cu  Cu5  1  0.390678  0.253035  0.196691  1
  Cu  Cu6  1  0.104703  0.256018  0.692373  1
  Cu  Cu7  1  0.620437  0.753332  0.808285  1
  P  P8  1  0.090670  0.744587  0.603412  1
  P  P9  1  0.383097  0.749073  0.107133  1
  P  P10  1  0.579648  0.245238  0.892979  1
  P  P11  1  0.930823  0.249521  0.397496  1
  O  O12  1  0.157652  0.762784  0.445893  1
  O  O13  1  0.239132  0.930852  0.190009  1
  O  O14  1  0.211506  0.564655  0.167807  1
  O  O15  1  0.207011  0.938073  0.671044  1
  O  O16  1  0.239631  0.545721  0.650779  1
  O  O17  1  0.232026  0.233955  0.379793  1
  O  O18  1  0.279690  0.231904  0.871032  1
  O  O19  1  0.340833  0.769149  0.959911  1
  O  O20  1  0.627135  0.263274  0.044644  1
  O  O21  1  0.676166  0.729922  0.145352  1
  O  O22  1  0.698384  0.438207  0.819186  1
  O  O23  1  0.735327  0.046513  0.840576  1
  O  O24  1  0.789445  0.733194  0.616122  1
  O  O25  1  0.826399  0.452684  0.322452  1
  O  O26  1  0.800190  0.043792  0.334924  1
  O  O27  1  0.841153  0.259910  0.542450  1
