# generated using pymatgen
data_LiCrP4O13
_symmetry_space_group_name_H-M   'P 1'
_cell_length_a   5.14001123
_cell_length_b   7.88909980
_cell_length_c   13.52953638
_cell_angle_alpha   78.71575036
_cell_angle_beta   88.24796123
_cell_angle_gamma   81.59738636
_symmetry_Int_Tables_number   1
_chemical_formula_structural   LiCrP4O13
_chemical_formula_sum   'Li2 Cr2 P8 O26'
_cell_volume   532.24143915
_cell_formula_units_Z   2
loop_
 _symmetry_equiv_pos_site_id
 _symmetry_equiv_pos_as_xyz
  1  'x, y, z'
loop_
 _atom_site_type_symbol
 _atom_site_label
 _atom_site_symmetry_multiplicity
 _atom_site_fract_x
 _atom_site_fract_y
 _atom_site_fract_z
 _atom_site_occupancy
  Li  Li0  1  0.950103  0.644350  0.493051  1
  Li  Li1  1  0.453330  0.335908  0.996073  1
  Cr  Cr2  1  0.450640  0.045842  0.755627  1
  Cr  Cr3  1  0.547543  0.952142  0.242326  1
  P  P4  1  0.645138  0.424972  0.678627  1
  P  P5  1  0.313497  0.656222  0.804154  1
  P  P6  1  0.089834  0.803082  0.138055  1
  P  P7  1  0.009563  0.104043  0.346386  1
  P  P8  1  0.911243  0.196248  0.857036  1
  P  P9  1  0.677671  0.345580  0.196321  1
  P  P10  1  0.355183  0.577000  0.319661  1
  P  P11  1  0.987748  0.893809  0.653053  1
  O  O12  1  0.139892  0.640035  0.231018  1
  O  O13  1  0.460595  0.285576  0.688790  1
  O  O14  1  0.956905  0.262255  0.249217  1
  O  O15  1  0.263640  0.939981  0.154135  1
  O  O16  1  0.801072  0.879805  0.141397  1
  O  O17  1  0.511723  0.402205  0.291295  1
  O  O18  1  0.836854  0.965065  0.334851  1
  O  O19  1  0.706052  0.489403  0.110649  1
  O  O20  1  0.035884  0.734685  0.751922  1
  O  O21  1  0.156126  0.032668  0.670181  1
  O  O22  1  0.209670  0.133350  0.856676  1
  O  O23  1  0.690602  0.964243  0.657784  1
  O  O24  1  0.810303  0.253634  0.952546  1
  O  O25  1  0.925676  0.175445  0.441782  1
  O  O26  1  0.216894  0.533092  0.416519  1
  O  O27  1  0.763979  0.481392  0.579732  1
  O  O28  1  0.286952  0.510578  0.888838  1
  O  O29  1  0.172503  0.746864  0.039862  1
  O  O30  1  0.441826  0.811035  0.824812  1
  O  O31  1  0.752196  0.054584  0.836262  1
  O  O32  1  0.484991  0.594689  0.712332  1
  O  O33  1  0.549129  0.708111  0.311029  1
  O  O34  1  0.056003  0.817470  0.561494  1
  O  O35  1  0.547216  0.196910  0.170278  1
  O  O36  1  0.299961  0.032204  0.344533  1
  O  O37  1  0.869043  0.359627  0.763269  1
