# generated using pymatgen
data_Li4Cr3Ni(PO4)4
_symmetry_space_group_name_H-M   'P 1'
_cell_length_a   4.78394829
_cell_length_b   6.26996743
_cell_length_c   10.20198873
_cell_angle_alpha   90.00000000
_cell_angle_beta   90.44332531
_cell_angle_gamma   90.00000000
_symmetry_Int_Tables_number   1
_chemical_formula_structural   Li4Cr3Ni(PO4)4
_chemical_formula_sum   'Li4 Cr3 Ni1 P4 O16'
_cell_volume   306.00153189
_cell_formula_units_Z   1
loop_
 _symmetry_equiv_pos_site_id
 _symmetry_equiv_pos_as_xyz
  1  'x, y, z'
loop_
 _atom_site_type_symbol
 _atom_site_label
 _atom_site_symmetry_multiplicity
 _atom_site_fract_x
 _atom_site_fract_y
 _atom_site_fract_z
 _atom_site_occupancy
  Li  Li0  1  0.994244  0.251995  0.998179  1
  Li  Li1  1  0.994244  0.748005  0.998179  1
  Li  Li2  1  0.502435  0.745303  0.502489  1
  Li  Li3  1  0.502435  0.254697  0.502489  1
  Cr  Cr4  1  0.547578  0.500000  0.216373  1
  Cr  Cr5  1  0.452443  0.000000  0.781959  1
  Cr  Cr6  1  0.045107  0.000000  0.284919  1
  Ni  Ni7  1  0.983880  0.500000  0.721431  1
  P  P8  1  0.916757  0.000000  0.596032  1
  P  P9  1  0.580323  0.000000  0.094256  1
  P  P10  1  0.416265  0.500000  0.903829  1
  P  P11  1  0.084658  0.500000  0.407084  1
  O  O12  1  0.805035  0.000000  0.451695  1
  O  O13  1  0.787123  0.201892  0.662627  1
  O  O14  1  0.787123  0.798108  0.662627  1
  O  O15  1  0.760839  0.500000  0.398227  1
  O  O16  1  0.737705  0.500000  0.897562  1
  O  O17  1  0.715681  0.198469  0.160743  1
  O  O18  1  0.715681  0.801531  0.160743  1
  O  O19  1  0.688188  0.000000  0.949795  1
  O  O20  1  0.305550  0.500000  0.047234  1
  O  O21  1  0.273982  0.694629  0.833970  1
  O  O22  1  0.273982  0.305371  0.833970  1
  O  O23  1  0.256687  0.000000  0.101328  1
  O  O24  1  0.240527  0.000000  0.602542  1
  O  O25  1  0.216553  0.698296  0.339175  1
  O  O26  1  0.216553  0.301704  0.339175  1
  O  O27  1  0.198415  0.500000  0.551366  1
