# generated using pymatgen
data_CoTeO4
_symmetry_space_group_name_H-M   'P 1'
_cell_length_a   6.22596040
_cell_length_b   6.22596040
_cell_length_c   6.22596040
_cell_angle_alpha   121.78378046
_cell_angle_beta   121.02790867
_cell_angle_gamma   87.58307892
_symmetry_Int_Tables_number   1
_chemical_formula_structural   CoTeO4
_chemical_formula_sum   'Co2 Te2 O8'
_cell_volume   166.85206933
_cell_formula_units_Z   2
loop_
 _symmetry_equiv_pos_site_id
 _symmetry_equiv_pos_as_xyz
  1  'x, y, z'
loop_
 _atom_site_type_symbol
 _atom_site_label
 _atom_site_symmetry_multiplicity
 _atom_site_fract_x
 _atom_site_fract_y
 _atom_site_fract_z
 _atom_site_occupancy
  Co  Co0  1  0.000000  0.500000  0.000000  1
  Co  Co1  1  0.000000  0.000000  0.500000  1
  Te  Te2  1  0.500000  1.000000  0.500000  1
  Te  Te3  1  0.000000  0.000000  0.000000  1
  O  O4  1  0.188143  0.212502  0.975641  1
  O  O5  1  0.750999  0.779466  0.528467  1
  O  O6  1  0.736861  0.212502  0.524359  1
  O  O7  1  0.750999  0.222532  0.971533  1
  O  O8  1  0.249001  0.777468  0.028467  1
  O  O9  1  0.263139  0.787498  0.475641  1
  O  O10  1  0.249001  0.220534  0.471533  1
  O  O11  1  0.811857  0.787498  0.024359  1
