# generated using pymatgen
data_LiMn3(P3O10)2
_symmetry_space_group_name_H-M   'P 1'
_cell_length_a   8.39785255
_cell_length_b   8.39785255
_cell_length_c   12.01263842
_cell_angle_alpha   90.00000000
_cell_angle_beta   90.00000000
_cell_angle_gamma   105.12841397
_symmetry_Int_Tables_number   1
_chemical_formula_structural   LiMn3(P3O10)2
_chemical_formula_sum   'Li2 Mn6 P12 O40'
_cell_volume   817.81805197
_cell_formula_units_Z   2
loop_
 _symmetry_equiv_pos_site_id
 _symmetry_equiv_pos_as_xyz
  1  'x, y, z'
loop_
 _atom_site_type_symbol
 _atom_site_label
 _atom_site_symmetry_multiplicity
 _atom_site_fract_x
 _atom_site_fract_y
 _atom_site_fract_z
 _atom_site_occupancy
  Li  Li0  1  0.569048  0.569048  0.000000  1
  Li  Li1  1  0.430952  0.430952  0.500000  1
  Mn  Mn2  1  0.141350  0.141350  0.500000  1
  Mn  Mn3  1  0.706363  0.293637  0.250000  1
  Mn  Mn4  1  0.761730  0.238270  0.750000  1
  Mn  Mn5  1  0.293637  0.706363  0.750000  1
  Mn  Mn6  1  0.238270  0.761730  0.250000  1
  Mn  Mn7  1  0.858650  0.858650  0.000000  1
  P  P8  1  0.094545  0.368243  0.179709  1
  P  P9  1  0.368243  0.094545  0.820291  1
  P  P10  1  0.190127  0.315636  0.723106  1
  P  P11  1  0.315636  0.190127  0.276894  1
  P  P12  1  0.151641  0.735862  0.512663  1
  P  P13  1  0.735862  0.151641  0.487337  1
  P  P14  1  0.848359  0.264138  0.012663  1
  P  P15  1  0.264138  0.848359  0.987337  1
  P  P16  1  0.809873  0.684364  0.223106  1
  P  P17  1  0.684364  0.809873  0.776894  1
  P  P18  1  0.905455  0.631757  0.679709  1
  P  P19  1  0.631757  0.905455  0.320291  1
  O  O20  1  0.175656  0.214653  0.187486  1
  O  O21  1  0.214653  0.175656  0.812514  1
  O  O22  1  0.034606  0.365603  0.052939  1
  O  O23  1  0.365603  0.034606  0.947061  1
  O  O24  1  0.286174  0.300222  0.616610  1
  O  O25  1  0.300222  0.286174  0.383390  1
  O  O26  1  0.671208  0.055347  0.243091  1
  O  O27  1  0.055347  0.671208  0.756909  1
  O  O28  1  0.477928  0.268953  0.215760  1
  O  O29  1  0.268953  0.477928  0.784240  1
  O  O30  1  0.993315  0.725269  0.201990  1
  O  O31  1  0.725269  0.993315  0.798010  1
  O  O32  1  0.228634  0.522390  0.198449  1
  O  O33  1  0.522390  0.228634  0.801551  1
  O  O34  1  0.165504  0.672345  0.395275  1
  O  O35  1  0.672345  0.165504  0.604725  1
  O  O36  1  0.085226  0.838145  0.973688  1
  O  O37  1  0.838145  0.085226  0.026312  1
  O  O38  1  0.271150  0.672288  0.589034  1
  O  O39  1  0.672288  0.271150  0.410966  1
  O  O40  1  0.728850  0.327712  0.089034  1
  O  O41  1  0.327712  0.728850  0.910966  1
  O  O42  1  0.914774  0.161855  0.473688  1
  O  O43  1  0.161855  0.914774  0.526312  1
  O  O44  1  0.834496  0.327655  0.895275  1
  O  O45  1  0.327655  0.834496  0.104725  1
  O  O46  1  0.771366  0.477610  0.698449  1
  O  O47  1  0.477610  0.771366  0.301551  1
  O  O48  1  0.006685  0.274731  0.701990  1
  O  O49  1  0.274731  0.006685  0.298010  1
  O  O50  1  0.522072  0.731047  0.715760  1
  O  O51  1  0.731047  0.522072  0.284240  1
  O  O52  1  0.944653  0.328792  0.256909  1
  O  O53  1  0.328792  0.944653  0.743091  1
  O  O54  1  0.713826  0.699778  0.116610  1
  O  O55  1  0.699778  0.713826  0.883390  1
  O  O56  1  0.965394  0.634397  0.552939  1
  O  O57  1  0.634397  0.965394  0.447061  1
  O  O58  1  0.824344  0.785347  0.687486  1
  O  O59  1  0.785347  0.824344  0.312514  1
