# generated using pymatgen
data_Li4Nb(FeO4)3
_symmetry_space_group_name_H-M   'P 1'
_cell_length_a   4.94401175
_cell_length_b   8.25158368
_cell_length_c   5.02317309
_cell_angle_alpha   90.00000000
_cell_angle_beta   90.99935171
_cell_angle_gamma   90.00000000
_symmetry_Int_Tables_number   1
_chemical_formula_structural   Li4Nb(FeO4)3
_chemical_formula_sum   'Li4 Nb1 Fe3 O12'
_cell_volume   204.89383032
_cell_formula_units_Z   1
loop_
 _symmetry_equiv_pos_site_id
 _symmetry_equiv_pos_as_xyz
  1  'x, y, z'
loop_
 _atom_site_type_symbol
 _atom_site_label
 _atom_site_symmetry_multiplicity
 _atom_site_fract_x
 _atom_site_fract_y
 _atom_site_fract_z
 _atom_site_occupancy
  Li  Li0  1  0.000000  0.703659  0.000000  1
  Li  Li1  1  0.500000  0.805131  0.000000  1
  Li  Li2  1  0.000000  0.326648  0.500000  1
  Li  Li3  1  0.500000  0.205334  0.500000  1
  Nb  Nb4  1  0.000000  0.108239  0.000000  1
  Fe  Fe5  1  0.500000  0.420998  0.000000  1
  Fe  Fe6  1  0.000000  0.907088  0.500000  1
  Fe  Fe7  1  0.500000  0.605604  0.500000  1
  O  O8  1  0.259676  0.262134  0.853814  1
  O  O9  1  0.305770  0.588801  0.818042  1
  O  O10  1  0.192750  0.915016  0.818122  1
  O  O11  1  0.695567  0.432559  0.683362  1
  O  O12  1  0.793547  0.079577  0.660771  1
  O  O13  1  0.753755  0.751103  0.653764  1
  O  O14  1  0.246245  0.751103  0.346236  1
  O  O15  1  0.206453  0.079577  0.339229  1
  O  O16  1  0.304433  0.432559  0.316638  1
  O  O17  1  0.807250  0.915016  0.181878  1
  O  O18  1  0.694230  0.588801  0.181958  1
  O  O19  1  0.740324  0.262134  0.146186  1
