# generated using pymatgen
data_Na14Ni2O9
_symmetry_space_group_name_H-M   'P 1'
_cell_length_a   6.63349655
_cell_length_b   6.63349655
_cell_length_c   9.31328891
_cell_angle_alpha   90.00000000
_cell_angle_beta   90.00000000
_cell_angle_gamma   120.00000000
_symmetry_Int_Tables_number   1
_chemical_formula_structural   Na14Ni2O9
_chemical_formula_sum   'Na14 Ni2 O9'
_cell_volume   354.91039757
_cell_formula_units_Z   1
loop_
 _symmetry_equiv_pos_site_id
 _symmetry_equiv_pos_as_xyz
  1  'x, y, z'
loop_
 _atom_site_type_symbol
 _atom_site_label
 _atom_site_symmetry_multiplicity
 _atom_site_fract_x
 _atom_site_fract_y
 _atom_site_fract_z
 _atom_site_occupancy
  Na  Na0  1  0.036056  0.673802  0.907900  1
  Na  Na1  1  0.312437  0.934259  0.593420  1
  Na  Na2  1  0.065741  0.378178  0.593420  1
  Na  Na3  1  0.000000  0.000000  0.250623  1
  Na  Na4  1  0.000000  0.000000  0.749377  1
  Na  Na5  1  0.326198  0.362255  0.907900  1
  Na  Na6  1  0.637745  0.963944  0.907900  1
  Na  Na7  1  0.378178  0.312437  0.406580  1
  Na  Na8  1  0.621822  0.687563  0.593420  1
  Na  Na9  1  0.362255  0.036056  0.092100  1
  Na  Na10  1  0.673802  0.637745  0.092100  1
  Na  Na11  1  0.934259  0.621822  0.406580  1
  Na  Na12  1  0.687563  0.065741  0.406580  1
  Na  Na13  1  0.963944  0.326198  0.092100  1
  Ni  Ni14  1  0.333333  0.666667  0.262505  1
  Ni  Ni15  1  0.666667  0.333333  0.737495  1
  O  O16  1  0.309459  0.943302  0.334509  1
  O  O17  1  0.056698  0.366157  0.334509  1
  O  O18  1  0.333333  0.666667  0.044978  1
  O  O19  1  0.000000  0.000000  0.000000  1
  O  O20  1  0.366157  0.309459  0.665491  1
  O  O21  1  0.633843  0.690541  0.334509  1
  O  O22  1  0.666667  0.333333  0.955022  1
  O  O23  1  0.943302  0.633843  0.665491  1
  O  O24  1  0.690541  0.056698  0.665491  1
