# generated using pymatgen
data_KErHSe2O9
_symmetry_space_group_name_H-M   'P 1'
_cell_length_a   5.76168000
_cell_length_b   8.61216764
_cell_length_c   9.40356642
_cell_angle_alpha   70.29176212
_cell_angle_beta   84.25739715
_cell_angle_gamma   74.65289776
_symmetry_Int_Tables_number   1
_chemical_formula_structural   KErHSe2O9
_chemical_formula_sum   'K2 Er2 H2 Se4 O18'
_cell_volume   423.58255733
_cell_formula_units_Z   2
loop_
 _symmetry_equiv_pos_site_id
 _symmetry_equiv_pos_as_xyz
  1  'x, y, z'
loop_
 _atom_site_type_symbol
 _atom_site_label
 _atom_site_symmetry_multiplicity
 _atom_site_fract_x
 _atom_site_fract_y
 _atom_site_fract_z
 _atom_site_occupancy
  K  K0  1  0.235206  0.779018  0.983381  1
  K  K1  1  0.764794  0.220982  0.016619  1
  Er  Er2  1  0.644078  0.630923  0.606028  1
  Er  Er3  1  0.355922  0.369077  0.393972  1
  H  H4  1  0.325061  0.102213  0.260921  1
  H  H5  1  0.674939  0.897787  0.739079  1
  Se  Se6  1  0.113176  0.827176  0.369721  1
  Se  Se7  1  0.886824  0.172824  0.630279  1
  Se  Se8  1  0.783263  0.551216  0.216058  1
  Se  Se9  1  0.216737  0.448784  0.783942  1
  O  O10  1  0.199316  0.662618  0.301270  1
  O  O11  1  0.800684  0.337382  0.698730  1
  O  O12  1  0.097280  0.004039  0.225512  1
  O  O13  1  0.902720  0.995961  0.774488  1
  O  O14  1  0.686386  0.181097  0.509216  1
  O  O15  1  0.313614  0.818903  0.490784  1
  O  O16  1  0.149643  0.180484  0.539193  1
  O  O17  1  0.850357  0.819516  0.460807  1
  O  O18  1  0.741829  0.747716  0.100829  1
  O  O19  1  0.258171  0.252284  0.899171  1
  O  O20  1  0.589723  0.454947  0.176771  1
  O  O21  1  0.410277  0.545053  0.823229  1
  O  O22  1  0.712265  0.533468  0.399849  1
  O  O23  1  0.287735  0.466532  0.600151  1
  O  O24  1  0.065606  0.433388  0.208383  1
  O  O25  1  0.934394  0.566612  0.791617  1
  O  O26  1  0.454267  0.157173  0.268013  1
  O  O27  1  0.545733  0.842827  0.731987  1
