# generated using pymatgen
data_VF5
_symmetry_space_group_name_H-M   'P 1'
_cell_length_a   5.36141763
_cell_length_b   10.55601126
_cell_length_c   6.22170723
_cell_angle_alpha   90.00000000
_cell_angle_beta   104.16085125
_cell_angle_gamma   90.00000000
_symmetry_Int_Tables_number   1
_chemical_formula_structural   VF5
_chemical_formula_sum   'V4 F20'
_cell_volume   341.41874768
_cell_formula_units_Z   4
loop_
 _symmetry_equiv_pos_site_id
 _symmetry_equiv_pos_as_xyz
  1  'x, y, z'
loop_
 _atom_site_type_symbol
 _atom_site_label
 _atom_site_symmetry_multiplicity
 _atom_site_fract_x
 _atom_site_fract_y
 _atom_site_fract_z
 _atom_site_occupancy
  V  V0  1  0.424664  0.953127  0.734106  1
  V  V1  1  0.575336  0.453127  0.765894  1
  V  V2  1  0.424664  0.546873  0.234106  1
  V  V3  1  0.575336  0.046873  0.265894  1
  F  F4  1  0.185914  0.071163  0.688393  1
  F  F5  1  0.218099  0.823156  0.682307  1
  F  F6  1  0.277810  0.373060  0.699310  1
  F  F7  1  0.385930  0.581033  0.912974  1
  F  F8  1  0.185914  0.428837  0.188393  1
  F  F9  1  0.218099  0.676844  0.182307  1
  F  F10  1  0.277810  0.126940  0.199310  1
  F  F11  1  0.378306  0.582184  0.529029  1
  F  F12  1  0.385930  0.918967  0.412974  1
  F  F13  1  0.621694  0.082184  0.970971  1
  F  F14  1  0.378306  0.917816  0.029029  1
  F  F15  1  0.614070  0.081033  0.587026  1
  F  F16  1  0.621694  0.417816  0.470971  1
  F  F17  1  0.722190  0.873060  0.800690  1
  F  F18  1  0.781901  0.323156  0.817693  1
  F  F19  1  0.814086  0.571163  0.811607  1
  F  F20  1  0.614070  0.418967  0.087026  1
  F  F21  1  0.722190  0.626940  0.300690  1
  F  F22  1  0.781901  0.176844  0.317693  1
  F  F23  1  0.814086  0.928837  0.311607  1
