# generated using pymatgen
data_NaVPO5
_symmetry_space_group_name_H-M   'P 1'
_cell_length_a   6.48663442
_cell_length_b   7.53186237
_cell_length_c   7.77940275
_cell_angle_alpha   90.00000000
_cell_angle_beta   90.00000000
_cell_angle_gamma   90.00000000
_symmetry_Int_Tables_number   1
_chemical_formula_structural   NaVPO5
_chemical_formula_sum   'Na4 V4 P4 O20'
_cell_volume   380.07390577
_cell_formula_units_Z   4
loop_
 _symmetry_equiv_pos_site_id
 _symmetry_equiv_pos_as_xyz
  1  'x, y, z'
loop_
 _atom_site_type_symbol
 _atom_site_label
 _atom_site_symmetry_multiplicity
 _atom_site_fract_x
 _atom_site_fract_y
 _atom_site_fract_z
 _atom_site_occupancy
  Na  Na0  1  0.000000  0.000000  0.500000  1
  Na  Na1  1  0.500000  0.000000  0.500000  1
  Na  Na2  1  0.000000  0.500000  0.000000  1
  Na  Na3  1  0.500000  0.500000  0.000000  1
  V  V4  1  0.250000  0.831489  0.213470  1
  V  V5  1  0.750000  0.668511  0.713470  1
  V  V6  1  0.250000  0.331489  0.286530  1
  V  V7  1  0.750000  0.168511  0.786530  1
  P  P8  1  0.750000  0.873163  0.106093  1
  P  P9  1  0.250000  0.626837  0.606093  1
  P  P10  1  0.750000  0.373163  0.393907  1
  P  P11  1  0.250000  0.126837  0.893907  1
  O  O12  1  0.250000  0.950686  0.994994  1
  O  O13  1  0.750000  0.891295  0.674939  1
  O  O14  1  0.940744  0.864326  0.226490  1
  O  O15  1  0.559256  0.864326  0.226490  1
  O  O16  1  0.250000  0.787063  0.479483  1
  O  O17  1  0.750000  0.712937  0.979483  1
  O  O18  1  0.440744  0.635674  0.726490  1
  O  O19  1  0.059256  0.635674  0.726490  1
  O  O20  1  0.250000  0.608705  0.174939  1
  O  O21  1  0.750000  0.549314  0.494994  1
  O  O22  1  0.250000  0.450686  0.505006  1
  O  O23  1  0.750000  0.391295  0.825061  1
  O  O24  1  0.940744  0.364326  0.273510  1
  O  O25  1  0.559256  0.364326  0.273510  1
  O  O26  1  0.250000  0.287063  0.020517  1
  O  O27  1  0.750000  0.212937  0.520517  1
  O  O28  1  0.440744  0.135674  0.773510  1
  O  O29  1  0.059256  0.135674  0.773510  1
  O  O30  1  0.250000  0.108705  0.325061  1
  O  O31  1  0.750000  0.049314  0.005006  1
