# generated using pymatgen
data_V4(OF3)3
_symmetry_space_group_name_H-M   'P 1'
_cell_length_a   5.25598117
_cell_length_b   5.39599892
_cell_length_c   17.35092171
_cell_angle_alpha   83.30600439
_cell_angle_beta   81.83523670
_cell_angle_gamma   61.00712621
_symmetry_Int_Tables_number   1
_chemical_formula_structural   V4(OF3)3
_chemical_formula_sum   'V8 O6 F18'
_cell_volume   425.41414262
_cell_formula_units_Z   2
loop_
 _symmetry_equiv_pos_site_id
 _symmetry_equiv_pos_as_xyz
  1  'x, y, z'
loop_
 _atom_site_type_symbol
 _atom_site_label
 _atom_site_symmetry_multiplicity
 _atom_site_fract_x
 _atom_site_fract_y
 _atom_site_fract_z
 _atom_site_occupancy
  V  V0  1  0.379927  0.340332  0.871027  1
  V  V1  1  0.869506  0.905073  0.380305  1
  V  V2  1  0.746424  0.746983  0.749529  1
  V  V3  1  0.233390  0.269375  0.244400  1
  V  V4  1  0.110203  0.153522  0.628044  1
  V  V5  1  0.643101  0.622268  0.124507  1
  V  V6  1  0.993973  0.971303  0.002255  1
  V  V7  1  0.478176  0.517253  0.491801  1
  O  O8  1  0.764773  0.186160  0.433664  1
  O  O9  1  0.472707  0.072802  0.814307  1
  O  O10  1  0.251283  0.672556  0.420734  1
  O  O11  1  0.016757  0.422259  0.684831  1
  O  O12  1  0.015598  0.410686  0.172234  1
  O  O13  1  0.816246  0.787273  0.040822  1
  F  F14  1  0.765444  0.163488  0.912841  1
  F  F15  1  0.287943  0.674096  0.935923  1
  F  F16  1  0.965491  0.950237  0.709545  1
  F  F17  1  0.466713  0.465919  0.211702  1
  F  F18  1  0.210501  0.199231  0.962334  1
  F  F19  1  0.984674  0.584502  0.838476  1
  F  F20  1  0.495817  0.082278  0.331706  1
  F  F21  1  0.286030  0.288207  0.537411  1
  F  F22  1  0.976040  0.566290  0.317730  1
  F  F23  1  0.507786  0.914893  0.662103  1
  F  F24  1  0.713186  0.711131  0.462115  1
  F  F25  1  0.735936  0.330753  0.580944  1
  F  F26  1  0.525050  0.545879  0.790162  1
  F  F27  1  0.050280  0.030363  0.288763  1
  F  F28  1  0.543762  0.940649  0.187888  1
  F  F29  1  0.720427  0.313174  0.060539  1
  F  F30  1  0.225876  0.814726  0.565652  1
  F  F31  1  0.246980  0.846337  0.085708  1
