# generated using pymatgen
data_V5CrO12
_symmetry_space_group_name_H-M   'P 1'
_cell_length_a   6.86336510
_cell_length_b   6.86336510
_cell_length_c   5.68672270
_cell_angle_alpha   75.13584345
_cell_angle_beta   104.86415655
_cell_angle_gamma   95.55879020
_symmetry_Int_Tables_number   1
_chemical_formula_structural   V5CrO12
_chemical_formula_sum   'V5 Cr1 O12'
_cell_volume   250.11101554
_cell_formula_units_Z   1
loop_
 _symmetry_equiv_pos_site_id
 _symmetry_equiv_pos_as_xyz
  1  'x, y, z'
loop_
 _atom_site_type_symbol
 _atom_site_label
 _atom_site_symmetry_multiplicity
 _atom_site_fract_x
 _atom_site_fract_y
 _atom_site_fract_z
 _atom_site_occupancy
  V  V0  1  0.082076  0.082076  0.500000  1
  V  V1  1  0.392975  0.794885  0.001111  1
  V  V2  1  0.191445  0.603283  0.490683  1
  V  V3  1  0.794885  0.392975  0.998889  1
  V  V4  1  0.603283  0.191445  0.509317  1
  Cr  Cr5  1  0.916116  0.916116  0.000000  1
  O  O6  1  0.188770  0.959888  0.891536  1
  O  O7  1  0.626772  0.916628  0.006791  1
  O  O8  1  0.032982  0.823488  0.376478  1
  O  O9  1  0.347070  0.630125  0.805966  1
  O  O10  1  0.916628  0.626772  0.993209  1
  O  O11  1  0.383304  0.658915  0.302764  1
  O  O12  1  0.630125  0.347070  0.194034  1
  O  O13  1  0.091662  0.359615  0.536269  1
  O  O14  1  0.658915  0.383304  0.697236  1
  O  O15  1  0.959888  0.188770  0.108464  1
  O  O16  1  0.359615  0.091662  0.463731  1
  O  O17  1  0.823488  0.032982  0.623522  1
