# generated using pymatgen
data_Ti3Cr2Sb(PO4)6
_symmetry_space_group_name_H-M   'P 1'
_cell_length_a   8.71474297
_cell_length_b   8.71474297
_cell_length_c   8.71474297
_cell_angle_alpha   60.16581830
_cell_angle_beta   60.16581830
_cell_angle_gamma   60.16581830
_symmetry_Int_Tables_number   1
_chemical_formula_structural   Ti3Cr2Sb(PO4)6
_chemical_formula_sum   'Ti3 Cr2 Sb1 P6 O24'
_cell_volume   469.76073890
_cell_formula_units_Z   1
loop_
 _symmetry_equiv_pos_site_id
 _symmetry_equiv_pos_as_xyz
  1  'x, y, z'
loop_
 _atom_site_type_symbol
 _atom_site_label
 _atom_site_symmetry_multiplicity
 _atom_site_fract_x
 _atom_site_fract_y
 _atom_site_fract_z
 _atom_site_occupancy
  Ti  Ti0  1  0.854600  0.854600  0.854600  1
  Ti  Ti1  1  0.646837  0.646837  0.646837  1
  Ti  Ti2  1  0.354257  0.354257  0.354257  1
  Cr  Cr3  1  0.999483  0.999483  0.999483  1
  Cr  Cr4  1  0.501637  0.501637  0.501637  1
  Sb  Sb5  1  0.147819  0.147819  0.147819  1
  P  P6  1  0.949304  0.249535  0.557947  1
  P  P7  1  0.557947  0.949304  0.249535  1
  P  P8  1  0.738538  0.463816  0.043205  1
  P  P9  1  0.463816  0.043205  0.738538  1
  P  P10  1  0.043205  0.738538  0.463816  1
  P  P11  1  0.249535  0.557947  0.949304  1
  O  O12  1  0.889331  0.662297  0.523917  1
  O  O13  1  0.662297  0.523917  0.889331  1
  O  O14  1  0.938711  0.085430  0.747168  1
  O  O15  1  0.523917  0.889331  0.662297  1
  O  O16  1  0.961746  0.195515  0.410220  1
  O  O17  1  0.759770  0.412191  0.585939  1
  O  O18  1  0.747168  0.938711  0.085430  1
  O  O19  1  0.585939  0.759770  0.412191  1
  O  O20  1  0.808801  0.616295  0.001813  1
  O  O21  1  0.412191  0.585939  0.759770  1
  O  O22  1  0.893341  0.271643  0.045368  1
  O  O23  1  0.616295  0.001813  0.808801  1
  O  O24  1  0.410220  0.961746  0.195515  1
  O  O25  1  0.085430  0.747168  0.938711  1
  O  O26  1  0.579260  0.446629  0.235758  1
  O  O27  1  0.195515  0.410220  0.961746  1
  O  O28  1  0.446629  0.235758  0.579260  1
  O  O29  1  0.271643  0.045368  0.893341  1
  O  O30  1  0.235758  0.579260  0.446629  1
  O  O31  1  0.001813  0.808801  0.616295  1
  O  O32  1  0.500296  0.121419  0.300161  1
  O  O33  1  0.045368  0.893341  0.271643  1
  O  O34  1  0.300161  0.500296  0.121419  1
  O  O35  1  0.121419  0.300161  0.500296  1
