# generated using pymatgen
data_LiMn2P4H11O18
_symmetry_space_group_name_H-M   'P 1'
_cell_length_a   5.44044554
_cell_length_b   6.17249115
_cell_length_c   11.97586530
_cell_angle_alpha   75.08614249
_cell_angle_beta   83.61503693
_cell_angle_gamma   66.38209028
_symmetry_Int_Tables_number   1
_chemical_formula_structural   LiMn2P4H11O18
_chemical_formula_sum   'Li1 Mn2 P4 H11 O18'
_cell_volume   356.04916470
_cell_formula_units_Z   1
loop_
 _symmetry_equiv_pos_site_id
 _symmetry_equiv_pos_as_xyz
  1  'x, y, z'
loop_
 _atom_site_type_symbol
 _atom_site_label
 _atom_site_symmetry_multiplicity
 _atom_site_fract_x
 _atom_site_fract_y
 _atom_site_fract_z
 _atom_site_occupancy
  Li  Li0  1  0.470241  0.989205  0.538618  1
  Mn  Mn1  1  0.005660  0.295501  0.905769  1
  Mn  Mn2  1  0.993259  0.702997  0.101204  1
  P  P3  1  0.141091  0.634357  0.637708  1
  P  P4  1  0.498940  0.210318  0.096443  1
  P  P5  1  0.496232  0.787074  0.911420  1
  P  P6  1  0.836859  0.384537  0.368878  1
  H  H7  1  0.986974  0.503407  0.499017  1
  H  H8  1  0.007063  0.929262  0.295496  1
  H  H9  1  0.252994  0.679519  0.305434  1
  H  H10  1  0.472345  0.491242  0.513929  1
  H  H11  1  0.360581  0.581455  0.817315  1
  H  H12  1  0.633596  0.077912  0.805039  1
  H  H13  1  0.366788  0.923327  0.206750  1
  H  H14  1  0.634688  0.419212  0.186142  1
  H  H15  1  0.749332  0.319420  0.699126  1
  H  H16  1  0.979400  0.016936  0.484501  1
  H  H17  1  0.983376  0.062834  0.706561  1
  O  O18  1  0.066141  0.387957  0.436746  1
  O  O19  1  0.239739  0.316939  0.030471  1
  O  O20  1  0.124554  0.560976  0.770521  1
  O  O21  1  0.132872  0.820486  0.248406  1
  O  O22  1  0.169096  0.885304  0.595733  1
  O  O23  1  0.467163  0.037987  0.824184  1
  O  O24  1  0.463047  0.406373  0.167717  1
  O  O25  1  0.407307  0.432973  0.599853  1
  O  O26  1  0.764781  0.146474  0.031363  1
  O  O27  1  0.227843  0.852702  0.974075  1
  O  O28  1  0.560959  0.556680  0.400388  1
  O  O29  1  0.533667  0.595484  0.837883  1
  O  O30  1  0.853985  0.107186  0.414382  1
  O  O31  1  0.533704  0.961335  0.186840  1
  O  O32  1  0.863369  0.173962  0.754921  1
  O  O33  1  0.889725  0.426178  0.238490  1
  O  O34  1  0.752818  0.676148  0.980816  1
  O  O35  1  0.895512  0.646542  0.578334  1
