# generated using pymatgen
data_V2Sb(PO4)3
_symmetry_space_group_name_H-M   'P 1'
_cell_length_a   8.87475432
_cell_length_b   8.87475432
_cell_length_c   8.87475432
_cell_angle_alpha   58.80009725
_cell_angle_beta   58.80009725
_cell_angle_gamma   58.80009725
_symmetry_Int_Tables_number   1
_chemical_formula_structural   V2Sb(PO4)3
_chemical_formula_sum   'V4 Sb2 P6 O24'
_cell_volume   480.71465952
_cell_formula_units_Z   2
loop_
 _symmetry_equiv_pos_site_id
 _symmetry_equiv_pos_as_xyz
  1  'x, y, z'
loop_
 _atom_site_type_symbol
 _atom_site_label
 _atom_site_symmetry_multiplicity
 _atom_site_fract_x
 _atom_site_fract_y
 _atom_site_fract_z
 _atom_site_occupancy
  V  V0  1  0.853726  0.853726  0.853726  1
  V  V1  1  0.646274  0.646274  0.646274  1
  V  V2  1  0.353726  0.353726  0.353726  1
  V  V3  1  0.146274  0.146274  0.146274  1
  Sb  Sb4  1  0.000000  0.000000  0.000000  1
  Sb  Sb5  1  0.500000  0.500000  0.500000  1
  P  P6  1  0.250000  0.538780  0.961220  1
  P  P7  1  0.961220  0.250000  0.538780  1
  P  P8  1  0.538780  0.961220  0.250000  1
  P  P9  1  0.461220  0.038780  0.750000  1
  P  P10  1  0.038780  0.750000  0.461220  1
  P  P11  1  0.750000  0.461220  0.038780  1
  O  O12  1  0.698311  0.492184  0.883539  1
  O  O13  1  0.492184  0.883539  0.698311  1
  O  O14  1  0.084024  0.732301  0.938856  1
  O  O15  1  0.883539  0.698311  0.492184  1
  O  O16  1  0.198311  0.383539  0.992184  1
  O  O17  1  0.415976  0.561144  0.767699  1
  O  O18  1  0.938856  0.084024  0.732301  1
  O  O19  1  0.767699  0.415976  0.561144  1
  O  O20  1  0.616461  0.007816  0.801689  1
  O  O21  1  0.561144  0.767699  0.415976  1
  O  O22  1  0.267699  0.061144  0.915976  1
  O  O23  1  0.007816  0.801689  0.616461  1
  O  O24  1  0.992184  0.198311  0.383539  1
  O  O25  1  0.732301  0.938856  0.084024  1
  O  O26  1  0.438856  0.232301  0.584024  1
  O  O27  1  0.383539  0.992184  0.198311  1
  O  O28  1  0.232301  0.584024  0.438856  1
  O  O29  1  0.061144  0.915976  0.267699  1
  O  O30  1  0.584024  0.438856  0.232301  1
  O  O31  1  0.801689  0.616461  0.007816  1
  O  O32  1  0.116461  0.301689  0.507816  1
  O  O33  1  0.915976  0.267699  0.061144  1
  O  O34  1  0.507816  0.116461  0.301689  1
  O  O35  1  0.301689  0.507816  0.116461  1
