# generated using pymatgen
data_LiCrP2O7
_symmetry_space_group_name_H-M   'P 1'
_cell_length_a   5.04158079
_cell_length_b   13.44956049
_cell_length_c   9.50203005
_cell_angle_alpha   90.00000000
_cell_angle_beta   121.42221560
_cell_angle_gamma   90.00000000
_symmetry_Int_Tables_number   1
_chemical_formula_structural   LiCrP2O7
_chemical_formula_sum   'Li4 Cr4 P8 O28'
_cell_volume   549.81649319
_cell_formula_units_Z   4
loop_
 _symmetry_equiv_pos_site_id
 _symmetry_equiv_pos_as_xyz
  1  'x, y, z'
loop_
 _atom_site_type_symbol
 _atom_site_label
 _atom_site_symmetry_multiplicity
 _atom_site_fract_x
 _atom_site_fract_y
 _atom_site_fract_z
 _atom_site_occupancy
  Li  Li0  1  0.989822  0.380183  0.643509  1
  Li  Li1  1  0.010178  0.880183  0.856491  1
  Li  Li2  1  0.989822  0.119817  0.143509  1
  Li  Li3  1  0.010178  0.619817  0.356491  1
  Cr  Cr4  1  0.026790  0.667867  0.733845  1
  Cr  Cr5  1  0.026790  0.832133  0.233845  1
  Cr  Cr6  1  0.973210  0.332133  0.266155  1
  Cr  Cr7  1  0.973210  0.167867  0.766155  1
  P  P8  1  0.481572  0.471176  0.274436  1
  P  P9  1  0.518428  0.528824  0.725564  1
  P  P10  1  0.730722  0.821874  0.460610  1
  P  P11  1  0.730722  0.678126  0.960610  1
  P  P12  1  0.481572  0.028824  0.774436  1
  P  P13  1  0.269278  0.321874  0.039390  1
  P  P14  1  0.269278  0.178126  0.539390  1
  P  P15  1  0.518428  0.971176  0.225564  1
  O  O16  1  0.220105  0.044307  0.814795  1
  O  O17  1  0.413555  0.784421  0.424273  1
  O  O18  1  0.744009  0.392314  0.368371  1
  O  O19  1  0.406044  0.424972  0.709431  1
  O  O20  1  0.692926  0.939705  0.423774  1
  O  O21  1  0.307074  0.060295  0.576226  1
  O  O22  1  0.255991  0.892314  0.131629  1
  O  O23  1  0.829814  0.774738  0.348558  1
  O  O24  1  0.779895  0.544307  0.685205  1
  O  O25  1  0.406044  0.075028  0.209431  1
  O  O26  1  0.307074  0.439705  0.076226  1
  O  O27  1  0.973884  0.806112  0.643650  1
  O  O28  1  0.593956  0.575028  0.290569  1
  O  O29  1  0.586445  0.284421  0.075727  1
  O  O30  1  0.220105  0.455693  0.314795  1
  O  O31  1  0.255991  0.607686  0.631629  1
  O  O32  1  0.413555  0.715579  0.924273  1
  O  O33  1  0.026116  0.193888  0.356350  1
  O  O34  1  0.744009  0.107686  0.868371  1
  O  O35  1  0.593956  0.924972  0.790569  1
  O  O36  1  0.779895  0.955693  0.185205  1
  O  O37  1  0.692926  0.560295  0.923774  1
  O  O38  1  0.973884  0.693888  0.143650  1
  O  O39  1  0.170186  0.225262  0.651442  1
  O  O40  1  0.829814  0.725262  0.848558  1
  O  O41  1  0.026116  0.306112  0.856350  1
  O  O42  1  0.170186  0.274738  0.151442  1
  O  O43  1  0.586445  0.215579  0.575727  1
