# generated using pymatgen
data_Dy2SiO5
_symmetry_space_group_name_H-M   'P 1'
_cell_length_a   6.75312746
_cell_length_b   6.90346118
_cell_length_c   9.14042675
_cell_angle_alpha   90.00000000
_cell_angle_beta   105.86796152
_cell_angle_gamma   90.00000000
_symmetry_Int_Tables_number   1
_chemical_formula_structural   Dy2SiO5
_chemical_formula_sum   'Dy8 Si4 O20'
_cell_volume   409.88844963
_cell_formula_units_Z   4
loop_
 _symmetry_equiv_pos_site_id
 _symmetry_equiv_pos_as_xyz
  1  'x, y, z'
loop_
 _atom_site_type_symbol
 _atom_site_label
 _atom_site_symmetry_multiplicity
 _atom_site_fract_x
 _atom_site_fract_y
 _atom_site_fract_z
 _atom_site_occupancy
  Dy  Dy0  1  0.443003  0.360016  0.126049  1
  Dy  Dy1  1  0.943003  0.139984  0.126049  1
  Dy  Dy2  1  0.768802  0.124305  0.470723  1
  Dy  Dy3  1  0.731198  0.624305  0.529277  1
  Dy  Dy4  1  0.268802  0.375695  0.470723  1
  Dy  Dy5  1  0.231198  0.875695  0.529277  1
  Dy  Dy6  1  0.056997  0.860016  0.873951  1
  Dy  Dy7  1  0.556997  0.639984  0.873951  1
  Si  Si8  1  0.475112  0.910401  0.200744  1
  Si  Si9  1  0.975112  0.589599  0.200744  1
  Si  Si10  1  0.024888  0.410401  0.799256  1
  Si  Si11  1  0.524888  0.089599  0.799256  1
  O  O12  1  0.275820  0.050033  0.127752  1
  O  O13  1  0.480338  0.716755  0.103609  1
  O  O14  1  0.775820  0.449967  0.127752  1
  O  O15  1  0.662216  0.072030  0.207566  1
  O  O16  1  0.980338  0.783245  0.103609  1
  O  O17  1  0.513890  0.863621  0.385386  1
  O  O18  1  0.561004  0.380828  0.386461  1
  O  O19  1  0.162216  0.427970  0.207566  1
  O  O20  1  0.013890  0.636379  0.385386  1
  O  O21  1  0.061004  0.119172  0.386461  1
  O  O22  1  0.938996  0.880828  0.613539  1
  O  O23  1  0.986110  0.363621  0.614614  1
  O  O24  1  0.837784  0.572030  0.792434  1
  O  O25  1  0.438996  0.619172  0.613539  1
  O  O26  1  0.486110  0.136379  0.614614  1
  O  O27  1  0.019662  0.216755  0.896391  1
  O  O28  1  0.337784  0.927970  0.792434  1
  O  O29  1  0.224180  0.550033  0.872248  1
  O  O30  1  0.519662  0.283245  0.896391  1
  O  O31  1  0.724180  0.949967  0.872248  1
