# generated using pymatgen
data_Fe5O7F3
_symmetry_space_group_name_H-M   'P 1'
_cell_length_a   4.65662775
_cell_length_b   4.65677704
_cell_length_c   15.91422547
_cell_angle_alpha   90.00000000
_cell_angle_beta   106.96852327
_cell_angle_gamma   90.00000000
_symmetry_Int_Tables_number   1
_chemical_formula_structural   Fe5O7F3
_chemical_formula_sum   'Fe10 O14 F6'
_cell_volume   330.07426299
_cell_formula_units_Z   2
loop_
 _symmetry_equiv_pos_site_id
 _symmetry_equiv_pos_as_xyz
  1  'x, y, z'
loop_
 _atom_site_type_symbol
 _atom_site_label
 _atom_site_symmetry_multiplicity
 _atom_site_fract_x
 _atom_site_fract_y
 _atom_site_fract_z
 _atom_site_occupancy
  Fe  Fe0  1  0.996266  0.250871  0.000657  1
  Fe  Fe1  1  0.233054  0.235897  0.205688  1
  Fe  Fe2  1  0.419346  0.230406  0.399645  1
  Fe  Fe3  1  0.558909  0.269579  0.593665  1
  Fe  Fe4  1  0.786945  0.232366  0.799234  1
  Fe  Fe5  1  0.558909  0.730421  0.093665  1
  Fe  Fe6  1  0.996266  0.749129  0.500657  1
  Fe  Fe7  1  0.786945  0.767634  0.299234  1
  Fe  Fe8  1  0.233054  0.764103  0.705688  1
  Fe  Fe9  1  0.419346  0.769594  0.899645  1
  O  O10  1  0.114373  0.048537  0.302166  1
  O  O11  1  0.297156  0.051530  0.496964  1
  O  O12  1  0.505247  0.073577  0.696670  1
  O  O13  1  0.719861  0.065530  0.903791  1
  O  O14  1  0.690767  0.552486  0.998772  1
  O  O15  1  0.278244  0.573869  0.599109  1
  O  O16  1  0.508295  0.559811  0.803773  1
  O  O17  1  0.297156  0.948470  0.996964  1
  O  O18  1  0.505247  0.926423  0.196670  1
  O  O19  1  0.719861  0.934470  0.403791  1
  O  O20  1  0.114373  0.951463  0.802166  1
  O  O21  1  0.278244  0.426131  0.099109  1
  O  O22  1  0.690767  0.447514  0.498772  1
  O  O23  1  0.508295  0.440189  0.303773  1
  F  F24  1  0.897304  0.040392  0.102527  1
  F  F25  1  0.894437  0.540976  0.198226  1
  F  F26  1  0.099796  0.547154  0.399114  1
  F  F27  1  0.897304  0.959608  0.602527  1
  F  F28  1  0.099796  0.452846  0.899114  1
  F  F29  1  0.894437  0.459024  0.698226  1
