# generated using pymatgen
data_Li3V(TeO3)4
_symmetry_space_group_name_H-M   'P 1'
_cell_length_a   5.51790575
_cell_length_b   6.22886320
_cell_length_c   8.07051956
_cell_angle_alpha   95.29922928
_cell_angle_beta   91.94101572
_cell_angle_gamma   95.98252870
_symmetry_Int_Tables_number   1
_chemical_formula_structural   Li3V(TeO3)4
_chemical_formula_sum   'Li3 V1 Te4 O12'
_cell_volume   274.43109120
_cell_formula_units_Z   1
loop_
 _symmetry_equiv_pos_site_id
 _symmetry_equiv_pos_as_xyz
  1  'x, y, z'
loop_
 _atom_site_type_symbol
 _atom_site_label
 _atom_site_symmetry_multiplicity
 _atom_site_fract_x
 _atom_site_fract_y
 _atom_site_fract_z
 _atom_site_occupancy
  Li  Li0  1  0.467300  0.985458  0.773690  1
  Li  Li1  1  0.992034  0.408912  0.777728  1
  Li  Li2  1  0.477160  0.992988  0.274892  1
  V  V3  1  0.004916  0.371314  0.293497  1
  Te  Te4  1  0.012269  0.981314  0.989702  1
  Te  Te5  1  0.493998  0.499202  0.503545  1
  Te  Te6  1  0.948566  0.004643  0.517461  1
  Te  Te7  1  0.537304  0.505180  0.949299  1
  O  O8  1  0.325478  0.228196  0.398747  1
  O  O9  1  0.115590  0.054015  0.771792  1
  O  O10  1  0.315306  0.892463  0.047419  1
  O  O11  1  0.228504  0.618245  0.394192  1
  O  O12  1  0.825031  0.673078  0.875376  1
  O  O13  1  0.338559  0.534443  0.745353  1
  O  O14  1  0.760806  0.520905  0.271565  1
  O  O15  1  0.114434  0.331621  0.091676  1
  O  O16  1  0.908059  0.310884  0.545328  1
  O  O17  1  0.660113  0.248044  0.872672  1
  O  O18  1  0.852417  0.080728  0.276404  1
  O  O19  1  0.622154  0.899167  0.559261  1
