# generated using pymatgen
data_Na2FeSiCO7
_symmetry_space_group_name_H-M   'P 1'
_cell_length_a   5.29347552
_cell_length_b   6.51124823
_cell_length_c   9.21102208
_cell_angle_alpha   90.00000000
_cell_angle_beta   90.69428098
_cell_angle_gamma   90.00000000
_symmetry_Int_Tables_number   1
_chemical_formula_structural   Na2FeSiCO7
_chemical_formula_sum   'Na4 Fe2 Si2 C2 O14'
_cell_volume   317.45421637
_cell_formula_units_Z   2
loop_
 _symmetry_equiv_pos_site_id
 _symmetry_equiv_pos_as_xyz
  1  'x, y, z'
loop_
 _atom_site_type_symbol
 _atom_site_label
 _atom_site_symmetry_multiplicity
 _atom_site_fract_x
 _atom_site_fract_y
 _atom_site_fract_z
 _atom_site_occupancy
  Na  Na0  1  0.764384  0.506108  0.237213  1
  Na  Na1  1  0.764384  0.993892  0.237213  1
  Na  Na2  1  0.235616  0.493892  0.762787  1
  Na  Na3  1  0.235616  0.006108  0.762787  1
  Fe  Fe4  1  0.208747  0.250000  0.360805  1
  Fe  Fe5  1  0.791253  0.750000  0.639195  1
  Si  Si6  1  0.293346  0.750000  0.431010  1
  Si  Si7  1  0.706654  0.250000  0.568990  1
  C  C8  1  0.274777  0.250000  0.077130  1
  C  C9  1  0.725223  0.750000  0.922870  1
  O  O10  1  0.714506  0.750000  0.059621  1
  O  O11  1  0.058601  0.250000  0.144219  1
  O  O12  1  0.472216  0.250000  0.161865  1
  O  O13  1  0.220426  0.951692  0.332164  1
  O  O14  1  0.220426  0.548308  0.332164  1
  O  O15  1  0.853118  0.250000  0.413846  1
  O  O16  1  0.603590  0.750000  0.461562  1
  O  O17  1  0.396410  0.250000  0.538438  1
  O  O18  1  0.146882  0.750000  0.586154  1
  O  O19  1  0.779574  0.451692  0.667836  1
  O  O20  1  0.779574  0.048308  0.667836  1
  O  O21  1  0.527784  0.750000  0.838135  1
  O  O22  1  0.941399  0.750000  0.855781  1
  O  O23  1  0.285494  0.250000  0.940379  1
