# generated using pymatgen
data_Fe3P2(H2O3)4
_symmetry_space_group_name_H-M   'P 1'
_cell_length_a   9.39350779
_cell_length_b   4.72290685
_cell_length_c   10.68397786
_cell_angle_alpha   90.00000000
_cell_angle_beta   100.32407778
_cell_angle_gamma   90.00000000
_symmetry_Int_Tables_number   1
_chemical_formula_structural   Fe3P2(H2O3)4
_chemical_formula_sum   'Fe6 P4 H16 O24'
_cell_volume   466.31706501
_cell_formula_units_Z   2
loop_
 _symmetry_equiv_pos_site_id
 _symmetry_equiv_pos_as_xyz
  1  'x, y, z'
loop_
 _atom_site_type_symbol
 _atom_site_label
 _atom_site_symmetry_multiplicity
 _atom_site_fract_x
 _atom_site_fract_y
 _atom_site_fract_z
 _atom_site_occupancy
  Fe  Fe0  1  0.000000  0.500000  0.500000  1
  Fe  Fe1  1  0.000000  0.000000  0.000000  1
  Fe  Fe2  1  0.670665  0.430281  0.327874  1
  Fe  Fe3  1  0.329335  0.930281  0.172126  1
  Fe  Fe4  1  0.329335  0.569719  0.672126  1
  Fe  Fe5  1  0.670665  0.069719  0.827874  1
  P  P6  1  0.762549  0.531437  0.048029  1
  P  P7  1  0.237451  0.031437  0.451971  1
  P  P8  1  0.237451  0.468563  0.951971  1
  P  P9  1  0.762549  0.968563  0.548029  1
  H  H10  1  0.938517  0.069992  0.353578  1
  H  H11  1  0.061483  0.569992  0.146422  1
  H  H12  1  0.061483  0.930008  0.646422  1
  H  H13  1  0.938517  0.430008  0.853578  1
  H  H14  1  0.909204  0.289514  0.236293  1
  H  H15  1  0.090796  0.789514  0.263707  1
  H  H16  1  0.090796  0.710486  0.763707  1
  H  H17  1  0.909204  0.210486  0.736293  1
  H  H18  1  0.609056  0.937736  0.169551  1
  H  H19  1  0.390944  0.437736  0.330449  1
  H  H20  1  0.390944  0.062264  0.830449  1
  H  H21  1  0.609056  0.562264  0.669551  1
  H  H22  1  0.555097  0.215289  0.092983  1
  H  H23  1  0.444903  0.715289  0.407017  1
  H  H24  1  0.444903  0.784711  0.907017  1
  H  H25  1  0.555097  0.284711  0.592983  1
  O  O26  1  0.801485  0.718956  0.465250  1
  O  O27  1  0.198515  0.218956  0.034750  1
  O  O28  1  0.198515  0.281044  0.534750  1
  O  O29  1  0.801485  0.781044  0.965250  1
  O  O30  1  0.902317  0.347688  0.093417  1
  O  O31  1  0.097683  0.847688  0.406583  1
  O  O32  1  0.097683  0.652312  0.906583  1
  O  O33  1  0.902317  0.152312  0.593417  1
  O  O34  1  0.709538  0.646936  0.168248  1
  O  O35  1  0.290462  0.146936  0.331752  1
  O  O36  1  0.290462  0.353064  0.831752  1
  O  O37  1  0.709538  0.853064  0.668248  1
  O  O38  1  0.642035  0.151542  0.468586  1
  O  O39  1  0.357965  0.651542  0.031414  1
  O  O40  1  0.357965  0.848458  0.531414  1
  O  O41  1  0.642035  0.348458  0.968586  1
  O  O42  1  0.897774  0.259951  0.328931  1
  O  O43  1  0.102226  0.759951  0.171069  1
  O  O44  1  0.102226  0.740049  0.671069  1
  O  O45  1  0.897774  0.240049  0.828931  1
  O  O46  1  0.545485  0.110000  0.172288  1
  O  O47  1  0.454515  0.610000  0.327712  1
  O  O48  1  0.454515  0.890000  0.827712  1
  O  O49  1  0.545485  0.390000  0.672288  1
