# generated using pymatgen
data_Sm2TeO6
_symmetry_space_group_name_H-M   'P 1'
_cell_length_a   5.41962019
_cell_length_b   9.31175634
_cell_length_c   10.19957306
_cell_angle_alpha   90.00000000
_cell_angle_beta   90.00000000
_cell_angle_gamma   90.00000000
_symmetry_Int_Tables_number   1
_chemical_formula_structural   Sm2TeO6
_chemical_formula_sum   'Sm8 Te4 O24'
_cell_volume   514.73351715
_cell_formula_units_Z   4
loop_
 _symmetry_equiv_pos_site_id
 _symmetry_equiv_pos_as_xyz
  1  'x, y, z'
loop_
 _atom_site_type_symbol
 _atom_site_label
 _atom_site_symmetry_multiplicity
 _atom_site_fract_x
 _atom_site_fract_y
 _atom_site_fract_z
 _atom_site_occupancy
  Sm  Sm0  1  0.024633  0.396322  0.041727  1
  Sm  Sm1  1  0.033620  0.282707  0.637557  1
  Sm  Sm2  1  0.466380  0.717293  0.137557  1
  Sm  Sm3  1  0.475367  0.603678  0.541727  1
  Sm  Sm4  1  0.524633  0.103678  0.958273  1
  Sm  Sm5  1  0.533620  0.217293  0.362443  1
  Sm  Sm6  1  0.966380  0.782707  0.862443  1
  Sm  Sm7  1  0.975367  0.896322  0.458273  1
  Te  Te8  1  0.040872  0.005019  0.143459  1
  Te  Te9  1  0.459128  0.994981  0.643459  1
  Te  Te10  1  0.540872  0.494981  0.856541  1
  Te  Te11  1  0.959128  0.505019  0.356541  1
  O  O12  1  0.075650  0.651715  0.477253  1
  O  O13  1  0.168783  0.552707  0.210588  1
  O  O14  1  0.182814  0.862336  0.258104  1
  O  O15  1  0.188894  0.859530  0.675803  1
  O  O16  1  0.224379  0.387036  0.435512  1
  O  O17  1  0.248462  0.914024  0.006736  1
  O  O18  1  0.251538  0.085976  0.506736  1
  O  O19  1  0.275621  0.612964  0.935512  1
  O  O20  1  0.311106  0.140470  0.175803  1
  O  O21  1  0.317186  0.137664  0.758104  1
  O  O22  1  0.331217  0.447293  0.710588  1
  O  O23  1  0.424350  0.348285  0.977253  1
  O  O24  1  0.575650  0.848285  0.522747  1
  O  O25  1  0.668783  0.947293  0.789412  1
  O  O26  1  0.682814  0.637664  0.741896  1
  O  O27  1  0.688894  0.640470  0.324197  1
  O  O28  1  0.724379  0.112964  0.564488  1
  O  O29  1  0.748462  0.585976  0.993264  1
  O  O30  1  0.751538  0.414024  0.493264  1
  O  O31  1  0.775621  0.887036  0.064488  1
  O  O32  1  0.811106  0.359530  0.824197  1
  O  O33  1  0.817186  0.362336  0.241896  1
  O  O34  1  0.831217  0.052707  0.289412  1
  O  O35  1  0.924350  0.151715  0.022747  1
