# generated using pymatgen
data_LiMnV(P2O7)2
_symmetry_space_group_name_H-M   'P 1'
_cell_length_a   7.15199941
_cell_length_b   8.16326330
_cell_length_c   13.66383743
_cell_angle_alpha   88.35625121
_cell_angle_beta   82.12164251
_cell_angle_gamma   88.64864644
_symmetry_Int_Tables_number   1
_chemical_formula_structural   LiMnV(P2O7)2
_chemical_formula_sum   'Li3 Mn3 V3 P12 O42'
_cell_volume   789.73434040
_cell_formula_units_Z   3
loop_
 _symmetry_equiv_pos_site_id
 _symmetry_equiv_pos_as_xyz
  1  'x, y, z'
loop_
 _atom_site_type_symbol
 _atom_site_label
 _atom_site_symmetry_multiplicity
 _atom_site_fract_x
 _atom_site_fract_y
 _atom_site_fract_z
 _atom_site_occupancy
  Li  Li0  1  0.162266  0.863588  0.165504  1
  Li  Li1  1  0.828118  0.863459  0.499688  1
  Li  Li2  1  0.840484  0.357964  0.832209  1
  Mn  Mn3  1  0.560265  0.007145  0.171747  1
  Mn  Mn4  1  0.228446  0.007326  0.506548  1
  Mn  Mn5  1  0.884570  0.992503  0.837417  1
  V  V6  1  0.119560  0.494782  0.163268  1
  V  V7  1  0.784260  0.494954  0.495089  1
  V  V8  1  0.445376  0.505867  0.829103  1
  P  P9  1  0.865615  0.780040  0.043028  1
  P  P10  1  0.475334  0.678228  0.039578  1
  P  P11  1  0.795261  0.287180  0.290171  1
  P  P12  1  0.184629  0.176054  0.295013  1
  P  P13  1  0.532632  0.782002  0.375323  1
  P  P14  1  0.142811  0.679425  0.373464  1
  P  P15  1  0.849505  0.177698  0.627596  1
  P  P16  1  0.460852  0.288702  0.625210  1
  P  P17  1  0.811708  0.682687  0.704937  1
  P  P18  1  0.200140  0.782056  0.709259  1
  P  P19  1  0.521430  0.174607  0.960387  1
  P  P20  1  0.132900  0.287959  0.957819  1
  O  O21  1  0.695104  0.651595  0.052552  1
  O  O22  1  0.810167  0.932428  0.103861  1
  O  O23  1  0.537988  0.174695  0.070267  1
  O  O24  1  0.409243  0.843618  0.079196  1
  O  O25  1  0.373847  0.535266  0.098335  1
  O  O26  1  0.871043  0.439383  0.228146  1
  O  O27  1  0.090451  0.332858  0.067539  1
  O  O28  1  0.964753  0.149910  0.284721  1
  O  O29  1  0.026036  0.685752  0.085792  1
  O  O30  1  0.633134  0.202623  0.257448  1
  O  O31  1  0.589391  0.826123  0.266126  1
  O  O32  1  0.284415  0.038327  0.232861  1
  O  O33  1  0.234215  0.347573  0.250525  1
  O  O34  1  0.133789  0.672536  0.260819  1
  O  O35  1  0.755280  0.336652  0.399776  1
  O  O36  1  0.694592  0.687342  0.416628  1
  O  O37  1  0.362999  0.652916  0.385849  1
  O  O38  1  0.477632  0.932890  0.437570  1
  O  O39  1  0.207949  0.172170  0.403835  1
  O  O40  1  0.950805  0.038981  0.567656  1
  O  O41  1  0.900838  0.348259  0.582442  1
  O  O42  1  0.076849  0.844572  0.414431  1
  O  O43  1  0.041537  0.535451  0.430270  1
  O  O44  1  0.799177  0.670107  0.592913  1
  O  O45  1  0.536300  0.439375  0.561745  1
  O  O46  1  0.630409  0.150978  0.618625  1
  O  O47  1  0.298300  0.203466  0.593113  1
  O  O48  1  0.872993  0.177308  0.737308  1
  O  O49  1  0.257409  0.828534  0.600222  1
  O  O50  1  0.749703  0.848383  0.742350  1
  O  O51  1  0.715553  0.537488  0.765434  1
  O  O52  1  0.423557  0.341814  0.734367  1
  O  O53  1  0.360907  0.682561  0.746544  1
  O  O54  1  0.967710  0.210587  0.920934  1
  O  O55  1  0.031767  0.649899  0.717176  1
  O  O56  1  0.925989  0.819588  0.933881  1
  O  O57  1  0.134011  0.931003  0.770926  1
  O  O58  1  0.627844  0.037601  0.902378  1
  O  O59  1  0.574052  0.344447  0.912068  1
  O  O60  1  0.466146  0.662149  0.927890  1
  O  O61  1  0.197590  0.441942  0.894497  1
  O  O62  1  0.300865  0.151456  0.949193  1
