# generated using pymatgen
data_Li3MnFeCo(PO4)3
_symmetry_space_group_name_H-M   'P 1'
_cell_length_a   10.46044994
_cell_length_b   6.09230517
_cell_length_c   14.27796603
_cell_angle_alpha   90.00000000
_cell_angle_beta   90.11011463
_cell_angle_gamma   90.00000000
_symmetry_Int_Tables_number   1
_chemical_formula_structural   Li3MnFeCo(PO4)3
_chemical_formula_sum   'Li12 Mn4 Fe4 Co4 P12 O48'
_cell_volume   909.90815492
_cell_formula_units_Z   4
loop_
 _symmetry_equiv_pos_site_id
 _symmetry_equiv_pos_as_xyz
  1  'x, y, z'
loop_
 _atom_site_type_symbol
 _atom_site_label
 _atom_site_symmetry_multiplicity
 _atom_site_fract_x
 _atom_site_fract_y
 _atom_site_fract_z
 _atom_site_occupancy
  Li  Li0  1  0.997557  0.749207  0.332837  1
  Li  Li1  1  0.998677  0.250475  0.000349  1
  Li  Li2  1  0.998677  0.749525  0.000349  1
  Li  Li3  1  0.998107  0.251024  0.666926  1
  Li  Li4  1  0.998107  0.748976  0.666926  1
  Li  Li5  1  0.997557  0.250793  0.332837  1
  Li  Li6  1  0.502405  0.250746  0.499072  1
  Li  Li7  1  0.502405  0.749254  0.499072  1
  Li  Li8  1  0.501519  0.250450  0.833244  1
  Li  Li9  1  0.501519  0.749550  0.833244  1
  Li  Li10  1  0.502577  0.249844  0.167147  1
  Li  Li11  1  0.502577  0.750156  0.167147  1
  Mn  Mn12  1  0.218043  0.000000  0.839808  1
  Mn  Mn13  1  0.218546  0.000000  0.506190  1
  Mn  Mn14  1  0.218091  0.000000  0.173310  1
  Mn  Mn15  1  0.281834  0.500000  0.339963  1
  Fe  Fe16  1  0.280339  0.500000  0.007106  1
  Fe  Fe17  1  0.281874  0.500000  0.674239  1
  Fe  Fe18  1  0.719934  0.000000  0.992835  1
  Fe  Fe19  1  0.720094  0.000000  0.659008  1
  Co  Co20  1  0.721553  0.000000  0.325946  1
  Co  Co21  1  0.778198  0.500000  0.160859  1
  Co  Co22  1  0.780165  0.500000  0.493063  1
  Co  Co23  1  0.779080  0.500000  0.827034  1
  P  P24  1  0.090465  0.500000  0.193966  1
  P  P25  1  0.092423  0.500000  0.861626  1
  P  P26  1  0.091610  0.500000  0.529415  1
  P  P27  1  0.408689  0.000000  0.693091  1
  P  P28  1  0.410674  0.000000  0.360814  1
  P  P29  1  0.408349  0.000000  0.026418  1
  P  P30  1  0.596462  0.500000  0.639450  1
  P  P31  1  0.595675  0.500000  0.972665  1
  P  P32  1  0.597838  0.500000  0.305852  1
  P  P33  1  0.902105  0.000000  0.139321  1
  P  P34  1  0.902569  0.000000  0.805803  1
  P  P35  1  0.902080  0.000000  0.472217  1
  O  O36  1  0.040304  0.000000  0.763764  1
  O  O37  1  0.039322  0.000000  0.430110  1
  O  O38  1  0.039732  0.000000  0.097136  1
  O  O39  1  0.095486  0.500000  0.422020  1
  O  O40  1  0.096037  0.500000  0.086413  1
  O  O41  1  0.098567  0.500000  0.754109  1
  O  O42  1  0.163005  0.298930  0.907712  1
  O  O43  1  0.163005  0.701070  0.907712  1
  O  O44  1  0.162331  0.298182  0.574677  1
  O  O45  1  0.162331  0.701818  0.574677  1
  O  O46  1  0.160805  0.298100  0.239153  1
  O  O47  1  0.160805  0.701900  0.239153  1
  O  O48  1  0.340001  0.798135  0.405721  1
  O  O49  1  0.340001  0.201865  0.405721  1
  O  O50  1  0.337311  0.796845  0.736825  1
  O  O51  1  0.337311  0.203155  0.736825  1
  O  O52  1  0.337180  0.796854  0.070026  1
  O  O53  1  0.337180  0.203146  0.070026  1
  O  O54  1  0.406768  0.000000  0.585842  1
  O  O55  1  0.406235  0.000000  0.918762  1
  O  O56  1  0.405185  0.000000  0.253263  1
  O  O57  1  0.458210  0.500000  0.598463  1
  O  O58  1  0.457883  0.500000  0.931236  1
  O  O59  1  0.460449  0.500000  0.263291  1
  O  O60  1  0.545695  0.000000  0.735586  1
  O  O61  1  0.545244  0.000000  0.068702  1
  O  O62  1  0.548580  0.000000  0.401073  1
  O  O63  1  0.599365  0.500000  0.747158  1
  O  O64  1  0.598118  0.500000  0.080344  1
  O  O65  1  0.598225  0.500000  0.413507  1
  O  O66  1  0.666303  0.297503  0.928044  1
  O  O67  1  0.666297  0.297650  0.594429  1
  O  O68  1  0.668350  0.296467  0.261301  1
  O  O69  1  0.668350  0.703533  0.261301  1
  O  O70  1  0.666303  0.702497  0.928044  1
  O  O71  1  0.666297  0.702350  0.594429  1
  O  O72  1  0.832351  0.796009  0.094925  1
  O  O73  1  0.832351  0.203991  0.094925  1
  O  O74  1  0.832855  0.795846  0.761576  1
  O  O75  1  0.831245  0.796653  0.428202  1
  O  O76  1  0.832855  0.204154  0.761576  1
  O  O77  1  0.831245  0.203347  0.428202  1
  O  O78  1  0.901888  0.000000  0.246963  1
  O  O79  1  0.901922  0.000000  0.580133  1
  O  O80  1  0.902209  0.000000  0.913395  1
  O  O81  1  0.952694  0.500000  0.234236  1
  O  O82  1  0.954158  0.500000  0.900644  1
  O  O83  1  0.953282  0.500000  0.569516  1
