# generated using pymatgen
data_Na5LiMn2P2(CO7)2
_symmetry_space_group_name_H-M   'P 1'
_cell_length_a   5.17144907
_cell_length_b   6.77339013
_cell_length_c   8.96753737
_cell_angle_alpha   90.55368253
_cell_angle_beta   90.08587973
_cell_angle_gamma   90.26026693
_symmetry_Int_Tables_number   1
_chemical_formula_structural   Na5LiMn2P2(CO7)2
_chemical_formula_sum   'Na5 Li1 Mn2 P2 C2 O14'
_cell_volume   314.09878837
_cell_formula_units_Z   1
loop_
 _symmetry_equiv_pos_site_id
 _symmetry_equiv_pos_as_xyz
  1  'x, y, z'
loop_
 _atom_site_type_symbol
 _atom_site_label
 _atom_site_symmetry_multiplicity
 _atom_site_fract_x
 _atom_site_fract_y
 _atom_site_fract_z
 _atom_site_occupancy
  Na  Na0  1  0.760073  0.246773  0.915903  1
  Na  Na1  1  0.247082  0.498086  0.741305  1
  Na  Na2  1  0.752914  0.501829  0.258908  1
  Na  Na3  1  0.752040  0.997902  0.258527  1
  Na  Na4  1  0.239911  0.751662  0.082233  1
  Li  Li5  1  0.240614  0.007490  0.732786  1
  Mn  Mn6  1  0.778698  0.752769  0.640195  1
  Mn  Mn7  1  0.221869  0.250048  0.362542  1
  P  P8  1  0.702526  0.247371  0.591017  1
  P  P9  1  0.299781  0.753597  0.413703  1
  C  C10  1  0.734389  0.752144  0.939745  1
  C  C11  1  0.263784  0.244939  0.056142  1
  O  O12  1  0.283403  0.235690  0.912139  1
  O  O13  1  0.962072  0.752060  0.877397  1
  O  O14  1  0.528398  0.755233  0.855478  1
  O  O15  1  0.799288  0.067923  0.681969  1
  O  O16  1  0.781598  0.435030  0.681733  1
  O  O17  1  0.399769  0.236973  0.577980  1
  O  O18  1  0.184787  0.762221  0.573904  1
  O  O19  1  0.817351  0.249779  0.431078  1
  O  O20  1  0.600952  0.751415  0.427751  1
  O  O21  1  0.211696  0.566527  0.324450  1
  O  O22  1  0.216350  0.933980  0.318852  1
  O  O23  1  0.470026  0.250129  0.140440  1
  O  O24  1  0.037378  0.249651  0.120262  1
  O  O25  1  0.713252  0.748782  0.083560  1
