# generated using pymatgen
data_Na3VO3
_symmetry_space_group_name_H-M   'P 1'
_cell_length_a   5.89107623
_cell_length_b   6.03074991
_cell_length_c   6.50249268
_cell_angle_alpha   64.33618222
_cell_angle_beta   89.04213430
_cell_angle_gamma   87.88528019
_symmetry_Int_Tables_number   1
_chemical_formula_structural   Na3VO3
_chemical_formula_sum   'Na6 V2 O6'
_cell_volume   208.08635808
_cell_formula_units_Z   2
loop_
 _symmetry_equiv_pos_site_id
 _symmetry_equiv_pos_as_xyz
  1  'x, y, z'
loop_
 _atom_site_type_symbol
 _atom_site_label
 _atom_site_symmetry_multiplicity
 _atom_site_fract_x
 _atom_site_fract_y
 _atom_site_fract_z
 _atom_site_occupancy
  Na  Na0  1  0.065524  0.761772  0.447805  1
  Na  Na1  1  0.139060  0.775037  0.982616  1
  Na  Na2  1  0.428739  0.268693  0.746581  1
  Na  Na3  1  0.571261  0.731307  0.253419  1
  Na  Na4  1  0.860940  0.224963  0.017384  1
  Na  Na5  1  0.934476  0.238228  0.552195  1
  V  V6  1  0.370751  0.191500  0.306001  1
  V  V7  1  0.629249  0.808500  0.693999  1
  O  O8  1  0.236841  0.105493  0.094901  1
  O  O9  1  0.252818  0.473724  0.339636  1
  O  O10  1  0.311363  0.931696  0.627302  1
  O  O11  1  0.688637  0.068304  0.372698  1
  O  O12  1  0.747182  0.526276  0.660364  1
  O  O13  1  0.763159  0.894507  0.905099  1
