# generated using pymatgen
data_LiCrPO4F
_symmetry_space_group_name_H-M   'P 1'
_cell_length_a   6.20612152
_cell_length_b   10.76743508
_cell_length_c   11.01661466
_cell_angle_alpha   90.18747781
_cell_angle_beta   90.23547226
_cell_angle_gamma   90.10313500
_symmetry_Int_Tables_number   1
_chemical_formula_structural   LiCrPO4F
_chemical_formula_sum   'Li8 Cr8 P8 O32 F8'
_cell_volume   736.16300665
_cell_formula_units_Z   8
loop_
 _symmetry_equiv_pos_site_id
 _symmetry_equiv_pos_as_xyz
  1  'x, y, z'
loop_
 _atom_site_type_symbol
 _atom_site_label
 _atom_site_symmetry_multiplicity
 _atom_site_fract_x
 _atom_site_fract_y
 _atom_site_fract_z
 _atom_site_occupancy
  Li  Li0  1  0.246256  0.226266  0.906466  1
  Li  Li1  1  0.516066  0.238463  0.668414  1
  Li  Li2  1  0.249013  0.431884  0.228256  1
  Li  Li3  1  0.254955  0.724405  0.594997  1
  Li  Li4  1  0.990878  0.728013  0.816406  1
  Li  Li5  1  0.505553  0.766609  0.327426  1
  Li  Li6  1  0.754928  0.776987  0.094476  1
  Li  Li7  1  0.241482  0.962681  0.266764  1
  Cr  Cr8  1  0.997762  0.001078  0.997362  1
  Cr  Cr9  1  0.504540  0.999859  0.996745  1
  Cr  Cr10  1  0.993509  0.005082  0.502836  1
  Cr  Cr11  1  0.500904  0.000617  0.502009  1
  Cr  Cr12  1  0.996953  0.495135  0.501722  1
  Cr  Cr13  1  0.503706  0.495861  0.502636  1
  Cr  Cr14  1  0.999698  0.499448  0.999726  1
  Cr  Cr15  1  0.506573  0.501126  0.996658  1
  P  P16  1  0.745469  0.040648  0.259079  1
  P  P17  1  0.747177  0.241601  0.917199  1
  P  P18  1  0.250235  0.262143  0.429481  1
  P  P19  1  0.258933  0.465267  0.762611  1
  P  P20  1  0.744154  0.539460  0.241081  1
  P  P21  1  0.753416  0.741160  0.578465  1
  P  P22  1  0.256234  0.760906  0.076916  1
  P  P23  1  0.240571  0.964918  0.737442  1
  O  O24  1  0.248496  0.015498  0.875839  1
  O  O25  1  0.040250  0.023632  0.678345  1
  O  O26  1  0.447296  0.019809  0.678231  1
  O  O27  1  0.250615  0.117778  0.467475  1
  O  O28  1  0.727950  0.176396  0.251891  1
  O  O29  1  0.543277  0.179741  0.975345  1
  O  O30  1  0.955165  0.179919  0.971247  1
  O  O31  1  0.740411  0.243870  0.782535  1
  O  O32  1  0.263647  0.274709  0.295057  1
  O  O33  1  0.044478  0.317960  0.487165  1
  O  O34  1  0.450739  0.315940  0.501211  1
  O  O35  1  0.266977  0.324922  0.761417  1
  O  O36  1  0.752774  0.379953  0.973073  1
  O  O37  1  0.545387  0.480946  0.176053  1
  O  O38  1  0.955246  0.493781  0.179490  1
  O  O39  1  0.747131  0.489821  0.376384  1
  O  O40  1  0.252999  0.517668  0.625736  1
  O  O41  1  0.054148  0.522717  0.823828  1
  O  O42  1  0.459880  0.524100  0.823140  1
  O  O43  1  0.253594  0.619915  0.035086  1
  O  O44  1  0.726238  0.680483  0.240582  1
  O  O45  1  0.545443  0.683324  0.514896  1
  O  O46  1  0.958824  0.679468  0.523053  1
  O  O47  1  0.748081  0.738491  0.713468  1
  O  O48  1  0.257191  0.778364  0.213093  1
  O  O49  1  0.047511  0.816036  0.015605  1
  O  O50  1  0.460892  0.818016  0.018063  1
  O  O51  1  0.229466  0.823949  0.740541  1
  O  O52  1  0.750310  0.879654  0.526422  1
  O  O53  1  0.547483  0.969381  0.321191  1
  O  O54  1  0.950993  0.985729  0.322442  1
  O  O55  1  0.752110  0.977770  0.122245  1
  F  F56  1  0.251277  0.032630  0.105315  1
  F  F57  1  0.742202  0.114660  0.513616  1
  F  F58  1  0.251568  0.386695  0.014661  1
  F  F59  1  0.750012  0.466458  0.607947  1
  F  F60  1  0.252278  0.529723  0.393562  1
  F  F61  1  0.756949  0.617669  0.987276  1
  F  F62  1  0.247938  0.885545  0.486352  1
  F  F63  1  0.752011  0.962466  0.892946  1
