# generated using pymatgen
data_LiVF6
_symmetry_space_group_name_H-M   'P 1'
_cell_length_a   5.04744678
_cell_length_b   5.37470427
_cell_length_c   15.21819591
_cell_angle_alpha   90.00000000
_cell_angle_beta   90.71516667
_cell_angle_gamma   90.00000000
_symmetry_Int_Tables_number   1
_chemical_formula_structural   LiVF6
_chemical_formula_sum   'Li4 V4 F24'
_cell_volume   412.81518112
_cell_formula_units_Z   4
loop_
 _symmetry_equiv_pos_site_id
 _symmetry_equiv_pos_as_xyz
  1  'x, y, z'
loop_
 _atom_site_type_symbol
 _atom_site_label
 _atom_site_symmetry_multiplicity
 _atom_site_fract_x
 _atom_site_fract_y
 _atom_site_fract_z
 _atom_site_occupancy
  Li  Li0  1  0.775223  0.301651  0.247553  1
  Li  Li1  1  0.775223  0.198349  0.747553  1
  Li  Li2  1  0.224777  0.801651  0.252447  1
  Li  Li3  1  0.224777  0.698349  0.752447  1
  V  V4  1  0.742384  0.721710  0.384855  1
  V  V5  1  0.742384  0.778290  0.884855  1
  V  V6  1  0.257616  0.221710  0.115145  1
  V  V7  1  0.257616  0.278290  0.615145  1
  F  F8  1  0.970630  0.054186  0.164687  1
  F  F9  1  0.970630  0.445814  0.664687  1
  F  F10  1  0.907984  0.998872  0.337942  1
  F  F11  1  0.907984  0.501128  0.837942  1
  F  F12  1  0.890066  0.755865  0.488746  1
  F  F13  1  0.890066  0.744135  0.988746  1
  F  F14  1  0.590298  0.667217  0.269834  1
  F  F15  1  0.590298  0.832783  0.769834  1
  F  F16  1  0.603922  0.428430  0.410993  1
  F  F17  1  0.603922  0.071570  0.910993  1
  F  F18  1  0.544194  0.397858  0.093140  1
  F  F19  1  0.544194  0.102142  0.593140  1
  F  F20  1  0.455806  0.897858  0.406860  1
  F  F21  1  0.455806  0.602142  0.906860  1
  F  F22  1  0.396078  0.928430  0.089007  1
  F  F23  1  0.396078  0.571570  0.589007  1
  F  F24  1  0.409702  0.167217  0.230166  1
  F  F25  1  0.409702  0.332783  0.730166  1
  F  F26  1  0.109934  0.255865  0.011254  1
  F  F27  1  0.109934  0.244135  0.511254  1
  F  F28  1  0.092016  0.498872  0.162058  1
  F  F29  1  0.092016  0.001128  0.662058  1
  F  F30  1  0.029370  0.554186  0.335313  1
  F  F31  1  0.029370  0.945814  0.835313  1
