# generated using pymatgen
data_Li3MnV(PO4)3
_symmetry_space_group_name_H-M   'P 1'
_cell_length_a   8.47626191
_cell_length_b   8.47626191
_cell_length_c   8.67556353
_cell_angle_alpha   61.73388716
_cell_angle_beta   118.26611284
_cell_angle_gamma   116.52477066
_symmetry_Int_Tables_number   1
_chemical_formula_structural   Li3MnV(PO4)3
_chemical_formula_sum   'Li6 Mn2 V2 P6 O24'
_cell_volume   463.24285139
_cell_formula_units_Z   2
loop_
 _symmetry_equiv_pos_site_id
 _symmetry_equiv_pos_as_xyz
  1  'x, y, z'
loop_
 _atom_site_type_symbol
 _atom_site_label
 _atom_site_symmetry_multiplicity
 _atom_site_fract_x
 _atom_site_fract_y
 _atom_site_fract_z
 _atom_site_occupancy
  Li  Li0  1  0.746560  0.127844  0.092859  1
  Li  Li1  1  0.004460  0.501282  0.248995  1
  Li  Li2  1  0.872329  0.255847  0.593214  1
  Li  Li3  1  0.127844  0.746560  0.907141  1
  Li  Li4  1  0.501282  0.004460  0.751005  1
  Li  Li5  1  0.255847  0.872329  0.406786  1
  Mn  Mn6  1  0.143028  0.361963  0.099612  1
  Mn  Mn7  1  0.361963  0.143028  0.900388  1
  V  V8  1  0.637865  0.855545  0.605852  1
  V  V9  1  0.855545  0.637865  0.394148  1
  P  P10  1  0.449980  0.752953  0.215011  1
  P  P11  1  0.048266  0.048266  0.500000  1
  P  P12  1  0.752953  0.449980  0.784989  1
  P  P13  1  0.251665  0.549920  0.713772  1
  P  P14  1  0.943386  0.943386  0.000000  1
  P  P15  1  0.549920  0.251665  0.286228  1
  O  O16  1  0.541712  0.190474  0.140008  1
  O  O17  1  0.967950  0.107157  0.049559  1
  O  O18  1  0.383344  0.321038  0.222205  1
  O  O19  1  0.233693  0.055566  0.668999  1
  O  O20  1  0.253579  0.612848  0.174983  1
  O  O21  1  0.612848  0.253579  0.825017  1
  O  O22  1  0.919131  0.458367  0.975427  1
  O  O23  1  0.882973  0.019885  0.551078  1
  O  O24  1  0.931801  0.757153  0.167786  1
  O  O25  1  0.321038  0.383344  0.777795  1
  O  O26  1  0.546072  0.089031  0.475424  1
  O  O27  1  0.190474  0.541712  0.859992  1
  O  O28  1  0.819359  0.470470  0.637400  1
  O  O29  1  0.458367  0.919131  0.024573  1
  O  O30  1  0.682013  0.612120  0.726101  1
  O  O31  1  0.055566  0.233693  0.331001  1
  O  O32  1  0.107157  0.967950  0.950441  1
  O  O33  1  0.089031  0.546072  0.524576  1
  O  O34  1  0.397503  0.743866  0.671084  1
  O  O35  1  0.743866  0.397503  0.328916  1
  O  O36  1  0.757153  0.931801  0.832214  1
  O  O37  1  0.612119  0.682013  0.273899  1
  O  O38  1  0.019885  0.882973  0.448922  1
  O  O39  1  0.470470  0.819359  0.362600  1
