# generated using pymatgen
data_CaPbI4
_symmetry_space_group_name_H-M   'P 1'
_cell_length_a   9.74522372
_cell_length_b   7.85183923
_cell_length_c   15.52750129
_cell_angle_alpha   90.00000000
_cell_angle_beta   93.02815566
_cell_angle_gamma   90.00000000
_symmetry_Int_Tables_number   1
_chemical_formula_structural   CaPbI4
_chemical_formula_sum   'Ca4 Pb4 I16'
_cell_volume   1186.47326179
_cell_formula_units_Z   4
loop_
 _symmetry_equiv_pos_site_id
 _symmetry_equiv_pos_as_xyz
  1  'x, y, z'
loop_
 _atom_site_type_symbol
 _atom_site_label
 _atom_site_symmetry_multiplicity
 _atom_site_fract_x
 _atom_site_fract_y
 _atom_site_fract_z
 _atom_site_occupancy
  Ca  Ca0  1  0.129172  0.505106  0.869774  1
  Ca  Ca1  1  0.129172  0.994894  0.369774  1
  Ca  Ca2  1  0.870828  0.005106  0.630226  1
  Ca  Ca3  1  0.870828  0.494894  0.130226  1
  Pb  Pb4  1  0.319015  0.820558  0.616756  1
  Pb  Pb5  1  0.319015  0.679442  0.116756  1
  Pb  Pb6  1  0.680985  0.320558  0.883244  1
  Pb  Pb7  1  0.680985  0.179442  0.383244  1
  I  I8  1  0.041679  0.668904  0.687070  1
  I  I9  1  0.041679  0.831096  0.187070  1
  I  I10  1  0.158734  0.152193  0.558504  1
  I  I11  1  0.158734  0.347807  0.058504  1
  I  I12  1  0.308678  0.814176  0.933384  1
  I  I13  1  0.308678  0.685824  0.433384  1
  I  I14  1  0.377277  0.328435  0.794698  1
  I  I15  1  0.377277  0.171565  0.294698  1
  I  I16  1  0.622723  0.828435  0.705302  1
  I  I17  1  0.622723  0.671565  0.205302  1
  I  I18  1  0.691322  0.314176  0.566616  1
  I  I19  1  0.691322  0.185824  0.066616  1
  I  I20  1  0.841266  0.652193  0.941496  1
  I  I21  1  0.841266  0.847807  0.441496  1
  I  I22  1  0.958321  0.168904  0.812930  1
  I  I23  1  0.958321  0.331096  0.312930  1
