# generated using pymatgen
data_Mn3OF5
_symmetry_space_group_name_H-M   'P 1'
_cell_length_a   4.89940248
_cell_length_b   4.89940248
_cell_length_c   9.76558698
_cell_angle_alpha   90.00000000
_cell_angle_beta   90.00000000
_cell_angle_gamma   92.45484137
_symmetry_Int_Tables_number   1
_chemical_formula_structural   Mn3OF5
_chemical_formula_sum   'Mn6 O2 F10'
_cell_volume   234.19943773
_cell_formula_units_Z   2
loop_
 _symmetry_equiv_pos_site_id
 _symmetry_equiv_pos_as_xyz
  1  'x, y, z'
loop_
 _atom_site_type_symbol
 _atom_site_label
 _atom_site_symmetry_multiplicity
 _atom_site_fract_x
 _atom_site_fract_y
 _atom_site_fract_z
 _atom_site_occupancy
  Mn  Mn0  1  0.012329  0.012329  0.822774  1
  Mn  Mn1  1  0.017247  0.017247  0.500000  1
  Mn  Mn2  1  0.012329  0.012329  0.177226  1
  Mn  Mn3  1  0.510288  0.510288  1.000000  1
  Mn  Mn4  1  0.481693  0.481693  0.662909  1
  Mn  Mn5  1  0.481693  0.481693  0.337091  1
  O  O6  1  0.189513  0.189513  0.655789  1
  O  O7  1  0.189513  0.189513  0.344211  1
  F  F8  1  0.199912  0.199912  1.000000  1
  F  F9  1  0.695148  0.305226  0.830645  1
  F  F10  1  0.691156  0.299273  0.500000  1
  F  F11  1  0.695148  0.305226  0.169355  1
  F  F12  1  0.305226  0.695148  0.830645  1
  F  F13  1  0.299273  0.691156  0.500000  1
  F  F14  1  0.305226  0.695148  0.169355  1
  F  F15  1  0.796866  0.796866  0.652932  1
  F  F16  1  0.796866  0.796866  0.347068  1
  F  F17  1  0.820576  0.820576  1.000000  1
