# generated using pymatgen
data_Li4Ti2Mn3O10
_symmetry_space_group_name_H-M   'P 1'
_cell_length_a   5.19924586
_cell_length_b   5.25324281
_cell_length_c   7.95184676
_cell_angle_alpha   72.04600812
_cell_angle_beta   73.82042598
_cell_angle_gamma   77.86709150
_symmetry_Int_Tables_number   1
_chemical_formula_structural   Li4Ti2Mn3O10
_chemical_formula_sum   'Li4 Ti2 Mn3 O10'
_cell_volume   196.58402653
_cell_formula_units_Z   1
loop_
 _symmetry_equiv_pos_site_id
 _symmetry_equiv_pos_as_xyz
  1  'x, y, z'
loop_
 _atom_site_type_symbol
 _atom_site_label
 _atom_site_symmetry_multiplicity
 _atom_site_fract_x
 _atom_site_fract_y
 _atom_site_fract_z
 _atom_site_occupancy
  Li  Li0  1  0.236128  0.511023  0.600718  1
  Li  Li1  1  0.383392  0.430680  0.245739  1
  Li  Li2  1  0.616608  0.569320  0.754261  1
  Li  Li3  1  0.763872  0.488977  0.399282  1
  Ti  Ti4  1  0.090272  0.951172  0.322988  1
  Ti  Ti5  1  0.909728  0.048828  0.677012  1
  Mn  Mn6  1  0.000000  0.500000  0.000000  1
  Mn  Mn7  1  0.323493  0.012449  0.881099  1
  Mn  Mn8  1  0.676507  0.987551  0.118901  1
  O  O9  1  0.003589  0.754331  0.173957  1
  O  O10  1  0.109298  0.219506  0.450101  1
  O  O11  1  0.334818  0.204045  0.072518  1
  O  O12  1  0.224864  0.762862  0.780805  1
  O  O13  1  0.415795  0.733052  0.337696  1
  O  O14  1  0.584205  0.266948  0.662304  1
  O  O15  1  0.775136  0.237138  0.219195  1
  O  O16  1  0.665182  0.795955  0.927482  1
  O  O17  1  0.890702  0.780494  0.549899  1
  O  O18  1  0.996411  0.245669  0.826043  1
