# generated using pymatgen
data_Li4MnFe3(BO3)4
_symmetry_space_group_name_H-M   'P 1'
_cell_length_a   5.24124043
_cell_length_b   6.01034266
_cell_length_c   8.99625307
_cell_angle_alpha   102.49577288
_cell_angle_beta   90.84473010
_cell_angle_gamma   113.84009058
_symmetry_Int_Tables_number   1
_chemical_formula_structural   Li4MnFe3(BO3)4
_chemical_formula_sum   'Li4 Mn1 Fe3 B4 O12'
_cell_volume   251.41360167
_cell_formula_units_Z   1
loop_
 _symmetry_equiv_pos_site_id
 _symmetry_equiv_pos_as_xyz
  1  'x, y, z'
loop_
 _atom_site_type_symbol
 _atom_site_label
 _atom_site_symmetry_multiplicity
 _atom_site_fract_x
 _atom_site_fract_y
 _atom_site_fract_z
 _atom_site_occupancy
  Li  Li0  1  0.592645  0.323807  0.967170  1
  Li  Li1  1  0.092230  0.325614  0.466243  1
  Li  Li2  1  0.906730  0.672654  0.533150  1
  Li  Li3  1  0.412012  0.678770  0.034921  1
  Mn  Mn4  1  0.040400  0.228070  0.792282  1
  Fe  Fe5  1  0.536305  0.229079  0.290201  1
  Fe  Fe6  1  0.950179  0.761426  0.208219  1
  Fe  Fe7  1  0.446995  0.760828  0.705901  1
  B  B8  1  0.553787  0.261300  0.630102  1
  B  B9  1  0.946749  0.739962  0.868388  1
  B  B10  1  0.056397  0.261107  0.134100  1
  B  B11  1  0.448418  0.743886  0.367118  1
  O  O12  1  0.619786  0.174623  0.752210  1
  O  O13  1  0.722054  0.295982  0.512669  1
  O  O14  1  0.821747  0.315058  0.138717  1
  O  O15  1  0.322476  0.320356  0.632797  1
  O  O16  1  0.128961  0.175487  0.254830  1
  O  O17  1  0.783600  0.704097  0.987451  1
  O  O18  1  0.223363  0.299298  0.016373  1
  O  O19  1  0.869063  0.817711  0.745723  1
  O  O20  1  0.684853  0.691430  0.365406  1
  O  O21  1  0.185442  0.690751  0.866202  1
  O  O22  1  0.283316  0.705410  0.485227  1
  O  O23  1  0.372492  0.823295  0.244603  1
