# generated using pymatgen
data_Li2Fe3CuO8
_symmetry_space_group_name_H-M   'P 1'
_cell_length_a   5.86246789
_cell_length_b   5.89414906
_cell_length_c   5.97364799
_cell_angle_alpha   118.64640611
_cell_angle_beta   119.09675687
_cell_angle_gamma   90.51701316
_symmetry_Int_Tables_number   1
_chemical_formula_structural   Li2Fe3CuO8
_chemical_formula_sum   'Li2 Fe3 Cu1 O8'
_cell_volume   150.18875328
_cell_formula_units_Z   1
loop_
 _symmetry_equiv_pos_site_id
 _symmetry_equiv_pos_as_xyz
  1  'x, y, z'
loop_
 _atom_site_type_symbol
 _atom_site_label
 _atom_site_symmetry_multiplicity
 _atom_site_fract_x
 _atom_site_fract_y
 _atom_site_fract_z
 _atom_site_occupancy
  Li  Li0  1  0.000000  0.500000  0.000000  1
  Li  Li1  1  0.500000  0.500000  0.500000  1
  Fe  Fe2  1  0.000000  0.000000  0.500000  1
  Fe  Fe3  1  0.500000  0.000000  0.000000  1
  Fe  Fe4  1  0.500000  0.000000  0.500000  1
  Cu  Cu5  1  0.000000  0.000000  0.000000  1
  O  O6  1  0.222977  0.212115  0.976184  1
  O  O7  1  0.755280  0.210444  0.975705  1
  O  O8  1  0.261159  0.216001  0.486260  1
  O  O9  1  0.726226  0.215838  0.477035  1
  O  O10  1  0.273774  0.784162  0.522965  1
  O  O11  1  0.738841  0.783999  0.513740  1
  O  O12  1  0.244720  0.789556  0.024295  1
  O  O13  1  0.777023  0.787885  0.023816  1
