# generated using pymatgen
data_Li4V3Cr3(TeO8)2
_symmetry_space_group_name_H-M   'P 1'
_cell_length_a   5.98506922
_cell_length_b   5.98429316
_cell_length_c   9.99324040
_cell_angle_alpha   89.95469930
_cell_angle_beta   90.28131679
_cell_angle_gamma   119.06870361
_symmetry_Int_Tables_number   1
_chemical_formula_structural   Li4V3Cr3(TeO8)2
_chemical_formula_sum   'Li4 V3 Cr3 Te2 O16'
_cell_volume   312.83303043
_cell_formula_units_Z   1
loop_
 _symmetry_equiv_pos_site_id
 _symmetry_equiv_pos_as_xyz
  1  'x, y, z'
loop_
 _atom_site_type_symbol
 _atom_site_label
 _atom_site_symmetry_multiplicity
 _atom_site_fract_x
 _atom_site_fract_y
 _atom_site_fract_z
 _atom_site_occupancy
  Li  Li0  1  0.335761  0.671143  0.902093  1
  Li  Li1  1  0.995645  0.995437  0.992121  1
  Li  Li2  1  0.996648  0.992153  0.492113  1
  Li  Li3  1  0.672945  0.338426  0.399568  1
  V  V4  1  0.656750  0.830068  0.219013  1
  V  V5  1  0.828439  0.656057  0.718849  1
  V  V6  1  0.829920  0.168856  0.715496  1
  Cr  Cr7  1  0.169130  0.831902  0.215269  1
  Cr  Cr8  1  0.170003  0.338288  0.215028  1
  Cr  Cr9  1  0.337021  0.168441  0.714681  1
  Te  Te10  1  0.323302  0.654767  0.494572  1
  Te  Te11  1  0.654140  0.323616  0.995714  1
  O  O12  1  0.155145  0.832008  0.601174  1
  O  O13  1  0.038433  0.520576  0.339365  1
  O  O14  1  0.336960  0.664199  0.110494  1
  O  O15  1  0.999457  0.003032  0.309732  1
  O  O16  1  0.002269  0.999339  0.809005  1
  O  O17  1  0.152198  0.315004  0.595090  1
  O  O18  1  0.502780  0.977397  0.324571  1
  O  O19  1  0.490704  0.515973  0.327897  1
  O  O20  1  0.313580  0.151889  0.097353  1
  O  O21  1  0.696157  0.833079  0.605941  1
  O  O22  1  0.512671  0.489783  0.825595  1
  O  O23  1  0.520024  0.036562  0.840070  1
  O  O24  1  0.663182  0.335041  0.609453  1
  O  O25  1  0.838446  0.696068  0.108495  1
  O  O26  1  0.973282  0.504419  0.830094  1
  O  O27  1  0.835008  0.156778  0.098992  1
