# generated using pymatgen
data_Li3Mn2P2(CO7)2
_symmetry_space_group_name_H-M   'P 1'
_cell_length_a   6.47932013
_cell_length_b   8.29658805
_cell_length_c   10.10134866
_cell_angle_alpha   85.69765844
_cell_angle_beta   89.81364838
_cell_angle_gamma   89.52452248
_symmetry_Int_Tables_number   1
_chemical_formula_structural   Li3Mn2P2(CO7)2
_chemical_formula_sum   'Li6 Mn4 P4 C4 O28'
_cell_volume   541.45992849
_cell_formula_units_Z   2
loop_
 _symmetry_equiv_pos_site_id
 _symmetry_equiv_pos_as_xyz
  1  'x, y, z'
loop_
 _atom_site_type_symbol
 _atom_site_label
 _atom_site_symmetry_multiplicity
 _atom_site_fract_x
 _atom_site_fract_y
 _atom_site_fract_z
 _atom_site_occupancy
  Li  Li0  1  0.021843  0.738882  0.874498  1
  Li  Li1  1  0.478740  0.743921  0.874422  1
  Li  Li2  1  0.053149  0.725468  0.380639  1
  Li  Li3  1  0.970080  0.269798  0.633415  1
  Li  Li4  1  0.534314  0.263266  0.115233  1
  Li  Li5  1  0.741147  0.097597  0.383634  1
  Mn  Mn6  1  0.743943  0.670543  0.597579  1
  Mn  Mn7  1  0.750382  0.668408  0.104252  1
  Mn  Mn8  1  0.246423  0.329939  0.898632  1
  Mn  Mn9  1  0.252051  0.328529  0.397065  1
  P  P10  1  0.243123  0.579954  0.637256  1
  P  P11  1  0.251879  0.578203  0.134201  1
  P  P12  1  0.752067  0.420422  0.861530  1
  P  P13  1  0.751619  0.420454  0.360360  1
  C  C14  1  0.758187  0.957398  0.645409  1
  C  C15  1  0.748704  0.948912  0.149276  1
  C  C16  1  0.246826  0.046431  0.857440  1
  C  C17  1  0.246499  0.045503  0.353467  1
  O  O18  1  0.751333  0.914285  0.523420  1
  O  O19  1  0.246778  0.899130  0.835474  1
  O  O20  1  0.743771  0.900690  0.028795  1
  O  O21  1  0.744495  0.829507  0.734305  1
  O  O22  1  0.227107  0.903032  0.327856  1
  O  O23  1  0.773381  0.826740  0.239787  1
  O  O24  1  0.060208  0.691624  0.591142  1
  O  O25  1  0.437737  0.674419  0.598136  1
  O  O26  1  0.062393  0.674913  0.078059  1
  O  O27  1  0.437441  0.685671  0.089953  1
  O  O28  1  0.745209  0.590071  0.921543  1
  O  O29  1  0.236355  0.546490  0.793621  1
  O  O30  1  0.770918  0.580857  0.426152  1
  O  O31  1  0.232375  0.543259  0.287610  1
  O  O32  1  0.763576  0.457771  0.708295  1
  O  O33  1  0.224087  0.415763  0.575106  1
  O  O34  1  0.742771  0.460403  0.207335  1
  O  O35  1  0.273228  0.411931  0.074856  1
  O  O36  1  0.940065  0.319068  0.909149  1
  O  O37  1  0.562236  0.320501  0.908410  1
  O  O38  1  0.564477  0.314834  0.402626  1
  O  O39  1  0.932417  0.302853  0.401835  1
  O  O40  1  0.231403  0.165244  0.764046  1
  O  O41  1  0.776945  0.097354  0.677195  1
  O  O42  1  0.272339  0.167006  0.262059  1
  O  O43  1  0.262887  0.099813  0.975151  1
  O  O44  1  0.727850  0.090953  0.181376  1
  O  O45  1  0.241432  0.098417  0.473232  1
