# generated using pymatgen
data_CsLa3O5
_symmetry_space_group_name_H-M   'P 1'
_cell_length_a   3.80008044
_cell_length_b   10.95194620
_cell_length_c   18.68272906
_cell_angle_alpha   90.00000000
_cell_angle_beta   90.00000000
_cell_angle_gamma   90.00000000
_symmetry_Int_Tables_number   1
_chemical_formula_structural   CsLa3O5
_chemical_formula_sum   'Cs4 La12 O20'
_cell_volume   777.54298444
_cell_formula_units_Z   4
loop_
 _symmetry_equiv_pos_site_id
 _symmetry_equiv_pos_as_xyz
  1  'x, y, z'
loop_
 _atom_site_type_symbol
 _atom_site_label
 _atom_site_symmetry_multiplicity
 _atom_site_fract_x
 _atom_site_fract_y
 _atom_site_fract_z
 _atom_site_occupancy
  Cs  Cs0  1  0.250000  0.968840  0.625835  1
  Cs  Cs1  1  0.750000  0.531160  0.125835  1
  Cs  Cs2  1  0.250000  0.468840  0.874165  1
  Cs  Cs3  1  0.750000  0.031160  0.374165  1
  La  La4  1  0.250000  0.888591  0.164128  1
  La  La5  1  0.750000  0.845850  0.989141  1
  La  La6  1  0.250000  0.815349  0.816790  1
  La  La7  1  0.750000  0.684651  0.316790  1
  La  La8  1  0.250000  0.654150  0.489141  1
  La  La9  1  0.750000  0.611409  0.664128  1
  La  La10  1  0.250000  0.388591  0.335872  1
  La  La11  1  0.750000  0.345850  0.510859  1
  La  La12  1  0.250000  0.315349  0.683210  1
  La  La13  1  0.750000  0.184651  0.183210  1
  La  La14  1  0.250000  0.154150  0.010859  1
  La  La15  1  0.750000  0.111409  0.835872  1
  O  O16  1  0.250000  0.976752  0.920439  1
  O  O17  1  0.750000  0.930183  0.771282  1
  O  O18  1  0.750000  0.807213  0.214263  1
  O  O19  1  0.250000  0.774811  0.052233  1
  O  O20  1  0.250000  0.770198  0.384767  1
  O  O21  1  0.750000  0.729802  0.884767  1
  O  O22  1  0.750000  0.725189  0.552233  1
  O  O23  1  0.250000  0.692787  0.714263  1
  O  O24  1  0.250000  0.569817  0.271282  1
  O  O25  1  0.750000  0.523248  0.420439  1
  O  O26  1  0.250000  0.476752  0.579561  1
  O  O27  1  0.750000  0.430183  0.728718  1
  O  O28  1  0.750000  0.307213  0.285737  1
  O  O29  1  0.250000  0.274811  0.447767  1
  O  O30  1  0.250000  0.270198  0.115233  1
  O  O31  1  0.750000  0.229802  0.615233  1
  O  O32  1  0.750000  0.225189  0.947767  1
  O  O33  1  0.250000  0.192787  0.785737  1
  O  O34  1  0.250000  0.069817  0.228718  1
  O  O35  1  0.750000  0.023248  0.079561  1
