# generated using pymatgen
data_Li3Nb4FeO12
_symmetry_space_group_name_H-M   'P 1'
_cell_length_a   5.25072053
_cell_length_b   5.64047125
_cell_length_c   7.68399683
_cell_angle_alpha   84.76663675
_cell_angle_beta   89.97470303
_cell_angle_gamma   89.99427458
_symmetry_Int_Tables_number   1
_chemical_formula_structural   Li3Nb4FeO12
_chemical_formula_sum   'Li3 Nb4 Fe1 O12'
_cell_volume   226.62471292
_cell_formula_units_Z   1
loop_
 _symmetry_equiv_pos_site_id
 _symmetry_equiv_pos_as_xyz
  1  'x, y, z'
loop_
 _atom_site_type_symbol
 _atom_site_label
 _atom_site_symmetry_multiplicity
 _atom_site_fract_x
 _atom_site_fract_y
 _atom_site_fract_z
 _atom_site_occupancy
  Li  Li0  1  0.500565  0.933838  0.214773  1
  Li  Li1  1  0.999934  0.430331  0.213383  1
  Li  Li2  1  0.500782  0.932260  0.717445  1
  Nb  Nb3  1  0.996212  0.992586  0.007429  1
  Nb  Nb4  1  0.502460  0.512414  0.496467  1
  Nb  Nb5  1  0.002601  0.005982  0.500100  1
  Nb  Nb6  1  0.496813  0.498998  0.005546  1
  Fe  Fe7  1  0.999366  0.416054  0.712806  1
  O  O8  1  0.693163  0.223264  0.581920  1
  O  O9  1  0.876049  0.037057  0.261333  1
  O  O10  1  0.680791  0.845690  0.956408  1
  O  O11  1  0.806587  0.718829  0.584004  1
  O  O12  1  0.197366  0.718384  0.082131  1
  O  O13  1  0.627461  0.537443  0.259884  1
  O  O14  1  0.370009  0.537327  0.762928  1
  O  O15  1  0.822145  0.348794  0.952181  1
  O  O16  1  0.177314  0.347379  0.458782  1
  O  O17  1  0.307403  0.221864  0.082410  1
  O  O18  1  0.124345  0.040097  0.765295  1
  O  O19  1  0.318633  0.842206  0.455173  1
