# generated using pymatgen
data_Na3AsO4
_symmetry_space_group_name_H-M   'P 1'
_cell_length_a   5.66792889
_cell_length_b   6.07130644
_cell_length_c   7.12790930
_cell_angle_alpha   90.00000000
_cell_angle_beta   90.00000000
_cell_angle_gamma   90.00000000
_symmetry_Int_Tables_number   1
_chemical_formula_structural   Na3AsO4
_chemical_formula_sum   'Na6 As2 O8'
_cell_volume   245.28371290
_cell_formula_units_Z   2
loop_
 _symmetry_equiv_pos_site_id
 _symmetry_equiv_pos_as_xyz
  1  'x, y, z'
loop_
 _atom_site_type_symbol
 _atom_site_label
 _atom_site_symmetry_multiplicity
 _atom_site_fract_x
 _atom_site_fract_y
 _atom_site_fract_z
 _atom_site_occupancy
  Na  Na0  1  0.504962  0.842026  0.000000  1
  Na  Na1  1  0.004396  0.674052  0.248421  1
  Na  Na2  1  0.504396  0.325948  0.251579  1
  Na  Na3  1  0.004962  0.157974  0.500000  1
  Na  Na4  1  0.504396  0.325948  0.748421  1
  Na  Na5  1  0.004396  0.674052  0.751579  1
  As  As6  1  0.998431  0.171459  0.000000  1
  As  As7  1  0.498431  0.828541  0.500000  1
  O  O8  1  0.095727  0.901073  0.000000  1
  O  O9  1  0.694029  0.176940  0.000000  1
  O  O10  1  0.598885  0.694068  0.301118  1
  O  O11  1  0.098885  0.305932  0.198882  1
  O  O12  1  0.194029  0.823060  0.500000  1
  O  O13  1  0.595727  0.098927  0.500000  1
  O  O14  1  0.098885  0.305932  0.801118  1
  O  O15  1  0.598885  0.694068  0.698882  1
