# generated using pymatgen
data_Li3V3P8O29
_symmetry_space_group_name_H-M   'P 1'
_cell_length_a   9.72882085
_cell_length_b   9.72882085
_cell_length_c   14.24013099
_cell_angle_alpha   89.40431440
_cell_angle_beta   90.59568560
_cell_angle_gamma   119.53185836
_symmetry_Int_Tables_number   1
_chemical_formula_structural   Li3V3P8O29
_chemical_formula_sum   'Li6 V6 P16 O58'
_cell_volume   1172.63543602
_cell_formula_units_Z   2
loop_
 _symmetry_equiv_pos_site_id
 _symmetry_equiv_pos_as_xyz
  1  'x, y, z'
loop_
 _atom_site_type_symbol
 _atom_site_label
 _atom_site_symmetry_multiplicity
 _atom_site_fract_x
 _atom_site_fract_y
 _atom_site_fract_z
 _atom_site_occupancy
  Li  Li0  1  0.094514  0.331606  0.942130  1
  Li  Li1  1  0.331606  0.094514  0.557870  1
  Li  Li2  1  0.668394  0.905486  0.442130  1
  Li  Li3  1  0.905486  0.668394  0.057870  1
  Li  Li4  1  0.000000  0.000000  0.000000  1
  Li  Li5  1  0.000000  0.000000  0.500000  1
  V  V6  1  0.436553  0.997526  0.760041  1
  V  V7  1  0.563447  0.002474  0.239959  1
  V  V8  1  0.436960  0.436960  0.250000  1
  V  V9  1  0.563040  0.563040  0.750000  1
  V  V10  1  0.997526  0.436553  0.739959  1
  V  V11  1  0.002474  0.563447  0.260041  1
  P  P12  1  0.086995  0.314282  0.158985  1
  P  P13  1  0.223621  0.306071  0.657143  1
  P  P14  1  0.088099  0.787562  0.660012  1
  P  P15  1  0.328102  0.657648  0.867058  1
  P  P16  1  0.342352  0.671898  0.367058  1
  P  P17  1  0.212438  0.911901  0.160012  1
  P  P18  1  0.314282  0.086995  0.341015  1
  P  P19  1  0.693929  0.776379  0.157143  1
  P  P20  1  0.306071  0.223621  0.842857  1
  P  P21  1  0.685718  0.913005  0.658985  1
  P  P22  1  0.787562  0.088099  0.839988  1
  P  P23  1  0.657648  0.328102  0.632942  1
  P  P24  1  0.671898  0.342352  0.132942  1
  P  P25  1  0.911901  0.212438  0.339988  1
  P  P26  1  0.776379  0.693929  0.342857  1
  P  P27  1  0.913005  0.685718  0.841015  1
  O  O28  1  0.991595  0.192744  0.423840  1
  O  O29  1  0.089319  0.349248  0.664365  1
  O  O30  1  0.204973  0.207836  0.925008  1
  O  O31  1  0.260077  0.349653  0.171553  1
  O  O32  1  0.082743  0.468683  0.177466  1
  O  O33  1  0.179899  0.511701  0.824039  1
  O  O34  1  0.080061  0.622185  0.670036  1
  O  O35  1  0.979388  0.761402  0.933363  1
  O  O36  1  0.081292  0.736165  0.166665  1
  O  O37  1  0.340357  0.526598  0.319800  1
  O  O38  1  0.383107  0.459756  0.668494  1
  O  O39  1  0.189058  0.669047  0.324267  1
  O  O40  1  0.327569  0.654773  0.971077  1
  O  O41  1  0.345227  0.672431  0.471077  1
  O  O42  1  0.330953  0.810942  0.824267  1
  O  O43  1  0.540244  0.616893  0.168494  1
  O  O44  1  0.473402  0.659643  0.819800  1
  O  O45  1  0.263835  0.918708  0.666665  1
  O  O46  1  0.195637  0.989462  0.256746  1
  O  O47  1  0.238598  0.020612  0.433363  1
  O  O48  1  0.192744  0.991595  0.076160  1
  O  O49  1  0.377815  0.919939  0.170036  1
  O  O50  1  0.488299  0.820101  0.324039  1
  O  O51  1  0.349248  0.089319  0.835635  1
  O  O52  1  0.531317  0.917257  0.677466  1
  O  O53  1  0.650347  0.739923  0.671553  1
  O  O54  1  0.200931  0.200931  0.750000  1
  O  O55  1  0.207836  0.204973  0.574992  1
  O  O56  1  0.792164  0.795027  0.425008  1
  O  O57  1  0.349653  0.260077  0.328447  1
  O  O58  1  0.468683  0.082743  0.322534  1
  O  O59  1  0.650752  0.910681  0.164365  1
  O  O60  1  0.511701  0.179899  0.675961  1
  O  O61  1  0.622185  0.080061  0.829964  1
  O  O62  1  0.807256  0.008405  0.923840  1
  O  O63  1  0.761402  0.979388  0.566637  1
  O  O64  1  0.804363  0.010538  0.743254  1
  O  O65  1  0.736165  0.081292  0.333335  1
  O  O66  1  0.526598  0.340357  0.180200  1
  O  O67  1  0.459756  0.383107  0.831506  1
  O  O68  1  0.669047  0.189058  0.175733  1
  O  O69  1  0.672431  0.345227  0.028923  1
  O  O70  1  0.654773  0.327569  0.528923  1
  O  O71  1  0.810942  0.330953  0.675733  1
  O  O72  1  0.616893  0.540244  0.331506  1
  O  O73  1  0.659643  0.473402  0.680200  1
  O  O74  1  0.918708  0.263835  0.833335  1
  O  O75  1  0.989462  0.195637  0.243254  1
  O  O76  1  0.020612  0.238598  0.066637  1
  O  O77  1  0.919939  0.377815  0.329964  1
  O  O78  1  0.820101  0.488299  0.175961  1
  O  O79  1  0.917257  0.531317  0.822534  1
  O  O80  1  0.739923  0.650347  0.828447  1
  O  O81  1  0.795027  0.792164  0.074992  1
  O  O82  1  0.799069  0.799069  0.250000  1
  O  O83  1  0.910681  0.650752  0.335635  1
  O  O84  1  0.008405  0.807256  0.576160  1
  O  O85  1  0.010538  0.804363  0.756746  1
