# generated using pymatgen
data_Li4Mn3OF8
_symmetry_space_group_name_H-M   'P 1'
_cell_length_a   5.24942912
_cell_length_b   5.71474564
_cell_length_c   24.52011618
_cell_angle_alpha   90.00000000
_cell_angle_beta   90.00000000
_cell_angle_gamma   90.00000000
_symmetry_Int_Tables_number   1
_chemical_formula_structural   Li4Mn3OF8
_chemical_formula_sum   'Li16 Mn12 O4 F32'
_cell_volume   735.58269666
_cell_formula_units_Z   4
loop_
 _symmetry_equiv_pos_site_id
 _symmetry_equiv_pos_as_xyz
  1  'x, y, z'
loop_
 _atom_site_type_symbol
 _atom_site_label
 _atom_site_symmetry_multiplicity
 _atom_site_fract_x
 _atom_site_fract_y
 _atom_site_fract_z
 _atom_site_occupancy
  Li  Li0  1  0.984228  0.940185  0.569426  1
  Li  Li1  1  0.984228  0.940185  0.430574  1
  Li  Li2  1  0.555140  0.992350  0.779780  1
  Li  Li3  1  0.555140  0.992350  0.220220  1
  Li  Li4  1  0.055140  0.007650  0.720220  1
  Li  Li5  1  0.055140  0.007650  0.279780  1
  Li  Li6  1  0.484228  0.059815  0.069426  1
  Li  Li7  1  0.484228  0.059815  0.930574  1
  Li  Li8  1  0.523651  0.401669  0.563101  1
  Li  Li9  1  0.523651  0.401669  0.436899  1
  Li  Li10  1  0.929344  0.485972  0.218589  1
  Li  Li11  1  0.929344  0.485972  0.781411  1
  Li  Li12  1  0.429344  0.514028  0.718589  1
  Li  Li13  1  0.429344  0.514028  0.281411  1
  Li  Li14  1  0.023651  0.598331  0.063101  1
  Li  Li15  1  0.023651  0.598331  0.936899  1
  Mn  Mn16  1  0.453673  0.879856  0.500000  1
  Mn  Mn17  1  0.985934  0.982646  0.135218  1
  Mn  Mn18  1  0.985934  0.982646  0.864782  1
  Mn  Mn19  1  0.485934  0.017354  0.635218  1
  Mn  Mn20  1  0.485934  0.017354  0.364782  1
  Mn  Mn21  1  0.953673  0.120144  0.000000  1
  Mn  Mn22  1  0.091084  0.314987  0.500000  1
  Mn  Mn23  1  0.491440  0.490156  0.141231  1
  Mn  Mn24  1  0.491440  0.490156  0.858769  1
  Mn  Mn25  1  0.991440  0.509844  0.641231  1
  Mn  Mn26  1  0.991440  0.509844  0.358769  1
  Mn  Mn27  1  0.591084  0.685013  0.000000  1
  O  O28  1  0.309189  0.103688  0.440034  1
  O  O29  1  0.309189  0.103688  0.559966  1
  O  O30  1  0.809189  0.896312  0.940034  1
  O  O31  1  0.809189  0.896312  0.059966  1
  F  F32  1  0.291886  0.757336  0.102154  1
  F  F33  1  0.291886  0.757336  0.897846  1
  F  F34  1  0.745313  0.732720  0.179833  1
  F  F35  1  0.745313  0.732720  0.820167  1
  F  F36  1  0.339001  0.991596  0.000000  1
  F  F37  1  0.199134  0.987028  0.209543  1
  F  F38  1  0.199134  0.987028  0.790457  1
  F  F39  1  0.699134  0.012972  0.709543  1
  F  F40  1  0.699134  0.012972  0.290457  1
  F  F41  1  0.839001  0.008404  0.500000  1
  F  F42  1  0.245313  0.267280  0.679833  1
  F  F43  1  0.245313  0.267280  0.320167  1
  F  F44  1  0.791886  0.242664  0.602154  1
  F  F45  1  0.791886  0.242664  0.397846  1
  F  F46  1  0.231063  0.253283  0.895964  1
  F  F47  1  0.231063  0.253283  0.104036  1
  F  F48  1  0.739532  0.234847  0.177120  1
  F  F49  1  0.739532  0.234847  0.822880  1
  F  F50  1  0.178701  0.483575  0.000000  1
  F  F51  1  0.280560  0.489008  0.213007  1
  F  F52  1  0.280560  0.489008  0.786993  1
  F  F53  1  0.202357  0.592509  0.559835  1
  F  F54  1  0.202357  0.592509  0.440165  1
  F  F55  1  0.702357  0.407491  0.059835  1
  F  F56  1  0.702357  0.407491  0.940165  1
  F  F57  1  0.780560  0.510992  0.713007  1
  F  F58  1  0.780560  0.510992  0.286993  1
  F  F59  1  0.678701  0.516425  0.500000  1
  F  F60  1  0.239532  0.765153  0.677120  1
  F  F61  1  0.239532  0.765153  0.322880  1
  F  F62  1  0.731063  0.746717  0.604036  1
  F  F63  1  0.731063  0.746717  0.395964  1
