# generated using pymatgen
data_Li5Cr2O8
_symmetry_space_group_name_H-M   'P 1'
_cell_length_a   5.15379935
_cell_length_b   5.36064323
_cell_length_c   7.77541039
_cell_angle_alpha   82.87943172
_cell_angle_beta   108.25386875
_cell_angle_gamma   114.45204614
_symmetry_Int_Tables_number   1
_chemical_formula_structural   Li5Cr2O8
_chemical_formula_sum   'Li5 Cr2 O8'
_cell_volume   185.70476294
_cell_formula_units_Z   1
loop_
 _symmetry_equiv_pos_site_id
 _symmetry_equiv_pos_as_xyz
  1  'x, y, z'
loop_
 _atom_site_type_symbol
 _atom_site_label
 _atom_site_symmetry_multiplicity
 _atom_site_fract_x
 _atom_site_fract_y
 _atom_site_fract_z
 _atom_site_occupancy
  Li  Li0  1  0.770687  0.291750  0.180641  1
  Li  Li1  1  0.986419  0.756204  0.465543  1
  Li  Li2  1  0.047017  0.268531  0.561168  1
  Li  Li3  1  0.252396  0.721124  0.807556  1
  Li  Li4  1  0.186870  0.202901  0.987473  1
  Cr  Cr5  1  0.405842  0.710959  0.239981  1
  Cr  Cr6  1  0.601014  0.295050  0.758231  1
  O  O7  1  0.258105  0.849501  0.051705  1
  O  O8  1  0.498459  0.472808  0.191119  1
  O  O9  1  0.714371  0.961217  0.360737  1
  O  O10  1  0.148386  0.560107  0.352550  1
  O  O11  1  0.847256  0.475030  0.635204  1
  O  O12  1  0.306446  0.022588  0.631849  1
  O  O13  1  0.405703  0.451210  0.812281  1
  O  O14  1  0.806222  0.202361  0.957739  1
