# generated using pymatgen
data_Ni(SO4)2
_symmetry_space_group_name_H-M   'P 1'
_cell_length_a   8.93065310
_cell_length_b   8.93065310
_cell_length_c   8.93065310
_cell_angle_alpha   55.42524252
_cell_angle_beta   55.42524252
_cell_angle_gamma   55.42524252
_symmetry_Int_Tables_number   1
_chemical_formula_structural   Ni(SO4)2
_chemical_formula_sum   'Ni3 S6 O24'
_cell_volume   450.14236624
_cell_formula_units_Z   3
loop_
 _symmetry_equiv_pos_site_id
 _symmetry_equiv_pos_as_xyz
  1  'x, y, z'
loop_
 _atom_site_type_symbol
 _atom_site_label
 _atom_site_symmetry_multiplicity
 _atom_site_fract_x
 _atom_site_fract_y
 _atom_site_fract_z
 _atom_site_occupancy
  Ni  Ni0  1  0.848900  0.848900  0.848900  1
  Ni  Ni1  1  0.355968  0.355968  0.355968  1
  Ni  Ni2  1  0.151256  0.151256  0.151256  1
  S  S3  1  0.243185  0.543815  0.958566  1
  S  S4  1  0.958566  0.243185  0.543815  1
  S  S5  1  0.543815  0.958566  0.243185  1
  S  S6  1  0.458489  0.044117  0.751896  1
  S  S7  1  0.044117  0.751896  0.458489  1
  S  S8  1  0.751896  0.458489  0.044117  1
  O  O9  1  0.703613  0.492690  0.890958  1
  O  O10  1  0.492690  0.890958  0.703613  1
  O  O11  1  0.033136  0.667823  0.002010  1
  O  O12  1  0.890958  0.703613  0.492690  1
  O  O13  1  0.282387  0.349615  0.974381  1
  O  O14  1  0.360574  0.633860  0.756988  1
  O  O15  1  0.756988  0.360574  0.633860  1
  O  O16  1  0.002010  0.033136  0.667823  1
  O  O17  1  0.633860  0.756988  0.360574  1
  O  O18  1  0.329074  0.007562  0.959935  1
  O  O19  1  0.649843  0.030146  0.716825  1
  O  O20  1  0.030146  0.716825  0.649843  1
  O  O21  1  0.974381  0.282387  0.349615  1
  O  O22  1  0.349615  0.974381  0.282387  1
  O  O23  1  0.667823  0.002010  0.033136  1
  O  O24  1  0.369524  0.241071  0.626096  1
  O  O25  1  0.007562  0.959935  0.329074  1
  O  O26  1  0.241071  0.626096  0.369524  1
  O  O27  1  0.626096  0.369524  0.241071  1
  O  O28  1  0.716825  0.649843  0.030146  1
  O  O29  1  0.098058  0.302218  0.520459  1
  O  O30  1  0.959935  0.329074  0.007562  1
  O  O31  1  0.520459  0.098058  0.302218  1
  O  O32  1  0.302218  0.520459  0.098058  1
