# generated using pymatgen
data_Na2B3HO6
_symmetry_space_group_name_H-M   'P 1'
_cell_length_a   8.77616262
_cell_length_b   12.01714904
_cell_length_c   9.53377077
_cell_angle_alpha   90.00000000
_cell_angle_beta   95.96429410
_cell_angle_gamma   90.00000000
_symmetry_Int_Tables_number   1
_chemical_formula_structural   Na2B3HO6
_chemical_formula_sum   'Na16 B24 H8 O48'
_cell_volume   1000.03114243
_cell_formula_units_Z   8
loop_
 _symmetry_equiv_pos_site_id
 _symmetry_equiv_pos_as_xyz
  1  'x, y, z'
loop_
 _atom_site_type_symbol
 _atom_site_label
 _atom_site_symmetry_multiplicity
 _atom_site_fract_x
 _atom_site_fract_y
 _atom_site_fract_z
 _atom_site_occupancy
  Na  Na0  1  0.589551  0.656575  0.930509  1
  Na  Na1  1  0.410449  0.156575  0.569491  1
  Na  Na2  1  0.410449  0.343425  0.069491  1
  Na  Na3  1  0.589551  0.843425  0.430509  1
  Na  Na4  1  0.088064  0.882278  0.942121  1
  Na  Na5  1  0.911936  0.382278  0.557879  1
  Na  Na6  1  0.911936  0.117722  0.057879  1
  Na  Na7  1  0.088064  0.617722  0.442121  1
  Na  Na8  1  0.432940  0.865094  0.067039  1
  Na  Na9  1  0.567060  0.365094  0.432961  1
  Na  Na10  1  0.567060  0.134906  0.932961  1
  Na  Na11  1  0.432940  0.634906  0.567039  1
  Na  Na12  1  0.975234  0.648384  0.963599  1
  Na  Na13  1  0.024766  0.148384  0.536401  1
  Na  Na14  1  0.024766  0.351616  0.036401  1
  Na  Na15  1  0.975234  0.851616  0.463599  1
  B  B16  1  0.687005  0.986319  0.206663  1
  B  B17  1  0.312995  0.486319  0.293337  1
  B  B18  1  0.312995  0.013681  0.793337  1
  B  B19  1  0.687005  0.513681  0.706663  1
  B  B20  1  0.854838  0.819853  0.181659  1
  B  B21  1  0.145162  0.319853  0.318341  1
  B  B22  1  0.145162  0.180147  0.818341  1
  B  B23  1  0.854838  0.680147  0.681659  1
  B  B24  1  0.735847  0.906495  0.956696  1
  B  B25  1  0.264153  0.406495  0.543304  1
  B  B26  1  0.264153  0.093505  0.043304  1
  B  B27  1  0.735847  0.593505  0.456696  1
  B  B28  1  0.816620  0.956907  0.719488  1
  B  B29  1  0.183380  0.456907  0.780512  1
  B  B30  1  0.183380  0.043093  0.280512  1
  B  B31  1  0.816620  0.543093  0.219488  1
  B  B32  1  0.547218  0.907408  0.736241  1
  B  B33  1  0.452782  0.407408  0.763759  1
  B  B34  1  0.452782  0.092592  0.263759  1
  B  B35  1  0.547218  0.592592  0.236241  1
  B  B36  1  0.285840  0.832287  0.651217  1
  B  B37  1  0.714160  0.332287  0.848783  1
  B  B38  1  0.714160  0.167713  0.348783  1
  B  B39  1  0.285840  0.667713  0.151217  1
  H  H40  1  0.064889  0.753235  0.184705  1
  H  H41  1  0.935111  0.253235  0.315295  1
  H  H42  1  0.935111  0.246765  0.815295  1
  H  H43  1  0.064889  0.746765  0.684705  1
  H  H44  1  0.039011  0.971539  0.682791  1
  H  H45  1  0.960989  0.471539  0.817209  1
  H  H46  1  0.960989  0.028461  0.317209  1
  H  H47  1  0.039011  0.528461  0.182791  1
  O  O48  1  0.777241  0.082761  0.271567  1
  O  O49  1  0.222759  0.582761  0.228433  1
  O  O50  1  0.222759  0.917239  0.728433  1
  O  O51  1  0.777241  0.417239  0.771567  1
  O  O52  1  0.532953  0.985424  0.250199  1
  O  O53  1  0.467047  0.485424  0.249801  1
  O  O54  1  0.467047  0.014576  0.749801  1
  O  O55  1  0.532953  0.514576  0.750199  1
  O  O56  1  0.768950  0.882518  0.264994  1
  O  O57  1  0.231050  0.382518  0.235006  1
  O  O58  1  0.231050  0.117482  0.735006  1
  O  O59  1  0.768950  0.617482  0.764994  1
  O  O60  1  0.694494  0.992379  0.054441  1
  O  O61  1  0.305506  0.492379  0.445559  1
  O  O62  1  0.305506  0.007621  0.945559  1
  O  O63  1  0.694494  0.507621  0.554441  1
  O  O64  1  0.977844  0.761073  0.249130  1
  O  O65  1  0.022156  0.261073  0.250870  1
  O  O66  1  0.022156  0.238927  0.750870  1
  O  O67  1  0.977844  0.738927  0.749130  1
  O  O68  1  0.830340  0.817028  0.036837  1
  O  O69  1  0.169660  0.317028  0.463163  1
  O  O70  1  0.169660  0.182972  0.963163  1
  O  O71  1  0.830340  0.682972  0.536837  1
  O  O72  1  0.604433  0.856010  0.873373  1
  O  O73  1  0.395567  0.356010  0.626627  1
  O  O74  1  0.395567  0.143990  0.126627  1
  O  O75  1  0.604433  0.643990  0.373373  1
  O  O76  1  0.844672  0.961324  0.863756  1
  O  O77  1  0.155328  0.461324  0.636244  1
  O  O78  1  0.155328  0.038676  0.136244  1
  O  O79  1  0.844672  0.538676  0.363756  1
  O  O80  1  0.933555  0.982936  0.635647  1
  O  O81  1  0.066445  0.482936  0.864353  1
  O  O82  1  0.066445  0.017064  0.364353  1
  O  O83  1  0.933555  0.517064  0.135647  1
  O  O84  1  0.678249  0.928551  0.650696  1
  O  O85  1  0.321751  0.428551  0.849304  1
  O  O86  1  0.321751  0.071449  0.349304  1
  O  O87  1  0.678249  0.571449  0.150696  1
  O  O88  1  0.445000  0.826428  0.651593  1
  O  O89  1  0.555000  0.326428  0.848407  1
  O  O90  1  0.555000  0.173572  0.348407  1
  O  O91  1  0.445000  0.673572  0.151593  1
  O  O92  1  0.193667  0.755329  0.583198  1
  O  O93  1  0.806333  0.255329  0.916802  1
  O  O94  1  0.806333  0.244671  0.416802  1
  O  O95  1  0.193667  0.744671  0.083198  1
