# generated using pymatgen
data_Li15Ti11Nb5O42
_symmetry_space_group_name_H-M   'P 1'
_cell_length_a   5.13793028
_cell_length_b   5.13793028
_cell_length_c   33.16918408
_cell_angle_alpha   90.00000000
_cell_angle_beta   90.00000000
_cell_angle_gamma   120.00000000
_symmetry_Int_Tables_number   1
_chemical_formula_structural   Li15Ti11Nb5O42
_chemical_formula_sum   'Li15 Ti11 Nb5 O42'
_cell_volume   758.30135809
_cell_formula_units_Z   1
loop_
 _symmetry_equiv_pos_site_id
 _symmetry_equiv_pos_as_xyz
  1  'x, y, z'
loop_
 _atom_site_type_symbol
 _atom_site_label
 _atom_site_symmetry_multiplicity
 _atom_site_fract_x
 _atom_site_fract_y
 _atom_site_fract_z
 _atom_site_occupancy
  Li  Li0  1  0.000000  0.000000  0.199006  1
  Li  Li1  1  0.666667  0.333333  0.053784  1
  Li  Li2  1  0.666667  0.333333  0.260851  1
  Li  Li3  1  0.666667  0.333333  0.446127  1
  Li  Li4  1  0.666667  0.333333  0.553488  1
  Li  Li5  1  0.666667  0.333333  0.719544  1
  Li  Li6  1  0.666667  0.333333  0.780455  1
  Li  Li7  1  0.666667  0.333333  0.946457  1
  Li  Li8  1  0.000000  0.000000  0.871286  1
  Li  Li9  1  0.000000  0.000000  0.372391  1
  Li  Li10  1  0.000000  0.000000  0.698565  1
  Li  Li11  1  0.333333  0.666667  0.303061  1
  Li  Li12  1  0.333333  0.666667  0.801417  1
  Li  Li13  1  0.333333  0.666667  0.628682  1
  Li  Li14  1  0.333333  0.666667  0.126897  1
  Ti  Ti15  1  0.000000  0.000000  0.080654  1
  Ti  Ti16  1  0.000000  0.000000  0.989936  1
  Ti  Ti17  1  0.000000  0.000000  0.489870  1
  Ti  Ti18  1  0.000000  0.000000  0.580349  1
  Ti  Ti19  1  0.000000  0.000000  0.286080  1
  Ti  Ti20  1  0.000000  0.000000  0.783136  1
  Ti  Ti21  1  0.333333  0.666667  0.716938  1
  Ti  Ti22  1  0.333333  0.666667  0.510080  1
  Ti  Ti23  1  0.333333  0.666667  0.419256  1
  Ti  Ti24  1  0.333333  0.666667  0.010153  1
  Ti  Ti25  1  0.333333  0.666667  0.919737  1
  Nb  Nb26  1  0.666667  0.333333  0.145546  1
  Nb  Nb27  1  0.666667  0.333333  0.354206  1
  Nb  Nb28  1  0.666667  0.333333  0.643932  1
  Nb  Nb29  1  0.666667  0.333333  0.856078  1
  Nb  Nb30  1  0.333333  0.666667  0.216618  1
  O  O31  1  0.670982  0.958108  0.250396  1
  O  O32  1  0.703075  0.040403  0.107349  1
  O  O33  1  0.715471  0.047781  0.819999  1
  O  O34  1  0.688406  0.966028  0.534437  1
  O  O35  1  0.666557  0.695859  0.749989  1
  O  O36  1  0.962880  0.298726  0.607103  1
  O  O37  1  0.959671  0.288174  0.320175  1
  O  O38  1  0.688448  0.722521  0.034490  1
  O  O39  1  0.701274  0.664154  0.607103  1
  O  O40  1  0.711826  0.671497  0.320175  1
  O  O41  1  0.034073  0.311552  0.034490  1
  O  O42  1  0.277622  0.311594  0.534437  1
  O  O43  1  0.952219  0.667691  0.819999  1
  O  O44  1  0.959597  0.662672  0.107349  1
  O  O45  1  0.033972  0.722378  0.534437  1
  O  O46  1  0.332309  0.284529  0.819999  1
  O  O47  1  0.337328  0.296925  0.107349  1
  O  O48  1  0.041892  0.712875  0.250396  1
  O  O49  1  0.996522  0.626484  0.392240  1
  O  O50  1  0.000953  0.618947  0.680001  1
  O  O51  1  0.055652  0.700492  0.965542  1
  O  O52  1  0.277479  0.965927  0.034490  1
  O  O53  1  0.328503  0.040329  0.320175  1
  O  O54  1  0.335846  0.037120  0.607103  1
  O  O55  1  0.304141  0.970697  0.749989  1
  O  O56  1  0.997464  0.368024  0.892922  1
  O  O57  1  0.005895  0.372186  0.178474  1
  O  O58  1  0.299267  0.944096  0.465420  1
  O  O59  1  0.370560  0.002536  0.892922  1
  O  O60  1  0.029303  0.333443  0.749989  1
  O  O61  1  0.366291  0.994105  0.178474  1
  O  O62  1  0.055904  0.355171  0.465420  1
  O  O63  1  0.299508  0.355160  0.965542  1
  O  O64  1  0.617994  0.999047  0.680001  1
  O  O65  1  0.287125  0.329018  0.250396  1
  O  O66  1  0.629961  0.003478  0.392240  1
  O  O67  1  0.644840  0.944348  0.965542  1
  O  O68  1  0.381053  0.382006  0.680001  1
  O  O69  1  0.373516  0.370039  0.392240  1
  O  O70  1  0.644829  0.700733  0.465420  1
  O  O71  1  0.627814  0.633709  0.178474  1
  O  O72  1  0.631976  0.629440  0.892922  1
