# generated using pymatgen
data_TiOF2
_symmetry_space_group_name_H-M   'P 1'
_cell_length_a   5.22731847
_cell_length_b   8.93589996
_cell_length_c   5.70402048
_cell_angle_alpha   90.00000000
_cell_angle_beta   91.98868228
_cell_angle_gamma   90.00000000
_symmetry_Int_Tables_number   1
_chemical_formula_structural   TiOF2
_chemical_formula_sum   'Ti4 O4 F8'
_cell_volume   266.27885446
_cell_formula_units_Z   4
loop_
 _symmetry_equiv_pos_site_id
 _symmetry_equiv_pos_as_xyz
  1  'x, y, z'
loop_
 _atom_site_type_symbol
 _atom_site_label
 _atom_site_symmetry_multiplicity
 _atom_site_fract_x
 _atom_site_fract_y
 _atom_site_fract_z
 _atom_site_occupancy
  Ti  Ti0  1  0.118980  0.467580  0.980127  1
  Ti  Ti1  1  0.455915  0.190034  0.706902  1
  Ti  Ti2  1  0.544085  0.690034  0.293098  1
  Ti  Ti3  1  0.881020  0.967580  0.019873  1
  O  O4  1  0.700433  0.133179  0.920590  1
  O  O5  1  0.314909  0.368828  0.772319  1
  O  O6  1  0.685091  0.868828  0.227681  1
  O  O7  1  0.299567  0.633179  0.079410  1
  F  F8  1  0.196855  0.054532  0.728626  1
  F  F9  1  0.828239  0.494792  0.807649  1
  F  F10  1  0.870559  0.830852  0.790245  1
  F  F11  1  0.607245  0.190651  0.431916  1
  F  F12  1  0.392755  0.690651  0.568084  1
  F  F13  1  0.129441  0.330852  0.209755  1
  F  F14  1  0.171761  0.994792  0.192351  1
  F  F15  1  0.803145  0.554532  0.271374  1
