# generated using pymatgen
data_Sr9La5Cl33
_symmetry_space_group_name_H-M   'P 1'
_cell_length_a   11.28138124
_cell_length_b   11.31749724
_cell_length_c   21.58775702
_cell_angle_alpha   99.82201932
_cell_angle_beta   99.91292610
_cell_angle_gamma   108.88029788
_symmetry_Int_Tables_number   1
_chemical_formula_structural   Sr9La5Cl33
_chemical_formula_sum   'Sr18 La10 Cl66'
_cell_volume   2492.16200062
_cell_formula_units_Z   2
loop_
 _symmetry_equiv_pos_site_id
 _symmetry_equiv_pos_as_xyz
  1  'x, y, z'
loop_
 _atom_site_type_symbol
 _atom_site_label
 _atom_site_symmetry_multiplicity
 _atom_site_fract_x
 _atom_site_fract_y
 _atom_site_fract_z
 _atom_site_occupancy
  Sr  Sr0  1  0.924946  0.248963  0.930933  1
  Sr  Sr1  1  0.319483  0.088331  0.969896  1
  Sr  Sr2  1  0.472299  0.022434  0.193400  1
  Sr  Sr3  1  0.870042  0.269314  0.338394  1
  Sr  Sr4  1  0.244596  0.132019  0.378110  1
  Sr  Sr5  1  0.681349  0.403000  0.538019  1
  Sr  Sr6  1  0.068844  0.244612  0.562022  1
  Sr  Sr7  1  0.760397  0.354425  0.120832  1
  Sr  Sr8  1  0.131096  0.217694  0.157949  1
  Sr  Sr9  1  0.868904  0.782306  0.842051  1
  Sr  Sr10  1  0.239603  0.645575  0.879168  1
  Sr  Sr11  1  0.931156  0.755388  0.437978  1
  Sr  Sr12  1  0.318651  0.597000  0.461981  1
  Sr  Sr13  1  0.755404  0.867981  0.621890  1
  Sr  Sr14  1  0.129958  0.730686  0.661606  1
  Sr  Sr15  1  0.527701  0.977566  0.806600  1
  Sr  Sr16  1  0.680517  0.911669  0.030104  1
  Sr  Sr17  1  0.075054  0.751037  0.069067  1
  La  La18  1  0.380660  0.043085  0.586019  1
  La  La19  1  0.177210  0.140900  0.766124  1
  La  La20  1  0.856663  0.351932  0.733407  1
  La  La21  1  0.627387  0.457023  0.926830  1
  La  La22  1  0.462544  0.540474  0.686580  1
  La  La23  1  0.537456  0.459526  0.313420  1
  La  La24  1  0.372613  0.542977  0.073170  1
  La  La25  1  0.143337  0.648068  0.266593  1
  La  La26  1  0.822790  0.859100  0.233876  1
  La  La27  1  0.619340  0.956915  0.413981  1
  Cl  Cl28  1  0.772373  0.139873  0.787442  1
  Cl  Cl29  1  0.944473  0.148935  0.672126  1
  Cl  Cl30  1  0.625309  0.205501  0.918118  1
  Cl  Cl31  1  0.737511  0.046037  0.193730  1
  Cl  Cl32  1  0.156447  0.008491  0.636076  1
  Cl  Cl33  1  0.059463  0.072098  0.876362  1
  Cl  Cl34  1  0.655173  0.187027  0.624078  1
  Cl  Cl35  1  0.444767  0.183990  0.738964  1
  Cl  Cl36  1  0.812777  0.226467  0.475930  1
  Cl  Cl37  1  0.588247  0.119878  0.335290  1
  Cl  Cl38  1  0.477427  0.121693  0.471437  1
  Cl  Cl39  1  0.154954  0.040332  0.486217  1
  Cl  Cl40  1  0.356034  0.293025  0.884315  1
  Cl  Cl41  1  0.886151  0.183990  0.060401  1
  Cl  Cl42  1  0.823910  0.458286  0.857244  1
  Cl  Cl43  1  0.554503  0.105714  0.072644  1
  Cl  Cl44  1  0.947688  0.433415  0.624738  1
  Cl  Cl45  1  0.243596  0.038234  0.093434  1
  Cl  Cl46  1  0.393996  0.303692  0.588075  1
  Cl  Cl47  1  0.977170  0.374476  0.224010  1
  Cl  Cl48  1  0.345032  0.202326  0.262990  1
  Cl  Cl49  1  0.659863  0.314872  0.238066  1
  Cl  Cl50  1  0.035858  0.123500  0.275621  1
  Cl  Cl51  1  0.243830  0.356657  0.707347  1
  Cl  Cl52  1  0.706149  0.502313  0.689779  1
  Cl  Cl53  1  0.079869  0.356973  0.825006  1
  Cl  Cl54  1  0.756773  0.465919  0.408689  1
  Cl  Cl55  1  0.575244  0.566800  0.821004  1
  Cl  Cl56  1  0.447638  0.390926  0.426243  1
  Cl  Cl57  1  0.804434  0.720383  0.970509  1
  Cl  Cl58  1  0.469058  0.614237  0.961953  1
  Cl  Cl59  1  0.123273  0.318167  0.436872  1
  Cl  Cl60  1  0.144710  0.530717  0.981084  1
  Cl  Cl61  1  0.855290  0.469283  0.018916  1
  Cl  Cl62  1  0.876727  0.681833  0.563128  1
  Cl  Cl63  1  0.530942  0.385763  0.038047  1
  Cl  Cl64  1  0.195566  0.279617  0.029491  1
  Cl  Cl65  1  0.552362  0.609074  0.573757  1
  Cl  Cl66  1  0.424756  0.433200  0.178996  1
  Cl  Cl67  1  0.243227  0.534081  0.591311  1
  Cl  Cl68  1  0.920131  0.643027  0.174994  1
  Cl  Cl69  1  0.293851  0.497687  0.310221  1
  Cl  Cl70  1  0.756170  0.643343  0.292653  1
  Cl  Cl71  1  0.964142  0.876500  0.724379  1
  Cl  Cl72  1  0.340137  0.685128  0.761934  1
  Cl  Cl73  1  0.654968  0.797674  0.737010  1
  Cl  Cl74  1  0.022830  0.625524  0.775990  1
  Cl  Cl75  1  0.606004  0.696308  0.411925  1
  Cl  Cl76  1  0.756404  0.961766  0.906566  1
  Cl  Cl77  1  0.052312  0.566585  0.375262  1
  Cl  Cl78  1  0.445497  0.894286  0.927356  1
  Cl  Cl79  1  0.176090  0.541714  0.142756  1
  Cl  Cl80  1  0.113849  0.816010  0.939599  1
  Cl  Cl81  1  0.643966  0.706975  0.115685  1
  Cl  Cl82  1  0.845046  0.959668  0.513783  1
  Cl  Cl83  1  0.522573  0.878306  0.528563  1
  Cl  Cl84  1  0.411753  0.880122  0.664710  1
  Cl  Cl85  1  0.187223  0.773533  0.524070  1
  Cl  Cl86  1  0.555233  0.816010  0.261036  1
  Cl  Cl87  1  0.344827  0.812973  0.375922  1
  Cl  Cl88  1  0.940537  0.927902  0.123638  1
  Cl  Cl89  1  0.843553  0.991509  0.363924  1
  Cl  Cl90  1  0.262489  0.953963  0.806270  1
  Cl  Cl91  1  0.374691  0.794499  0.081882  1
  Cl  Cl92  1  0.055527  0.851065  0.327874  1
  Cl  Cl93  1  0.227627  0.860127  0.212558  1
