# generated using pymatgen
data_Li2Fe(PO3)4
_symmetry_space_group_name_H-M   'P 1'
_cell_length_a   7.58654345
_cell_length_b   9.44819390
_cell_length_c   8.65143508
_cell_angle_alpha   90.00000000
_cell_angle_beta   122.53674622
_cell_angle_gamma   90.00000000
_symmetry_Int_Tables_number   1
_chemical_formula_structural   Li2Fe(PO3)4
_chemical_formula_sum   'Li4 Fe2 P8 O24'
_cell_volume   522.79632072
_cell_formula_units_Z   2
loop_
 _symmetry_equiv_pos_site_id
 _symmetry_equiv_pos_as_xyz
  1  'x, y, z'
loop_
 _atom_site_type_symbol
 _atom_site_label
 _atom_site_symmetry_multiplicity
 _atom_site_fract_x
 _atom_site_fract_y
 _atom_site_fract_z
 _atom_site_occupancy
  Li  Li0  1  0.771451  0.659722  0.645726  1
  Li  Li1  1  0.771451  0.840278  0.145726  1
  Li  Li2  1  0.228549  0.159722  0.854274  1
  Li  Li3  1  0.228549  0.340278  0.354274  1
  Fe  Fe4  1  0.000000  0.000000  0.000000  1
  Fe  Fe5  1  0.000000  0.500000  0.500000  1
  P  P6  1  0.453723  0.594235  0.267719  1
  P  P7  1  0.546277  0.094235  0.232281  1
  P  P8  1  0.788037  0.217227  0.617802  1
  P  P9  1  0.211963  0.717227  0.882198  1
  P  P10  1  0.788037  0.282773  0.117802  1
  P  P11  1  0.211963  0.782773  0.382198  1
  P  P12  1  0.453723  0.905765  0.767719  1
  P  P13  1  0.546277  0.405765  0.732281  1
  O  O14  1  0.358888  0.727298  0.316129  1
  O  O15  1  0.312143  0.112545  0.112319  1
  O  O16  1  0.355953  0.458004  0.268137  1
  O  O17  1  0.387656  0.634332  0.061768  1
  O  O18  1  0.612344  0.134332  0.438232  1
  O  O19  1  0.938539  0.112435  0.758239  1
  O  O20  1  0.644047  0.958004  0.231863  1
  O  O21  1  0.687857  0.612545  0.387681  1
  O  O22  1  0.110368  0.832701  0.924785  1
  O  O23  1  0.641112  0.227298  0.183871  1
  O  O24  1  0.889632  0.332701  0.575215  1
  O  O25  1  0.061461  0.612435  0.741761  1
  O  O26  1  0.938539  0.387565  0.258239  1
  O  O27  1  0.110368  0.667299  0.424785  1
  O  O28  1  0.358888  0.772702  0.816129  1
  O  O29  1  0.889632  0.167299  0.075215  1
  O  O30  1  0.312143  0.387455  0.612319  1
  O  O31  1  0.355953  0.041996  0.768137  1
  O  O32  1  0.061461  0.887565  0.241761  1
  O  O33  1  0.387656  0.865668  0.561768  1
  O  O34  1  0.612344  0.365668  0.938232  1
  O  O35  1  0.644047  0.541996  0.731863  1
  O  O36  1  0.687857  0.887455  0.887681  1
  O  O37  1  0.641112  0.272702  0.683871  1
