# generated using pymatgen
data_LiMnNbO4
_symmetry_space_group_name_H-M   'P 1'
_cell_length_a   6.28526514
_cell_length_b   6.28526514
_cell_length_c   8.64186420
_cell_angle_alpha   90.00000000
_cell_angle_beta   90.00000000
_cell_angle_gamma   90.00000000
_symmetry_Int_Tables_number   1
_chemical_formula_structural   LiMnNbO4
_chemical_formula_sum   'Li4 Mn4 Nb4 O16'
_cell_volume   341.39302448
_cell_formula_units_Z   4
loop_
 _symmetry_equiv_pos_site_id
 _symmetry_equiv_pos_as_xyz
  1  'x, y, z'
loop_
 _atom_site_type_symbol
 _atom_site_label
 _atom_site_symmetry_multiplicity
 _atom_site_fract_x
 _atom_site_fract_y
 _atom_site_fract_z
 _atom_site_occupancy
  Li  Li0  1  0.000000  0.221764  0.000000  1
  Li  Li1  1  0.000000  0.778236  0.500000  1
  Li  Li2  1  0.221764  0.000000  0.250000  1
  Li  Li3  1  0.778236  0.000000  0.750000  1
  Mn  Mn4  1  0.256586  0.256586  0.625000  1
  Mn  Mn5  1  0.256586  0.743414  0.875000  1
  Mn  Mn6  1  0.743414  0.256586  0.375000  1
  Mn  Mn7  1  0.743414  0.743414  0.125000  1
  Nb  Nb8  1  0.218064  0.500000  0.250000  1
  Nb  Nb9  1  0.500000  0.218064  0.000000  1
  Nb  Nb10  1  0.500000  0.781936  0.500000  1
  Nb  Nb11  1  0.781936  0.500000  0.750000  1
  O  O12  1  0.026281  0.265241  0.252810  1
  O  O13  1  0.026281  0.734759  0.247190  1
  O  O14  1  0.265241  0.026281  0.997190  1
  O  O15  1  0.265241  0.973719  0.502810  1
  O  O16  1  0.267933  0.480855  0.019601  1
  O  O17  1  0.267933  0.519145  0.480399  1
  O  O18  1  0.480855  0.267933  0.230399  1
  O  O19  1  0.480855  0.732067  0.269601  1
  O  O20  1  0.519145  0.267933  0.769601  1
  O  O21  1  0.519145  0.732067  0.730399  1
  O  O22  1  0.732067  0.519145  0.519601  1
  O  O23  1  0.732067  0.480855  0.980399  1
  O  O24  1  0.734759  0.026281  0.002810  1
  O  O25  1  0.734759  0.973719  0.497190  1
  O  O26  1  0.973719  0.265241  0.747190  1
  O  O27  1  0.973719  0.734759  0.752810  1
