# generated using pymatgen
data_Na3VSi4(HO6)2
_symmetry_space_group_name_H-M   'P 1'
_cell_length_a   7.60474196
_cell_length_b   8.78852722
_cell_length_c   9.22433503
_cell_angle_alpha   117.53565915
_cell_angle_beta   96.09645546
_cell_angle_gamma   88.45388947
_symmetry_Int_Tables_number   1
_chemical_formula_structural   Na3VSi4(HO6)2
_chemical_formula_sum   'Na6 V2 Si8 H4 O24'
_cell_volume   543.40544159
_cell_formula_units_Z   2
loop_
 _symmetry_equiv_pos_site_id
 _symmetry_equiv_pos_as_xyz
  1  'x, y, z'
loop_
 _atom_site_type_symbol
 _atom_site_label
 _atom_site_symmetry_multiplicity
 _atom_site_fract_x
 _atom_site_fract_y
 _atom_site_fract_z
 _atom_site_occupancy
  Na  Na0  1  0.147262  0.736654  0.870727  1
  Na  Na1  1  0.852738  0.263346  0.129273  1
  Na  Na2  1  0.342224  0.853575  0.575803  1
  Na  Na3  1  0.657776  0.146425  0.424197  1
  Na  Na4  1  0.361561  0.396573  0.175358  1
  Na  Na5  1  0.638439  0.603427  0.824642  1
  V  V6  1  0.000000  0.500000  0.000000  1
  V  V7  1  0.500000  0.000000  0.000000  1
  Si  Si8  1  0.224070  0.290268  0.681534  1
  Si  Si9  1  0.775930  0.709732  0.318466  1
  Si  Si10  1  0.114211  0.090515  0.842980  1
  Si  Si11  1  0.885789  0.909485  0.157020  1
  Si  Si12  1  0.397820  0.745457  0.167141  1
  Si  Si13  1  0.602180  0.254543  0.832859  1
  Si  Si14  1  0.264914  0.091757  0.307448  1
  Si  Si15  1  0.735086  0.908243  0.692552  1
  H  H16  1  0.094178  0.569645  0.362197  1
  H  H17  1  0.905822  0.430355  0.637803  1
  H  H18  1  0.195838  0.483749  0.465349  1
  H  H19  1  0.804162  0.516251  0.534651  1
  O  O20  1  0.229931  0.250454  0.488918  1
  O  O21  1  0.770069  0.749546  0.511082  1
  O  O22  1  0.094496  0.278317  0.995556  1
  O  O23  1  0.905504  0.721683  0.004444  1
  O  O24  1  0.396251  0.161359  0.225329  1
  O  O25  1  0.603749  0.838641  0.774671  1
  O  O26  1  0.441330  0.786265  0.019936  1
  O  O27  1  0.558670  0.213735  0.980064  1
  O  O28  1  0.092198  0.445731  0.767942  1
  O  O29  1  0.907802  0.554269  0.232058  1
  O  O30  1  0.431232  0.337415  0.766916  1
  O  O31  1  0.568768  0.662585  0.233084  1
  O  O32  1  0.265881  0.967526  0.863128  1
  O  O33  1  0.734119  0.032474  0.136872  1
  O  O34  1  0.928110  0.976740  0.798789  1
  O  O35  1  0.071890  0.023260  0.201211  1
  O  O36  1  0.158201  0.110242  0.677736  1
  O  O37  1  0.841799  0.889758  0.322264  1
  O  O38  1  0.360561  0.931652  0.334912  1
  O  O39  1  0.639439  0.068348  0.665088  1
  O  O40  1  0.232752  0.614969  0.118287  1
  O  O41  1  0.767248  0.385031  0.881713  1
  O  O42  1  0.206421  0.574770  0.433489  1
  O  O43  1  0.793579  0.425230  0.566511  1
