# generated using pymatgen
data_LiVTe2WO12
_symmetry_space_group_name_H-M   'P 1'
_cell_length_a   5.13803952
_cell_length_b   5.28614376
_cell_length_c   7.38880542
_cell_angle_alpha   87.22127685
_cell_angle_beta   89.85567109
_cell_angle_gamma   89.96392116
_symmetry_Int_Tables_number   1
_chemical_formula_structural   LiVTe2WO12
_chemical_formula_sum   'Li1 V1 Te2 W1 O12'
_cell_volume   200.44640249
_cell_formula_units_Z   1
loop_
 _symmetry_equiv_pos_site_id
 _symmetry_equiv_pos_as_xyz
  1  'x, y, z'
loop_
 _atom_site_type_symbol
 _atom_site_label
 _atom_site_symmetry_multiplicity
 _atom_site_fract_x
 _atom_site_fract_y
 _atom_site_fract_z
 _atom_site_occupancy
  Li  Li0  1  0.499460  0.051331  0.287037  1
  V  V1  1  0.491552  0.490907  0.509007  1
  Te  Te2  1  0.501966  0.494837  0.998846  1
  Te  Te3  1  0.992557  0.991922  0.495285  1
  W  W4  1  0.005431  0.993556  0.990702  1
  O  O5  1  0.696271  0.792386  0.434410  1
  O  O6  1  0.892149  0.989089  0.747032  1
  O  O7  1  0.687310  0.177766  0.055025  1
  O  O8  1  0.786234  0.287675  0.438981  1
  O  O9  1  0.191643  0.302944  0.939964  1
  O  O10  1  0.606639  0.485578  0.745431  1
  O  O11  1  0.395520  0.491610  0.244998  1
  O  O12  1  0.811190  0.688274  0.048255  1
  O  O13  1  0.207073  0.689533  0.546632  1
  O  O14  1  0.313347  0.805128  0.940906  1
  O  O15  1  0.119261  0.993912  0.244328  1
  O  O16  1  0.302396  0.187953  0.540360  1
