# generated using pymatgen
data_Li2CrFeO4
_symmetry_space_group_name_H-M   'P 1'
_cell_length_a   5.95326552
_cell_length_b   5.95326552
_cell_length_c   5.95326552
_cell_angle_alpha   120.30429041
_cell_angle_beta   120.04270092
_cell_angle_gamma   89.69990853
_symmetry_Int_Tables_number   1
_chemical_formula_structural   Li2CrFeO4
_chemical_formula_sum   'Li4 Cr2 Fe2 O8'
_cell_volume   148.79936401
_cell_formula_units_Z   2
loop_
 _symmetry_equiv_pos_site_id
 _symmetry_equiv_pos_as_xyz
  1  'x, y, z'
loop_
 _atom_site_type_symbol
 _atom_site_label
 _atom_site_symmetry_multiplicity
 _atom_site_fract_x
 _atom_site_fract_y
 _atom_site_fract_z
 _atom_site_occupancy
  Li  Li0  1  0.000000  0.000000  0.500000  1
  Li  Li1  1  0.000000  0.500000  0.000000  1
  Li  Li2  1  0.000000  0.500000  0.500000  1
  Li  Li3  1  0.500000  0.500000  0.000000  1
  Cr  Cr4  1  0.500000  1.000000  0.500000  1
  Cr  Cr5  1  0.000000  0.000000  0.000000  1
  Fe  Fe6  1  0.500000  0.000000  0.000000  1
  Fe  Fe7  1  0.500000  0.500000  0.500000  1
  O  O8  1  0.257098  0.242262  0.485164  1
  O  O9  1  0.257098  0.771934  0.014836  1
  O  O10  1  0.745477  0.758419  0.987057  1
  O  O11  1  0.271362  0.758419  0.512943  1
  O  O12  1  0.728638  0.241581  0.487057  1
  O  O13  1  0.254523  0.241581  0.012943  1
  O  O14  1  0.742902  0.228066  0.985164  1
  O  O15  1  0.742902  0.757738  0.514836  1
