# generated using pymatgen
data_Ge2N2O
_symmetry_space_group_name_H-M   'P 1'
_cell_length_a   5.46876007
_cell_length_b   5.61919144
_cell_length_c   10.47608361
_cell_angle_alpha   89.72396521
_cell_angle_beta   104.89705295
_cell_angle_gamma   117.45961587
_symmetry_Int_Tables_number   1
_chemical_formula_structural   Ge2N2O
_chemical_formula_sum   'Ge8 N8 O4'
_cell_volume   273.62029435
_cell_formula_units_Z   4
loop_
 _symmetry_equiv_pos_site_id
 _symmetry_equiv_pos_as_xyz
  1  'x, y, z'
loop_
 _atom_site_type_symbol
 _atom_site_label
 _atom_site_symmetry_multiplicity
 _atom_site_fract_x
 _atom_site_fract_y
 _atom_site_fract_z
 _atom_site_occupancy
  Ge  Ge0  1  0.539942  0.991911  0.934184  1
  Ge  Ge1  1  0.753256  0.900400  0.688445  1
  Ge  Ge2  1  0.373228  0.740664  0.181182  1
  Ge  Ge3  1  0.862286  0.641192  0.932934  1
  Ge  Ge4  1  0.539850  0.486245  0.431621  1
  Ge  Ge5  1  0.719860  0.393638  0.186183  1
  Ge  Ge6  1  0.353574  0.257625  0.684994  1
  Ge  Ge7  1  0.860621  0.135167  0.433340  1
  N  N8  1  0.648810  0.832922  0.505309  1
  N  N9  1  0.249956  0.742372  0.997508  1
  N  N10  1  0.688767  0.576760  0.752846  1
  N  N11  1  0.480430  0.484970  0.247249  1
  N  N12  1  0.663427  0.337993  0.006298  1
  N  N13  1  0.095235  0.171579  0.773283  1
  N  N14  1  0.251047  0.238297  0.499065  1
  N  N15  1  0.687929  0.078065  0.252756  1
  O  O16  1  0.495779  0.992923  0.751130  1
  O  O17  1  0.079489  0.669634  0.248667  1
  O  O18  1  0.833792  0.417124  0.494569  1
  O  O19  1  0.823122  0.911316  0.998438  1
