# generated using pymatgen
data_LiTiP2O7
_symmetry_space_group_name_H-M   'P 1'
_cell_length_a   5.30787928
_cell_length_b   5.30787928
_cell_length_c   4.61095751
_cell_angle_alpha   81.41715986
_cell_angle_beta   98.58284014
_cell_angle_gamma   76.95823468
_symmetry_Int_Tables_number   1
_chemical_formula_structural   LiTiP2O7
_chemical_formula_sum   'Li1 Ti1 P2 O7'
_cell_volume   122.86228426
_cell_formula_units_Z   1
loop_
 _symmetry_equiv_pos_site_id
 _symmetry_equiv_pos_as_xyz
  1  'x, y, z'
loop_
 _atom_site_type_symbol
 _atom_site_label
 _atom_site_symmetry_multiplicity
 _atom_site_fract_x
 _atom_site_fract_y
 _atom_site_fract_z
 _atom_site_occupancy
  Li  Li0  1  0.252795  0.252795  0.000000  1
  Ti  Ti1  1  0.874331  0.874331  0.000000  1
  P  P2  1  0.745729  0.332497  0.410278  1
  P  P3  1  0.332497  0.745729  0.589722  1
  O  O4  1  0.926492  0.182773  0.707276  1
  O  O5  1  0.653469  0.159677  0.198198  1
  O  O6  1  0.868138  0.536579  0.256742  1
  O  O7  1  0.472672  0.472672  0.500000  1
  O  O8  1  0.536579  0.868138  0.743258  1
  O  O9  1  0.159677  0.653469  0.801802  1
  O  O10  1  0.182773  0.926492  0.292724  1
