# generated using pymatgen
data_Li8MnFe7(BO3)8
_symmetry_space_group_name_H-M   'P 1'
_cell_length_a   5.23980932
_cell_length_b   9.01622687
_cell_length_c   11.11687848
_cell_angle_alpha   107.81170618
_cell_angle_beta   90.75999827
_cell_angle_gamma   90.81095448
_symmetry_Int_Tables_number   1
_chemical_formula_structural   Li8MnFe7(BO3)8
_chemical_formula_sum   'Li8 Mn1 Fe7 B8 O24'
_cell_volume   499.88829088
_cell_formula_units_Z   1
loop_
 _symmetry_equiv_pos_site_id
 _symmetry_equiv_pos_as_xyz
  1  'x, y, z'
loop_
 _atom_site_type_symbol
 _atom_site_label
 _atom_site_symmetry_multiplicity
 _atom_site_fract_x
 _atom_site_fract_y
 _atom_site_fract_z
 _atom_site_occupancy
  Li  Li0  1  0.848357  0.381405  0.163596  1
  Li  Li1  1  0.153269  0.117664  0.338043  1
  Li  Li2  1  0.346248  0.882729  0.160649  1
  Li  Li3  1  0.652734  0.616548  0.340347  1
  Li  Li4  1  0.346538  0.382023  0.661054  1
  Li  Li5  1  0.653491  0.118053  0.838016  1
  Li  Li6  1  0.846065  0.881983  0.661130  1
  Li  Li7  1  0.153246  0.616622  0.837184  1
  Mn  Mn8  1  0.829588  0.698033  0.116575  1
  Fe  Fe9  1  0.336043  0.200511  0.116777  1
  Fe  Fe10  1  0.662725  0.300134  0.382314  1
  Fe  Fe11  1  0.836763  0.201361  0.617329  1
  Fe  Fe12  1  0.168953  0.802906  0.381058  1
  Fe  Fe13  1  0.327829  0.701337  0.616123  1
  Fe  Fe14  1  0.163223  0.300128  0.882479  1
  Fe  Fe15  1  0.662266  0.799690  0.878526  1
  B  B16  1  0.827837  0.037214  0.128712  1
  B  B17  1  0.330992  0.535203  0.131284  1
  B  B18  1  0.170369  0.464052  0.372037  1
  B  B19  1  0.330731  0.036977  0.629855  1
  B  B20  1  0.673097  0.963646  0.371864  1
  B  B21  1  0.830212  0.536512  0.629573  1
  B  B22  1  0.670303  0.463291  0.868719  1
  B  B23  1  0.169862  0.964246  0.870495  1
  O  O24  1  0.088421  0.032495  0.147631  1
  O  O25  1  0.704138  0.179709  0.158212  1
  O  O26  1  0.181634  0.397324  0.088543  1
  O  O27  1  0.591127  0.527042  0.149073  1
  O  O28  1  0.818345  0.102817  0.411497  1
  O  O29  1  0.293760  0.321215  0.344407  1
  O  O30  1  0.212493  0.679123  0.159897  1
  O  O31  1  0.680588  0.899328  0.086005  1
  O  O32  1  0.910249  0.467888  0.353798  1
  O  O33  1  0.591166  0.033024  0.647371  1
  O  O34  1  0.317140  0.602474  0.412365  1
  O  O35  1  0.796264  0.820870  0.345172  1
  O  O36  1  0.205107  0.178573  0.656683  1
  O  O37  1  0.683729  0.397241  0.588612  1
  O  O38  1  0.412714  0.967464  0.353346  1
  O  O39  1  0.091264  0.530756  0.646879  1
  O  O40  1  0.317318  0.102802  0.911030  1
  O  O41  1  0.795092  0.321437  0.842659  1
  O  O42  1  0.705217  0.678453  0.658065  1
  O  O43  1  0.185348  0.897643  0.589070  1
  O  O44  1  0.409718  0.467136  0.851907  1
  O  O45  1  0.816640  0.602322  0.908575  1
  O  O46  1  0.292292  0.821419  0.843383  1
  O  O47  1  0.909493  0.969176  0.852081  1
