# generated using pymatgen
data_Li5Mn5Cr2O12
_symmetry_space_group_name_H-M   'P 1'
_cell_length_a   5.19236168
_cell_length_b   5.19236168
_cell_length_c   9.90663817
_cell_angle_alpha   85.90291286
_cell_angle_beta   94.09708714
_cell_angle_gamma   61.06737746
_symmetry_Int_Tables_number   1
_chemical_formula_structural   Li5Mn5Cr2O12
_chemical_formula_sum   'Li5 Mn5 Cr2 O12'
_cell_volume   231.43049011
_cell_formula_units_Z   1
loop_
 _symmetry_equiv_pos_site_id
 _symmetry_equiv_pos_as_xyz
  1  'x, y, z'
loop_
 _atom_site_type_symbol
 _atom_site_label
 _atom_site_symmetry_multiplicity
 _atom_site_fract_x
 _atom_site_fract_y
 _atom_site_fract_z
 _atom_site_occupancy
  Li  Li0  1  0.838119  0.333786  0.742798  1
  Li  Li1  1  0.677331  0.148346  0.260875  1
  Li  Li2  1  0.333786  0.838119  0.257202  1
  Li  Li3  1  0.148346  0.677331  0.739125  1
  Li  Li4  1  0.082744  0.082744  0.500000  1
  Mn  Mn5  1  0.919066  0.919066  0.000000  1
  Mn  Mn6  1  0.003939  0.488002  0.257156  1
  Mn  Mn7  1  0.488002  0.003939  0.742844  1
  Mn  Mn8  1  0.582129  0.582129  0.000000  1
  Mn  Mn9  1  0.420190  0.420190  0.500000  1
  Cr  Cr10  1  0.751481  0.751481  0.500000  1
  Cr  Cr11  1  0.250501  0.250501  0.000000  1
  O  O12  1  0.030925  0.775538  0.374017  1
  O  O13  1  0.775538  0.030925  0.625983  1
  O  O14  1  0.895337  0.601509  0.883124  1
  O  O15  1  0.601509  0.895337  0.116876  1
  O  O16  1  0.702984  0.469554  0.380315  1
  O  O17  1  0.469554  0.702984  0.619685  1
  O  O18  1  0.545603  0.272412  0.881382  1
  O  O19  1  0.272412  0.545603  0.118618  1
  O  O20  1  0.398363  0.122822  0.388206  1
  O  O21  1  0.122822  0.398363  0.611794  1
  O  O22  1  0.219629  0.969689  0.874468  1
  O  O23  1  0.969689  0.219629  0.125532  1
