# generated using pymatgen
data_MgP2(H8O5)2
_symmetry_space_group_name_H-M   'P 1'
_cell_length_a   7.30348911
_cell_length_b   7.30348911
_cell_length_c   10.54835038
_cell_angle_alpha   90.00000000
_cell_angle_beta   90.00000000
_cell_angle_gamma   90.00000000
_symmetry_Int_Tables_number   1
_chemical_formula_structural   MgP2(H8O5)2
_chemical_formula_sum   'Mg2 P4 H32 O20'
_cell_volume   562.65906374
_cell_formula_units_Z   2
loop_
 _symmetry_equiv_pos_site_id
 _symmetry_equiv_pos_as_xyz
  1  'x, y, z'
loop_
 _atom_site_type_symbol
 _atom_site_label
 _atom_site_symmetry_multiplicity
 _atom_site_fract_x
 _atom_site_fract_y
 _atom_site_fract_z
 _atom_site_occupancy
  Mg  Mg0  1  0.500000  0.500000  0.000000  1
  Mg  Mg1  1  0.000000  0.000000  0.500000  1
  P  P2  1  0.500000  0.000000  0.761362  1
  P  P3  1  0.500000  0.000000  0.261362  1
  P  P4  1  0.000000  0.500000  0.238638  1
  P  P5  1  0.000000  0.500000  0.738638  1
  H  H6  1  0.311622  0.796334  0.443910  1
  H  H7  1  0.311622  0.203666  0.443910  1
  H  H8  1  0.296334  0.811622  0.943910  1
  H  H9  1  0.296334  0.188378  0.943910  1
  H  H10  1  0.347177  0.000000  0.179029  1
  H  H11  1  0.388671  0.500000  0.749912  1
  H  H12  1  0.500000  0.388671  0.250088  1
  H  H13  1  0.500000  0.611329  0.250088  1
  H  H14  1  0.500000  0.847177  0.679029  1
  H  H15  1  0.500000  0.152823  0.679029  1
  H  H16  1  0.611329  0.500000  0.749912  1
  H  H17  1  0.652823  0.000000  0.179029  1
  H  H18  1  0.703666  0.188378  0.943910  1
  H  H19  1  0.703666  0.811622  0.943910  1
  H  H20  1  0.688378  0.796334  0.443910  1
  H  H21  1  0.688378  0.203666  0.443910  1
  H  H22  1  0.811622  0.703666  0.056090  1
  H  H23  1  0.811622  0.296334  0.056090  1
  H  H24  1  0.796334  0.688378  0.556090  1
  H  H25  1  0.796334  0.311622  0.556090  1
  H  H26  1  0.847177  0.500000  0.320971  1
  H  H27  1  0.888671  0.000000  0.750088  1
  H  H28  1  0.000000  0.888671  0.249912  1
  H  H29  1  0.000000  0.111329  0.249912  1
  H  H30  1  0.000000  0.347177  0.820971  1
  H  H31  1  0.000000  0.652823  0.820971  1
  H  H32  1  0.111329  0.000000  0.750088  1
  H  H33  1  0.152823  0.500000  0.320971  1
  H  H34  1  0.203666  0.688378  0.556090  1
  H  H35  1  0.203666  0.311622  0.556090  1
  H  H36  1  0.188378  0.703666  0.056090  1
  H  H37  1  0.188378  0.296334  0.056090  1
  O  O38  1  0.297366  0.297366  0.000000  1
  O  O39  1  0.297366  0.702634  0.000000  1
  O  O40  1  0.321269  0.000000  0.838160  1
  O  O41  1  0.500000  0.500000  0.803673  1
  O  O42  1  0.500000  0.500000  0.196327  1
  O  O43  1  0.500000  0.821269  0.338160  1
  O  O44  1  0.500000  0.178731  0.338160  1
  O  O45  1  0.678731  0.000000  0.838160  1
  O  O46  1  0.702634  0.297366  0.000000  1
  O  O47  1  0.702634  0.702634  0.000000  1
  O  O48  1  0.797366  0.797366  0.500000  1
  O  O49  1  0.797366  0.202634  0.500000  1
  O  O50  1  0.821269  0.500000  0.661840  1
  O  O51  1  0.000000  0.000000  0.303673  1
  O  O52  1  0.000000  0.321269  0.161840  1
  O  O53  1  0.000000  0.678731  0.161840  1
  O  O54  1  0.000000  0.000000  0.696327  1
  O  O55  1  0.178731  0.500000  0.661840  1
  O  O56  1  0.202634  0.797366  0.500000  1
  O  O57  1  0.202634  0.202634  0.500000  1
