# generated using pymatgen
data_Hf2N2O
_symmetry_space_group_name_H-M   'P 1'
_cell_length_a   7.01107078
_cell_length_b   7.01107078
_cell_length_c   8.19391488
_cell_angle_alpha   80.18129847
_cell_angle_beta   99.81870153
_cell_angle_gamma   153.01532348
_symmetry_Int_Tables_number   1
_chemical_formula_structural   Hf2N2O
_chemical_formula_sum   'Hf6 N6 O3'
_cell_volume   179.92671746
_cell_formula_units_Z   3
loop_
 _symmetry_equiv_pos_site_id
 _symmetry_equiv_pos_as_xyz
  1  'x, y, z'
loop_
 _atom_site_type_symbol
 _atom_site_label
 _atom_site_symmetry_multiplicity
 _atom_site_fract_x
 _atom_site_fract_y
 _atom_site_fract_z
 _atom_site_occupancy
  Hf  Hf0  1  0.030411  0.969589  0.800199  1
  Hf  Hf1  1  0.638447  0.361553  0.473992  1
  Hf  Hf2  1  0.695357  0.304643  0.133424  1
  Hf  Hf3  1  0.305562  0.694438  0.868459  1
  Hf  Hf4  1  0.364206  0.635794  0.520020  1
  Hf  Hf5  1  0.964656  0.035344  0.186780  1
  N  N6  1  0.535845  0.464155  0.648673  1
  N  N7  1  0.169798  0.830202  0.964838  1
  N  N8  1  0.121583  0.878417  0.290765  1
  N  N9  1  0.795420  0.204580  0.379033  1
  N  N10  1  0.874534  0.125466  0.727022  1
  N  N11  1  0.827031  0.172969  0.036540  1
  O  O12  1  0.214537  0.785463  0.619369  1
  O  O13  1  0.465360  0.534640  0.338508  1
  O  O14  1  0.497252  0.502748  0.012376  1
