# generated using pymatgen
data_Li2MnV(P2O7)2
_symmetry_space_group_name_H-M   'P 1'
_cell_length_a   7.15811405
_cell_length_b   9.61145197
_cell_length_c   9.61491824
_cell_angle_alpha   119.31362999
_cell_angle_beta   100.48998300
_cell_angle_gamma   100.45772551
_symmetry_Int_Tables_number   1
_chemical_formula_structural   Li2MnV(P2O7)2
_chemical_formula_sum   'Li4 Mn2 V2 P8 O28'
_cell_volume   538.16210509
_cell_formula_units_Z   2
loop_
 _symmetry_equiv_pos_site_id
 _symmetry_equiv_pos_as_xyz
  1  'x, y, z'
loop_
 _atom_site_type_symbol
 _atom_site_label
 _atom_site_symmetry_multiplicity
 _atom_site_fract_x
 _atom_site_fract_y
 _atom_site_fract_z
 _atom_site_occupancy
  Li  Li0  1  0.325041  0.361297  0.568180  1
  Li  Li1  1  0.674270  0.861419  0.819310  1
  Li  Li2  1  0.325728  0.361310  0.071560  1
  Li  Li3  1  0.675924  0.860681  0.319144  1
  Mn  Mn4  1  0.269945  0.999499  0.742784  1
  Mn  Mn5  1  0.730712  0.498153  0.509935  1
  V  V6  1  0.271786  0.999286  0.243042  1
  V  V7  1  0.727520  0.500268  0.005753  1
  P  P8  1  0.518451  0.179081  0.470335  1
  P  P9  1  0.521760  0.179207  0.969821  1
  P  P10  1  0.087097  0.787956  0.545071  1
  P  P11  1  0.088447  0.783006  0.044569  1
  P  P12  1  0.910920  0.286217  0.419749  1
  P  P13  1  0.913650  0.284228  0.920496  1
  P  P14  1  0.483367  0.678577  0.102318  1
  P  P15  1  0.476991  0.679957  0.598500  1
  O  O16  1  0.084628  0.933598  0.875327  1
  O  O17  1  0.391859  0.176507  0.806391  1
  O  O18  1  0.505214  0.841410  0.956679  1
  O  O19  1  0.112379  0.202642  0.518431  1
  O  O20  1  0.150131  0.827164  0.690086  1
  O  O21  1  0.480916  0.034152  0.628897  1
  O  O22  1  0.494919  0.340492  0.454384  1
  O  O23  1  0.506672  0.343045  0.956782  1
  O  O24  1  0.604432  0.677249  0.765268  1
  O  O25  1  0.609297  0.673092  0.271371  1
  O  O26  1  0.916120  0.432761  0.939726  1
  O  O27  1  0.911232  0.436510  0.438291  1
  O  O28  1  0.750921  0.154952  0.500768  1
  O  O29  1  0.246231  0.654621  0.595260  1
  O  O30  1  0.250566  0.653890  0.095610  1
  O  O31  1  0.087571  0.937085  0.376430  1
  O  O32  1  0.395710  0.173860  0.306277  1
  O  O33  1  0.492299  0.842805  0.448686  1
  O  O34  1  0.517976  0.537069  0.584164  1
  O  O35  1  0.517829  0.536493  0.084524  1
  O  O36  1  0.855700  0.324364  0.736747  1
  O  O37  1  0.846257  0.326631  0.235388  1
  O  O38  1  0.888252  0.693902  0.029300  1
  O  O39  1  0.885817  0.704770  0.528835  1
  O  O40  1  0.113531  0.195823  0.025417  1
  O  O41  1  0.147054  0.825481  0.185417  1
  O  O42  1  0.482542  0.038068  0.128536  1
  O  O43  1  0.752333  0.152585  0.000859  1
