# generated using pymatgen
data_Li2FeSiO4
_symmetry_space_group_name_H-M   'P 1'
_cell_length_a   5.45603333
_cell_length_b   10.61018408
_cell_length_c   12.91359736
_cell_angle_alpha   90.00000000
_cell_angle_beta   90.00000000
_cell_angle_gamma   90.00000000
_symmetry_Int_Tables_number   1
_chemical_formula_structural   Li2FeSiO4
_chemical_formula_sum   'Li16 Fe8 Si8 O32'
_cell_volume   747.56192653
_cell_formula_units_Z   8
loop_
 _symmetry_equiv_pos_site_id
 _symmetry_equiv_pos_as_xyz
  1  'x, y, z'
loop_
 _atom_site_type_symbol
 _atom_site_label
 _atom_site_symmetry_multiplicity
 _atom_site_fract_x
 _atom_site_fract_y
 _atom_site_fract_z
 _atom_site_occupancy
  Li  Li0  1  0.034976  0.028324  0.561299  1
  Li  Li1  1  0.535564  0.050026  0.942049  1
  Li  Li2  1  0.641059  0.788589  0.297489  1
  Li  Li3  1  0.153692  0.790667  0.199741  1
  Li  Li4  1  0.153692  0.709333  0.699741  1
  Li  Li5  1  0.641059  0.711411  0.797489  1
  Li  Li6  1  0.034976  0.471676  0.061299  1
  Li  Li7  1  0.535564  0.449974  0.442049  1
  Li  Li8  1  0.464436  0.550026  0.942049  1
  Li  Li9  1  0.965024  0.528324  0.561299  1
  Li  Li10  1  0.358941  0.288589  0.297489  1
  Li  Li11  1  0.846308  0.290667  0.199741  1
  Li  Li12  1  0.846308  0.209333  0.699741  1
  Li  Li13  1  0.358941  0.211411  0.797489  1
  Li  Li14  1  0.965024  0.971676  0.061299  1
  Li  Li15  1  0.464436  0.949974  0.442049  1
  Fe  Fe16  1  0.026970  0.964677  0.813580  1
  Fe  Fe17  1  0.483058  0.794797  0.055741  1
  Fe  Fe18  1  0.483058  0.705203  0.555741  1
  Fe  Fe19  1  0.026970  0.535323  0.313580  1
  Fe  Fe20  1  0.973030  0.464677  0.813580  1
  Fe  Fe21  1  0.516942  0.294797  0.055741  1
  Fe  Fe22  1  0.516942  0.205203  0.555741  1
  Fe  Fe23  1  0.973030  0.035323  0.313580  1
  Si  Si24  1  0.520056  0.964943  0.691202  1
  Si  Si25  1  0.980813  0.786055  0.437684  1
  Si  Si26  1  0.980813  0.713945  0.937684  1
  Si  Si27  1  0.520056  0.535057  0.191202  1
  Si  Si28  1  0.479944  0.464943  0.691202  1
  Si  Si29  1  0.019187  0.286055  0.437684  1
  Si  Si30  1  0.019187  0.213945  0.937684  1
  Si  Si31  1  0.479944  0.035057  0.191202  1
  O  O32  1  0.613666  0.979550  0.297251  1
  O  O33  1  0.189216  0.987028  0.192164  1
  O  O34  1  0.103719  0.926679  0.432490  1
  O  O35  1  0.601054  0.971882  0.085821  1
  O  O36  1  0.479660  0.809918  0.690313  1
  O  O37  1  0.992536  0.775515  0.819407  1
  O  O38  1  0.683072  0.801069  0.457767  1
  O  O39  1  0.111485  0.803483  0.026736  1
  O  O40  1  0.111485  0.696517  0.526736  1
  O  O41  1  0.683072  0.698931  0.957767  1
  O  O42  1  0.992536  0.724485  0.319407  1
  O  O43  1  0.479660  0.690082  0.190313  1
  O  O44  1  0.601054  0.528118  0.585821  1
  O  O45  1  0.103719  0.573321  0.932490  1
  O  O46  1  0.189216  0.512972  0.692164  1
  O  O47  1  0.613666  0.520450  0.797251  1
  O  O48  1  0.386334  0.479550  0.297251  1
  O  O49  1  0.810784  0.487028  0.192164  1
  O  O50  1  0.896281  0.426679  0.432490  1
  O  O51  1  0.398946  0.471882  0.085821  1
  O  O52  1  0.520340  0.309918  0.690313  1
  O  O53  1  0.007464  0.275515  0.819407  1
  O  O54  1  0.316928  0.301069  0.457767  1
  O  O55  1  0.888515  0.303483  0.026736  1
  O  O56  1  0.888515  0.196517  0.526736  1
  O  O57  1  0.316928  0.198931  0.957767  1
  O  O58  1  0.007464  0.224485  0.319407  1
  O  O59  1  0.520340  0.190082  0.190313  1
  O  O60  1  0.398946  0.028118  0.585821  1
  O  O61  1  0.896281  0.073321  0.932490  1
  O  O62  1  0.810784  0.012972  0.692164  1
  O  O63  1  0.386334  0.020450  0.797251  1
