# generated using pymatgen
data_Li3H6Ir
_symmetry_space_group_name_H-M   'P 1'
_cell_length_a   4.76027535
_cell_length_b   8.49664418
_cell_length_c   8.54998991
_cell_angle_alpha   90.00000000
_cell_angle_beta   90.00000000
_cell_angle_gamma   90.00000000
_symmetry_Int_Tables_number   1
_chemical_formula_structural   Li3H6Ir
_chemical_formula_sum   'Li12 H24 Ir4'
_cell_volume   345.81601989
_cell_formula_units_Z   4
loop_
 _symmetry_equiv_pos_site_id
 _symmetry_equiv_pos_as_xyz
  1  'x, y, z'
loop_
 _atom_site_type_symbol
 _atom_site_label
 _atom_site_symmetry_multiplicity
 _atom_site_fract_x
 _atom_site_fract_y
 _atom_site_fract_z
 _atom_site_occupancy
  Li  Li0  1  0.750000  0.458107  0.371227  1
  Li  Li1  1  0.750000  0.958107  0.128773  1
  Li  Li2  1  0.250000  0.541893  0.628773  1
  Li  Li3  1  0.250000  0.041893  0.871227  1
  Li  Li4  1  0.750000  0.106468  0.475328  1
  Li  Li5  1  0.750000  0.606468  0.024672  1
  Li  Li6  1  0.250000  0.893532  0.524672  1
  Li  Li7  1  0.250000  0.393532  0.975328  1
  Li  Li8  1  0.750000  0.273219  0.757381  1
  Li  Li9  1  0.750000  0.773219  0.742619  1
  Li  Li10  1  0.250000  0.726781  0.242619  1
  Li  Li11  1  0.250000  0.226781  0.257381  1
  H  H12  1  0.501170  0.156071  0.028883  1
  H  H13  1  0.998830  0.656071  0.471117  1
  H  H14  1  0.001170  0.843929  0.971117  1
  H  H15  1  0.498830  0.343929  0.528883  1
  H  H16  1  0.498830  0.843929  0.971117  1
  H  H17  1  0.001170  0.343929  0.528883  1
  H  H18  1  0.998830  0.156071  0.028883  1
  H  H19  1  0.501170  0.656071  0.471117  1
  H  H20  1  0.506875  0.395882  0.177447  1
  H  H21  1  0.993125  0.895882  0.322553  1
  H  H22  1  0.006875  0.604118  0.822553  1
  H  H23  1  0.493125  0.104118  0.677447  1
  H  H24  1  0.493125  0.604118  0.822553  1
  H  H25  1  0.006875  0.104118  0.677447  1
  H  H26  1  0.993125  0.395882  0.177447  1
  H  H27  1  0.506875  0.895882  0.322553  1
  H  H28  1  0.750000  0.389269  0.942698  1
  H  H29  1  0.750000  0.889269  0.557302  1
  H  H30  1  0.250000  0.610731  0.057302  1
  H  H31  1  0.250000  0.110731  0.442698  1
  H  H32  1  0.750000  0.164106  0.261562  1
  H  H33  1  0.750000  0.664106  0.238438  1
  H  H34  1  0.250000  0.835894  0.738438  1
  H  H35  1  0.250000  0.335894  0.761562  1
  Ir  Ir36  1  0.750000  0.275299  0.102069  1
  Ir  Ir37  1  0.750000  0.775299  0.397931  1
  Ir  Ir38  1  0.250000  0.724701  0.897931  1
  Ir  Ir39  1  0.250000  0.224701  0.602069  1
