# generated using pymatgen
data_La2HgO4
_symmetry_space_group_name_H-M   'P 1'
_cell_length_a   7.36590654
_cell_length_b   7.36590654
_cell_length_c   10.47162341
_cell_angle_alpha   60.87353837
_cell_angle_beta   119.12646163
_cell_angle_gamma   148.92062519
_symmetry_Int_Tables_number   1
_chemical_formula_structural   La2HgO4
_chemical_formula_sum   'La4 Hg2 O8'
_cell_volume   253.11360996
_cell_formula_units_Z   2
loop_
 _symmetry_equiv_pos_site_id
 _symmetry_equiv_pos_as_xyz
  1  'x, y, z'
loop_
 _atom_site_type_symbol
 _atom_site_label
 _atom_site_symmetry_multiplicity
 _atom_site_fract_x
 _atom_site_fract_y
 _atom_site_fract_z
 _atom_site_occupancy
  La  La0  1  0.619581  0.380419  0.457014  1
  La  La1  1  0.159863  0.840137  0.797329  1
  La  La2  1  0.840137  0.159863  0.202671  1
  La  La3  1  0.380419  0.619581  0.542986  1
  Hg  Hg4  1  0.883905  0.116095  0.836640  1
  Hg  Hg5  1  0.116095  0.883905  0.163360  1
  O  O6  1  0.226234  0.773766  0.607903  1
  O  O7  1  0.797393  0.202607  0.941633  1
  O  O8  1  0.037321  0.962679  0.278918  1
  O  O9  1  0.581979  0.418021  0.654914  1
  O  O10  1  0.418021  0.581979  0.345086  1
  O  O11  1  0.962679  0.037321  0.721082  1
  O  O12  1  0.202607  0.797393  0.058367  1
  O  O13  1  0.773766  0.226234  0.392097  1
