# generated using pymatgen
data_CaH14I10O7
_symmetry_space_group_name_H-M   'P 1'
_cell_length_a   9.54554466
_cell_length_b   9.96935585
_cell_length_c   15.61368236
_cell_angle_alpha   93.06476269
_cell_angle_beta   90.65562331
_cell_angle_gamma   108.84831488
_symmetry_Int_Tables_number   1
_chemical_formula_structural   CaH14I10O7
_chemical_formula_sum   'Ca2 H28 I20 O14'
_cell_volume   1403.50908614
_cell_formula_units_Z   2
loop_
 _symmetry_equiv_pos_site_id
 _symmetry_equiv_pos_as_xyz
  1  'x, y, z'
loop_
 _atom_site_type_symbol
 _atom_site_label
 _atom_site_symmetry_multiplicity
 _atom_site_fract_x
 _atom_site_fract_y
 _atom_site_fract_z
 _atom_site_occupancy
  Ca  Ca0  1  0.782479  0.626990  0.251200  1
  Ca  Ca1  1  0.217521  0.373010  0.748800  1
  H  H2  1  0.482526  0.379847  0.265868  1
  H  H3  1  0.517474  0.620153  0.734132  1
  H  H4  1  0.518968  0.393503  0.169004  1
  H  H5  1  0.481032  0.606497  0.830996  1
  H  H6  1  0.894311  0.371287  0.291854  1
  H  H7  1  0.105689  0.628713  0.708146  1
  H  H8  1  0.882708  0.376719  0.191941  1
  H  H9  1  0.117292  0.623281  0.808059  1
  H  H10  1  0.692391  0.695590  0.068545  1
  H  H11  1  0.307609  0.304410  0.931455  1
  H  H12  1  0.584278  0.736853  0.131253  1
  H  H13  1  0.415722  0.263147  0.868747  1
  H  H14  1  0.069404  0.687004  0.151700  1
  H  H15  1  0.930596  0.312996  0.848300  1
  H  H16  1  0.958622  0.715512  0.086344  1
  H  H17  1  0.041378  0.284488  0.913656  1
  H  H18  1  0.670003  0.846397  0.349915  1
  H  H19  1  0.329997  0.153603  0.650085  1
  H  H20  1  0.805334  0.943341  0.302820  1
  H  H21  1  0.194666  0.056659  0.697180  1
  H  H22  1  0.099533  0.757667  0.339696  1
  H  H23  1  0.900467  0.242333  0.660304  1
  H  H24  1  0.986182  0.809741  0.392920  1
  H  H25  1  0.013818  0.190259  0.607080  1
  H  H26  1  0.702322  0.633999  0.445044  1
  H  H27  1  0.297678  0.366001  0.554956  1
  H  H28  1  0.627953  0.476447  0.410004  1
  H  H29  1  0.372047  0.523553  0.589996  1
  I  I30  1  0.034189  0.916624  0.859401  1
  I  I31  1  0.965811  0.083376  0.140599  1
  I  I32  1  0.737549  0.930444  0.855620  1
  I  I33  1  0.262451  0.069556  0.144380  1
  I  I34  1  0.417732  0.939880  0.856060  1
  I  I35  1  0.582268  0.060120  0.143940  1
  I  I36  1  0.312202  0.692969  0.976058  1
  I  I37  1  0.687798  0.307031  0.023942  1
  I  I38  1  0.204202  0.442985  0.070010  1
  I  I39  1  0.795798  0.557015  0.929990  1
  I  I40  1  0.219778  0.815480  0.568168  1
  I  I41  1  0.780222  0.184520  0.431832  1
  I  I42  1  0.519356  0.818439  0.572171  1
  I  I43  1  0.480644  0.181561  0.427829  1
  I  I44  1  0.866949  0.826838  0.573383  1
  I  I45  1  0.133051  0.173162  0.426617  1
  I  I46  1  0.755962  0.528771  0.643630  1
  I  I47  1  0.244038  0.471229  0.356370  1
  I  I48  1  0.651021  0.255529  0.709966  1
  I  I49  1  0.348979  0.744471  0.290034  1
  O  O50  1  0.551698  0.436626  0.226175  1
  O  O51  1  0.448302  0.563374  0.773825  1
  O  O52  1  0.877668  0.428681  0.245937  1
  O  O53  1  0.122332  0.571319  0.754063  1
  O  O54  1  0.664134  0.696352  0.128622  1
  O  O55  1  0.335866  0.303648  0.871378  1
  O  O56  1  0.969820  0.692552  0.145609  1
  O  O57  1  0.030180  0.307448  0.854391  1
  O  O58  1  0.753072  0.844755  0.314403  1
  O  O59  1  0.246928  0.155245  0.685597  1
  O  O60  1  0.995079  0.750736  0.342546  1
  O  O61  1  0.004921  0.249264  0.657454  1
  O  O62  1  0.675868  0.572454  0.391846  1
  O  O63  1  0.324132  0.427546  0.608154  1
