# generated using pymatgen
data_Li2MnF4
_symmetry_space_group_name_H-M   'P 1'
_cell_length_a   3.14699746
_cell_length_b   5.04970502
_cell_length_c   10.09876092
_cell_angle_alpha   90.00000000
_cell_angle_beta   90.00000000
_cell_angle_gamma   90.00000000
_symmetry_Int_Tables_number   1
_chemical_formula_structural   Li2MnF4
_chemical_formula_sum   'Li4 Mn2 F8'
_cell_volume   160.48353894
_cell_formula_units_Z   2
loop_
 _symmetry_equiv_pos_site_id
 _symmetry_equiv_pos_as_xyz
  1  'x, y, z'
loop_
 _atom_site_type_symbol
 _atom_site_label
 _atom_site_symmetry_multiplicity
 _atom_site_fract_x
 _atom_site_fract_y
 _atom_site_fract_z
 _atom_site_occupancy
  Li  Li0  1  0.500000  0.470332  0.208803  1
  Li  Li1  1  0.500000  0.029668  0.708803  1
  Li  Li2  1  0.500000  0.970332  0.291197  1
  Li  Li3  1  0.500000  0.529668  0.791197  1
  Mn  Mn4  1  0.000000  0.500000  0.500000  1
  Mn  Mn5  1  0.000000  0.000000  0.000000  1
  F  F6  1  0.000000  0.256929  0.673086  1
  F  F7  1  0.000000  0.756929  0.826914  1
  F  F8  1  0.500000  0.281684  0.401836  1
  F  F9  1  0.500000  0.781684  0.098164  1
  F  F10  1  0.500000  0.218316  0.901836  1
  F  F11  1  0.500000  0.718316  0.598164  1
  F  F12  1  0.000000  0.243071  0.173086  1
  F  F13  1  0.000000  0.743071  0.326914  1
