# generated using pymatgen
data_Li3Mn4(BO3)4
_symmetry_space_group_name_H-M   'P 1'
_cell_length_a   5.28839947
_cell_length_b   6.19252416
_cell_length_c   15.67794240
_cell_angle_alpha   79.17068544
_cell_angle_beta   87.44157982
_cell_angle_gamma   87.59347442
_symmetry_Int_Tables_number   1
_chemical_formula_structural   Li3Mn4(BO3)4
_chemical_formula_sum   'Li6 Mn8 B8 O24'
_cell_volume   503.48804344
_cell_formula_units_Z   2
loop_
 _symmetry_equiv_pos_site_id
 _symmetry_equiv_pos_as_xyz
  1  'x, y, z'
loop_
 _atom_site_type_symbol
 _atom_site_label
 _atom_site_symmetry_multiplicity
 _atom_site_fract_x
 _atom_site_fract_y
 _atom_site_fract_z
 _atom_site_occupancy
  Li  Li0  1  0.323822  0.618549  0.531812  1
  Li  Li1  1  0.162139  0.888794  0.228224  1
  Li  Li2  1  0.676178  0.381451  0.468188  1
  Li  Li3  1  0.680780  0.378296  0.970013  1
  Li  Li4  1  0.837861  0.111206  0.771776  1
  Li  Li5  1  0.319220  0.621704  0.029987  1
  Mn  Mn6  1  0.835372  0.836563  0.459667  1
  Mn  Mn7  1  0.164628  0.163437  0.540333  1
  Mn  Mn8  1  0.171541  0.166345  0.039900  1
  Mn  Mn9  1  0.661625  0.682478  0.282516  1
  Mn  Mn10  1  0.828459  0.833655  0.960100  1
  Mn  Mn11  1  0.328804  0.324787  0.217906  1
  Mn  Mn12  1  0.338375  0.317522  0.717484  1
  Mn  Mn13  1  0.671196  0.675213  0.782094  1
  B  B14  1  0.325956  0.967187  0.378172  1
  B  B15  1  0.175506  0.512984  0.374672  1
  B  B16  1  0.674044  0.032813  0.621828  1
  B  B17  1  0.674563  0.008640  0.123293  1
  B  B18  1  0.824086  0.502900  0.127272  1
  B  B19  1  0.824494  0.487016  0.625328  1
  B  B20  1  0.325437  0.991360  0.876707  1
  B  B21  1  0.175914  0.497100  0.872728  1
  O  O22  1  0.083840  0.447186  0.617064  1
  O  O23  1  0.226160  0.907347  0.463926  1
  O  O24  1  0.682453  0.586706  0.556708  1
  O  O25  1  0.773840  0.092653  0.536074  1
  O  O26  1  0.916160  0.552814  0.382936  1
  O  O27  1  0.574995  0.890778  0.362162  1
  O  O28  1  0.828608  0.892186  0.185590  1
  O  O29  1  0.317547  0.413294  0.443292  1
  O  O30  1  0.781174  0.091797  0.040696  1
  O  O31  1  0.294340  0.593234  0.293416  1
  O  O32  1  0.417756  0.047825  0.141101  1
  O  O33  1  0.321879  0.414789  0.943349  1
  O  O34  1  0.184880  0.081750  0.314112  1
  O  O35  1  0.080289  0.449953  0.116445  1
  O  O36  1  0.218826  0.908203  0.959304  1
  O  O37  1  0.703300  0.455609  0.210383  1
  O  O38  1  0.171392  0.107814  0.814410  1
  O  O39  1  0.678121  0.585211  0.056651  1
  O  O40  1  0.919711  0.550047  0.883555  1
  O  O41  1  0.582244  0.952175  0.858899  1
  O  O42  1  0.705660  0.406766  0.706584  1
  O  O43  1  0.815120  0.918250  0.685888  1
  O  O44  1  0.296700  0.544391  0.789617  1
  O  O45  1  0.425005  0.109222  0.637838  1
