# generated using pymatgen
data_Na5LiV6O18
_symmetry_space_group_name_H-M   'P 1'
_cell_length_a   8.09750029
_cell_length_b   10.34680074
_cell_length_c   11.18846097
_cell_angle_alpha   90.39141372
_cell_angle_beta   102.72343477
_cell_angle_gamma   110.46319018
_symmetry_Int_Tables_number   1
_chemical_formula_structural   Na5LiV6O18
_chemical_formula_sum   'Na10 Li2 V12 O36'
_cell_volume   853.07453945
_cell_formula_units_Z   2
loop_
 _symmetry_equiv_pos_site_id
 _symmetry_equiv_pos_as_xyz
  1  'x, y, z'
loop_
 _atom_site_type_symbol
 _atom_site_label
 _atom_site_symmetry_multiplicity
 _atom_site_fract_x
 _atom_site_fract_y
 _atom_site_fract_z
 _atom_site_occupancy
  Na  Na0  1  0.054840  0.944698  0.139496  1
  Na  Na1  1  0.153721  0.846371  0.442599  1
  Na  Na2  1  0.179904  0.820519  0.890924  1
  Na  Na3  1  0.387861  0.612604  0.472769  1
  Na  Na4  1  0.513086  0.487576  0.223028  1
  Na  Na5  1  0.611852  0.388092  0.526172  1
  Na  Na6  1  0.486699  0.513602  0.777285  1
  Na  Na7  1  0.820000  0.179564  0.109220  1
  Na  Na8  1  0.722336  0.277697  0.807666  1
  Na  Na9  1  0.846404  0.152531  0.557320  1
  Li  Li10  1  0.280067  0.719902  0.189829  1
  Li  Li11  1  0.946944  0.053215  0.856343  1
  V  V12  1  0.737319  0.841013  0.357607  1
  V  V13  1  0.823166  0.598736  0.021610  1
  V  V14  1  0.489596  0.931775  0.689049  1
  V  V15  1  0.847874  0.739084  0.648247  1
  V  V16  1  0.592067  0.824951  0.975629  1
  V  V17  1  0.928570  0.492967  0.306716  1
  V  V18  1  0.403559  0.174930  0.024376  1
  V  V19  1  0.073471  0.509050  0.692101  1
  V  V20  1  0.153369  0.264165  0.354495  1
  V  V21  1  0.180018  0.403083  0.980591  1
  V  V22  1  0.511801  0.066250  0.311599  1
  V  V23  1  0.256383  0.156800  0.643642  1
  O  O24  1  0.786783  0.963639  0.008863  1
  O  O25  1  0.876749  0.830380  0.271782  1
  O  O26  1  0.861334  0.841518  0.515819  1
  O  O27  1  0.880538  0.840575  0.774831  1
  O  O28  1  0.453606  0.831385  0.064936  1
  O  O29  1  0.313066  0.931638  0.285243  1
  O  O30  1  0.301606  0.995776  0.658882  1
  O  O31  1  0.457364  0.835588  0.560129  1
  O  O32  1  0.538695  0.706418  0.315139  1
  O  O33  1  0.467640  0.823315  0.817741  1
  O  O34  1  0.801510  0.489661  0.149479  1
  O  O35  1  0.791569  0.504484  0.394471  1
  O  O36  1  0.646765  0.607555  0.623698  1
  O  O37  1  0.028830  0.726197  0.050203  1
  O  O38  1  0.966641  0.328909  0.325024  1
  O  O39  1  0.635772  0.663286  0.991928  1
  O  O40  1  0.790708  0.502224  0.892758  1
  O  O41  1  0.879197  0.370888  0.652679  1
  O  O42  1  0.123675  0.631263  0.340741  1
  O  O43  1  0.210334  0.504482  0.106783  1
  O  O44  1  0.033642  0.672867  0.676174  1
  O  O45  1  0.368673  0.340440  0.009782  1
  O  O46  1  0.981684  0.267910  0.954225  1
  O  O47  1  0.355168  0.394855  0.378688  1
  O  O48  1  0.211959  0.498119  0.605546  1
  O  O49  1  0.196101  0.508359  0.849822  1
  O  O50  1  0.526811  0.174003  0.182260  1
  O  O51  1  0.450620  0.295231  0.681877  1
  O  O52  1  0.541138  0.162874  0.439910  1
  O  O53  1  0.702656  0.006077  0.341733  1
  O  O54  1  0.695045  0.059518  0.717105  1
  O  O55  1  0.543216  0.163804  0.938860  1
  O  O56  1  0.122508  0.167554  0.226100  1
  O  O57  1  0.135832  0.157581  0.484965  1
  O  O58  1  0.116370  0.162411  0.731718  1
  O  O59  1  0.205291  0.040038  0.981797  1
