# generated using pymatgen
data_Mn6PbO12
_symmetry_space_group_name_H-M   'P 1'
_cell_length_a   8.25476560
_cell_length_b   8.25476560
_cell_length_c   9.74888541
_cell_angle_alpha   54.67390710
_cell_angle_beta   125.32609290
_cell_angle_gamma   113.81802589
_symmetry_Int_Tables_number   1
_chemical_formula_structural   Mn6PbO12
_chemical_formula_sum   'Mn12 Pb2 O24'
_cell_volume   439.77641288
_cell_formula_units_Z   2
loop_
 _symmetry_equiv_pos_site_id
 _symmetry_equiv_pos_as_xyz
  1  'x, y, z'
loop_
 _atom_site_type_symbol
 _atom_site_label
 _atom_site_symmetry_multiplicity
 _atom_site_fract_x
 _atom_site_fract_y
 _atom_site_fract_z
 _atom_site_occupancy
  Mn  Mn0  1  0.670034  0.997606  0.684765  1
  Mn  Mn1  1  0.186775  0.481324  0.020191  1
  Mn  Mn2  1  0.854631  0.145369  0.026791  1
  Mn  Mn3  1  0.813225  0.518676  0.979809  1
  Mn  Mn4  1  0.329966  0.002394  0.315235  1
  Mn  Mn5  1  0.997606  0.670034  0.315235  1
  Mn  Mn6  1  0.333198  0.666802  0.681551  1
  Mn  Mn7  1  0.002394  0.329966  0.684765  1
  Mn  Mn8  1  0.518676  0.813225  0.020191  1
  Mn  Mn9  1  0.481324  0.186775  0.979809  1
  Mn  Mn10  1  0.145369  0.854631  0.973209  1
  Mn  Mn11  1  0.666802  0.333198  0.318449  1
  Pb  Pb12  1  0.270923  0.270923  0.500000  1
  Pb  Pb13  1  0.729077  0.729077  0.500000  1
  O  O14  1  0.705253  0.294747  0.556097  1
  O  O15  1  0.015805  0.326217  0.152651  1
  O  O16  1  0.673783  0.984195  0.152651  1
  O  O17  1  0.679595  0.986901  0.890222  1
  O  O18  1  0.013099  0.320405  0.890222  1
  O  O19  1  0.044080  0.955920  0.221932  1
  O  O20  1  0.710768  0.622815  0.224231  1
  O  O21  1  0.377185  0.289232  0.224231  1
  O  O22  1  0.986901  0.679595  0.109778  1
  O  O23  1  0.984195  0.673783  0.847349  1
  O  O24  1  0.030924  0.627616  0.554972  1
  O  O25  1  0.372384  0.969076  0.554972  1
  O  O26  1  0.294747  0.705253  0.443903  1
  O  O27  1  0.969076  0.372384  0.445028  1
  O  O28  1  0.339853  0.660147  0.142372  1
  O  O29  1  0.348061  0.651939  0.890438  1
  O  O30  1  0.289232  0.377185  0.775769  1
  O  O31  1  0.622815  0.710768  0.775769  1
  O  O32  1  0.955920  0.044080  0.778068  1
  O  O33  1  0.651939  0.348061  0.109562  1
  O  O34  1  0.320405  0.013099  0.109778  1
  O  O35  1  0.660147  0.339853  0.857628  1
  O  O36  1  0.326217  0.015805  0.847349  1
  O  O37  1  0.627616  0.030924  0.445028  1
