# generated using pymatgen
data_NaMn3O6
_symmetry_space_group_name_H-M   'P 1'
_cell_length_a   13.80370106
_cell_length_b   13.77825532
_cell_length_c   6.00747261
_cell_angle_alpha   77.65686049
_cell_angle_beta   77.18313814
_cell_angle_gamma   25.16000137
_symmetry_Int_Tables_number   1
_chemical_formula_structural   NaMn3O6
_chemical_formula_sum   'Na4 Mn12 O24'
_cell_volume   473.42414553
_cell_formula_units_Z   4
loop_
 _symmetry_equiv_pos_site_id
 _symmetry_equiv_pos_as_xyz
  1  'x, y, z'
loop_
 _atom_site_type_symbol
 _atom_site_label
 _atom_site_symmetry_multiplicity
 _atom_site_fract_x
 _atom_site_fract_y
 _atom_site_fract_z
 _atom_site_occupancy
  Na  Na0  1  0.833008  0.833008  0.166992  1
  Na  Na1  1  0.416992  0.416992  0.083008  1
  Na  Na2  1  0.083008  0.083008  0.416992  1
  Na  Na3  1  0.166992  0.166992  0.833008  1
  Mn  Mn4  1  0.467105  0.954762  0.281957  1
  Mn  Mn5  1  0.954762  0.467105  0.296176  1
  Mn  Mn6  1  0.281957  0.296176  0.467105  1
  Mn  Mn7  1  0.296176  0.281957  0.954762  1
  Mn  Mn8  1  0.625000  0.125000  0.625000  1
  Mn  Mn9  1  0.125000  0.625000  0.625000  1
  Mn  Mn10  1  0.968043  0.953824  0.782895  1
  Mn  Mn11  1  0.953824  0.968043  0.295238  1
  Mn  Mn12  1  0.295238  0.782895  0.953824  1
  Mn  Mn13  1  0.782895  0.295238  0.968043  1
  Mn  Mn14  1  0.625000  0.625000  0.625000  1
  Mn  Mn15  1  0.625000  0.625000  0.125000  1
  O  O16  1  0.211025  0.219169  0.490729  1
  O  O17  1  0.219169  0.211025  0.079077  1
  O  O18  1  0.490729  0.079077  0.211025  1
  O  O19  1  0.079077  0.490729  0.219169  1
  O  O20  1  0.498179  0.084395  0.696473  1
  O  O21  1  0.084395  0.498179  0.720953  1
  O  O22  1  0.350229  0.376339  0.412197  1
  O  O23  1  0.376339  0.350229  0.861235  1
  O  O24  1  0.873661  0.899771  0.388765  1
  O  O25  1  0.899771  0.873661  0.837803  1
  O  O26  1  0.751821  0.165605  0.553527  1
  O  O27  1  0.165605  0.751821  0.529047  1
  O  O28  1  0.170923  0.759271  0.030831  1
  O  O29  1  0.759271  0.170923  0.038975  1
  O  O30  1  0.038975  0.030831  0.759271  1
  O  O31  1  0.030831  0.038975  0.170923  1
  O  O32  1  0.529047  0.553527  0.165605  1
  O  O33  1  0.553527  0.529047  0.751821  1
  O  O34  1  0.388765  0.837803  0.873661  1
  O  O35  1  0.837803  0.388765  0.899771  1
  O  O36  1  0.412197  0.861235  0.350229  1
  O  O37  1  0.861235  0.412197  0.376339  1
  O  O38  1  0.720953  0.696473  0.084395  1
  O  O39  1  0.696473  0.720953  0.498179  1
