# generated using pymatgen
data_LiCu2(CO3)2
_symmetry_space_group_name_H-M   'P 1'
_cell_length_a   5.02693624
_cell_length_b   5.03109845
_cell_length_c   6.53184214
_cell_angle_alpha   68.51671961
_cell_angle_beta   68.25143091
_cell_angle_gamma   60.14252924
_symmetry_Int_Tables_number   1
_chemical_formula_structural   LiCu2(CO3)2
_chemical_formula_sum   'Li1 Cu2 C2 O6'
_cell_volume   129.63977475
_cell_formula_units_Z   1
loop_
 _symmetry_equiv_pos_site_id
 _symmetry_equiv_pos_as_xyz
  1  'x, y, z'
loop_
 _atom_site_type_symbol
 _atom_site_label
 _atom_site_symmetry_multiplicity
 _atom_site_fract_x
 _atom_site_fract_y
 _atom_site_fract_z
 _atom_site_occupancy
  Li  Li0  1  0.364477  0.059513  0.349927  1
  Cu  Cu1  1  0.251120  0.591261  0.772931  1
  Cu  Cu2  1  0.742849  0.423837  0.220683  1
  C  C3  1  0.926999  0.255737  0.745553  1
  C  C4  1  0.070903  0.743537  0.252567  1
  O  O5  1  0.672180  0.265197  0.733555  1
  O  O6  1  0.920271  0.469584  0.815559  1
  O  O7  1  0.196275  0.027588  0.683654  1
  O  O8  1  0.801924  0.982928  0.263293  1
  O  O9  1  0.108271  0.489138  0.212716  1
  O  O10  1  0.309262  0.751413  0.279048  1
