# generated using pymatgen
data_Li3Cr3(PO4)4
_symmetry_space_group_name_H-M   'P 1'
_cell_length_a   6.22551268
_cell_length_b   11.30197537
_cell_length_c   8.47123430
_cell_angle_alpha   90.00000000
_cell_angle_beta   101.64585684
_cell_angle_gamma   90.00000000
_symmetry_Int_Tables_number   1
_chemical_formula_structural   Li3Cr3(PO4)4
_chemical_formula_sum   'Li6 Cr6 P8 O32'
_cell_volume   583.77095138
_cell_formula_units_Z   2
loop_
 _symmetry_equiv_pos_site_id
 _symmetry_equiv_pos_as_xyz
  1  'x, y, z'
loop_
 _atom_site_type_symbol
 _atom_site_label
 _atom_site_symmetry_multiplicity
 _atom_site_fract_x
 _atom_site_fract_y
 _atom_site_fract_z
 _atom_site_occupancy
  Li  Li0  1  0.647276  0.610075  0.928826  1
  Li  Li1  1  0.142383  0.892184  0.939324  1
  Li  Li2  1  0.602154  0.302370  0.653370  1
  Li  Li3  1  0.397846  0.802370  0.346630  1
  Li  Li4  1  0.352724  0.110075  0.071174  1
  Li  Li5  1  0.857617  0.392184  0.060676  1
  Cr  Cr6  1  0.578306  0.914607  0.719085  1
  Cr  Cr7  1  0.099579  0.591143  0.725962  1
  Cr  Cr8  1  0.124213  0.185901  0.661531  1
  Cr  Cr9  1  0.875787  0.685901  0.338469  1
  Cr  Cr10  1  0.421694  0.414607  0.280915  1
  Cr  Cr11  1  0.900421  0.091143  0.274038  1
  P  P12  1  0.365449  0.373967  0.914700  1
  P  P13  1  0.869595  0.131467  0.900910  1
  P  P14  1  0.574270  0.586407  0.596038  1
  P  P15  1  0.040640  0.908944  0.601054  1
  P  P16  1  0.425730  0.086407  0.403962  1
  P  P17  1  0.959360  0.408944  0.398946  1
  P  P18  1  0.634551  0.873967  0.085300  1
  P  P19  1  0.130405  0.631467  0.099090  1
  O  O20  1  0.578947  0.438365  0.918007  1
  O  O21  1  0.650199  0.818158  0.920240  1
  O  O22  1  0.089877  0.068735  0.901142  1
  O  O23  1  0.148009  0.686043  0.933021  1
  O  O24  1  0.659588  0.056461  0.842507  1
  O  O25  1  0.359277  0.267854  0.796178  1
  O  O26  1  0.155212  0.448835  0.849784  1
  O  O27  1  0.393713  0.632507  0.683540  1
  O  O28  1  0.264090  0.912738  0.718726  1
  O  O29  1  0.874812  0.231282  0.774503  1
  O  O30  1  0.877214  0.879835  0.708058  1
  O  O31  1  0.784534  0.581415  0.730337  1
  O  O32  1  0.387314  0.176523  0.533584  1
  O  O33  1  0.510480  0.462545  0.518429  1
  O  O34  1  0.959871  0.307345  0.518872  1
  O  O35  1  0.489520  0.962545  0.481571  1
  O  O36  1  0.991157  0.034296  0.516270  1
  O  O37  1  0.612686  0.676523  0.466416  1
  O  O38  1  0.008843  0.534296  0.483730  1
  O  O39  1  0.040129  0.807345  0.481128  1
  O  O40  1  0.735910  0.412738  0.281274  1
  O  O41  1  0.606287  0.132507  0.316460  1
  O  O42  1  0.640723  0.767854  0.203822  1
  O  O43  1  0.215466  0.081415  0.269663  1
  O  O44  1  0.122786  0.379835  0.291942  1
  O  O45  1  0.340412  0.556461  0.157493  1
  O  O46  1  0.125188  0.731282  0.225497  1
  O  O47  1  0.844788  0.948835  0.150216  1
  O  O48  1  0.349801  0.318158  0.079760  1
  O  O49  1  0.421053  0.938365  0.081993  1
  O  O50  1  0.851991  0.186043  0.066979  1
  O  O51  1  0.910123  0.568735  0.098858  1
