# generated using pymatgen
data_Nb2PbO6
_symmetry_space_group_name_H-M   'P 1'
_cell_length_a   12.99899031
_cell_length_b   12.99899031
_cell_length_c   7.90381138
_cell_angle_alpha   90.00000000
_cell_angle_beta   90.00000000
_cell_angle_gamma   92.01018035
_symmetry_Int_Tables_number   1
_chemical_formula_structural   Nb2PbO6
_chemical_formula_sum   'Nb20 Pb10 O60'
_cell_volume   1334.71476464
_cell_formula_units_Z   10
loop_
 _symmetry_equiv_pos_site_id
 _symmetry_equiv_pos_as_xyz
  1  'x, y, z'
loop_
 _atom_site_type_symbol
 _atom_site_label
 _atom_site_symmetry_multiplicity
 _atom_site_fract_x
 _atom_site_fract_y
 _atom_site_fract_z
 _atom_site_occupancy
  Nb  Nb0  1  0.066658  0.295747  0.998423  1
  Nb  Nb1  1  0.066658  0.295747  0.501577  1
  Nb  Nb2  1  0.283958  0.084707  0.496032  1
  Nb  Nb3  1  0.283958  0.084707  0.003968  1
  Nb  Nb4  1  0.565306  0.214577  0.004015  1
  Nb  Nb5  1  0.565306  0.214577  0.495985  1
  Nb  Nb6  1  0.205736  0.582053  0.997652  1
  Nb  Nb7  1  0.205736  0.582053  0.502348  1
  Nb  Nb8  1  0.995652  0.004348  0.000000  1
  Nb  Nb9  1  0.496226  0.503774  1.000000  1
  Nb  Nb10  1  0.496226  0.503774  0.500000  1
  Nb  Nb11  1  0.995652  0.004348  0.500000  1
  Nb  Nb12  1  0.417947  0.794264  0.002348  1
  Nb  Nb13  1  0.417947  0.794264  0.497652  1
  Nb  Nb14  1  0.785423  0.434694  0.995985  1
  Nb  Nb15  1  0.785423  0.434694  0.504015  1
  Nb  Nb16  1  0.915293  0.716042  0.996032  1
  Nb  Nb17  1  0.915293  0.716042  0.503968  1
  Nb  Nb18  1  0.704253  0.933342  0.001577  1
  Nb  Nb19  1  0.704253  0.933342  0.498423  1
  Pb  Pb20  1  0.991961  0.517133  0.250000  1
  Pb  Pb21  1  0.279830  0.377409  0.250000  1
  Pb  Pb22  1  0.280875  0.376363  0.750000  1
  Pb  Pb23  1  0.145125  0.858756  0.750000  1
  Pb  Pb24  1  0.793624  0.211774  0.250000  1
  Pb  Pb25  1  0.788226  0.206376  0.750000  1
  Pb  Pb26  1  0.141244  0.854875  0.250000  1
  Pb  Pb27  1  0.623637  0.719125  0.250000  1
  Pb  Pb28  1  0.622591  0.720170  0.750000  1
  Pb  Pb29  1  0.482867  0.008039  0.750000  1
  O  O30  1  0.091046  0.292723  0.750000  1
  O  O31  1  0.091878  0.291866  0.250000  1
  O  O32  1  0.304467  0.066085  0.750000  1
  O  O33  1  0.297433  0.071368  0.250000  1
  O  O34  1  0.225162  0.211569  0.996188  1
  O  O35  1  0.225162  0.211569  0.503812  1
  O  O36  1  0.156075  0.424001  0.002560  1
  O  O37  1  0.156075  0.424001  0.497440  1
  O  O38  1  0.440791  0.130977  0.990987  1
  O  O39  1  0.440791  0.130977  0.509013  1
  O  O40  1  0.075951  0.632571  0.009131  1
  O  O41  1  0.075951  0.632571  0.490869  1
  O  O42  1  0.650939  0.062076  0.995716  1
  O  O43  1  0.650939  0.062076  0.504284  1
  O  O44  1  0.598142  0.201859  0.250000  1
  O  O45  1  0.596980  0.199364  0.750000  1
  O  O46  1  0.216931  0.557787  0.250000  1
  O  O47  1  0.216649  0.560353  0.750000  1
  O  O48  1  0.851949  0.990555  0.001137  1
  O  O49  1  0.851949  0.990555  0.498863  1
  O  O50  1  0.348679  0.490449  0.998838  1
  O  O51  1  0.348679  0.490449  0.501162  1
  O  O52  1  0.504624  0.339561  0.002321  1
  O  O53  1  0.504624  0.339561  0.497679  1
  O  O54  1  0.013381  0.835973  0.002488  1
  O  O55  1  0.013381  0.835973  0.497512  1
  O  O56  1  0.721740  0.278260  0.000000  1
  O  O57  1  0.287004  0.712996  0.000000  1
  O  O58  1  0.017215  0.984933  0.250000  1
  O  O59  1  0.721740  0.278260  0.500000  1
  O  O60  1  0.287004  0.712996  0.500000  1
  O  O61  1  0.015067  0.982785  0.750000  1
  O  O62  1  0.503380  0.497445  0.250000  1
  O  O63  1  0.502555  0.496620  0.750000  1
  O  O64  1  0.164027  0.986619  0.997512  1
  O  O65  1  0.164027  0.986619  0.502488  1
  O  O66  1  0.660439  0.495376  0.997679  1
  O  O67  1  0.660439  0.495376  0.502321  1
  O  O68  1  0.509551  0.651321  0.001162  1
  O  O69  1  0.509551  0.651321  0.498838  1
  O  O70  1  0.009445  0.148051  0.998863  1
  O  O71  1  0.009445  0.148051  0.501137  1
  O  O72  1  0.439647  0.783351  0.250000  1
  O  O73  1  0.442213  0.783069  0.750000  1
  O  O74  1  0.798141  0.401858  0.750000  1
  O  O75  1  0.800636  0.403020  0.250000  1
  O  O76  1  0.937924  0.349061  0.004284  1
  O  O77  1  0.937924  0.349061  0.495716  1
  O  O78  1  0.367429  0.924049  0.990869  1
  O  O79  1  0.367429  0.924049  0.509131  1
  O  O80  1  0.869023  0.559209  0.009013  1
  O  O81  1  0.869023  0.559209  0.490987  1
  O  O82  1  0.575999  0.843925  0.997440  1
  O  O83  1  0.575999  0.843925  0.502560  1
  O  O84  1  0.788431  0.774838  0.003812  1
  O  O85  1  0.788431  0.774838  0.496188  1
  O  O86  1  0.933915  0.695533  0.250000  1
  O  O87  1  0.928632  0.702567  0.750000  1
  O  O88  1  0.707277  0.908954  0.250000  1
  O  O89  1  0.708134  0.908122  0.750000  1
