# generated using pymatgen
data_MgZr3Tl10(MoO4)12
_symmetry_space_group_name_H-M   'P 1'
_cell_length_a   14.40761611
_cell_length_b   14.40761611
_cell_length_c   14.40761611
_cell_angle_alpha   44.30919832
_cell_angle_beta   44.30919832
_cell_angle_gamma   44.30919832
_symmetry_Int_Tables_number   1
_chemical_formula_structural   MgZr3Tl10(MoO4)12
_chemical_formula_sum   'Mg1 Zr3 Tl10 Mo12 O48'
_cell_volume   1326.30216514
_cell_formula_units_Z   1
loop_
 _symmetry_equiv_pos_site_id
 _symmetry_equiv_pos_as_xyz
  1  'x, y, z'
loop_
 _atom_site_type_symbol
 _atom_site_label
 _atom_site_symmetry_multiplicity
 _atom_site_fract_x
 _atom_site_fract_y
 _atom_site_fract_z
 _atom_site_occupancy
  Mg  Mg0  1  0.500000  0.500000  0.500000  1
  Zr  Zr1  1  0.000000  0.000000  0.000000  1
  Zr  Zr2  1  0.752413  0.752413  0.752413  1
  Zr  Zr3  1  0.247587  0.247587  0.247587  1
  Tl  Tl4  1  0.894565  0.894565  0.894565  1
  Tl  Tl5  1  0.603102  0.603102  0.603102  1
  Tl  Tl6  1  0.500000  0.118386  0.881614  1
  Tl  Tl7  1  0.118386  0.881614  0.500000  1
  Tl  Tl8  1  0.881614  0.500000  0.118386  1
  Tl  Tl9  1  0.396898  0.396898  0.396898  1
  Tl  Tl10  1  0.000000  0.388391  0.611609  1
  Tl  Tl11  1  0.611609  0.000000  0.388391  1
  Tl  Tl12  1  0.388391  0.611609  0.000000  1
  Tl  Tl13  1  0.105435  0.105435  0.105435  1
  Mo  Mo14  1  0.632209  0.230019  0.988824  1
  Mo  Mo15  1  0.230019  0.988824  0.632209  1
  Mo  Mo16  1  0.277727  0.510959  0.863184  1
  Mo  Mo17  1  0.988824  0.632209  0.230019  1
  Mo  Mo18  1  0.863184  0.277727  0.510959  1
  Mo  Mo19  1  0.510959  0.863184  0.277727  1
  Mo  Mo20  1  0.136816  0.489041  0.722273  1
  Mo  Mo21  1  0.722273  0.136816  0.489041  1
  Mo  Mo22  1  0.367791  0.011176  0.769981  1
  Mo  Mo23  1  0.489041  0.722273  0.136816  1
  Mo  Mo24  1  0.011176  0.769981  0.367791  1
  Mo  Mo25  1  0.769981  0.367791  0.011176  1
  O  O26  1  0.644987  0.749868  0.953704  1
  O  O27  1  0.953704  0.644987  0.749868  1
  O  O28  1  0.749868  0.953704  0.644987  1
  O  O29  1  0.749055  0.548924  0.854849  1
  O  O30  1  0.929539  0.215866  0.948897  1
  O  O31  1  0.215866  0.948897  0.929539  1
  O  O32  1  0.548924  0.854849  0.749055  1
  O  O33  1  0.854849  0.749055  0.548924  1
  O  O34  1  0.654863  0.394255  0.867127  1
  O  O35  1  0.948897  0.929539  0.215866  1
  O  O36  1  0.394255  0.867127  0.654863  1
  O  O37  1  0.322938  0.597612  0.862354  1
  O  O38  1  0.637650  0.186567  0.898343  1
  O  O39  1  0.867127  0.654863  0.394255  1
  O  O40  1  0.862354  0.322938  0.597612  1
  O  O41  1  0.186567  0.898343  0.637650  1
  O  O42  1  0.112211  0.636291  0.840363  1
  O  O43  1  0.597612  0.862354  0.322938  1
  O  O44  1  0.427492  0.451157  0.717506  1
  O  O45  1  0.840363  0.112211  0.636291  1
  O  O46  1  0.898343  0.637650  0.186567  1
  O  O47  1  0.717506  0.427492  0.451157  1
  O  O48  1  0.159637  0.363709  0.887789  1
  O  O49  1  0.451157  0.717506  0.427492  1
  O  O50  1  0.282494  0.548843  0.572508  1
  O  O51  1  0.636291  0.840363  0.112211  1
  O  O52  1  0.572508  0.282494  0.548843  1
  O  O53  1  0.362350  0.101657  0.813433  1
  O  O54  1  0.887789  0.159637  0.363709  1
  O  O55  1  0.548843  0.572508  0.282494  1
  O  O56  1  0.137646  0.402388  0.677062  1
  O  O57  1  0.363709  0.887789  0.159637  1
  O  O58  1  0.101657  0.813433  0.362350  1
  O  O59  1  0.677062  0.137646  0.402388  1
  O  O60  1  0.345137  0.132873  0.605745  1
  O  O61  1  0.813433  0.362350  0.101657  1
  O  O62  1  0.402388  0.677062  0.137646  1
  O  O63  1  0.132873  0.605745  0.345137  1
  O  O64  1  0.070461  0.051103  0.784134  1
  O  O65  1  0.605745  0.345137  0.132873  1
  O  O66  1  0.250945  0.145151  0.451076  1
  O  O67  1  0.145151  0.451076  0.250945  1
  O  O68  1  0.051103  0.784134  0.070461  1
  O  O69  1  0.784134  0.070461  0.051103  1
  O  O70  1  0.451076  0.250945  0.145151  1
  O  O71  1  0.046296  0.250132  0.355013  1
  O  O72  1  0.355013  0.046296  0.250132  1
  O  O73  1  0.250132  0.355013  0.046296  1
