# generated using pymatgen
data_Ca2CrO8
_symmetry_space_group_name_H-M   'P 1'
_cell_length_a   5.72120211
_cell_length_b   5.72120211
_cell_length_c   4.85847364
_cell_angle_alpha   81.60624064
_cell_angle_beta   98.39375936
_cell_angle_gamma   96.05026957
_symmetry_Int_Tables_number   1
_chemical_formula_structural   Ca2CrO8
_chemical_formula_sum   'Ca2 Cr1 O8'
_cell_volume   155.06401482
_cell_formula_units_Z   1
loop_
 _symmetry_equiv_pos_site_id
 _symmetry_equiv_pos_as_xyz
  1  'x, y, z'
loop_
 _atom_site_type_symbol
 _atom_site_label
 _atom_site_symmetry_multiplicity
 _atom_site_fract_x
 _atom_site_fract_y
 _atom_site_fract_z
 _atom_site_occupancy
  Ca  Ca0  1  0.439106  0.054362  0.080951  1
  Ca  Ca1  1  0.945638  0.560894  0.080951  1
  Cr  Cr2  1  0.837589  0.162411  0.687638  1
  O  O3  1  0.748296  0.892825  0.828524  1
  O  O4  1  0.107175  0.251704  0.828524  1
  O  O5  1  0.812476  0.187524  0.337156  1
  O  O6  1  0.658345  0.341655  0.777068  1
  O  O7  1  0.199146  0.800854  0.712548  1
  O  O8  1  0.539459  0.635974  0.219710  1
  O  O9  1  0.364026  0.460541  0.219710  1
  O  O10  1  0.168145  0.831855  0.431722  1
