# generated using pymatgen
data_Li2AgF4
_symmetry_space_group_name_H-M   'P 1'
_cell_length_a   5.32194535
_cell_length_b   3.15889772
_cell_length_c   11.15185605
_cell_angle_alpha   90.00000000
_cell_angle_beta   111.80499437
_cell_angle_gamma   90.00000000
_symmetry_Int_Tables_number   1
_chemical_formula_structural   Li2AgF4
_chemical_formula_sum   'Li4 Ag2 F8'
_cell_volume   174.06572586
_cell_formula_units_Z   2
loop_
 _symmetry_equiv_pos_site_id
 _symmetry_equiv_pos_as_xyz
  1  'x, y, z'
loop_
 _atom_site_type_symbol
 _atom_site_label
 _atom_site_symmetry_multiplicity
 _atom_site_fract_x
 _atom_site_fract_y
 _atom_site_fract_z
 _atom_site_occupancy
  Li  Li0  1  0.178768  0.156283  0.442732  1
  Li  Li1  1  0.821232  0.156283  0.057268  1
  Li  Li2  1  0.178768  0.843717  0.942732  1
  Li  Li3  1  0.821232  0.843717  0.557268  1
  Ag  Ag4  1  0.500000  0.348660  0.750000  1
  Ag  Ag5  1  0.500000  0.651340  0.250000  1
  F  F6  1  0.289422  0.658961  0.375747  1
  F  F7  1  0.791835  0.851467  0.895601  1
  F  F8  1  0.710578  0.658961  0.124253  1
  F  F9  1  0.208165  0.851467  0.604399  1
  F  F10  1  0.791835  0.148533  0.395601  1
  F  F11  1  0.289422  0.341039  0.875747  1
  F  F12  1  0.208165  0.148533  0.104399  1
  F  F13  1  0.710578  0.341039  0.624253  1
