# generated using pymatgen
data_Sr7Bi23O40
_symmetry_space_group_name_H-M   'P 1'
_cell_length_a   14.09425398
_cell_length_b   14.09425398
_cell_length_c   6.92548462
_cell_angle_alpha   85.25387718
_cell_angle_beta   94.74612282
_cell_angle_gamma   89.11330354
_symmetry_Int_Tables_number   1
_chemical_formula_structural   Sr7Bi23O40
_chemical_formula_sum   'Sr7 Bi23 O40'
_cell_volume   1365.97018816
_cell_formula_units_Z   1
loop_
 _symmetry_equiv_pos_site_id
 _symmetry_equiv_pos_as_xyz
  1  'x, y, z'
loop_
 _atom_site_type_symbol
 _atom_site_label
 _atom_site_symmetry_multiplicity
 _atom_site_fract_x
 _atom_site_fract_y
 _atom_site_fract_z
 _atom_site_occupancy
  Sr  Sr0  1  0.701721  0.701721  0.000000  1
  Sr  Sr1  1  0.298279  0.298279  0.000000  1
  Sr  Sr2  1  0.599505  0.599505  0.500000  1
  Sr  Sr3  1  0.901136  0.901136  0.000000  1
  Sr  Sr4  1  0.098864  0.098864  0.000000  1
  Sr  Sr5  1  0.400495  0.400495  0.500000  1
  Sr  Sr6  1  0.000000  0.000000  0.500000  1
  Bi  Bi7  1  0.500000  0.500000  0.000000  1
  Bi  Bi8  1  0.534514  0.855023  0.619684  1
  Bi  Bi9  1  0.159017  0.840983  0.873448  1
  Bi  Bi10  1  0.800136  0.800136  0.500000  1
  Bi  Bi11  1  0.761605  0.440946  0.893763  1
  Bi  Bi12  1  0.965728  0.643141  0.881265  1
  Bi  Bi13  1  0.855023  0.534514  0.380316  1
  Bi  Bi14  1  0.337276  0.662724  0.620701  1
  Bi  Bi15  1  0.559054  0.238395  0.893763  1
  Bi  Bi16  1  0.144977  0.465486  0.619684  1
  Bi  Bi17  1  0.356859  0.034272  0.881265  1
  Bi  Bi18  1  0.735754  0.059928  0.601327  1
  Bi  Bi19  1  0.440946  0.761605  0.106237  1
  Bi  Bi20  1  0.059928  0.735754  0.398673  1
  Bi  Bi21  1  0.662724  0.337276  0.379299  1
  Bi  Bi22  1  0.238395  0.559054  0.106237  1
  Bi  Bi23  1  0.840983  0.159017  0.126552  1
  Bi  Bi24  1  0.199864  0.199864  0.500000  1
  Bi  Bi25  1  0.465486  0.144977  0.380316  1
  Bi  Bi26  1  0.940072  0.264246  0.601327  1
  Bi  Bi27  1  0.034272  0.356859  0.118735  1
  Bi  Bi28  1  0.264246  0.940072  0.398673  1
  Bi  Bi29  1  0.643141  0.965728  0.118735  1
  O  O30  1  0.557587  0.859633  0.959303  1
  O  O31  1  0.860377  0.749594  0.828741  1
  O  O32  1  0.649847  0.541346  0.866445  1
  O  O33  1  0.337038  0.662962  0.965053  1
  O  O34  1  0.646381  0.755301  0.643739  1
  O  O35  1  0.439686  0.748549  0.432458  1
  O  O36  1  0.748549  0.439686  0.567542  1
  O  O37  1  0.140367  0.442413  0.959303  1
  O  O38  1  0.145729  0.854271  0.510547  1
  O  O39  1  0.443468  0.556532  0.671469  1
  O  O40  1  0.458654  0.350153  0.866445  1
  O  O41  1  0.749575  0.062719  0.925868  1
  O  O42  1  0.749594  0.860377  0.171259  1
  O  O43  1  0.755301  0.646381  0.356261  1
  O  O44  1  0.244699  0.353619  0.643739  1
  O  O45  1  0.541346  0.649847  0.133555  1
  O  O46  1  0.937281  0.250425  0.925868  1
  O  O47  1  0.832614  0.944290  0.629088  1
  O  O48  1  0.556532  0.443468  0.328531  1
  O  O49  1  0.854271  0.145729  0.489453  1
  O  O50  1  0.250406  0.139623  0.828741  1
  O  O51  1  0.944290  0.832614  0.370912  1
  O  O52  1  0.560314  0.251451  0.567542  1
  O  O53  1  0.251451  0.560314  0.432458  1
  O  O54  1  0.859633  0.557587  0.040697  1
  O  O55  1  0.956118  0.618225  0.555087  1
  O  O56  1  0.055710  0.167386  0.629088  1
  O  O57  1  0.381775  0.043882  0.555087  1
  O  O58  1  0.043882  0.381775  0.444913  1
  O  O59  1  0.662962  0.337038  0.034947  1
  O  O60  1  0.353619  0.244699  0.356261  1
  O  O61  1  0.618225  0.956118  0.444913  1
  O  O62  1  0.350153  0.458654  0.133555  1
  O  O63  1  0.053636  0.946364  0.845962  1
  O  O64  1  0.062719  0.749575  0.074132  1
  O  O65  1  0.139623  0.250406  0.171259  1
  O  O66  1  0.167386  0.055710  0.370912  1
  O  O67  1  0.442413  0.140367  0.040697  1
  O  O68  1  0.250425  0.937281  0.074132  1
  O  O69  1  0.946364  0.053636  0.154038  1
