# generated using pymatgen
data_SrV2P2(H4O7)2
_symmetry_space_group_name_H-M   'P 1'
_cell_length_a   6.43782075
_cell_length_b   6.43782075
_cell_length_c   13.13046351
_cell_angle_alpha   82.54071121
_cell_angle_beta   97.45928879
_cell_angle_gamma   89.96486644
_symmetry_Int_Tables_number   1
_chemical_formula_structural   SrV2P2(H4O7)2
_chemical_formula_sum   'Sr2 V4 P4 H16 O28'
_cell_volume   534.94290024
_cell_formula_units_Z   2
loop_
 _symmetry_equiv_pos_site_id
 _symmetry_equiv_pos_as_xyz
  1  'x, y, z'
loop_
 _atom_site_type_symbol
 _atom_site_label
 _atom_site_symmetry_multiplicity
 _atom_site_fract_x
 _atom_site_fract_y
 _atom_site_fract_z
 _atom_site_occupancy
  Sr  Sr0  1  0.455424  0.932089  0.220845  1
  Sr  Sr1  1  0.067911  0.544576  0.720845  1
  V  V2  1  0.247349  0.973527  0.518765  1
  V  V3  1  0.026473  0.752651  0.018765  1
  V  V4  1  0.737262  0.502383  0.434602  1
  V  V5  1  0.497617  0.262738  0.934602  1
  P  P6  1  0.733662  0.988704  0.474858  1
  P  P7  1  0.011296  0.266338  0.974858  1
  P  P8  1  0.240765  0.488075  0.476736  1
  P  P9  1  0.511925  0.759235  0.976736  1
  H  H10  1  0.361469  0.930150  0.767835  1
  H  H11  1  0.069850  0.638531  0.267835  1
  H  H12  1  0.137034  0.009764  0.717863  1
  H  H13  1  0.990236  0.862966  0.217863  1
  H  H14  1  0.713026  0.597371  0.167744  1
  H  H15  1  0.402629  0.286974  0.667744  1
  H  H16  1  0.709751  0.380002  0.236326  1
  H  H17  1  0.619998  0.290249  0.736326  1
  H  H18  1  0.927829  0.162585  0.169720  1
  H  H19  1  0.837415  0.072171  0.669720  1
  H  H20  1  0.926057  0.114164  0.291503  1
  H  H21  1  0.885836  0.073943  0.791503  1
  H  H22  1  0.309559  0.311133  0.305691  1
  H  H23  1  0.688867  0.690441  0.805691  1
  H  H24  1  0.373040  0.400163  0.199425  1
  H  H25  1  0.599837  0.626960  0.699425  1
  O  O26  1  0.215126  0.000279  0.391177  1
  O  O27  1  0.999721  0.784874  0.891177  1
  O  O28  1  0.559472  0.980356  0.545540  1
  O  O29  1  0.019644  0.440528  0.045540  1
  O  O30  1  0.943654  0.950631  0.547512  1
  O  O31  1  0.049369  0.056346  0.047512  1
  O  O32  1  0.257101  0.655417  0.552805  1
  O  O33  1  0.344583  0.742899  0.052805  1
  O  O34  1  0.246236  0.276382  0.550287  1
  O  O35  1  0.723618  0.753764  0.050287  1
  O  O36  1  0.792720  0.483189  0.560959  1
  O  O37  1  0.516811  0.207280  0.060959  1
  O  O38  1  0.732082  0.203378  0.405035  1
  O  O39  1  0.796622  0.267918  0.905035  1
  O  O40  1  0.036246  0.514526  0.398753  1
  O  O41  1  0.485474  0.963754  0.898753  1
  O  O42  1  0.420515  0.501406  0.408805  1
  O  O43  1  0.498594  0.579485  0.908805  1
  O  O44  1  0.702544  0.821652  0.397389  1
  O  O45  1  0.178348  0.297456  0.897389  1
  O  O46  1  0.252355  0.913689  0.708532  1
  O  O47  1  0.086311  0.747645  0.208532  1
  O  O48  1  0.671363  0.528599  0.234802  1
  O  O49  1  0.471401  0.328637  0.734802  1
  O  O50  1  0.847031  0.097370  0.223827  1
  O  O51  1  0.902630  0.152969  0.723827  1
  O  O52  1  0.298882  0.283551  0.233597  1
  O  O53  1  0.716449  0.701118  0.733597  1
