# generated using pymatgen
data_Li2TiNi2O5
_symmetry_space_group_name_H-M   'P 1'
_cell_length_a   7.83726207
_cell_length_b   7.83726207
_cell_length_c   5.07763274
_cell_angle_alpha   84.11403261
_cell_angle_beta   95.88596739
_cell_angle_gamma   37.39544690
_symmetry_Int_Tables_number   1
_chemical_formula_structural   Li2TiNi2O5
_chemical_formula_sum   'Li4 Ti2 Ni4 O10'
_cell_volume   179.45716854
_cell_formula_units_Z   2
loop_
 _symmetry_equiv_pos_site_id
 _symmetry_equiv_pos_as_xyz
  1  'x, y, z'
loop_
 _atom_site_type_symbol
 _atom_site_label
 _atom_site_symmetry_multiplicity
 _atom_site_fract_x
 _atom_site_fract_y
 _atom_site_fract_z
 _atom_site_occupancy
  Li  Li0  1  0.552213  0.552213  0.750000  1
  Li  Li1  1  0.749211  0.749211  0.750000  1
  Li  Li2  1  0.250789  0.250789  0.250000  1
  Li  Li3  1  0.447787  0.447787  0.250000  1
  Ti  Ti4  1  0.353178  0.353178  0.750000  1
  Ti  Ti5  1  0.646822  0.646822  0.250000  1
  Ni  Ni6  1  0.951069  0.951069  0.750000  1
  Ni  Ni7  1  0.151832  0.151832  0.750000  1
  Ni  Ni8  1  0.848168  0.848168  0.250000  1
  Ni  Ni9  1  0.048931  0.048931  0.250000  1
  O  O10  1  0.500000  1.000000  0.000000  1
  O  O11  1  0.309681  0.802332  0.006878  1
  O  O12  1  0.112600  0.590672  0.984178  1
  O  O13  1  0.590672  0.112600  0.515822  1
  O  O14  1  0.690319  0.197668  0.993122  1
  O  O15  1  0.887400  0.409328  0.015822  1
  O  O16  1  1.000000  0.500000  0.500000  1
  O  O17  1  0.409328  0.887400  0.484178  1
  O  O18  1  0.197668  0.690319  0.506878  1
  O  O19  1  0.802332  0.309681  0.493122  1
