# generated using pymatgen
data_MnOF
_symmetry_space_group_name_H-M   'P 1'
_cell_length_a   5.65633393
_cell_length_b   6.93583467
_cell_length_c   7.08282461
_cell_angle_alpha   93.47548471
_cell_angle_beta   91.91863599
_cell_angle_gamma   90.98920020
_symmetry_Int_Tables_number   1
_chemical_formula_structural   MnOF
_chemical_formula_sum   'Mn8 O8 F8'
_cell_volume   277.15071606
_cell_formula_units_Z   8
loop_
 _symmetry_equiv_pos_site_id
 _symmetry_equiv_pos_as_xyz
  1  'x, y, z'
loop_
 _atom_site_type_symbol
 _atom_site_label
 _atom_site_symmetry_multiplicity
 _atom_site_fract_x
 _atom_site_fract_y
 _atom_site_fract_z
 _atom_site_occupancy
  Mn  Mn0  1  0.463204  0.751267  0.251011  1
  Mn  Mn1  1  0.506023  0.751195  0.751433  1
  Mn  Mn2  1  0.564310  0.245322  0.262063  1
  Mn  Mn3  1  0.401270  0.253937  0.757040  1
  Mn  Mn4  1  0.118731  0.498509  0.486911  1
  Mn  Mn5  1  0.855946  0.500011  0.993722  1
  Mn  Mn6  1  0.927101  0.999015  0.509223  1
  Mn  Mn7  1  0.137677  0.002035  0.994757  1
  O  O8  1  0.175314  0.030340  0.729856  1
  O  O9  1  0.368863  0.693297  0.502436  1
  O  O10  1  0.373198  0.197946  0.024704  1
  O  O11  1  0.345536  0.300197  0.489677  1
  O  O12  1  0.379521  0.808850  0.996219  1
  O  O13  1  0.629979  0.987334  0.323246  1
  O  O14  1  0.629105  0.507922  0.191214  1
  O  O15  1  0.603432  0.489667  0.802001  1
  F  F16  1  0.096809  0.465264  0.792254  1
  F  F17  1  0.111881  0.540811  0.192977  1
  F  F18  1  0.130969  0.964232  0.269545  1
  F  F19  1  0.653428  0.016408  0.709735  1
  F  F20  1  0.889038  0.800003  0.954271  1
  F  F21  1  0.863022  0.295762  0.456593  1
  F  F22  1  0.885578  0.701961  0.528185  1
  F  F23  1  0.890066  0.198713  0.030931  1
