# generated using pymatgen
data_LiZr2(PO4)3
_symmetry_space_group_name_H-M   'P 1'
_cell_length_a   8.84141583
_cell_length_b   8.92477089
_cell_length_c   9.20023736
_cell_angle_alpha   61.02186348
_cell_angle_beta   61.38771578
_cell_angle_gamma   60.94682534
_symmetry_Int_Tables_number   1
_chemical_formula_structural   LiZr2(PO4)3
_chemical_formula_sum   'Li2 Zr4 P6 O24'
_cell_volume   526.24623440
_cell_formula_units_Z   2
loop_
 _symmetry_equiv_pos_site_id
 _symmetry_equiv_pos_as_xyz
  1  'x, y, z'
loop_
 _atom_site_type_symbol
 _atom_site_label
 _atom_site_symmetry_multiplicity
 _atom_site_fract_x
 _atom_site_fract_y
 _atom_site_fract_z
 _atom_site_occupancy
  Li  Li0  1  0.860186  0.619062  0.517330  1
  Li  Li1  1  0.596118  0.790719  0.742989  1
  Zr  Zr2  1  0.133897  0.644131  0.070337  1
  Zr  Zr3  1  0.636510  0.160288  0.565069  1
  Zr  Zr4  1  0.353637  0.862518  0.427465  1
  Zr  Zr5  1  0.862680  0.351518  0.940089  1
  P  P6  1  0.044210  0.251894  0.241627  1
  P  P7  1  0.239369  0.046916  0.740604  1
  P  P8  1  0.463815  0.530226  0.251507  1
  P  P9  1  0.534001  0.484809  0.745072  1
  P  P10  1  0.747373  0.953472  0.270116  1
  P  P11  1  0.950789  0.755445  0.752872  1
  O  O12  1  0.032191  0.304683  0.060055  1
  O  O13  1  0.195346  0.066435  0.274499  1
  O  O14  1  0.085283  0.399224  0.244036  1
  O  O15  1  0.264628  0.032185  0.570410  1
  O  O16  1  0.085452  0.223611  0.765491  1
  O  O17  1  0.422617  0.041141  0.733493  1
  O  O18  1  0.804269  0.116202  0.119344  1
  O  O19  1  0.287431  0.593854  0.212845  1
  O  O20  1  0.484186  0.343522  0.398160  1
  O  O21  1  0.629765  0.512283  0.083778  1
  O  O22  1  0.134174  0.763927  0.607524  1
  O  O23  1  0.455512  0.670107  0.310174  1
  O  O24  1  0.543810  0.346121  0.684855  1
  O  O25  1  0.860091  0.237012  0.385179  1
  O  O26  1  0.369758  0.503780  0.909911  1
  O  O27  1  0.526488  0.674185  0.599758  1
  O  O28  1  0.716095  0.423643  0.776018  1
  O  O29  1  0.195667  0.881005  0.898919  1
  O  O30  1  0.575151  0.956802  0.263951  1
  O  O31  1  0.901865  0.769083  0.256284  1
  O  O32  1  0.717582  0.952896  0.451474  1
  O  O33  1  0.890195  0.618906  0.747145  1
  O  O34  1  0.793743  0.939277  0.722850  1
  O  O35  1  0.968768  0.697108  0.932432  1
