# generated using pymatgen
data_LiV2OF5
_symmetry_space_group_name_H-M   'P 1'
_cell_length_a   5.16717275
_cell_length_b   5.49264128
_cell_length_c   11.90728429
_cell_angle_alpha   98.54545776
_cell_angle_beta   102.47850580
_cell_angle_gamma   90.56895287
_symmetry_Int_Tables_number   1
_chemical_formula_structural   LiV2OF5
_chemical_formula_sum   'Li3 V6 O3 F15'
_cell_volume   325.98991592
_cell_formula_units_Z   3
loop_
 _symmetry_equiv_pos_site_id
 _symmetry_equiv_pos_as_xyz
  1  'x, y, z'
loop_
 _atom_site_type_symbol
 _atom_site_label
 _atom_site_symmetry_multiplicity
 _atom_site_fract_x
 _atom_site_fract_y
 _atom_site_fract_z
 _atom_site_occupancy
  Li  Li0  1  0.409142  0.988491  0.848442  1
  Li  Li1  1  0.734547  0.195952  0.483446  1
  Li  Li2  1  0.605679  0.159808  0.183193  1
  V  V3  1  0.321216  0.322561  0.668718  1
  V  V4  1  0.183684  0.177727  0.334733  1
  V  V5  1  0.654927  0.652064  0.336063  1
  V  V6  1  0.849814  0.840418  0.669315  1
  V  V7  1  0.515456  0.490438  0.001223  1
  V  V8  1  0.982795  0.012786  0.002478  1
  O  O9  1  0.156583  0.048145  0.704340  1
  O  O10  1  0.498819  0.370074  0.369058  1
  O  O11  1  0.707314  0.210928  0.037050  1
  F  F12  1  0.180690  0.269186  0.952057  1
  F  F13  1  0.050740  0.553336  0.711439  1
  F  F14  1  0.293415  0.794273  0.958676  1
  F  F15  1  0.106734  0.261261  0.498299  1
  F  F16  1  0.228411  0.081560  0.166989  1
  F  F17  1  0.535727  0.408453  0.834140  1
  F  F18  1  0.520828  0.610896  0.630966  1
  F  F19  1  0.381936  0.889969  0.380219  1
  F  F20  1  0.620236  0.118929  0.618029  1
  F  F21  1  0.470291  0.580924  0.167021  1
  F  F22  1  0.770049  0.915319  0.833679  1
  F  F23  1  0.866130  0.763160  0.495684  1
  F  F24  1  0.827493  0.965150  0.295357  1
  F  F25  1  0.835435  0.721231  0.046238  1
  F  F26  1  0.936946  0.431926  0.283757  1
