# generated using pymatgen
data_NaNb14O36
_symmetry_space_group_name_H-M   'P 1'
_cell_length_a   15.33090188
_cell_length_b   15.33090188
_cell_length_c   15.33090188
_cell_angle_alpha   165.44584542
_cell_angle_beta   123.52014565
_cell_angle_gamma   58.65830969
_symmetry_Int_Tables_number   1
_chemical_formula_structural   NaNb14O36
_chemical_formula_sum   'Na1 Nb14 O36'
_cell_volume   753.12754471
_cell_formula_units_Z   1
loop_
 _symmetry_equiv_pos_site_id
 _symmetry_equiv_pos_as_xyz
  1  'x, y, z'
loop_
 _atom_site_type_symbol
 _atom_site_label
 _atom_site_symmetry_multiplicity
 _atom_site_fract_x
 _atom_site_fract_y
 _atom_site_fract_z
 _atom_site_occupancy
  Na  Na0  1  0.000000  0.000000  0.000000  1
  Nb  Nb1  1  0.778326  0.397997  0.380330  1
  Nb  Nb2  1  0.982333  0.602003  0.380330  1
  Nb  Nb3  1  0.017667  0.397997  0.619670  1
  Nb  Nb4  1  0.221674  0.602003  0.619670  1
  Nb  Nb5  1  0.487355  0.292908  0.194447  1
  Nb  Nb6  1  0.901540  0.707093  0.194447  1
  Nb  Nb7  1  0.098460  0.292908  0.805553  1
  Nb  Nb8  1  0.512645  0.707093  0.805553  1
  Nb  Nb9  1  0.682915  0.500000  0.182915  1
  Nb  Nb10  1  0.317085  0.500000  0.817085  1
  Nb  Nb11  1  0.811796  0.811796  0.000000  1
  Nb  Nb12  1  0.188204  0.188204  0.000000  1
  Nb  Nb13  1  0.605570  0.605570  0.000000  1
  Nb  Nb14  1  0.394430  0.394430  0.000000  1
  O  O15  1  0.747100  0.448761  0.298340  1
  O  O16  1  0.849579  0.551239  0.298340  1
  O  O17  1  0.150421  0.448761  0.701660  1
  O  O18  1  0.252900  0.551239  0.701660  1
  O  O19  1  0.543387  0.444806  0.098581  1
  O  O20  1  0.653775  0.555194  0.098581  1
  O  O21  1  0.346225  0.444806  0.901419  1
  O  O22  1  0.456613  0.555194  0.901419  1
  O  O23  1  0.632363  0.339672  0.292691  1
  O  O24  1  0.953019  0.660328  0.292691  1
  O  O25  1  0.046981  0.339672  0.707309  1
  O  O26  1  0.367637  0.660328  0.707309  1
  O  O27  1  0.436304  0.337718  0.098585  1
  O  O28  1  0.760867  0.662282  0.098585  1
  O  O29  1  0.239133  0.337718  0.901415  1
  O  O30  1  0.563696  0.662282  0.901415  1
  O  O31  1  0.327897  0.231528  0.096369  1
  O  O32  1  0.864842  0.768472  0.096369  1
  O  O33  1  0.135158  0.231528  0.903631  1
  O  O34  1  0.672103  0.768472  0.903631  1
  O  O35  1  0.785234  0.882878  0.902356  1
  O  O36  1  0.019479  0.117122  0.902356  1
  O  O37  1  0.980521  0.882878  0.097644  1
  O  O38  1  0.214766  0.117122  0.097644  1
  O  O39  1  0.482055  0.774239  0.707816  1
  O  O40  1  0.933576  0.225761  0.707816  1
  O  O41  1  0.066424  0.774239  0.292184  1
  O  O42  1  0.517945  0.225761  0.292184  1
  O  O43  1  0.937910  0.437910  0.500000  1
  O  O44  1  0.062090  0.562090  0.500000  1
  O  O45  1  0.835855  0.335855  0.500000  1
  O  O46  1  0.164145  0.664145  0.500000  1
  O  O47  1  0.614081  0.114081  0.500000  1
  O  O48  1  0.385919  0.885919  0.500000  1
  O  O49  1  0.701748  0.000000  0.701748  1
  O  O50  1  0.298252  0.000000  0.298252  1
