# generated using pymatgen
data_Li2BiO3
_symmetry_space_group_name_H-M   'P 1'
_cell_length_a   5.44275751
_cell_length_b   5.44275751
_cell_length_c   3.46386968
_cell_angle_alpha   90.00000000
_cell_angle_beta   90.00000000
_cell_angle_gamma   131.84317545
_symmetry_Int_Tables_number   1
_chemical_formula_structural   Li2BiO3
_chemical_formula_sum   'Li2 Bi1 O3'
_cell_volume   76.44346292
_cell_formula_units_Z   1
loop_
 _symmetry_equiv_pos_site_id
 _symmetry_equiv_pos_as_xyz
  1  'x, y, z'
loop_
 _atom_site_type_symbol
 _atom_site_label
 _atom_site_symmetry_multiplicity
 _atom_site_fract_x
 _atom_site_fract_y
 _atom_site_fract_z
 _atom_site_occupancy
  Li  Li0  1  0.655519  0.344481  0.500000  1
  Li  Li1  1  0.344481  0.655519  0.500000  1
  Bi  Bi2  1  0.000000  0.000000  0.000000  1
  O  O3  1  0.147539  0.852461  0.500000  1
  O  O4  1  0.852461  0.147539  0.500000  1
  O  O5  1  0.500000  0.500000  0.000000  1
