# generated using pymatgen
data_Na6Bi2B4SO16
_symmetry_space_group_name_H-M   'P 1'
_cell_length_a   10.25883885
_cell_length_b   10.25883885
_cell_length_c   10.25883885
_cell_angle_alpha   60.00000000
_cell_angle_beta   60.00000000
_cell_angle_gamma   60.00000000
_symmetry_Int_Tables_number   1
_chemical_formula_structural   Na6Bi2B4SO16
_chemical_formula_sum   'Na12 Bi4 B8 S2 O32'
_cell_volume   763.44828828
_cell_formula_units_Z   2
loop_
 _symmetry_equiv_pos_site_id
 _symmetry_equiv_pos_as_xyz
  1  'x, y, z'
loop_
 _atom_site_type_symbol
 _atom_site_label
 _atom_site_symmetry_multiplicity
 _atom_site_fract_x
 _atom_site_fract_y
 _atom_site_fract_z
 _atom_site_occupancy
  Na  Na0  1  0.958695  0.541305  0.958695  1
  Na  Na1  1  0.541305  0.958695  0.958695  1
  Na  Na2  1  0.291305  0.708695  0.708695  1
  Na  Na3  1  0.541305  0.958695  0.541305  1
  Na  Na4  1  0.291305  0.291305  0.708695  1
  Na  Na5  1  0.708695  0.708695  0.291305  1
  Na  Na6  1  0.541305  0.541305  0.958695  1
  Na  Na7  1  0.958695  0.958695  0.541305  1
  Na  Na8  1  0.708695  0.291305  0.708695  1
  Na  Na9  1  0.291305  0.708695  0.291305  1
  Na  Na10  1  0.708695  0.291305  0.291305  1
  Na  Na11  1  0.958695  0.541305  0.541305  1
  Bi  Bi12  1  0.625000  0.125000  0.125000  1
  Bi  Bi13  1  0.125000  0.125000  0.125000  1
  Bi  Bi14  1  0.125000  0.125000  0.625000  1
  Bi  Bi15  1  0.125000  0.625000  0.125000  1
  B  B16  1  0.902755  0.902755  0.902755  1
  B  B17  1  0.347245  0.347245  0.958264  1
  B  B18  1  0.291736  0.902755  0.902755  1
  B  B19  1  0.902755  0.291736  0.902755  1
  B  B20  1  0.347245  0.958264  0.347245  1
  B  B21  1  0.958264  0.347245  0.347245  1
  B  B22  1  0.347245  0.347245  0.347245  1
  B  B23  1  0.902755  0.902755  0.291736  1
  S  S24  1  0.500000  0.500000  0.500000  1
  S  S25  1  0.750000  0.750000  0.750000  1
  O  O26  1  0.559649  0.559649  0.321052  1
  O  O27  1  0.559649  0.321052  0.559649  1
  O  O28  1  0.321052  0.559649  0.559649  1
  O  O29  1  0.489388  0.955597  0.335503  1
  O  O30  1  0.559649  0.559649  0.559649  1
  O  O31  1  0.219512  0.335503  0.955597  1
  O  O32  1  0.335503  0.219512  0.489388  1
  O  O33  1  0.489388  0.219512  0.955597  1
  O  O34  1  0.030488  0.760612  0.914497  1
  O  O35  1  0.294403  0.914497  0.760612  1
  O  O36  1  0.335503  0.955597  0.219512  1
  O  O37  1  0.335503  0.489388  0.955597  1
  O  O38  1  0.760612  0.914497  0.030488  1
  O  O39  1  0.030488  0.294403  0.760612  1
  O  O40  1  0.955597  0.219512  0.335503  1
  O  O41  1  0.955597  0.489388  0.219512  1
  O  O42  1  0.294403  0.760612  0.030488  1
  O  O43  1  0.219512  0.955597  0.489388  1
  O  O44  1  0.294403  0.030488  0.914497  1
  O  O45  1  0.489388  0.335503  0.219512  1
  O  O46  1  0.914497  0.760612  0.294403  1
  O  O47  1  0.914497  0.294403  0.030488  1
  O  O48  1  0.955597  0.335503  0.489388  1
  O  O49  1  0.219512  0.489388  0.335503  1
  O  O50  1  0.760612  0.030488  0.294403  1
  O  O51  1  0.914497  0.030488  0.760612  1
  O  O52  1  0.030488  0.914497  0.294403  1
  O  O53  1  0.690351  0.690351  0.690351  1
  O  O54  1  0.760612  0.294403  0.914497  1
  O  O55  1  0.928948  0.690351  0.690351  1
  O  O56  1  0.690351  0.928948  0.690351  1
  O  O57  1  0.690351  0.690351  0.928948  1
