# generated using pymatgen
data_Mn3Cr(PO4)6
_symmetry_space_group_name_H-M   'P 1'
_cell_length_a   8.66490819
_cell_length_b   8.66490819
_cell_length_c   8.66490819
_cell_angle_alpha   58.13087524
_cell_angle_beta   58.13087524
_cell_angle_gamma   58.13087524
_symmetry_Int_Tables_number   1
_chemical_formula_structural   Mn3Cr(PO4)6
_chemical_formula_sum   'Mn3 Cr1 P6 O24'
_cell_volume   440.31054155
_cell_formula_units_Z   1
loop_
 _symmetry_equiv_pos_site_id
 _symmetry_equiv_pos_as_xyz
  1  'x, y, z'
loop_
 _atom_site_type_symbol
 _atom_site_label
 _atom_site_symmetry_multiplicity
 _atom_site_fract_x
 _atom_site_fract_y
 _atom_site_fract_z
 _atom_site_occupancy
  Mn  Mn0  1  0.855862  0.855862  0.855862  1
  Mn  Mn1  1  0.643552  0.643552  0.643552  1
  Mn  Mn2  1  0.355638  0.355638  0.355638  1
  Cr  Cr3  1  0.142390  0.142390  0.142390  1
  P  P4  1  0.250185  0.535703  0.965504  1
  P  P5  1  0.965504  0.250185  0.535703  1
  P  P6  1  0.535703  0.965504  0.250185  1
  P  P7  1  0.467611  0.032895  0.748165  1
  P  P8  1  0.032895  0.748165  0.467611  1
  P  P9  1  0.748165  0.467611  0.032895  1
  O  O10  1  0.729556  0.485996  0.856909  1
  O  O11  1  0.485996  0.856909  0.729556  1
  O  O12  1  0.072768  0.720111  0.941975  1
  O  O13  1  0.856909  0.729556  0.485996  1
  O  O14  1  0.427702  0.554820  0.780079  1
  O  O15  1  0.218921  0.361774  0.993445  1
  O  O16  1  0.941975  0.072768  0.720111  1
  O  O17  1  0.780079  0.427702  0.554820  1
  O  O18  1  0.554820  0.780079  0.427702  1
  O  O19  1  0.641688  0.011588  0.772763  1
  O  O20  1  0.281466  0.063007  0.925184  1
  O  O21  1  0.011588  0.772763  0.641688  1
  O  O22  1  0.993445  0.218921  0.361774  1
  O  O23  1  0.720111  0.941975  0.072768  1
  O  O24  1  0.361774  0.993445  0.218921  1
  O  O25  1  0.439758  0.220218  0.574270  1
  O  O26  1  0.220218  0.574270  0.439758  1
  O  O27  1  0.063007  0.925184  0.281466  1
  O  O28  1  0.772763  0.641688  0.011588  1
  O  O29  1  0.574270  0.439758  0.220218  1
  O  O30  1  0.140319  0.274377  0.513804  1
  O  O31  1  0.925184  0.281466  0.063007  1
  O  O32  1  0.513804  0.140319  0.274377  1
  O  O33  1  0.274377  0.513804  0.140319  1
