# generated using pymatgen
data_CrSO4
_symmetry_space_group_name_H-M   'P 1'
_cell_length_a   4.83640125
_cell_length_b   4.83640125
_cell_length_c   6.96575271
_cell_angle_alpha   90.00000000
_cell_angle_beta   90.00000000
_cell_angle_gamma   112.72409989
_symmetry_Int_Tables_number   1
_chemical_formula_structural   CrSO4
_chemical_formula_sum   'Cr2 S2 O8'
_cell_volume   150.28670036
_cell_formula_units_Z   2
loop_
 _symmetry_equiv_pos_site_id
 _symmetry_equiv_pos_as_xyz
  1  'x, y, z'
loop_
 _atom_site_type_symbol
 _atom_site_label
 _atom_site_symmetry_multiplicity
 _atom_site_fract_x
 _atom_site_fract_y
 _atom_site_fract_z
 _atom_site_occupancy
  Cr  Cr0  1  0.000000  0.000000  0.000000  1
  Cr  Cr1  1  0.000000  0.000000  0.500000  1
  S  S2  1  0.651759  0.348241  0.250000  1
  S  S3  1  0.348241  0.651759  0.750000  1
  O  O4  1  0.315492  0.228473  0.250000  1
  O  O5  1  0.228473  0.315492  0.750000  1
  O  O6  1  0.752166  0.247834  0.072565  1
  O  O7  1  0.752166  0.247834  0.427435  1
  O  O8  1  0.247834  0.752166  0.572565  1
  O  O9  1  0.247834  0.752166  0.927435  1
  O  O10  1  0.771527  0.684508  0.250000  1
  O  O11  1  0.684508  0.771527  0.750000  1
