# generated using pymatgen
data_Li2Fe3CoO8
_symmetry_space_group_name_H-M   'P 1'
_cell_length_a   5.89893981
_cell_length_b   5.89893981
_cell_length_c   6.03172571
_cell_angle_alpha   60.09641407
_cell_angle_beta   119.90358593
_cell_angle_gamma   119.88438701
_symmetry_Int_Tables_number   1
_chemical_formula_structural   Li2Fe3CoO8
_chemical_formula_sum   'Li2 Fe3 Co1 O8'
_cell_volume   148.75960200
_cell_formula_units_Z   1
loop_
 _symmetry_equiv_pos_site_id
 _symmetry_equiv_pos_as_xyz
  1  'x, y, z'
loop_
 _atom_site_type_symbol
 _atom_site_label
 _atom_site_symmetry_multiplicity
 _atom_site_fract_x
 _atom_site_fract_y
 _atom_site_fract_z
 _atom_site_occupancy
  Li  Li0  1  1.000000  0.500000  0.500000  1
  Li  Li1  1  0.500000  1.000000  0.500000  1
  Fe  Fe2  1  0.500000  0.500000  0.000000  1
  Fe  Fe3  1  1.000000  0.500000  0.000000  1
  Fe  Fe4  1  0.500000  1.000000  0.000000  1
  Co  Co5  1  0.000000  0.000000  0.000000  1
  O  O6  1  0.232531  0.244712  0.205962  1
  O  O7  1  0.755288  0.767469  0.205962  1
  O  O8  1  0.730657  0.269343  0.213179  1
  O  O9  1  0.228546  0.771454  0.212231  1
  O  O10  1  0.771454  0.228546  0.787769  1
  O  O11  1  0.269343  0.730657  0.786821  1
  O  O12  1  0.244712  0.232531  0.794038  1
  O  O13  1  0.767469  0.755288  0.794038  1
