# generated using pymatgen
data_Li5Mn5(SnO6)2
_symmetry_space_group_name_H-M   'P 1'
_cell_length_a   5.39193776
_cell_length_b   5.39193776
_cell_length_c   10.26167581
_cell_angle_alpha   85.10378175
_cell_angle_beta   94.89621825
_cell_angle_gamma   60.31088094
_symmetry_Int_Tables_number   1
_chemical_formula_structural   Li5Mn5(SnO6)2
_chemical_formula_sum   'Li5 Mn5 Sn2 O12'
_cell_volume   255.40528276
_cell_formula_units_Z   1
loop_
 _symmetry_equiv_pos_site_id
 _symmetry_equiv_pos_as_xyz
  1  'x, y, z'
loop_
 _atom_site_type_symbol
 _atom_site_label
 _atom_site_symmetry_multiplicity
 _atom_site_fract_x
 _atom_site_fract_y
 _atom_site_fract_z
 _atom_site_occupancy
  Li  Li0  1  0.834115  0.328012  0.744747  1
  Li  Li1  1  0.671433  0.155705  0.257732  1
  Li  Li2  1  0.328012  0.834115  0.255253  1
  Li  Li3  1  0.155705  0.671433  0.742268  1
  Li  Li4  1  0.085042  0.085042  0.500000  1
  Mn  Mn5  1  0.918823  0.918823  0.000000  1
  Mn  Mn6  1  0.004367  0.487730  0.256706  1
  Mn  Mn7  1  0.487730  0.004367  0.743294  1
  Mn  Mn8  1  0.582379  0.582379  0.000000  1
  Mn  Mn9  1  0.421812  0.421812  0.500000  1
  Sn  Sn10  1  0.753040  0.753040  0.500000  1
  Sn  Sn11  1  0.251678  0.251678  0.000000  1
  O  O12  1  0.026013  0.783826  0.374450  1
  O  O13  1  0.783826  0.026013  0.625550  1
  O  O14  1  0.890920  0.609300  0.881894  1
  O  O15  1  0.609300  0.890920  0.118106  1
  O  O16  1  0.700039  0.473386  0.381880  1
  O  O17  1  0.473386  0.700039  0.618120  1
  O  O18  1  0.530636  0.286665  0.878107  1
  O  O19  1  0.286665  0.530636  0.121893  1
  O  O20  1  0.393361  0.125958  0.385514  1
  O  O21  1  0.125958  0.393361  0.614486  1
  O  O22  1  0.211828  0.973933  0.876628  1
  O  O23  1  0.973933  0.211828  0.123372  1
