# generated using pymatgen
data_Fe2O3F
_symmetry_space_group_name_H-M   'P 1'
_cell_length_a   4.70985831
_cell_length_b   4.70985831
_cell_length_c   3.01467608
_cell_angle_alpha   90.00000000
_cell_angle_beta   90.00000000
_cell_angle_gamma   94.29238013
_symmetry_Int_Tables_number   1
_chemical_formula_structural   Fe2O3F
_chemical_formula_sum   'Fe2 O3 F1'
_cell_volume   66.68627732
_cell_formula_units_Z   1
loop_
 _symmetry_equiv_pos_site_id
 _symmetry_equiv_pos_as_xyz
  1  'x, y, z'
loop_
 _atom_site_type_symbol
 _atom_site_label
 _atom_site_symmetry_multiplicity
 _atom_site_fract_x
 _atom_site_fract_y
 _atom_site_fract_z
 _atom_site_occupancy
  Fe  Fe0  1  0.982004  0.017996  0.500000  1
  Fe  Fe1  1  0.519439  0.480561  0.000000  1
  O  O2  1  0.807582  0.192418  0.000000  1
  O  O3  1  0.307722  0.307101  0.500000  1
  O  O4  1  0.692899  0.692278  0.500000  1
  F  F5  1  0.190353  0.809647  0.000000  1
