# generated using pymatgen
data_CaAsH3O5
_symmetry_space_group_name_H-M   'P 1'
_cell_length_a   6.98810763
_cell_length_b   8.01842682
_cell_length_c   16.32860848
_cell_angle_alpha   90.00000000
_cell_angle_beta   90.00000000
_cell_angle_gamma   90.00000000
_symmetry_Int_Tables_number   1
_chemical_formula_structural   CaAsH3O5
_chemical_formula_sum   'Ca8 As8 H24 O40'
_cell_volume   914.95120013
_cell_formula_units_Z   8
loop_
 _symmetry_equiv_pos_site_id
 _symmetry_equiv_pos_as_xyz
  1  'x, y, z'
loop_
 _atom_site_type_symbol
 _atom_site_label
 _atom_site_symmetry_multiplicity
 _atom_site_fract_x
 _atom_site_fract_y
 _atom_site_fract_z
 _atom_site_occupancy
  Ca  Ca0  1  0.874617  0.182803  0.453055  1
  Ca  Ca1  1  0.625383  0.317197  0.953055  1
  Ca  Ca2  1  0.374617  0.317197  0.546945  1
  Ca  Ca3  1  0.125383  0.182803  0.046945  1
  Ca  Ca4  1  0.125383  0.817197  0.546945  1
  Ca  Ca5  1  0.374617  0.682803  0.046945  1
  Ca  Ca6  1  0.625383  0.682803  0.453055  1
  Ca  Ca7  1  0.874617  0.817197  0.953055  1
  As  As8  1  0.371318  0.058247  0.390880  1
  As  As9  1  0.128682  0.441753  0.890880  1
  As  As10  1  0.871318  0.441753  0.609120  1
  As  As11  1  0.628682  0.058247  0.109120  1
  As  As12  1  0.628682  0.941753  0.609120  1
  As  As13  1  0.871318  0.558247  0.109120  1
  As  As14  1  0.128682  0.558247  0.390880  1
  As  As15  1  0.371318  0.941753  0.890880  1
  H  H16  1  0.186924  0.234805  0.316733  1
  H  H17  1  0.313076  0.265195  0.816733  1
  H  H18  1  0.686924  0.265195  0.683267  1
  H  H19  1  0.813076  0.234805  0.183267  1
  H  H20  1  0.813076  0.765195  0.683267  1
  H  H21  1  0.686924  0.734805  0.183267  1
  H  H22  1  0.313076  0.734805  0.316733  1
  H  H23  1  0.186924  0.765195  0.816733  1
  H  H24  1  0.815432  0.011417  0.287639  1
  H  H25  1  0.684568  0.488583  0.787639  1
  H  H26  1  0.315432  0.488583  0.712361  1
  H  H27  1  0.184568  0.011417  0.212361  1
  H  H28  1  0.184568  0.988583  0.712361  1
  H  H29  1  0.315432  0.511417  0.212361  1
  H  H30  1  0.684568  0.511417  0.287639  1
  H  H31  1  0.815432  0.988583  0.787639  1
  H  H32  1  0.919046  0.878128  0.347948  1
  H  H33  1  0.580954  0.621872  0.847948  1
  H  H34  1  0.419046  0.621872  0.652052  1
  H  H35  1  0.080954  0.878128  0.152052  1
  H  H36  1  0.080954  0.121872  0.652052  1
  H  H37  1  0.419046  0.378128  0.152052  1
  H  H38  1  0.580954  0.378128  0.347948  1
  H  H39  1  0.919046  0.121872  0.847948  1
  O  O40  1  0.280034  0.144110  0.298647  1
  O  O41  1  0.219966  0.355890  0.798647  1
  O  O42  1  0.780034  0.355890  0.701353  1
  O  O43  1  0.719966  0.144110  0.201353  1
  O  O44  1  0.719966  0.855890  0.701353  1
  O  O45  1  0.780034  0.644110  0.201353  1
  O  O46  1  0.219966  0.644110  0.298647  1
  O  O47  1  0.280034  0.855890  0.798647  1
  O  O48  1  0.540026  0.195623  0.426666  1
  O  O49  1  0.959974  0.304377  0.926666  1
  O  O50  1  0.040026  0.304377  0.573334  1
  O  O51  1  0.459974  0.195623  0.073334  1
  O  O52  1  0.459974  0.804377  0.573334  1
  O  O53  1  0.040026  0.695623  0.073334  1
  O  O54  1  0.959974  0.695623  0.426666  1
  O  O55  1  0.540026  0.804377  0.926666  1
  O  O56  1  0.452451  0.864864  0.367314  1
  O  O57  1  0.047549  0.635136  0.867314  1
  O  O58  1  0.952451  0.635136  0.632686  1
  O  O59  1  0.547549  0.864864  0.132686  1
  O  O60  1  0.547549  0.135136  0.632686  1
  O  O61  1  0.952451  0.364864  0.132686  1
  O  O62  1  0.047549  0.364864  0.367314  1
  O  O63  1  0.452451  0.135136  0.867314  1
  O  O64  1  0.195868  0.059264  0.465163  1
  O  O65  1  0.304132  0.440736  0.965163  1
  O  O66  1  0.695868  0.440736  0.534837  1
  O  O67  1  0.804132  0.059264  0.034837  1
  O  O68  1  0.804132  0.940736  0.534837  1
  O  O69  1  0.695868  0.559264  0.034837  1
  O  O70  1  0.304132  0.559264  0.465163  1
  O  O71  1  0.195868  0.940736  0.965163  1
  O  O72  1  0.878056  0.994383  0.341333  1
  O  O73  1  0.621944  0.505617  0.841333  1
  O  O74  1  0.378056  0.505617  0.658667  1
  O  O75  1  0.121944  0.994383  0.158667  1
  O  O76  1  0.121944  0.005617  0.658667  1
  O  O77  1  0.378056  0.494383  0.158667  1
  O  O78  1  0.621944  0.494383  0.341333  1
  O  O79  1  0.878056  0.005617  0.841333  1
