# generated using pymatgen
data_Li3MgNiO4
_symmetry_space_group_name_H-M   'P 1'
_cell_length_a   10.20167426
_cell_length_b   10.20167426
_cell_length_c   10.20167426
_cell_angle_alpha   119.14771509
_cell_angle_beta   119.14771509
_cell_angle_gamma   91.48265062
_symmetry_Int_Tables_number   1
_chemical_formula_structural   Li3MgNiO4
_chemical_formula_sum   'Li24 Mg8 Ni8 O32'
_cell_volume   760.15297556
_cell_formula_units_Z   8
loop_
 _symmetry_equiv_pos_site_id
 _symmetry_equiv_pos_as_xyz
  1  'x, y, z'
loop_
 _atom_site_type_symbol
 _atom_site_label
 _atom_site_symmetry_multiplicity
 _atom_site_fract_x
 _atom_site_fract_y
 _atom_site_fract_z
 _atom_site_occupancy
  Li  Li0  1  0.804936  0.137894  0.324339  1
  Li  Li1  1  0.311804  0.659558  0.336493  1
  Li  Li2  1  0.519403  0.195064  0.332958  1
  Li  Li3  1  0.024690  0.688196  0.347754  1
  Li  Li4  1  0.281276  0.945634  0.346359  1
  Li  Li5  1  0.599275  0.934917  0.653641  1
  Li  Li6  1  0.340442  0.676935  0.652246  1
  Li  Li7  1  0.862106  0.186445  0.667042  1
  Li  Li8  1  0.065083  0.718724  0.664358  1
  Li  Li9  1  0.695634  0.849275  0.164358  1
  Li  Li10  1  0.323065  0.975310  0.663507  1
  Li  Li11  1  0.813555  0.480597  0.675661  1
  Li  Li12  1  0.936445  0.769403  0.824339  1
  Li  Li13  1  0.426935  0.274690  0.836493  1
  Li  Li14  1  0.684917  0.531276  0.835642  1
  Li  Li15  1  0.054366  0.400725  0.335642  1
  Li  Li16  1  0.887894  0.063555  0.832958  1
  Li  Li17  1  0.409558  0.573065  0.847754  1
  Li  Li18  1  0.150725  0.315083  0.846359  1
  Li  Li19  1  0.468724  0.304366  0.153641  1
  Li  Li20  1  0.725310  0.561804  0.152246  1
  Li  Li21  1  0.230597  0.054936  0.167042  1
  Li  Li22  1  0.438196  0.590442  0.163507  1
  Li  Li23  1  0.945064  0.112106  0.175661  1
  Mg  Mg24  1  0.553337  0.898823  0.324172  1
  Mg  Mg25  1  0.770835  0.446663  0.345486  1
  Mg  Mg26  1  0.648823  0.824651  0.845486  1
  Mg  Mg27  1  0.574651  0.229165  0.675828  1
  Mg  Mg28  1  0.175349  0.020835  0.824172  1
  Mg  Mg29  1  0.979165  0.803337  0.154514  1
  Mg  Mg30  1  0.101177  0.425349  0.654514  1
  Mg  Mg31  1  0.196663  0.351177  0.175828  1
  Ni  Ni32  1  0.809505  0.812592  0.497116  1
  Ni  Ni33  1  0.687611  0.190495  0.003087  1
  Ni  Ni34  1  0.562592  0.565475  0.503087  1
  Ni  Ni35  1  0.434525  0.937611  0.997116  1
  Ni  Ni36  1  0.315475  0.312389  0.502884  1
  Ni  Ni37  1  0.187408  0.684525  0.996913  1
  Ni  Ni38  1  0.062389  0.059505  0.496913  1
  Ni  Ni39  1  0.940495  0.437408  0.002884  1
  O  O40  1  0.651445  0.730973  0.255940  1
  O  O41  1  0.592838  0.018940  0.237748  1
  O  O42  1  0.729547  0.653843  0.754638  1
  O  O43  1  0.351131  0.771965  0.244198  1
  O  O44  1  0.724909  0.979547  0.575704  1
  O  O45  1  0.480973  0.725033  0.579528  1
  O  O46  1  0.856933  0.601131  0.079165  1
  O  O47  1  0.521965  0.777767  0.920835  1
  O  O48  1  0.644910  0.407162  0.426102  1
  O  O49  1  0.768940  0.031193  0.926102  1
  O  O50  1  0.145504  0.901445  0.420472  1
  O  O51  1  0.403843  0.149205  0.424296  1
  O  O52  1  0.527767  0.106933  0.755802  1
  O  O53  1  0.899205  0.974909  0.245362  1
  O  O54  1  0.781193  0.355090  0.762252  1
  O  O55  1  0.274967  0.854496  0.755940  1
  O  O56  1  0.475033  0.395504  0.744060  1
  O  O57  1  0.968807  0.894910  0.737748  1
  O  O58  1  0.850795  0.275091  0.254638  1
  O  O59  1  0.222233  0.143067  0.744198  1
  O  O60  1  0.346157  0.100795  0.075704  1
  O  O61  1  0.604496  0.348555  0.079528  1
  O  O62  1  0.105090  0.842838  0.073898  1
  O  O63  1  0.981060  0.218807  0.573898  1
  O  O64  1  0.228035  0.472233  0.579165  1
  O  O65  1  0.893067  0.648869  0.420835  1
  O  O66  1  0.269027  0.524967  0.920472  1
  O  O67  1  0.025091  0.270453  0.924296  1
  O  O68  1  0.398869  0.478035  0.255802  1
  O  O69  1  0.020453  0.596157  0.745362  1
  O  O70  1  0.157162  0.231060  0.262252  1
  O  O71  1  0.098555  0.519027  0.244060  1
