# generated using pymatgen
data_Co2H21I7(N2O)3
_symmetry_space_group_name_H-M   'P 1'
_cell_length_a   8.29301565
_cell_length_b   11.40078518
_cell_length_c   26.24112661
_cell_angle_alpha   90.00000000
_cell_angle_beta   90.00000000
_cell_angle_gamma   90.00000000
_symmetry_Int_Tables_number   1
_chemical_formula_structural   Co2H21I7(N2O)3
_chemical_formula_sum   'Co8 H84 I28 N24 O12'
_cell_volume   2481.01690897
_cell_formula_units_Z   4
loop_
 _symmetry_equiv_pos_site_id
 _symmetry_equiv_pos_as_xyz
  1  'x, y, z'
loop_
 _atom_site_type_symbol
 _atom_site_label
 _atom_site_symmetry_multiplicity
 _atom_site_fract_x
 _atom_site_fract_y
 _atom_site_fract_z
 _atom_site_occupancy
  Co  Co0  1  0.250000  0.269254  0.104854  1
  Co  Co1  1  0.250000  0.393226  0.187860  1
  Co  Co2  1  0.750000  0.893226  0.312140  1
  Co  Co3  1  0.750000  0.769254  0.395146  1
  Co  Co4  1  0.250000  0.230746  0.604854  1
  Co  Co5  1  0.250000  0.106774  0.687860  1
  Co  Co6  1  0.750000  0.606774  0.812140  1
  Co  Co7  1  0.750000  0.730746  0.895146  1
  H  H8  1  0.250000  0.283141  0.006940  1
  H  H9  1  0.150404  0.391801  0.035760  1
  H  H10  1  0.349596  0.391801  0.035760  1
  H  H11  1  0.083706  0.124840  0.051257  1
  H  H12  1  0.416294  0.124840  0.051257  1
  H  H13  1  0.531476  0.193478  0.093570  1
  H  H14  1  0.968524  0.193478  0.093570  1
  H  H15  1  0.413408  0.085270  0.111817  1
  H  H16  1  0.086592  0.085270  0.111817  1
  H  H17  1  0.505176  0.377471  0.133974  1
  H  H18  1  0.994824  0.377471  0.133974  1
  H  H19  1  0.150634  0.587990  0.166732  1
  H  H20  1  0.349366  0.587990  0.166732  1
  H  H21  1  0.250000  0.159896  0.195924  1
  H  H22  1  0.250000  0.604602  0.222064  1
  H  H23  1  0.612089  0.841761  0.227504  1
  H  H24  1  0.887911  0.841761  0.227504  1
  H  H25  1  0.513725  0.330437  0.224260  1
  H  H26  1  0.986275  0.330437  0.224260  1
  H  H27  1  0.029428  0.461028  0.248956  1
  H  H28  1  0.470572  0.461028  0.248956  1
  H  H29  1  0.529428  0.961028  0.251044  1
  H  H30  1  0.970572  0.961028  0.251044  1
  H  H31  1  0.013725  0.830437  0.275740  1
  H  H32  1  0.486275  0.830437  0.275740  1
  H  H33  1  0.112089  0.341761  0.272496  1
  H  H34  1  0.387911  0.341761  0.272496  1
  H  H35  1  0.750000  0.104602  0.277936  1
  H  H36  1  0.750000  0.659896  0.304076  1
  H  H37  1  0.650634  0.087990  0.333268  1
  H  H38  1  0.849366  0.087990  0.333268  1
  H  H39  1  0.005176  0.877471  0.366026  1
  H  H40  1  0.494824  0.877471  0.366026  1
  H  H41  1  0.586592  0.585270  0.388183  1
  H  H42  1  0.913408  0.585270  0.388183  1
  H  H43  1  0.031476  0.693478  0.406430  1
  H  H44  1  0.468524  0.693478  0.406430  1
  H  H45  1  0.583706  0.624840  0.448743  1
  H  H46  1  0.916294  0.624840  0.448743  1
  H  H47  1  0.650404  0.891801  0.464240  1
  H  H48  1  0.849596  0.891801  0.464240  1
  H  H49  1  0.750000  0.783141  0.493060  1
  H  H50  1  0.250000  0.216859  0.506940  1
  H  H51  1  0.150404  0.108199  0.535760  1
  H  H52  1  0.349596  0.108199  0.535760  1
  H  H53  1  0.083706  0.375160  0.551257  1
  H  H54  1  0.416294  0.375160  0.551257  1
  H  H55  1  0.531476  0.306522  0.593570  1
  H  H56  1  0.968524  0.306522  0.593570  1
  H  H57  1  0.086592  0.414730  0.611817  1
  H  H58  1  0.413408  0.414730  0.611817  1
  H  H59  1  0.505176  0.122529  0.633974  1
  H  H60  1  0.994824  0.122529  0.633974  1
  H  H61  1  0.150634  0.912010  0.666732  1
  H  H62  1  0.349366  0.912010  0.666732  1
  H  H63  1  0.250000  0.340104  0.695924  1
  H  H64  1  0.250000  0.895398  0.722064  1
  H  H65  1  0.612089  0.658239  0.727504  1
  H  H66  1  0.887911  0.658239  0.727504  1
  H  H67  1  0.513725  0.169563  0.724260  1
  H  H68  1  0.986275  0.169563  0.724260  1
  H  H69  1  0.029428  0.038972  0.748956  1
  H  H70  1  0.470572  0.038972  0.748956  1
  H  H71  1  0.529428  0.538972  0.751044  1
  H  H72  1  0.970572  0.538972  0.751044  1
  H  H73  1  0.013725  0.669563  0.775740  1
  H  H74  1  0.486275  0.669563  0.775740  1
  H  H75  1  0.112089  0.158239  0.772496  1
  H  H76  1  0.387911  0.158239  0.772496  1
  H  H77  1  0.750000  0.395398  0.777936  1
  H  H78  1  0.750000  0.840104  0.804076  1
  H  H79  1  0.650634  0.412010  0.833268  1
  H  H80  1  0.849366  0.412010  0.833268  1
  H  H81  1  0.005176  0.622529  0.866026  1
  H  H82  1  0.494824  0.622529  0.866026  1
  H  H83  1  0.586592  0.914730  0.888183  1
  H  H84  1  0.913408  0.914730  0.888183  1
  H  H85  1  0.031476  0.806522  0.906430  1
  H  H86  1  0.468524  0.806522  0.906430  1
  H  H87  1  0.583706  0.875160  0.948743  1
  H  H88  1  0.916294  0.875160  0.948743  1
  H  H89  1  0.650404  0.608199  0.964240  1
  H  H90  1  0.849596  0.608199  0.964240  1
  H  H91  1  0.750000  0.716859  0.993060  1
  I  I92  1  0.750000  0.179976  0.188628  1
  I  I93  1  0.250000  0.679976  0.311372  1
  I  I94  1  0.750000  0.320024  0.688628  1
  I  I95  1  0.250000  0.820024  0.811372  1
  I  I96  1  0.750000  0.381659  0.037050  1
  I  I97  1  0.750000  0.954420  0.037645  1
  I  I98  1  0.250000  0.756669  0.057243  1
  I  I99  1  0.750000  0.773386  0.115405  1
  I  I100  1  0.250000  0.887436  0.154644  1
  I  I101  1  0.750000  0.583341  0.193565  1
  I  I102  1  0.250000  0.083341  0.306435  1
  I  I103  1  0.750000  0.387436  0.345356  1
  I  I104  1  0.250000  0.273386  0.384595  1
  I  I105  1  0.750000  0.256669  0.442757  1
  I  I106  1  0.250000  0.454420  0.462355  1
  I  I107  1  0.250000  0.881659  0.462950  1
  I  I108  1  0.750000  0.118341  0.537050  1
  I  I109  1  0.750000  0.545580  0.537645  1
  I  I110  1  0.250000  0.743331  0.557243  1
  I  I111  1  0.750000  0.726614  0.615405  1
  I  I112  1  0.250000  0.612564  0.654644  1
  I  I113  1  0.750000  0.916659  0.693565  1
  I  I114  1  0.250000  0.416659  0.806435  1
  I  I115  1  0.750000  0.112564  0.845356  1
  I  I116  1  0.250000  0.226614  0.884595  1
  I  I117  1  0.750000  0.243331  0.942757  1
  I  I118  1  0.250000  0.045580  0.962355  1
  I  I119  1  0.250000  0.618341  0.962950  1
  N  N120  1  0.250000  0.338890  0.037645  1
  N  N121  1  0.419963  0.156623  0.087909  1
  N  N122  1  0.080037  0.156623  0.087909  1
  N  N123  1  0.250000  0.562560  0.187034  1
  N  N124  1  0.077963  0.381526  0.239121  1
  N  N125  1  0.422037  0.381526  0.239121  1
  N  N126  1  0.577963  0.881526  0.260879  1
  N  N127  1  0.922037  0.881526  0.260879  1
  N  N128  1  0.750000  0.062560  0.312966  1
  N  N129  1  0.580037  0.656623  0.412091  1
  N  N130  1  0.919963  0.656623  0.412091  1
  N  N131  1  0.750000  0.838890  0.462355  1
  N  N132  1  0.250000  0.161110  0.537645  1
  N  N133  1  0.080037  0.343377  0.587908  1
  N  N134  1  0.419963  0.343377  0.587908  1
  N  N135  1  0.250000  0.937440  0.687034  1
  N  N136  1  0.077963  0.118474  0.739121  1
  N  N137  1  0.422037  0.118474  0.739121  1
  N  N138  1  0.577963  0.618474  0.760879  1
  N  N139  1  0.922037  0.618474  0.760879  1
  N  N140  1  0.750000  0.437440  0.812966  1
  N  N141  1  0.580037  0.843377  0.912092  1
  N  N142  1  0.919963  0.843377  0.912092  1
  N  N143  1  0.750000  0.661110  0.962355  1
  O  O144  1  0.108405  0.395678  0.128356  1
  O  O145  1  0.391595  0.395678  0.128356  1
  O  O146  1  0.250000  0.230012  0.174909  1
  O  O147  1  0.750000  0.730012  0.325091  1
  O  O148  1  0.608405  0.895678  0.371644  1
  O  O149  1  0.891595  0.895678  0.371644  1
  O  O150  1  0.108405  0.104322  0.628356  1
  O  O151  1  0.391595  0.104322  0.628356  1
  O  O152  1  0.250000  0.269988  0.674909  1
  O  O153  1  0.750000  0.769988  0.825091  1
  O  O154  1  0.608405  0.604322  0.871644  1
  O  O155  1  0.891595  0.604322  0.871644  1
