# generated using pymatgen
data_Li5Ti2Mn5O12
_symmetry_space_group_name_H-M   'P 1'
_cell_length_a   5.29735280
_cell_length_b   5.29735280
_cell_length_c   10.06315159
_cell_angle_alpha   85.12817530
_cell_angle_beta   94.87182470
_cell_angle_gamma   59.98190338
_symmetry_Int_Tables_number   1
_chemical_formula_structural   Li5Ti2Mn5O12
_chemical_formula_sum   'Li5 Ti2 Mn5 O12'
_cell_volume   240.95878556
_cell_formula_units_Z   1
loop_
 _symmetry_equiv_pos_site_id
 _symmetry_equiv_pos_as_xyz
  1  'x, y, z'
loop_
 _atom_site_type_symbol
 _atom_site_label
 _atom_site_symmetry_multiplicity
 _atom_site_fract_x
 _atom_site_fract_y
 _atom_site_fract_z
 _atom_site_occupancy
  Li  Li0  1  0.843361  0.336905  0.743374  1
  Li  Li1  1  0.664413  0.155637  0.257255  1
  Li  Li2  1  0.336905  0.843361  0.256626  1
  Li  Li3  1  0.155637  0.664413  0.742745  1
  Li  Li4  1  0.084758  0.084758  0.500000  1
  Ti  Ti5  1  0.757206  0.757206  0.500000  1
  Ti  Ti6  1  0.252717  0.252717  0.000000  1
  Mn  Mn7  1  0.919717  0.919717  0.000000  1
  Mn  Mn8  1  0.003725  0.485242  0.257945  1
  Mn  Mn9  1  0.485242  0.003725  0.742055  1
  Mn  Mn10  1  0.581532  0.581532  0.000000  1
  Mn  Mn11  1  0.424683  0.424683  0.500000  1
  O  O12  1  0.012225  0.787431  0.379172  1
  O  O13  1  0.787431  0.012225  0.620828  1
  O  O14  1  0.902444  0.596635  0.884810  1
  O  O15  1  0.596635  0.902444  0.115190  1
  O  O16  1  0.700240  0.482043  0.383511  1
  O  O17  1  0.482043  0.700240  0.616489  1
  O  O18  1  0.515199  0.288251  0.880156  1
  O  O19  1  0.288251  0.515199  0.119844  1
  O  O20  1  0.402395  0.110974  0.388281  1
  O  O21  1  0.110974  0.402395  0.611719  1
  O  O22  1  0.208894  0.983374  0.879031  1
  O  O23  1  0.983374  0.208894  0.120969  1
