# generated using pymatgen
data_Li4V3CrO8
_symmetry_space_group_name_H-M   'P 1'
_cell_length_a   5.18761217
_cell_length_b   5.99604494
_cell_length_c   10.75571434
_cell_angle_alpha   98.09333702
_cell_angle_beta   103.72211334
_cell_angle_gamma   106.97467103
_symmetry_Int_Tables_number   1
_chemical_formula_structural   Li4V3CrO8
_chemical_formula_sum   'Li8 V6 Cr2 O16'
_cell_volume   302.80287104
_cell_formula_units_Z   2
loop_
 _symmetry_equiv_pos_site_id
 _symmetry_equiv_pos_as_xyz
  1  'x, y, z'
loop_
 _atom_site_type_symbol
 _atom_site_label
 _atom_site_symmetry_multiplicity
 _atom_site_fract_x
 _atom_site_fract_y
 _atom_site_fract_z
 _atom_site_occupancy
  Li  Li0  1  0.999153  0.250207  0.000264  1
  Li  Li1  1  0.747879  0.871893  0.748439  1
  Li  Li2  1  0.247103  0.622599  0.250326  1
  Li  Li3  1  0.500000  0.000000  0.500000  1
  Li  Li4  1  0.000847  0.749793  0.999736  1
  Li  Li5  1  0.752897  0.377401  0.749674  1
  Li  Li6  1  0.252121  0.128107  0.251561  1
  Li  Li7  1  0.500000  0.500000  0.500000  1
  V  V8  1  0.376239  0.062271  0.874768  1
  V  V9  1  0.624764  0.437115  0.124897  1
  V  V10  1  0.874146  0.812862  0.374614  1
  V  V11  1  0.375236  0.562885  0.875103  1
  V  V12  1  0.125854  0.187138  0.625386  1
  V  V13  1  0.623761  0.937729  0.125232  1
  Cr  Cr14  1  0.874499  0.313401  0.375542  1
  Cr  Cr15  1  0.125501  0.686599  0.624458  1
  O  O16  1  0.164759  0.649219  0.439400  1
  O  O17  1  0.584792  0.472640  0.311097  1
  O  O18  1  0.671017  0.402461  0.939177  1
  O  O19  1  0.082920  0.222232  0.811380  1
  O  O20  1  0.835536  0.845931  0.560520  1
  O  O21  1  0.417056  0.023398  0.688278  1
  O  O22  1  0.917080  0.777768  0.188620  1
  O  O23  1  0.328983  0.597539  0.060823  1
  O  O24  1  0.164464  0.154069  0.439480  1
  O  O25  1  0.582944  0.976602  0.311722  1
  O  O26  1  0.668196  0.901827  0.938699  1
  O  O27  1  0.083170  0.723371  0.809348  1
  O  O28  1  0.415208  0.527360  0.688903  1
  O  O29  1  0.916830  0.276629  0.190652  1
  O  O30  1  0.835241  0.350781  0.560600  1
  O  O31  1  0.331804  0.098173  0.061301  1
