# generated using pymatgen
data_Li4Mn3WO8
_symmetry_space_group_name_H-M   'P 1'
_cell_length_a   6.09217087
_cell_length_b   6.09217087
_cell_length_c   6.09217087
_cell_angle_alpha   62.23294687
_cell_angle_beta   62.23294687
_cell_angle_gamma   62.23294687
_symmetry_Int_Tables_number   1
_chemical_formula_structural   Li4Mn3WO8
_chemical_formula_sum   'Li4 Mn3 W1 O8'
_cell_volume   167.85446028
_cell_formula_units_Z   1
loop_
 _symmetry_equiv_pos_site_id
 _symmetry_equiv_pos_as_xyz
  1  'x, y, z'
loop_
 _atom_site_type_symbol
 _atom_site_label
 _atom_site_symmetry_multiplicity
 _atom_site_fract_x
 _atom_site_fract_y
 _atom_site_fract_z
 _atom_site_occupancy
  Li  Li0  1  0.500000  0.500000  0.500000  1
  Li  Li1  1  0.000000  0.000000  0.500000  1
  Li  Li2  1  0.000000  0.500000  1.000000  1
  Li  Li3  1  0.500000  0.000000  0.000000  1
  Mn  Mn4  1  0.500000  0.500000  0.000000  1
  Mn  Mn5  1  0.500000  0.000000  0.500000  1
  Mn  Mn6  1  0.000000  0.500000  0.500000  1
  W  W7  1  0.000000  0.000000  0.000000  1
  O  O8  1  0.738883  0.738883  0.738883  1
  O  O9  1  0.226801  0.226801  0.782836  1
  O  O10  1  0.226801  0.782836  0.226801  1
  O  O11  1  0.261117  0.261117  0.261117  1
  O  O12  1  0.782836  0.226801  0.226801  1
  O  O13  1  0.773199  0.773199  0.217164  1
  O  O14  1  0.773199  0.217164  0.773199  1
  O  O15  1  0.217164  0.773199  0.773199  1
