# generated using pymatgen
data_K2ErPCO7
_symmetry_space_group_name_H-M   'P 1'
_cell_length_a   5.77402450
_cell_length_b   7.12188906
_cell_length_c   9.85425701
_cell_angle_alpha   90.00000000
_cell_angle_beta   92.00239678
_cell_angle_gamma   90.00000000
_symmetry_Int_Tables_number   1
_chemical_formula_structural   K2ErPCO7
_chemical_formula_sum   'K4 Er2 P2 C2 O14'
_cell_volume   404.97893637
_cell_formula_units_Z   2
loop_
 _symmetry_equiv_pos_site_id
 _symmetry_equiv_pos_as_xyz
  1  'x, y, z'
loop_
 _atom_site_type_symbol
 _atom_site_label
 _atom_site_symmetry_multiplicity
 _atom_site_fract_x
 _atom_site_fract_y
 _atom_site_fract_z
 _atom_site_occupancy
  K  K0  1  0.244008  0.488264  0.226977  1
  K  K1  1  0.244008  0.011736  0.226977  1
  K  K2  1  0.755992  0.511736  0.773023  1
  K  K3  1  0.755992  0.988264  0.773023  1
  Er  Er4  1  0.777586  0.750000  0.363514  1
  Er  Er5  1  0.222414  0.250000  0.636486  1
  P  P6  1  0.711483  0.250000  0.428514  1
  P  P7  1  0.288517  0.750000  0.571486  1
  C  C8  1  0.729106  0.750000  0.086974  1
  C  C9  1  0.270894  0.250000  0.913026  1
  O  O10  1  0.298517  0.250000  0.039673  1
  O  O11  1  0.934780  0.750000  0.150424  1
  O  O12  1  0.552196  0.750000  0.170337  1
  O  O13  1  0.770332  0.068944  0.349261  1
  O  O14  1  0.770332  0.431056  0.349261  1
  O  O15  1  0.146591  0.750000  0.432763  1
  O  O16  1  0.446069  0.250000  0.457833  1
  O  O17  1  0.553931  0.750000  0.542167  1
  O  O18  1  0.853409  0.250000  0.567237  1
  O  O19  1  0.229668  0.568944  0.650739  1
  O  O20  1  0.229668  0.931056  0.650739  1
  O  O21  1  0.447804  0.250000  0.829663  1
  O  O22  1  0.065220  0.250000  0.849576  1
  O  O23  1  0.701483  0.750000  0.960327  1
