# generated using pymatgen
data_UAs2H6O11
_symmetry_space_group_name_H-M   'P 1'
_cell_length_a   8.08597332
_cell_length_b   8.08597332
_cell_length_c   9.10408211
_cell_angle_alpha   62.30367845
_cell_angle_beta   117.69632155
_cell_angle_gamma   111.41588555
_symmetry_Int_Tables_number   1
_chemical_formula_structural   UAs2H6O11
_chemical_formula_sum   'U2 As4 H12 O22'
_cell_volume   458.14394236
_cell_formula_units_Z   2
loop_
 _symmetry_equiv_pos_site_id
 _symmetry_equiv_pos_as_xyz
  1  'x, y, z'
loop_
 _atom_site_type_symbol
 _atom_site_label
 _atom_site_symmetry_multiplicity
 _atom_site_fract_x
 _atom_site_fract_y
 _atom_site_fract_z
 _atom_site_occupancy
  U  U0  1  0.657913  0.657913  0.250000  1
  U  U1  1  0.342087  0.342087  0.750000  1
  As  As2  1  0.187943  0.810777  0.942498  1
  As  As3  1  0.189223  0.812057  0.442498  1
  As  As4  1  0.810777  0.187943  0.557502  1
  As  As5  1  0.812057  0.189223  0.057502  1
  H  H6  1  0.315376  0.342032  0.325269  1
  H  H7  1  0.209282  0.001365  0.582107  1
  H  H8  1  0.342032  0.315376  0.174731  1
  H  H9  1  0.161089  0.639834  0.781975  1
  H  H10  1  0.639834  0.161089  0.718025  1
  H  H11  1  0.001365  0.209282  0.917893  1
  H  H12  1  0.998635  0.790718  0.082107  1
  H  H13  1  0.360166  0.838911  0.281975  1
  H  H14  1  0.838911  0.360166  0.218025  1
  H  H15  1  0.657968  0.684624  0.825269  1
  H  H16  1  0.790718  0.998635  0.417893  1
  H  H17  1  0.684624  0.657968  0.674731  1
  O  O18  1  0.014258  0.258916  0.712511  1
  O  O19  1  0.362449  0.762430  0.148854  1
  O  O20  1  0.298690  0.388544  0.521727  1
  O  O21  1  0.258916  0.014258  0.787489  1
  O  O22  1  0.099404  0.625825  0.863162  1
  O  O23  1  0.167170  0.010389  0.456697  1
  O  O24  1  0.390298  0.390298  0.250000  1
  O  O25  1  0.010389  0.167170  0.043303  1
  O  O26  1  0.611456  0.701310  0.021727  1
  O  O27  1  0.625825  0.099404  0.636838  1
  O  O28  1  0.237570  0.637551  0.648854  1
  O  O29  1  0.762430  0.362449  0.351146  1
  O  O30  1  0.374175  0.900596  0.363162  1
  O  O31  1  0.388544  0.298690  0.978273  1
  O  O32  1  0.989611  0.832830  0.956697  1
  O  O33  1  0.609702  0.609702  0.750000  1
  O  O34  1  0.832830  0.989611  0.543303  1
  O  O35  1  0.900596  0.374175  0.136838  1
  O  O36  1  0.741084  0.985742  0.212511  1
  O  O37  1  0.701310  0.611456  0.478273  1
  O  O38  1  0.637551  0.237570  0.851146  1
  O  O39  1  0.985742  0.741084  0.287489  1
