# generated using pymatgen
data_FeOF
_symmetry_space_group_name_H-M   'P 1'
_cell_length_a   9.50637212
_cell_length_b   3.09677367
_cell_length_c   14.34589433
_cell_angle_alpha   90.00000000
_cell_angle_beta   90.67530765
_cell_angle_gamma   90.00000000
_symmetry_Int_Tables_number   1
_chemical_formula_structural   FeOF
_chemical_formula_sum   'Fe12 O12 F12'
_cell_volume   422.30063795
_cell_formula_units_Z   12
loop_
 _symmetry_equiv_pos_site_id
 _symmetry_equiv_pos_as_xyz
  1  'x, y, z'
loop_
 _atom_site_type_symbol
 _atom_site_label
 _atom_site_symmetry_multiplicity
 _atom_site_fract_x
 _atom_site_fract_y
 _atom_site_fract_z
 _atom_site_occupancy
  Fe  Fe0  1  0.979043  0.000000  0.999608  1
  Fe  Fe1  1  0.990307  0.000000  0.661849  1
  Fe  Fe2  1  0.981068  0.000000  0.333797  1
  Fe  Fe3  1  0.739102  0.500000  0.855317  1
  Fe  Fe4  1  0.770908  0.500000  0.500671  1
  Fe  Fe5  1  0.771458  0.500000  0.166427  1
  Fe  Fe6  1  0.480423  0.000000  0.669638  1
  Fe  Fe7  1  0.489977  0.000000  0.996387  1
  Fe  Fe8  1  0.479110  0.000000  0.330399  1
  Fe  Fe9  1  0.271080  0.500000  0.836032  1
  Fe  Fe10  1  0.278064  0.500000  0.497792  1
  Fe  Fe11  1  0.275770  0.500000  0.160644  1
  O  O12  1  0.903532  0.500000  0.400790  1
  O  O13  1  0.902576  0.500000  0.063479  1
  O  O14  1  0.848390  0.000000  0.894538  1
  O  O15  1  0.847979  0.000000  0.231960  1
  O  O16  1  0.851574  0.000000  0.569194  1
  O  O17  1  0.591846  0.500000  0.937863  1
  O  O18  1  0.400922  0.500000  0.730456  1
  O  O19  1  0.403638  0.500000  0.063427  1
  O  O20  1  0.406864  0.500000  0.396140  1
  O  O21  1  0.339901  0.000000  0.896592  1
  O  O22  1  0.346604  0.000000  0.564704  1
  O  O23  1  0.346799  0.000000  0.229332  1
  F  F24  1  0.905599  0.500000  0.729936  1
  F  F25  1  0.653906  0.000000  0.764344  1
  F  F26  1  0.656863  0.000000  0.437894  1
  F  F27  1  0.655123  0.000000  0.106649  1
  F  F28  1  0.599489  0.500000  0.600223  1
  F  F29  1  0.598915  0.500000  0.269707  1
  F  F30  1  0.142425  0.000000  0.762424  1
  F  F31  1  0.151260  0.000000  0.099513  1
  F  F32  1  0.153083  0.000000  0.436131  1
  F  F33  1  0.095032  0.500000  0.932496  1
  F  F34  1  0.096270  0.500000  0.602559  1
  F  F35  1  0.095100  0.500000  0.271087  1
