# generated using pymatgen
data_LiFeNiO4
_symmetry_space_group_name_H-M   'P 1'
_cell_length_a   5.92224687
_cell_length_b   5.92224687
_cell_length_c   5.92224687
_cell_angle_alpha   120.80736077
_cell_angle_beta   120.68765322
_cell_angle_gamma   88.71011573
_symmetry_Int_Tables_number   1
_chemical_formula_structural   LiFeNiO4
_chemical_formula_sum   'Li2 Fe2 Ni2 O8'
_cell_volume   145.17428779
_cell_formula_units_Z   2
loop_
 _symmetry_equiv_pos_site_id
 _symmetry_equiv_pos_as_xyz
  1  'x, y, z'
loop_
 _atom_site_type_symbol
 _atom_site_label
 _atom_site_symmetry_multiplicity
 _atom_site_fract_x
 _atom_site_fract_y
 _atom_site_fract_z
 _atom_site_occupancy
  Li  Li0  1  0.000000  0.000000  0.500000  1
  Li  Li1  1  0.000000  0.500000  0.000000  1
  Fe  Fe2  1  0.000000  0.500000  0.500000  1
  Fe  Fe3  1  0.500000  0.500000  0.000000  1
  Ni  Ni4  1  0.500000  0.000000  0.000000  1
  Ni  Ni5  1  0.500000  0.500000  0.500000  1
  O  O6  1  0.233591  0.723165  0.510427  1
  O  O7  1  0.249580  0.280951  0.531371  1
  O  O8  1  0.712738  0.723165  0.989573  1
  O  O9  1  0.750420  0.281791  0.031371  1
  O  O10  1  0.249580  0.718209  0.968629  1
  O  O11  1  0.287262  0.276835  0.010427  1
  O  O12  1  0.750420  0.719049  0.468629  1
  O  O13  1  0.766409  0.276835  0.489573  1
