# generated using pymatgen
data_K2Mg(H2N)4
_symmetry_space_group_name_H-M   'P 1'
_cell_length_a   7.49339588
_cell_length_b   7.22868256
_cell_length_c   13.63036634
_cell_angle_alpha   90.00000000
_cell_angle_beta   104.42050677
_cell_angle_gamma   90.00000000
_symmetry_Int_Tables_number   1
_chemical_formula_structural   K2Mg(H2N)4
_chemical_formula_sum   'K8 Mg4 H32 N16'
_cell_volume   715.05975314
_cell_formula_units_Z   4
loop_
 _symmetry_equiv_pos_site_id
 _symmetry_equiv_pos_as_xyz
  1  'x, y, z'
loop_
 _atom_site_type_symbol
 _atom_site_label
 _atom_site_symmetry_multiplicity
 _atom_site_fract_x
 _atom_site_fract_y
 _atom_site_fract_z
 _atom_site_occupancy
  K  K0  1  0.086185  0.646693  0.897831  1
  K  K1  1  0.086185  0.853307  0.397831  1
  K  K2  1  0.427023  0.125867  0.608795  1
  K  K3  1  0.572977  0.625867  0.891205  1
  K  K4  1  0.427023  0.374133  0.108795  1
  K  K5  1  0.572977  0.874133  0.391205  1
  K  K6  1  0.913815  0.146693  0.602169  1
  K  K7  1  0.913815  0.353307  0.102169  1
  Mg  Mg8  1  0.293921  0.212898  0.848192  1
  Mg  Mg9  1  0.293921  0.287102  0.348192  1
  Mg  Mg10  1  0.706079  0.712898  0.651808  1
  Mg  Mg11  1  0.706079  0.787102  0.151808  1
  H  H12  1  0.985281  0.244601  0.905192  1
  H  H13  1  0.128459  0.127644  0.988809  1
  H  H14  1  0.133498  0.894351  0.752190  1
  H  H15  1  0.121071  0.488240  0.710312  1
  H  H16  1  0.985281  0.255399  0.405192  1
  H  H17  1  0.128459  0.372356  0.488809  1
  H  H18  1  0.345328  0.877335  0.749517  1
  H  H19  1  0.333243  0.478440  0.709130  1
  H  H20  1  0.133498  0.605649  0.252190  1
  H  H21  1  0.121071  0.011760  0.210312  1
  H  H22  1  0.337734  0.722212  0.596432  1
  H  H23  1  0.583377  0.127418  0.990802  1
  H  H24  1  0.416623  0.627418  0.509198  1
  H  H25  1  0.662266  0.222212  0.903568  1
  H  H26  1  0.345328  0.622665  0.249517  1
  H  H27  1  0.333243  0.021560  0.209130  1
  H  H28  1  0.666757  0.978440  0.790870  1
  H  H29  1  0.654672  0.377335  0.750483  1
  H  H30  1  0.337734  0.777788  0.096432  1
  H  H31  1  0.583377  0.372582  0.490802  1
  H  H32  1  0.416623  0.872582  0.009198  1
  H  H33  1  0.662266  0.277788  0.403568  1
  H  H34  1  0.878929  0.988240  0.789688  1
  H  H35  1  0.866502  0.394351  0.747810  1
  H  H36  1  0.666757  0.521560  0.290870  1
  H  H37  1  0.654672  0.122665  0.250483  1
  H  H38  1  0.871541  0.627644  0.511191  1
  H  H39  1  0.014719  0.744601  0.594808  1
  H  H40  1  0.878929  0.511760  0.289688  1
  H  H41  1  0.866502  0.105649  0.247810  1
  H  H42  1  0.871541  0.872356  0.011191  1
  H  H43  1  0.014719  0.755399  0.094808  1
  N  N44  1  0.119912  0.248078  0.947674  1
  N  N45  1  0.253839  0.968170  0.767430  1
  N  N46  1  0.246410  0.444364  0.753776  1
  N  N47  1  0.119912  0.251922  0.447674  1
  N  N48  1  0.562313  0.239551  0.942647  1
  N  N49  1  0.253839  0.531830  0.267430  1
  N  N50  1  0.246410  0.055636  0.253776  1
  N  N51  1  0.437687  0.739551  0.557353  1
  N  N52  1  0.562313  0.260449  0.442647  1
  N  N53  1  0.753590  0.944364  0.746224  1
  N  N54  1  0.746161  0.468170  0.732570  1
  N  N55  1  0.437687  0.760449  0.057353  1
  N  N56  1  0.880088  0.748078  0.552326  1
  N  N57  1  0.753590  0.555636  0.246224  1
  N  N58  1  0.746161  0.031830  0.232570  1
  N  N59  1  0.880088  0.751922  0.052326  1
