# generated using pymatgen
data_Li2VCrO4
_symmetry_space_group_name_H-M   'P 1'
_cell_length_a   5.95672611
_cell_length_b   5.95672611
_cell_length_c   5.14794632
_cell_angle_alpha   73.67354794
_cell_angle_beta   106.32645206
_cell_angle_gamma   119.49643556
_symmetry_Int_Tables_number   1
_chemical_formula_structural   Li2VCrO4
_chemical_formula_sum   'Li4 V2 Cr2 O8'
_cell_volume   150.33282171
_cell_formula_units_Z   2
loop_
 _symmetry_equiv_pos_site_id
 _symmetry_equiv_pos_as_xyz
  1  'x, y, z'
loop_
 _atom_site_type_symbol
 _atom_site_label
 _atom_site_symmetry_multiplicity
 _atom_site_fract_x
 _atom_site_fract_y
 _atom_site_fract_z
 _atom_site_occupancy
  Li  Li0  1  0.126440  0.623549  0.253403  1
  Li  Li1  1  0.623549  0.126440  0.246597  1
  Li  Li2  1  0.376451  0.873560  0.753403  1
  Li  Li3  1  0.873560  0.376451  0.746597  1
  V  V4  1  0.124152  0.124152  0.250000  1
  V  V5  1  0.875848  0.875848  0.750000  1
  Cr  Cr6  1  0.623140  0.623140  0.250000  1
  Cr  Cr7  1  0.376860  0.376860  0.750000  1
  O  O8  1  0.760048  0.986634  0.010743  1
  O  O9  1  0.264308  0.491387  0.007542  1
  O  O10  1  0.508613  0.735692  0.507542  1
  O  O11  1  0.239952  0.013366  0.989257  1
  O  O12  1  0.735692  0.508613  0.992458  1
  O  O13  1  0.986634  0.760048  0.489257  1
  O  O14  1  0.013366  0.239952  0.510743  1
  O  O15  1  0.491387  0.264308  0.492458  1
