# generated using pymatgen
data_Na2SnO2
_symmetry_space_group_name_H-M   'P 1'
_cell_length_a   5.85194707
_cell_length_b   6.87972279
_cell_length_c   17.01531869
_cell_angle_alpha   90.00000000
_cell_angle_beta   90.00000000
_cell_angle_gamma   90.00000000
_symmetry_Int_Tables_number   1
_chemical_formula_structural   Na2SnO2
_chemical_formula_sum   'Na16 Sn8 O16'
_cell_volume   685.03287859
_cell_formula_units_Z   8
loop_
 _symmetry_equiv_pos_site_id
 _symmetry_equiv_pos_as_xyz
  1  'x, y, z'
loop_
 _atom_site_type_symbol
 _atom_site_label
 _atom_site_symmetry_multiplicity
 _atom_site_fract_x
 _atom_site_fract_y
 _atom_site_fract_z
 _atom_site_occupancy
  Na  Na0  1  0.750000  0.878809  0.000000  1
  Na  Na1  1  0.750000  0.372902  0.000000  1
  Na  Na2  1  0.250000  0.627098  0.000000  1
  Na  Na3  1  0.250000  0.121191  0.000000  1
  Na  Na4  1  0.419079  0.875449  0.146992  1
  Na  Na5  1  0.919079  0.124551  0.146992  1
  Na  Na6  1  0.919079  0.624551  0.353008  1
  Na  Na7  1  0.419079  0.375449  0.353008  1
  Na  Na8  1  0.750000  0.872902  0.500000  1
  Na  Na9  1  0.250000  0.621191  0.500000  1
  Na  Na10  1  0.750000  0.378809  0.500000  1
  Na  Na11  1  0.250000  0.127098  0.500000  1
  Na  Na12  1  0.580921  0.624551  0.646992  1
  Na  Na13  1  0.080921  0.375449  0.646992  1
  Na  Na14  1  0.080921  0.875449  0.853008  1
  Na  Na15  1  0.580921  0.124551  0.853008  1
  Sn  Sn16  1  0.933111  0.631565  0.159169  1
  Sn  Sn17  1  0.433111  0.368435  0.159169  1
  Sn  Sn18  1  0.433111  0.868435  0.340831  1
  Sn  Sn19  1  0.933111  0.131565  0.340831  1
  Sn  Sn20  1  0.066889  0.868435  0.659169  1
  Sn  Sn21  1  0.566889  0.131565  0.659169  1
  Sn  Sn22  1  0.566889  0.631565  0.840831  1
  Sn  Sn23  1  0.066889  0.368435  0.840831  1
  O  O24  1  0.559488  0.152923  0.088787  1
  O  O25  1  0.059488  0.847077  0.088787  1
  O  O26  1  0.614282  0.597457  0.098852  1
  O  O27  1  0.114282  0.402543  0.098852  1
  O  O28  1  0.114282  0.902543  0.401148  1
  O  O29  1  0.614282  0.097457  0.401148  1
  O  O30  1  0.559488  0.652923  0.411213  1
  O  O31  1  0.059488  0.347077  0.411213  1
  O  O32  1  0.940512  0.652923  0.588787  1
  O  O33  1  0.440512  0.347077  0.588787  1
  O  O34  1  0.385718  0.902543  0.598852  1
  O  O35  1  0.885718  0.097457  0.598852  1
  O  O36  1  0.885718  0.597457  0.901148  1
  O  O37  1  0.385718  0.402543  0.901148  1
  O  O38  1  0.440512  0.847077  0.911213  1
  O  O39  1  0.940512  0.152923  0.911213  1
