# generated using pymatgen
data_Li6MnFe5(BO3)6
_symmetry_space_group_name_H-M   'P 1'
_cell_length_a   8.24405512
_cell_length_b   3.13955914
_cell_length_c   14.29396127
_cell_angle_alpha   90.00000000
_cell_angle_beta   90.10137137
_cell_angle_gamma   90.00000000
_symmetry_Int_Tables_number   1
_chemical_formula_structural   Li6MnFe5(BO3)6
_chemical_formula_sum   'Li6 Mn1 Fe5 B6 O18'
_cell_volume   369.96571216
_cell_formula_units_Z   1
loop_
 _symmetry_equiv_pos_site_id
 _symmetry_equiv_pos_as_xyz
  1  'x, y, z'
loop_
 _atom_site_type_symbol
 _atom_site_label
 _atom_site_symmetry_multiplicity
 _atom_site_fract_x
 _atom_site_fract_y
 _atom_site_fract_z
 _atom_site_occupancy
  Li  Li0  1  0.707289  0.500000  0.990945  1
  Li  Li1  1  0.659798  0.500000  0.358348  1
  Li  Li2  1  0.635002  0.500000  0.651236  1
  Li  Li3  1  0.206129  0.500000  0.493105  1
  Li  Li4  1  0.159056  0.500000  0.857340  1
  Li  Li5  1  0.133774  0.500000  0.150332  1
  Mn  Mn6  1  0.326016  0.000000  0.313831  1
  Fe  Fe7  1  0.862781  0.000000  0.504313  1
  Fe  Fe8  1  0.824084  0.000000  0.815656  1
  Fe  Fe9  1  0.811869  0.000000  0.180041  1
  Fe  Fe10  1  0.364472  0.000000  0.003383  1
  Fe  Fe11  1  0.312472  0.000000  0.680109  1
  B  B12  1  0.000160  0.500000  0.666961  1
  B  B13  1  0.999831  0.000000  0.999911  1
  B  B14  1  0.997762  0.500000  0.333436  1
  B  B15  1  0.502342  0.500000  0.165060  1
  B  B16  1  0.499021  0.000000  0.501321  1
  B  B17  1  0.500185  0.500000  0.833306  1
  O  O18  1  0.987460  0.500000  0.430669  1
  O  O19  1  0.981836  0.500000  0.763874  1
  O  O20  1  0.863603  0.500000  0.609148  1
  O  O21  1  0.857210  0.500000  0.279364  1
  O  O22  1  0.847986  0.000000  0.957220  1
  O  O23  1  0.656120  0.500000  0.125194  1
  O  O24  1  0.651749  0.500000  0.790664  1
  O  O25  1  0.637867  0.000000  0.445587  1
  O  O26  1  0.514174  0.000000  0.598379  1
  O  O27  1  0.488763  0.500000  0.930458  1
  O  O28  1  0.486818  0.500000  0.262297  1
  O  O29  1  0.363998  0.500000  0.108771  1
  O  O30  1  0.359910  0.500000  0.779125  1
  O  O31  1  0.346040  0.000000  0.460305  1
  O  O32  1  0.154756  0.500000  0.627759  1
  O  O33  1  0.148160  0.500000  0.290005  1
  O  O34  1  0.139585  0.000000  0.945409  1
  O  O35  1  0.011924  0.000000  0.097138  1
