# generated using pymatgen
data_LiFePO4
_symmetry_space_group_name_H-M   'P 1'
_cell_length_a   5.60837128
_cell_length_b   6.34858393
_cell_length_c   9.35505393
_cell_angle_alpha   74.61145952
_cell_angle_beta   80.79063657
_cell_angle_gamma   77.43852399
_symmetry_Int_Tables_number   1
_chemical_formula_structural   LiFePO4
_chemical_formula_sum   'Li4 Fe4 P4 O16'
_cell_volume   311.60110185
_cell_formula_units_Z   4
loop_
 _symmetry_equiv_pos_site_id
 _symmetry_equiv_pos_as_xyz
  1  'x, y, z'
loop_
 _atom_site_type_symbol
 _atom_site_label
 _atom_site_symmetry_multiplicity
 _atom_site_fract_x
 _atom_site_fract_y
 _atom_site_fract_z
 _atom_site_occupancy
  Li  Li0  1  0.671071  0.364933  0.892284  1
  Li  Li1  1  0.169802  0.486196  0.748575  1
  Li  Li2  1  0.830198  0.513804  0.251425  1
  Li  Li3  1  0.328929  0.635067  0.107716  1
  Fe  Fe4  1  0.321830  0.949922  0.786831  1
  Fe  Fe5  1  0.779999  0.162021  0.587729  1
  Fe  Fe6  1  0.220001  0.837979  0.412271  1
  Fe  Fe7  1  0.678170  0.050078  0.213169  1
  P  P8  1  0.810440  0.821968  0.922826  1
  P  P9  1  0.687952  0.697652  0.548434  1
  P  P10  1  0.312048  0.302348  0.451566  1
  P  P11  1  0.189560  0.178032  0.077174  1
  O  O12  1  0.611564  0.696060  0.902379  1
  O  O13  1  0.076967  0.715226  0.871038  1
  O  O14  1  0.203065  0.185397  0.909340  1
  O  O15  1  0.750922  0.064879  0.826599  1
  O  O16  1  0.874192  0.837583  0.564057  1
  O  O17  1  0.417594  0.779793  0.612697  1
  O  O18  1  0.778680  0.458692  0.634289  1
  O  O19  1  0.331965  0.273589  0.620554  1
  O  O20  1  0.668035  0.726411  0.379446  1
  O  O21  1  0.221320  0.541308  0.365711  1
  O  O22  1  0.582406  0.220207  0.387303  1
  O  O23  1  0.125808  0.162417  0.435943  1
  O  O24  1  0.249078  0.935121  0.173401  1
  O  O25  1  0.796935  0.814603  0.090660  1
  O  O26  1  0.923033  0.284774  0.128962  1
  O  O27  1  0.388436  0.303940  0.097621  1
