# generated using pymatgen
data_K3NaP4(H2O7)2
_symmetry_space_group_name_H-M   'P 1'
_cell_length_a   9.43427154
_cell_length_b   9.43427154
_cell_length_c   11.35392990
_cell_angle_alpha   80.91422375
_cell_angle_beta   99.08577625
_cell_angle_gamma   134.09748837
_symmetry_Int_Tables_number   1
_chemical_formula_structural   K3NaP4(H2O7)2
_chemical_formula_sum   'K6 Na2 P8 H8 O28'
_cell_volume   714.99090515
_cell_formula_units_Z   2
loop_
 _symmetry_equiv_pos_site_id
 _symmetry_equiv_pos_as_xyz
  1  'x, y, z'
loop_
 _atom_site_type_symbol
 _atom_site_label
 _atom_site_symmetry_multiplicity
 _atom_site_fract_x
 _atom_site_fract_y
 _atom_site_fract_z
 _atom_site_occupancy
  K  K0  1  0.167830  0.447762  0.011569  1
  K  K1  1  0.447762  0.167830  0.488431  1
  K  K2  1  0.832170  0.552238  0.988431  1
  K  K3  1  0.552238  0.832170  0.511569  1
  K  K4  1  0.862368  0.862368  0.250000  1
  K  K5  1  0.137632  0.137632  0.750000  1
  Na  Na6  1  0.500000  0.000000  0.000000  1
  Na  Na7  1  0.000000  0.500000  0.500000  1
  P  P8  1  0.780367  0.174875  0.744333  1
  P  P9  1  0.174875  0.780367  0.755667  1
  P  P10  1  0.219633  0.825125  0.255667  1
  P  P11  1  0.825125  0.219633  0.244333  1
  P  P12  1  0.677637  0.818230  0.896873  1
  P  P13  1  0.818230  0.677637  0.603127  1
  P  P14  1  0.322363  0.181770  0.103127  1
  P  P15  1  0.181770  0.322363  0.396873  1
  H  H16  1  0.523311  0.123338  0.768280  1
  H  H17  1  0.123338  0.523311  0.731720  1
  H  H18  1  0.476689  0.876662  0.231720  1
  H  H19  1  0.876662  0.476689  0.268280  1
  H  H20  1  0.487641  0.609507  0.758661  1
  H  H21  1  0.609507  0.487641  0.741339  1
  H  H22  1  0.512359  0.390493  0.241339  1
  H  H23  1  0.390493  0.512359  0.258661  1
  O  O24  1  0.740416  0.185953  0.611196  1
  O  O25  1  0.185953  0.740416  0.888804  1
  O  O26  1  0.259584  0.814047  0.388804  1
  O  O27  1  0.814047  0.259584  0.111196  1
  O  O28  1  0.661412  0.196929  0.813088  1
  O  O29  1  0.196929  0.661412  0.686912  1
  O  O30  1  0.338588  0.803071  0.186912  1
  O  O31  1  0.803071  0.338588  0.313088  1
  O  O32  1  0.994427  0.315227  0.794260  1
  O  O33  1  0.315227  0.994427  0.705740  1
  O  O34  1  0.005573  0.684773  0.205740  1
  O  O35  1  0.684773  0.005573  0.294260  1
  O  O36  1  0.681860  0.949929  0.780499  1
  O  O37  1  0.949929  0.681860  0.719501  1
  O  O38  1  0.318140  0.050071  0.219501  1
  O  O39  1  0.050071  0.318140  0.280499  1
  O  O40  1  0.610273  0.827315  0.004060  1
  O  O41  1  0.827315  0.610273  0.495940  1
  O  O42  1  0.389727  0.172685  0.995940  1
  O  O43  1  0.172685  0.389727  0.504060  1
  O  O44  1  0.489411  0.598431  0.845413  1
  O  O45  1  0.598431  0.489411  0.654587  1
  O  O46  1  0.510589  0.401569  0.154587  1
  O  O47  1  0.401569  0.510589  0.345413  1
  O  O48  1  0.860553  0.855447  0.902567  1
  O  O49  1  0.855447  0.860553  0.597433  1
  O  O50  1  0.139447  0.144553  0.097433  1
  O  O51  1  0.144553  0.139447  0.402567  1
