# generated using pymatgen
data_Li4Fe2Co3Cu3O16
_symmetry_space_group_name_H-M   'P 1'
_cell_length_a   5.80917652
_cell_length_b   5.80917652
_cell_length_c   9.40385195
_cell_angle_alpha   88.40747062
_cell_angle_beta   91.59252938
_cell_angle_gamma   120.61650891
_symmetry_Int_Tables_number   1
_chemical_formula_structural   Li4Fe2Co3Cu3O16
_chemical_formula_sum   'Li4 Fe2 Co3 Cu3 O16'
_cell_volume   272.96788271
_cell_formula_units_Z   1
loop_
 _symmetry_equiv_pos_site_id
 _symmetry_equiv_pos_as_xyz
  1  'x, y, z'
loop_
 _atom_site_type_symbol
 _atom_site_label
 _atom_site_symmetry_multiplicity
 _atom_site_fract_x
 _atom_site_fract_y
 _atom_site_fract_z
 _atom_site_occupancy
  Li  Li0  1  0.667000  0.333000  0.107503  1
  Li  Li1  1  0.998725  0.001275  0.002499  1
  Li  Li2  1  0.000586  0.999414  0.505098  1
  Li  Li3  1  0.336451  0.663549  0.606133  1
  Fe  Fe4  1  0.665997  0.334003  0.507804  1
  Fe  Fe5  1  0.330083  0.669917  0.007322  1
  Co  Co6  1  0.830176  0.169824  0.787070  1
  Co  Co7  1  0.662134  0.831196  0.286710  1
  Co  Co8  1  0.168804  0.337866  0.286710  1
  Cu  Cu9  1  0.830324  0.661533  0.785624  1
  Cu  Cu10  1  0.338467  0.169676  0.785624  1
  Cu  Cu11  1  0.168570  0.831430  0.285552  1
  O  O12  1  0.827641  0.677485  0.398331  1
  O  O13  1  0.520579  0.479421  0.658121  1
  O  O14  1  0.672886  0.327114  0.890596  1
  O  O15  1  0.992805  0.007195  0.694299  1
  O  O16  1  0.993917  0.006083  0.191324  1
  O  O17  1  0.322515  0.172359  0.398331  1
  O  O18  1  0.966440  0.469882  0.661257  1
  O  O19  1  0.530118  0.033560  0.661257  1
  O  O20  1  0.159857  0.840143  0.903717  1
  O  O21  1  0.841043  0.158957  0.390533  1
  O  O22  1  0.494232  0.961336  0.164466  1
  O  O23  1  0.038664  0.505768  0.164466  1
  O  O24  1  0.338902  0.661098  0.390704  1
  O  O25  1  0.669258  0.848994  0.898676  1
  O  O26  1  0.481219  0.518781  0.173609  1
  O  O27  1  0.151006  0.330742  0.898676  1
