# generated using pymatgen
data_Na3FeO4
_symmetry_space_group_name_H-M   'P 1'
_cell_length_a   8.92056653
_cell_length_b   10.02685898
_cell_length_c   10.38932298
_cell_angle_alpha   90.00000000
_cell_angle_beta   90.00000000
_cell_angle_gamma   90.00000000
_symmetry_Int_Tables_number   1
_chemical_formula_structural   Na3FeO4
_chemical_formula_sum   'Na24 Fe8 O32'
_cell_volume   929.27572237
_cell_formula_units_Z   8
loop_
 _symmetry_equiv_pos_site_id
 _symmetry_equiv_pos_as_xyz
  1  'x, y, z'
loop_
 _atom_site_type_symbol
 _atom_site_label
 _atom_site_symmetry_multiplicity
 _atom_site_fract_x
 _atom_site_fract_y
 _atom_site_fract_z
 _atom_site_occupancy
  Na  Na0  1  0.959200  0.871361  0.903470  1
  Na  Na1  1  0.959200  0.371361  0.596530  1
  Na  Na2  1  0.880054  0.461936  0.143375  1
  Na  Na3  1  0.880054  0.961936  0.356625  1
  Na  Na4  1  0.785730  0.769774  0.622863  1
  Na  Na5  1  0.785730  0.269774  0.877137  1
  Na  Na6  1  0.714270  0.769774  0.122863  1
  Na  Na7  1  0.714270  0.269774  0.377137  1
  Na  Na8  1  0.619946  0.461936  0.643375  1
  Na  Na9  1  0.619946  0.961936  0.856625  1
  Na  Na10  1  0.540800  0.371361  0.096530  1
  Na  Na11  1  0.540800  0.871361  0.403470  1
  Na  Na12  1  0.459200  0.128639  0.596530  1
  Na  Na13  1  0.459200  0.628639  0.903470  1
  Na  Na14  1  0.380054  0.538064  0.356625  1
  Na  Na15  1  0.380054  0.038064  0.143375  1
  Na  Na16  1  0.285730  0.730226  0.622863  1
  Na  Na17  1  0.285730  0.230226  0.877137  1
  Na  Na18  1  0.214270  0.730226  0.122863  1
  Na  Na19  1  0.214270  0.230226  0.377137  1
  Na  Na20  1  0.119946  0.038064  0.643375  1
  Na  Na21  1  0.119946  0.538064  0.856625  1
  Na  Na22  1  0.040800  0.128639  0.096530  1
  Na  Na23  1  0.040800  0.628639  0.403470  1
  Fe  Fe24  1  0.793040  0.096415  0.617802  1
  Fe  Fe25  1  0.793040  0.596415  0.882198  1
  Fe  Fe26  1  0.706960  0.096415  0.117802  1
  Fe  Fe27  1  0.706960  0.596415  0.382198  1
  Fe  Fe28  1  0.293040  0.403585  0.617802  1
  Fe  Fe29  1  0.293040  0.903585  0.882198  1
  Fe  Fe30  1  0.206960  0.403585  0.117802  1
  Fe  Fe31  1  0.206960  0.903585  0.382198  1
  O  O32  1  0.912412  0.156427  0.498002  1
  O  O33  1  0.912412  0.656427  0.001998  1
  O  O34  1  0.874597  0.517248  0.751191  1
  O  O35  1  0.874597  0.017248  0.748809  1
  O  O36  1  0.823730  0.971402  0.062867  1
  O  O37  1  0.823730  0.471402  0.437133  1
  O  O38  1  0.802223  0.241547  0.159609  1
  O  O39  1  0.802223  0.741547  0.340391  1
  O  O40  1  0.697777  0.241547  0.659609  1
  O  O41  1  0.697777  0.741547  0.840391  1
  O  O42  1  0.676270  0.971402  0.562867  1
  O  O43  1  0.676270  0.471402  0.937133  1
  O  O44  1  0.625403  0.017248  0.248809  1
  O  O45  1  0.625403  0.517248  0.251191  1
  O  O46  1  0.587588  0.156427  0.998002  1
  O  O47  1  0.587588  0.656427  0.501998  1
  O  O48  1  0.412412  0.343573  0.498002  1
  O  O49  1  0.412412  0.843573  0.001998  1
  O  O50  1  0.374597  0.482752  0.748809  1
  O  O51  1  0.374597  0.982752  0.751191  1
  O  O52  1  0.323730  0.528598  0.062867  1
  O  O53  1  0.323730  0.028598  0.437133  1
  O  O54  1  0.302223  0.258453  0.159609  1
  O  O55  1  0.302223  0.758453  0.340391  1
  O  O56  1  0.197777  0.758453  0.840391  1
  O  O57  1  0.197777  0.258453  0.659609  1
  O  O58  1  0.176270  0.528598  0.562867  1
  O  O59  1  0.176270  0.028598  0.937133  1
  O  O60  1  0.125403  0.482752  0.248809  1
  O  O61  1  0.125403  0.982752  0.251191  1
  O  O62  1  0.087588  0.343573  0.998002  1
  O  O63  1  0.087588  0.843573  0.501998  1
