# generated using pymatgen
data_Co2OF3
_symmetry_space_group_name_H-M   'P 1'
_cell_length_a   5.71663486
_cell_length_b   4.73604845
_cell_length_c   10.39074847
_cell_angle_alpha   90.00000000
_cell_angle_beta   96.60171555
_cell_angle_gamma   90.00000000
_symmetry_Int_Tables_number   1
_chemical_formula_structural   Co2OF3
_chemical_formula_sum   'Co8 O4 F12'
_cell_volume   279.45646804
_cell_formula_units_Z   4
loop_
 _symmetry_equiv_pos_site_id
 _symmetry_equiv_pos_as_xyz
  1  'x, y, z'
loop_
 _atom_site_type_symbol
 _atom_site_label
 _atom_site_symmetry_multiplicity
 _atom_site_fract_x
 _atom_site_fract_y
 _atom_site_fract_z
 _atom_site_occupancy
  Co  Co0  1  0.500000  0.500000  0.000000  1
  Co  Co1  1  0.000000  0.500000  0.500000  1
  Co  Co2  1  0.741092  0.531231  0.731093  1
  Co  Co3  1  0.258908  0.468769  0.268907  1
  Co  Co4  1  0.258908  0.031231  0.768907  1
  Co  Co5  1  0.500000  0.000000  0.500000  1
  Co  Co6  1  0.741092  0.968769  0.231093  1
  Co  Co7  1  0.000000  0.000000  0.000000  1
  O  O8  1  0.718893  0.800194  0.075294  1
  O  O9  1  0.718893  0.699806  0.575294  1
  O  O10  1  0.281107  0.300194  0.424706  1
  O  O11  1  0.281107  0.199806  0.924706  1
  F  F12  1  0.478210  0.799658  0.320746  1
  F  F13  1  0.224266  0.814739  0.588055  1
  F  F14  1  0.984515  0.800940  0.824121  1
  F  F15  1  0.478210  0.700342  0.820746  1
  F  F16  1  0.224266  0.685261  0.088055  1
  F  F17  1  0.984515  0.699060  0.324121  1
  F  F18  1  0.775734  0.314739  0.911945  1
  F  F19  1  0.015485  0.300940  0.675879  1
  F  F20  1  0.521790  0.299658  0.179254  1
  F  F21  1  0.015485  0.199060  0.175879  1
  F  F22  1  0.521790  0.200342  0.679254  1
  F  F23  1  0.775734  0.185261  0.411945  1
