# generated using pymatgen
data_Li3Nd2H6(N3O10)3
_symmetry_space_group_name_H-M   'P 1'
_cell_length_a   13.47832955
_cell_length_b   13.47832955
_cell_length_c   13.47832955
_cell_angle_alpha   90.00000000
_cell_angle_beta   90.00000000
_cell_angle_gamma   90.00000000
_symmetry_Int_Tables_number   1
_chemical_formula_structural   Li3Nd2H6(N3O10)3
_chemical_formula_sum   'Li12 Nd8 H24 N36 O120'
_cell_volume   2448.54569043
_cell_formula_units_Z   4
loop_
 _symmetry_equiv_pos_site_id
 _symmetry_equiv_pos_as_xyz
  1  'x, y, z'
loop_
 _atom_site_type_symbol
 _atom_site_label
 _atom_site_symmetry_multiplicity
 _atom_site_fract_x
 _atom_site_fract_y
 _atom_site_fract_z
 _atom_site_occupancy
  Li  Li0  1  0.201287  0.949463  0.777554  1
  Li  Li1  1  0.222446  0.701287  0.550537  1
  Li  Li2  1  0.449463  0.722446  0.798713  1
  Li  Li3  1  0.701287  0.550537  0.222446  1
  Li  Li4  1  0.722446  0.798713  0.449463  1
  Li  Li5  1  0.949463  0.777554  0.201287  1
  Li  Li6  1  0.798713  0.449463  0.722446  1
  Li  Li7  1  0.777554  0.201287  0.949463  1
  Li  Li8  1  0.550537  0.222446  0.701287  1
  Li  Li9  1  0.298713  0.050537  0.277554  1
  Li  Li10  1  0.277554  0.298713  0.050537  1
  Li  Li11  1  0.050537  0.277554  0.298713  1
  Nd  Nd12  1  0.034233  0.534233  0.965767  1
  Nd  Nd13  1  0.534233  0.965767  0.034233  1
  Nd  Nd14  1  0.965767  0.034233  0.534233  1
  Nd  Nd15  1  0.465767  0.465767  0.465767  1
  Nd  Nd16  1  0.778554  0.778554  0.778554  1
  Nd  Nd17  1  0.221446  0.278554  0.721446  1
  Nd  Nd18  1  0.278554  0.721446  0.221446  1
  Nd  Nd19  1  0.721446  0.221446  0.278554  1
  H  H20  1  0.863025  0.487081  0.533075  1
  H  H21  1  0.466925  0.363025  0.012919  1
  H  H22  1  0.987081  0.966925  0.136975  1
  H  H23  1  0.363025  0.012919  0.466925  1
  H  H24  1  0.966925  0.136975  0.987081  1
  H  H25  1  0.487081  0.533075  0.863025  1
  H  H26  1  0.136975  0.987081  0.966925  1
  H  H27  1  0.533075  0.863025  0.487081  1
  H  H28  1  0.012919  0.466925  0.363025  1
  H  H29  1  0.636975  0.512919  0.033075  1
  H  H30  1  0.033075  0.636975  0.512919  1
  H  H31  1  0.512919  0.033075  0.636975  1
  H  H32  1  0.057354  0.949081  0.891675  1
  H  H33  1  0.108325  0.557354  0.550919  1
  H  H34  1  0.449081  0.608325  0.942646  1
  H  H35  1  0.557354  0.550919  0.108325  1
  H  H36  1  0.608325  0.942646  0.449081  1
  H  H37  1  0.949081  0.891675  0.057354  1
  H  H38  1  0.942646  0.449081  0.608325  1
  H  H39  1  0.891675  0.057354  0.949081  1
  H  H40  1  0.550919  0.108325  0.557354  1
  H  H41  1  0.442646  0.050919  0.391675  1
  H  H42  1  0.391675  0.442646  0.050919  1
  H  H43  1  0.050919  0.391675  0.442646  1
  N  N44  1  0.236124  0.626440  0.012919  1
  N  N45  1  0.987081  0.736124  0.873560  1
  N  N46  1  0.126440  0.487081  0.763876  1
  N  N47  1  0.736124  0.873560  0.987081  1
  N  N48  1  0.487081  0.763876  0.126440  1
  N  N49  1  0.626440  0.012919  0.236124  1
  N  N50  1  0.763876  0.126440  0.487081  1
  N  N51  1  0.012919  0.236124  0.626440  1
  N  N52  1  0.873560  0.987081  0.736124  1
  N  N53  1  0.263876  0.373560  0.512919  1
  N  N54  1  0.512919  0.263876  0.373560  1
  N  N55  1  0.373560  0.512919  0.263876  1
  N  N56  1  0.389304  0.604643  0.626847  1
  N  N57  1  0.373153  0.889304  0.895357  1
  N  N58  1  0.104643  0.873153  0.610696  1
  N  N59  1  0.889304  0.895357  0.373153  1
  N  N60  1  0.873153  0.610696  0.104643  1
  N  N61  1  0.604643  0.626847  0.389304  1
  N  N62  1  0.610696  0.104643  0.873153  1
  N  N63  1  0.626847  0.389304  0.604643  1
  N  N64  1  0.895357  0.373153  0.889304  1
  N  N65  1  0.110696  0.395357  0.126847  1
  N  N66  1  0.126847  0.110696  0.395357  1
  N  N67  1  0.395357  0.126847  0.110696  1
  N  N68  1  0.709882  0.581571  0.851714  1
  N  N69  1  0.148286  0.209882  0.918429  1
  N  N70  1  0.081571  0.648286  0.290118  1
  N  N71  1  0.209882  0.918429  0.148286  1
  N  N72  1  0.648286  0.290118  0.081571  1
  N  N73  1  0.581571  0.851714  0.709882  1
  N  N74  1  0.290118  0.081571  0.648286  1
  N  N75  1  0.851714  0.709882  0.581571  1
  N  N76  1  0.918429  0.148286  0.209882  1
  N  N77  1  0.790118  0.418429  0.351714  1
  N  N78  1  0.351714  0.790118  0.418429  1
  N  N79  1  0.418429  0.351714  0.790118  1
  O  O80  1  0.872609  0.921110  0.667003  1
  O  O81  1  0.332997  0.372609  0.578890  1
  O  O82  1  0.421110  0.832997  0.127391  1
  O  O83  1  0.372609  0.578890  0.332997  1
  O  O84  1  0.832997  0.127391  0.421110  1
  O  O85  1  0.921110  0.667003  0.872609  1
  O  O86  1  0.127391  0.421110  0.832997  1
  O  O87  1  0.667003  0.872609  0.921110  1
  O  O88  1  0.578890  0.332997  0.372609  1
  O  O89  1  0.627391  0.078890  0.167003  1
  O  O90  1  0.167003  0.627391  0.078890  1
  O  O91  1  0.078890  0.167003  0.627391  1
  O  O92  1  0.220547  0.583191  0.932127  1
  O  O93  1  0.067873  0.720547  0.916809  1
  O  O94  1  0.083191  0.567873  0.779453  1
  O  O95  1  0.720547  0.916809  0.067873  1
  O  O96  1  0.567873  0.779453  0.083191  1
  O  O97  1  0.583191  0.932127  0.220547  1
  O  O98  1  0.779453  0.083191  0.567873  1
  O  O99  1  0.932127  0.220547  0.583191  1
  O  O100  1  0.916809  0.067873  0.720547  1
  O  O101  1  0.279453  0.416809  0.432127  1
  O  O102  1  0.432127  0.279453  0.416809  1
  O  O103  1  0.416809  0.432127  0.279453  1
  O  O104  1  0.831527  0.967394  0.817279  1
  O  O105  1  0.182721  0.331527  0.532606  1
  O  O106  1  0.467394  0.682721  0.168473  1
  O  O107  1  0.331527  0.532606  0.182721  1
  O  O108  1  0.682721  0.168473  0.467394  1
  O  O109  1  0.967394  0.817279  0.831527  1
  O  O110  1  0.168473  0.467394  0.682721  1
  O  O111  1  0.817279  0.831527  0.967394  1
  O  O112  1  0.532606  0.182721  0.331527  1
  O  O113  1  0.668473  0.032606  0.317279  1
  O  O114  1  0.317279  0.668473  0.032606  1
  O  O115  1  0.032606  0.317279  0.668473  1
  O  O116  1  0.340479  0.592520  0.545304  1
  O  O117  1  0.454696  0.840479  0.907480  1
  O  O118  1  0.092520  0.954696  0.659521  1
  O  O119  1  0.840479  0.907480  0.454696  1
  O  O120  1  0.954696  0.659521  0.092520  1
  O  O121  1  0.592520  0.545304  0.340479  1
  O  O122  1  0.659521  0.092520  0.954696  1
  O  O123  1  0.545304  0.340479  0.592520  1
  O  O124  1  0.907480  0.454696  0.840479  1
  O  O125  1  0.159521  0.407480  0.045304  1
  O  O126  1  0.045304  0.159521  0.407480  1
  O  O127  1  0.407480  0.045304  0.159521  1
  O  O128  1  0.050967  0.859779  0.534824  1
  O  O129  1  0.465176  0.550967  0.640221  1
  O  O130  1  0.359779  0.965176  0.949033  1
  O  O131  1  0.550967  0.640221  0.465176  1
  O  O132  1  0.965176  0.949033  0.359779  1
  O  O133  1  0.859779  0.534824  0.050967  1
  O  O134  1  0.949033  0.359779  0.965176  1
  O  O135  1  0.534824  0.050967  0.859779  1
  O  O136  1  0.640221  0.465176  0.550967  1
  O  O137  1  0.449033  0.140221  0.034824  1
  O  O138  1  0.034824  0.449033  0.140221  1
  O  O139  1  0.140221  0.034824  0.449033  1
  O  O140  1  0.360357  0.668146  0.687872  1
  O  O141  1  0.312128  0.860357  0.831854  1
  O  O142  1  0.168146  0.812128  0.639643  1
  O  O143  1  0.860357  0.831854  0.312128  1
  O  O144  1  0.812128  0.639643  0.168146  1
  O  O145  1  0.668146  0.687872  0.360357  1
  O  O146  1  0.639643  0.168146  0.812128  1
  O  O147  1  0.687872  0.360357  0.668146  1
  O  O148  1  0.831854  0.312128  0.860357  1
  O  O149  1  0.139643  0.331854  0.187872  1
  O  O150  1  0.187872  0.139643  0.331854  1
  O  O151  1  0.331854  0.187872  0.139643  1
  O  O152  1  0.704380  0.661580  0.901676  1
  O  O153  1  0.098324  0.204380  0.838420  1
  O  O154  1  0.161580  0.598324  0.295620  1
  O  O155  1  0.204380  0.838420  0.098324  1
  O  O156  1  0.598324  0.295620  0.161580  1
  O  O157  1  0.661580  0.901676  0.704380  1
  O  O158  1  0.295620  0.161580  0.598324  1
  O  O159  1  0.901676  0.704380  0.661580  1
  O  O160  1  0.838420  0.098324  0.204380  1
  O  O161  1  0.795620  0.338420  0.401676  1
  O  O162  1  0.401676  0.795620  0.338420  1
  O  O163  1  0.338420  0.401676  0.795620  1
  O  O164  1  0.745986  0.589050  0.762693  1
  O  O165  1  0.237307  0.245986  0.910950  1
  O  O166  1  0.089050  0.737307  0.254014  1
  O  O167  1  0.245986  0.910950  0.237307  1
  O  O168  1  0.737307  0.254014  0.089050  1
  O  O169  1  0.589050  0.762693  0.745986  1
  O  O170  1  0.254014  0.089050  0.737307  1
  O  O171  1  0.762693  0.745986  0.589050  1
  O  O172  1  0.910950  0.237307  0.245986  1
  O  O173  1  0.754014  0.410950  0.262693  1
  O  O174  1  0.262693  0.754014  0.410950  1
  O  O175  1  0.410950  0.262693  0.754014  1
  O  O176  1  0.500291  0.885178  0.683598  1
  O  O177  1  0.316402  0.000291  0.614822  1
  O  O178  1  0.385178  0.816402  0.499709  1
  O  O179  1  0.000291  0.614822  0.316402  1
  O  O180  1  0.816402  0.499709  0.385178  1
  O  O181  1  0.885178  0.683598  0.500291  1
  O  O182  1  0.499709  0.385178  0.816402  1
  O  O183  1  0.683598  0.500291  0.885178  1
  O  O184  1  0.614822  0.316402  0.000291  1
  O  O185  1  0.999709  0.114822  0.183598  1
  O  O186  1  0.183598  0.999709  0.114822  1
  O  O187  1  0.114822  0.183598  0.999709  1
  O  O188  1  0.104037  0.621174  0.517018  1
  O  O189  1  0.482982  0.604037  0.878826  1
  O  O190  1  0.121174  0.982982  0.895963  1
  O  O191  1  0.604037  0.878826  0.482982  1
  O  O192  1  0.982982  0.895963  0.121174  1
  O  O193  1  0.621174  0.517018  0.104037  1
  O  O194  1  0.895963  0.121174  0.982982  1
  O  O195  1  0.517018  0.104037  0.621174  1
  O  O196  1  0.878826  0.482982  0.604037  1
  O  O197  1  0.395963  0.378826  0.017018  1
  O  O198  1  0.017018  0.395963  0.378826  1
  O  O199  1  0.378826  0.017018  0.395963  1
