# generated using pymatgen
data_Na5Cr2P(CO4)4
_symmetry_space_group_name_H-M   'P 1'
_cell_length_a   9.87242010
_cell_length_b   9.87242010
_cell_length_c   9.75869364
_cell_angle_alpha   60.45798241
_cell_angle_beta   119.54201759
_cell_angle_gamma   89.19814118
_symmetry_Int_Tables_number   1
_chemical_formula_structural   Na5Cr2P(CO4)4
_chemical_formula_sum   'Na10 Cr4 P2 C8 O32'
_cell_volume   677.09355272
_cell_formula_units_Z   2
loop_
 _symmetry_equiv_pos_site_id
 _symmetry_equiv_pos_as_xyz
  1  'x, y, z'
loop_
 _atom_site_type_symbol
 _atom_site_label
 _atom_site_symmetry_multiplicity
 _atom_site_fract_x
 _atom_site_fract_y
 _atom_site_fract_z
 _atom_site_occupancy
  Na  Na0  1  0.082619  0.662271  0.656990  1
  Na  Na1  1  0.337470  0.917258  0.763301  1
  Na  Na2  1  0.337729  0.917381  0.156990  1
  Na  Na3  1  0.076179  0.076179  0.250000  1
  Na  Na4  1  0.082742  0.662530  0.263301  1
  Na  Na5  1  0.923821  0.923821  0.750000  1
  Na  Na6  1  0.917258  0.337470  0.736699  1
  Na  Na7  1  0.662271  0.082619  0.843010  1
  Na  Na8  1  0.662530  0.082742  0.236699  1
  Na  Na9  1  0.917381  0.337729  0.343010  1
  Cr  Cr10  1  0.500000  0.000000  0.500000  1
  Cr  Cr11  1  0.500000  0.500000  0.000000  1
  Cr  Cr12  1  0.500000  0.500000  0.500000  1
  Cr  Cr13  1  0.000000  0.500000  0.000000  1
  P  P14  1  0.872471  0.872471  0.250000  1
  P  P15  1  0.127529  0.127529  0.750000  1
  C  C16  1  0.288574  0.287087  0.074482  1
  C  C17  1  0.284554  0.638788  0.073107  1
  C  C18  1  0.638788  0.284554  0.426893  1
  C  C19  1  0.287087  0.288574  0.425518  1
  C  C20  1  0.361212  0.715446  0.573107  1
  C  C21  1  0.712913  0.711426  0.574482  1
  C  C22  1  0.715446  0.361212  0.926893  1
  C  C23  1  0.711426  0.712913  0.925518  1
  O  O24  1  0.356414  0.860523  0.542907  1
  O  O25  1  0.308749  0.641739  0.952414  1
  O  O26  1  0.143192  0.401742  0.954298  1
  O  O27  1  0.593438  0.687047  0.945264  1
  O  O28  1  0.139477  0.643586  0.042907  1
  O  O29  1  0.681352  0.943462  0.118604  1
  O  O30  1  0.938946  0.938137  0.119769  1
  O  O31  1  0.398510  0.640137  0.214193  1
  O  O32  1  0.311580  0.142112  0.213194  1
  O  O33  1  0.640137  0.398510  0.285807  1
  O  O34  1  0.142112  0.311580  0.286806  1
  O  O35  1  0.938137  0.938946  0.380231  1
  O  O36  1  0.943462  0.681352  0.381396  1
  O  O37  1  0.358261  0.691251  0.452414  1
  O  O38  1  0.598258  0.856808  0.454298  1
  O  O39  1  0.312953  0.406562  0.445264  1
  O  O40  1  0.687047  0.593438  0.554736  1
  O  O41  1  0.401742  0.143192  0.545702  1
  O  O42  1  0.641739  0.308749  0.547586  1
  O  O43  1  0.061863  0.061054  0.619769  1
  O  O44  1  0.056538  0.318648  0.618604  1
  O  O45  1  0.857888  0.688420  0.713194  1
  O  O46  1  0.359863  0.601490  0.714193  1
  O  O47  1  0.688420  0.857888  0.786806  1
  O  O48  1  0.601490  0.359863  0.785807  1
  O  O49  1  0.061054  0.061863  0.880231  1
  O  O50  1  0.318648  0.056538  0.881396  1
  O  O51  1  0.860523  0.356414  0.957093  1
  O  O52  1  0.406562  0.312953  0.054736  1
  O  O53  1  0.691251  0.358261  0.047586  1
  O  O54  1  0.856808  0.598258  0.045702  1
  O  O55  1  0.643586  0.139477  0.457093  1
