# generated using pymatgen
data_Mn6OF11
_symmetry_space_group_name_H-M   'P 1'
_cell_length_a   5.29603154
_cell_length_b   5.29603154
_cell_length_c   15.65443349
_cell_angle_alpha   86.95473047
_cell_angle_beta   93.04526953
_cell_angle_gamma   91.33826403
_symmetry_Int_Tables_number   1
_chemical_formula_structural   Mn6OF11
_chemical_formula_sum   'Mn12 O2 F22'
_cell_volume   437.74275879
_cell_formula_units_Z   2
loop_
 _symmetry_equiv_pos_site_id
 _symmetry_equiv_pos_as_xyz
  1  'x, y, z'
loop_
 _atom_site_type_symbol
 _atom_site_label
 _atom_site_symmetry_multiplicity
 _atom_site_fract_x
 _atom_site_fract_y
 _atom_site_fract_z
 _atom_site_occupancy
  Mn  Mn0  1  0.047047  0.952953  0.006017  1
  Mn  Mn1  1  0.005182  0.497309  0.165530  1
  Mn  Mn2  1  0.037941  0.962059  0.339299  1
  Mn  Mn3  1  0.995022  0.513891  0.497709  1
  Mn  Mn4  1  0.012738  0.987262  0.664248  1
  Mn  Mn5  1  0.011763  0.480714  0.834232  1
  Mn  Mn6  1  0.502691  0.994818  0.165530  1
  Mn  Mn7  1  0.474749  0.525251  0.007878  1
  Mn  Mn8  1  0.500402  0.499598  0.666335  1
  Mn  Mn9  1  0.486109  0.004978  0.497709  1
  Mn  Mn10  1  0.467365  0.532635  0.338901  1
  Mn  Mn11  1  0.519286  0.988237  0.834232  1
  O  O12  1  0.252566  0.747434  0.079975  1
  O  O13  1  0.242345  0.757655  0.414638  1
  F  F14  1  0.211233  0.788767  0.247482  1
  F  F15  1  0.181466  0.236580  0.077691  1
  F  F16  1  0.233445  0.766555  0.586528  1
  F  F17  1  0.181789  0.249088  0.407769  1
  F  F18  1  0.215422  0.784578  0.911443  1
  F  F19  1  0.224188  0.220251  0.748781  1
  F  F20  1  0.322311  0.288098  0.241509  1
  F  F21  1  0.271910  0.271328  0.576112  1
  F  F22  1  0.327641  0.279017  0.913069  1
  F  F23  1  0.283642  0.716358  0.753326  1
  F  F24  1  0.720983  0.672359  0.913069  1
  F  F25  1  0.728672  0.728090  0.576112  1
  F  F26  1  0.711902  0.677689  0.241509  1
  F  F27  1  0.687730  0.312270  0.098960  1
  F  F28  1  0.685779  0.314221  0.427742  1
  F  F29  1  0.720468  0.279532  0.761020  1
  F  F30  1  0.750912  0.818211  0.407769  1
  F  F31  1  0.763420  0.818534  0.077691  1
  F  F32  1  0.779749  0.775812  0.748781  1
  F  F33  1  0.769611  0.230389  0.590163  1
  F  F34  1  0.837979  0.162021  0.924694  1
  F  F35  1  0.834544  0.165456  0.256551  1
