# generated using pymatgen
data_Li2MnV4CuO12
_symmetry_space_group_name_H-M   'P 1'
_cell_length_a   6.93689791
_cell_length_b   6.93689791
_cell_length_c   5.84315760
_cell_angle_alpha   74.47444908
_cell_angle_beta   105.52555092
_cell_angle_gamma   96.82786528
_symmetry_Int_Tables_number   1
_chemical_formula_structural   Li2MnV4CuO12
_chemical_formula_sum   'Li2 Mn1 V4 Cu1 O12'
_cell_volume   260.69260251
_cell_formula_units_Z   1
loop_
 _symmetry_equiv_pos_site_id
 _symmetry_equiv_pos_as_xyz
  1  'x, y, z'
loop_
 _atom_site_type_symbol
 _atom_site_label
 _atom_site_symmetry_multiplicity
 _atom_site_fract_x
 _atom_site_fract_y
 _atom_site_fract_z
 _atom_site_occupancy
  Li  Li0  1  0.754806  0.754806  0.500000  1
  Li  Li1  1  0.238507  0.238507  0.000000  1
  Mn  Mn2  1  0.085933  0.085933  0.500000  1
  V  V3  1  0.393222  0.797776  0.022262  1
  V  V4  1  0.198714  0.608781  0.522282  1
  V  V5  1  0.797776  0.393222  0.977738  1
  V  V6  1  0.608781  0.198714  0.477718  1
  Cu  Cu7  1  0.899367  0.899367  0.000000  1
  O  O8  1  0.217808  0.981296  0.901067  1
  O  O9  1  0.632157  0.899268  0.079734  1
  O  O10  1  0.019358  0.792854  0.407645  1
  O  O11  1  0.362874  0.642549  0.812593  1
  O  O12  1  0.899268  0.632157  0.920266  1
  O  O13  1  0.359742  0.647669  0.310096  1
  O  O14  1  0.642549  0.362874  0.187407  1
  O  O15  1  0.101566  0.365751  0.587902  1
  O  O16  1  0.647669  0.359742  0.689904  1
  O  O17  1  0.981296  0.217808  0.098933  1
  O  O18  1  0.365751  0.101566  0.412098  1
  O  O19  1  0.792854  0.019358  0.592355  1
