# generated using pymatgen
data_Na4Bi2C4SO16
_symmetry_space_group_name_H-M   'P 1'
_cell_length_a   10.44563976
_cell_length_b   10.31829280
_cell_length_c   10.30570744
_cell_angle_alpha   60.85923354
_cell_angle_beta   59.62990660
_cell_angle_gamma   59.51085986
_symmetry_Int_Tables_number   1
_chemical_formula_structural   Na4Bi2C4SO16
_chemical_formula_sum   'Na8 Bi4 C8 S2 O32'
_cell_volume   785.15784522
_cell_formula_units_Z   2
loop_
 _symmetry_equiv_pos_site_id
 _symmetry_equiv_pos_as_xyz
  1  'x, y, z'
loop_
 _atom_site_type_symbol
 _atom_site_label
 _atom_site_symmetry_multiplicity
 _atom_site_fract_x
 _atom_site_fract_y
 _atom_site_fract_z
 _atom_site_occupancy
  Na  Na0  1  0.204397  0.795603  0.204397  1
  Na  Na1  1  0.795392  0.795392  0.204608  1
  Na  Na2  1  0.796723  0.203277  0.203277  1
  Na  Na3  1  0.203277  0.796723  0.796723  1
  Na  Na4  1  0.057639  0.442361  0.442361  1
  Na  Na5  1  0.795603  0.204397  0.795603  1
  Na  Na6  1  0.204608  0.204608  0.795392  1
  Na  Na7  1  0.442361  0.057639  0.057639  1
  Bi  Bi8  1  0.615676  0.628542  0.629933  1
  Bi  Bi9  1  0.125849  0.629933  0.628542  1
  Bi  Bi10  1  0.629933  0.125849  0.615676  1
  Bi  Bi11  1  0.628542  0.615676  0.125849  1
  C  C12  1  0.403629  0.787038  0.403825  1
  C  C13  1  0.852630  0.841225  0.451846  1
  C  C14  1  0.451847  0.854299  0.852630  1
  C  C15  1  0.841225  0.852630  0.854299  1
  C  C16  1  0.787038  0.403629  0.405507  1
  C  C17  1  0.403825  0.405507  0.403629  1
  C  C18  1  0.405507  0.403825  0.787038  1
  C  C19  1  0.854299  0.451847  0.841225  1
  S  S20  1  0.250000  0.250000  0.250000  1
  S  S21  1  0.000000  0.000000  1.000000  1
  O  O22  1  0.524165  0.796095  0.271603  1
  O  O23  1  0.986165  0.722650  0.451518  1
  O  O24  1  0.280364  0.781526  0.408172  1
  O  O25  1  0.737057  0.825700  0.452439  1
  O  O26  1  0.408222  0.779639  0.530735  1
  O  O27  1  0.195277  0.188393  0.188706  1
  O  O28  1  0.427623  0.188706  0.188393  1
  O  O29  1  0.838880  0.975601  0.447373  1
  O  O30  1  0.447373  0.738146  0.838880  1
  O  O31  1  0.975601  0.838880  0.738146  1
  O  O32  1  0.188706  0.427623  0.195277  1
  O  O33  1  0.188393  0.195277  0.427623  1
  O  O34  1  0.530735  0.281405  0.408222  1
  O  O35  1  0.779639  0.408222  0.281405  1
  O  O36  1  0.825700  0.737057  0.984803  1
  O  O37  1  0.452439  0.984803  0.737057  1
  O  O38  1  0.781526  0.280364  0.529939  1
  O  O39  1  0.408172  0.529939  0.280364  1
  O  O40  1  0.722650  0.986165  0.839667  1
  O  O41  1  0.451518  0.839667  0.986165  1
  O  O42  1  0.059738  0.057460  0.823042  1
  O  O43  1  0.059761  0.823042  0.057460  1
  O  O44  1  0.796095  0.524165  0.408136  1
  O  O45  1  0.271603  0.408136  0.524165  1
  O  O46  1  0.408136  0.271603  0.796095  1
  O  O47  1  0.057460  0.059738  0.059761  1
  O  O48  1  0.823042  0.059761  0.059738  1
  O  O49  1  0.839667  0.451518  0.722650  1
  O  O50  1  0.529939  0.408172  0.781526  1
  O  O51  1  0.984803  0.452439  0.825700  1
  O  O52  1  0.281405  0.530735  0.779639  1
  O  O53  1  0.738146  0.447373  0.975601  1
