# generated using pymatgen
data_Ca3B6(H4O5)4
_symmetry_space_group_name_H-M   'P 1'
_cell_length_a   8.15840257
_cell_length_b   8.15840257
_cell_length_c   13.62194828
_cell_angle_alpha   67.03443221
_cell_angle_beta   112.96556779
_cell_angle_gamma   107.94736934
_symmetry_Int_Tables_number   1
_chemical_formula_structural   Ca3B6(H4O5)4
_chemical_formula_sum   'Ca6 B12 H32 O40'
_cell_volume   755.53071342
_cell_formula_units_Z   2
loop_
 _symmetry_equiv_pos_site_id
 _symmetry_equiv_pos_as_xyz
  1  'x, y, z'
loop_
 _atom_site_type_symbol
 _atom_site_label
 _atom_site_symmetry_multiplicity
 _atom_site_fract_x
 _atom_site_fract_y
 _atom_site_fract_z
 _atom_site_occupancy
  Ca  Ca0  1  0.751264  0.751264  0.250000  1
  Ca  Ca1  1  0.248736  0.248736  0.750000  1
  Ca  Ca2  1  0.752592  0.429394  0.930539  1
  Ca  Ca3  1  0.429394  0.752592  0.569461  1
  Ca  Ca4  1  0.247408  0.570606  0.069461  1
  Ca  Ca5  1  0.570606  0.247408  0.430539  1
  B  B6  1  0.401212  0.922978  0.332004  1
  B  B7  1  0.922978  0.401212  0.167996  1
  B  B8  1  0.598788  0.077022  0.667996  1
  B  B9  1  0.077022  0.598788  0.832004  1
  B  B10  1  0.430882  0.617741  0.342226  1
  B  B11  1  0.617741  0.430882  0.157774  1
  B  B12  1  0.569118  0.382259  0.657774  1
  B  B13  1  0.382259  0.569118  0.842226  1
  B  B14  1  0.406253  0.894281  0.156627  1
  B  B15  1  0.894281  0.406253  0.343373  1
  B  B16  1  0.593747  0.105719  0.843373  1
  B  B17  1  0.105719  0.593747  0.656627  1
  H  H18  1  0.041130  0.651133  0.487195  1
  H  H19  1  0.651133  0.041130  0.012805  1
  H  H20  1  0.958870  0.348867  0.512805  1
  H  H21  1  0.348867  0.958870  0.987195  1
  H  H22  1  0.659419  0.609890  0.482071  1
  H  H23  1  0.609890  0.659419  0.017929  1
  H  H24  1  0.340581  0.390110  0.517929  1
  H  H25  1  0.390110  0.340581  0.982071  1
  H  H26  1  0.183833  0.996034  0.341988  1
  H  H27  1  0.996034  0.183833  0.158012  1
  H  H28  1  0.816167  0.003966  0.658012  1
  H  H29  1  0.003966  0.816167  0.841988  1
  H  H30  1  0.206549  0.398760  0.333615  1
  H  H31  1  0.398760  0.206549  0.166385  1
  H  H32  1  0.793451  0.601240  0.666385  1
  H  H33  1  0.601240  0.793451  0.833615  1
  H  H34  1  0.688563  0.971770  0.371637  1
  H  H35  1  0.971770  0.688563  0.128363  1
  H  H36  1  0.311437  0.028230  0.628363  1
  H  H37  1  0.028230  0.311437  0.871637  1
  H  H38  1  0.956493  0.109285  0.342705  1
  H  H39  1  0.109285  0.956493  0.157295  1
  H  H40  1  0.043507  0.890715  0.657295  1
  H  H41  1  0.890715  0.043507  0.842705  1
  H  H42  1  0.006541  0.916337  0.435584  1
  H  H43  1  0.916337  0.006541  0.064416  1
  H  H44  1  0.993459  0.083663  0.564416  1
  H  H45  1  0.083663  0.993459  0.935584  1
  H  H46  1  0.119142  0.626121  0.356007  1
  H  H47  1  0.626121  0.119142  0.143993  1
  H  H48  1  0.880858  0.373879  0.643993  1
  H  H49  1  0.373879  0.880858  0.856007  1
  O  O50  1  0.359631  0.722206  0.378825  1
  O  O51  1  0.722206  0.359631  0.121175  1
  O  O52  1  0.640369  0.277794  0.621175  1
  O  O53  1  0.277794  0.640369  0.878825  1
  O  O54  1  0.420017  0.701303  0.221847  1
  O  O55  1  0.701303  0.420017  0.278153  1
  O  O56  1  0.579983  0.298697  0.778153  1
  O  O57  1  0.298697  0.579983  0.721847  1
  O  O58  1  0.280866  0.898394  0.041583  1
  O  O59  1  0.898394  0.280866  0.458417  1
  O  O60  1  0.719134  0.101606  0.958417  1
  O  O61  1  0.101606  0.719134  0.541583  1
  O  O62  1  0.609209  0.629292  0.095109  1
  O  O63  1  0.629292  0.609209  0.404891  1
  O  O64  1  0.390791  0.370708  0.904891  1
  O  O65  1  0.370708  0.390791  0.595109  1
  O  O66  1  0.341941  0.978513  0.208600  1
  O  O67  1  0.978513  0.341941  0.291400  1
  O  O68  1  0.658059  0.021487  0.791400  1
  O  O69  1  0.021487  0.658059  0.708600  1
  O  O70  1  0.314938  0.006586  0.373862  1
  O  O71  1  0.006586  0.314938  0.126138  1
  O  O72  1  0.685062  0.993414  0.626138  1
  O  O73  1  0.993414  0.685062  0.873862  1
  O  O74  1  0.424690  0.341326  0.131833  1
  O  O75  1  0.341326  0.424690  0.368167  1
  O  O76  1  0.575310  0.658674  0.868167  1
  O  O77  1  0.658674  0.575310  0.631833  1
  O  O78  1  0.592269  0.997668  0.385277  1
  O  O79  1  0.997668  0.592269  0.114723  1
  O  O80  1  0.407731  0.002332  0.614723  1
  O  O81  1  0.002332  0.407731  0.885277  1
  O  O82  1  0.938913  0.975596  0.356716  1
  O  O83  1  0.975596  0.938913  0.143284  1
  O  O84  1  0.061087  0.024404  0.643284  1
  O  O85  1  0.024404  0.061088  0.856716  1
  O  O86  1  0.591662  0.990607  0.145171  1
  O  O87  1  0.990607  0.591662  0.354829  1
  O  O88  1  0.408338  0.009393  0.854829  1
  O  O89  1  0.009393  0.408338  0.645171  1
