# generated using pymatgen
data_HoErO3
_symmetry_space_group_name_H-M   'P 1'
_cell_length_a   6.37858165
_cell_length_b   6.37858165
_cell_length_c   12.67486202
_cell_angle_alpha   90.00000000
_cell_angle_beta   90.00000000
_cell_angle_gamma   120.00000000
_symmetry_Int_Tables_number   1
_chemical_formula_structural   HoErO3
_chemical_formula_sum   'Ho6 Er6 O18'
_cell_volume   446.60348693
_cell_formula_units_Z   6
loop_
 _symmetry_equiv_pos_site_id
 _symmetry_equiv_pos_as_xyz
  1  'x, y, z'
loop_
 _atom_site_type_symbol
 _atom_site_label
 _atom_site_symmetry_multiplicity
 _atom_site_fract_x
 _atom_site_fract_y
 _atom_site_fract_z
 _atom_site_occupancy
  Ho  Ho0  1  0.333333  0.666667  0.233299  1
  Ho  Ho1  1  0.000000  0.000000  0.264826  1
  Ho  Ho2  1  0.000000  0.000000  0.764826  1
  Ho  Ho3  1  0.333333  0.666667  0.733299  1
  Ho  Ho4  1  0.666667  0.333333  0.733299  1
  Ho  Ho5  1  0.666667  0.333333  0.233299  1
  Er  Er6  1  0.000000  0.667206  0.496545  1
  Er  Er7  1  0.000000  0.332794  0.996545  1
  Er  Er8  1  0.332794  0.332794  0.496545  1
  Er  Er9  1  0.667206  0.667206  0.996545  1
  Er  Er10  1  0.332794  0.000000  0.996545  1
  Er  Er11  1  0.667206  0.000000  0.496545  1
  O  O12  1  0.000000  0.694818  0.670341  1
  O  O13  1  0.000000  0.635097  0.324475  1
  O  O14  1  0.000000  0.364903  0.824475  1
  O  O15  1  0.000000  0.305182  0.170341  1
  O  O16  1  0.333333  0.666667  0.022358  1
  O  O17  1  0.000000  0.000000  0.461086  1
  O  O18  1  0.000000  0.000000  0.961086  1
  O  O19  1  0.333333  0.666667  0.522358  1
  O  O20  1  0.305182  0.305182  0.670341  1
  O  O21  1  0.364903  0.364903  0.324475  1
  O  O22  1  0.305182  0.000000  0.170341  1
  O  O23  1  0.635097  0.635097  0.824475  1
  O  O24  1  0.694818  0.694818  0.170341  1
  O  O25  1  0.364903  0.000000  0.824475  1
  O  O26  1  0.666667  0.333333  0.522358  1
  O  O27  1  0.666667  0.333333  0.022358  1
  O  O28  1  0.635097  0.000000  0.324475  1
  O  O29  1  0.694818  0.000000  0.670341  1
