# generated using pymatgen
data_Li2Ti4Co(AsO5)4
_symmetry_space_group_name_H-M   'P 1'
_cell_length_a   10.08532328
_cell_length_b   10.10779724
_cell_length_c   10.10734427
_cell_angle_alpha   96.75364011
_cell_angle_beta   115.76119725
_cell_angle_gamma   116.08887252
_symmetry_Int_Tables_number   1
_chemical_formula_structural   Li2Ti4Co(AsO5)4
_chemical_formula_sum   'Li4 Ti8 Co2 As8 O40'
_cell_volume   770.30200856
_cell_formula_units_Z   2
loop_
 _symmetry_equiv_pos_site_id
 _symmetry_equiv_pos_as_xyz
  1  'x, y, z'
loop_
 _atom_site_type_symbol
 _atom_site_label
 _atom_site_symmetry_multiplicity
 _atom_site_fract_x
 _atom_site_fract_y
 _atom_site_fract_z
 _atom_site_occupancy
  Li  Li0  1  0.502328  0.001008  0.501588  1
  Li  Li1  1  0.501083  0.750282  0.248823  1
  Li  Li2  1  0.994357  0.244895  0.247234  1
  Li  Li3  1  0.503050  0.253084  0.755268  1
  Ti  Ti4  1  0.840428  0.923791  0.654170  1
  Ti  Ti5  1  0.343383  0.659391  0.437959  1
  Ti  Ti6  1  0.655777  0.831750  0.062395  1
  Ti  Ti7  1  0.163144  0.579647  0.847639  1
  Ti  Ti8  1  0.835337  0.430270  0.151787  1
  Ti  Ti9  1  0.339514  0.166597  0.935148  1
  Ti  Ti10  1  0.661139  0.343778  0.564270  1
  Ti  Ti11  1  0.161686  0.069096  0.347184  1
  Co  Co12  1  0.998017  0.001463  0.000008  1
  Co  Co13  1  0.002015  0.499315  0.500041  1
  As  As14  1  0.374541  0.877811  0.747319  1
  As  As15  1  0.128526  0.753684  0.123276  1
  As  As16  1  0.870781  0.747844  0.377135  1
  As  As17  1  0.373213  0.379471  0.244125  1
  As  As18  1  0.628663  0.623705  0.756975  1
  As  As19  1  0.127671  0.250582  0.623801  1
  As  As20  1  0.873208  0.250110  0.876134  1
  As  As21  1  0.623960  0.120983  0.251694  1
  O  O22  1  0.564574  0.911207  0.903128  1
  O  O23  1  0.064873  0.899767  0.409918  1
  O  O24  1  0.379905  0.845652  0.579550  1
  O  O25  1  0.130144  0.925834  0.158479  1
  O  O26  1  0.812832  0.790429  0.789819  1
  O  O27  1  0.314943  0.783607  0.283140  1
  O  O28  1  0.617817  0.843566  0.519236  1
  O  O29  1  0.119234  0.522993  0.364492  1
  O  O30  1  0.635879  0.958703  0.221850  1
  O  O31  1  0.118634  0.715510  0.950287  1
  O  O32  1  0.879048  0.784586  0.550055  1
  O  O33  1  0.366923  0.545514  0.280637  1
  O  O34  1  0.881711  0.975598  0.137425  1
  O  O35  1  0.383490  0.669700  0.986383  1
  O  O36  1  0.562672  0.413995  0.402081  1
  O  O37  1  0.063916  0.404270  0.909464  1
  O  O38  1  0.688566  0.727313  0.225227  1
  O  O39  1  0.188351  0.709067  0.709491  1
  O  O40  1  0.869381  0.575966  0.341033  1
  O  O41  1  0.380113  0.348209  0.079956  1
  O  O42  1  0.622143  0.654344  0.922094  1
  O  O43  1  0.134440  0.424150  0.659506  1
  O  O44  1  0.815008  0.284865  0.285526  1
  O  O45  1  0.311443  0.270166  0.772118  1
  O  O46  1  0.935974  0.601180  0.090602  1
  O  O47  1  0.437379  0.586413  0.597693  1
  O  O48  1  0.616189  0.336051  0.013159  1
  O  O49  1  0.117713  0.037572  0.867528  1
  O  O50  1  0.635688  0.458285  0.720130  1
  O  O51  1  0.118632  0.212901  0.448264  1
  O  O52  1  0.881941  0.288349  0.050954  1
  O  O53  1  0.364414  0.040868  0.779211  1
  O  O54  1  0.881349  0.466674  0.630158  1
  O  O55  1  0.383359  0.154099  0.481302  1
  O  O56  1  0.685191  0.220465  0.719010  1
  O  O57  1  0.184102  0.217812  0.215079  1
  O  O58  1  0.866006  0.076232  0.841555  1
  O  O59  1  0.619107  0.154057  0.419005  1
  O  O60  1  0.935434  0.097335  0.590757  1
  O  O61  1  0.435628  0.089716  0.096966  1
