# generated using pymatgen
data_In2(MoO4)3
_symmetry_space_group_name_H-M   'P 1'
_cell_length_a   16.58889578
_cell_length_b   9.88499576
_cell_length_c   16.78781078
_cell_angle_alpha   90.00000000
_cell_angle_beta   108.62315846
_cell_angle_gamma   90.00000000
_symmetry_Int_Tables_number   1
_chemical_formula_structural   In2(MoO4)3
_chemical_formula_sum   'In16 Mo24 O96'
_cell_volume   2608.74209649
_cell_formula_units_Z   8
loop_
 _symmetry_equiv_pos_site_id
 _symmetry_equiv_pos_as_xyz
  1  'x, y, z'
loop_
 _atom_site_type_symbol
 _atom_site_label
 _atom_site_symmetry_multiplicity
 _atom_site_fract_x
 _atom_site_fract_y
 _atom_site_fract_z
 _atom_site_occupancy
  In  In0  1  0.063328  0.968788  0.685339  1
  In  In1  1  0.316665  0.036088  0.437940  1
  In  In2  1  0.183335  0.536088  0.562060  1
  In  In3  1  0.686002  0.531613  0.066870  1
  In  In4  1  0.186002  0.968387  0.066870  1
  In  In5  1  0.936672  0.031212  0.314661  1
  In  In6  1  0.565839  0.965802  0.183797  1
  In  In7  1  0.313998  0.468387  0.933130  1
  In  In8  1  0.563328  0.531212  0.685339  1
  In  In9  1  0.934161  0.465802  0.816203  1
  In  In10  1  0.813998  0.031613  0.933130  1
  In  In11  1  0.683335  0.963912  0.562060  1
  In  In12  1  0.434161  0.034198  0.816203  1
  In  In13  1  0.816665  0.463912  0.437940  1
  In  In14  1  0.436672  0.468788  0.314661  1
  In  In15  1  0.065839  0.534198  0.183797  1
  Mo  Mo16  1  0.876649  0.380112  0.232760  1
  Mo  Mo17  1  0.130471  0.886987  0.271288  1
  Mo  Mo18  1  0.623351  0.880112  0.767240  1
  Mo  Mo19  1  0.515290  0.247118  0.015999  1
  Mo  Mo20  1  0.630471  0.613013  0.271288  1
  Mo  Mo21  1  0.231843  0.384639  0.375030  1
  Mo  Mo22  1  0.731843  0.115361  0.375030  1
  Mo  Mo23  1  0.369529  0.386987  0.728712  1
  Mo  Mo24  1  0.768157  0.615361  0.624970  1
  Mo  Mo25  1  0.869529  0.113013  0.728712  1
  Mo  Mo26  1  0.487283  0.750141  0.482750  1
  Mo  Mo27  1  0.773079  0.879472  0.123790  1
  Mo  Mo28  1  0.984710  0.747118  0.984001  1
  Mo  Mo29  1  0.015290  0.252882  0.015999  1
  Mo  Mo30  1  0.226921  0.120528  0.876210  1
  Mo  Mo31  1  0.726921  0.379472  0.876210  1
  Mo  Mo32  1  0.987283  0.749859  0.482750  1
  Mo  Mo33  1  0.376649  0.119888  0.232760  1
  Mo  Mo34  1  0.512717  0.249859  0.517250  1
  Mo  Mo35  1  0.484710  0.752882  0.984001  1
  Mo  Mo36  1  0.123351  0.619888  0.767240  1
  Mo  Mo37  1  0.012717  0.250141  0.517250  1
  Mo  Mo38  1  0.268157  0.884639  0.624970  1
  Mo  Mo39  1  0.273079  0.620528  0.123790  1
  O  O40  1  0.942962  0.001769  0.703335  1
  O  O41  1  0.683738  0.917084  0.157425  1
  O  O42  1  0.590010  0.782206  0.258702  1
  O  O43  1  0.952619  0.651095  0.888337  1
  O  O44  1  0.182951  0.920408  0.664629  1
  O  O45  1  0.221786  0.607097  0.852644  1
  O  O46  1  0.268469  0.393754  0.646341  1
  O  O47  1  0.906449  0.873813  0.980090  1
  O  O48  1  0.870853  0.913150  0.205813  1
  O  O49  1  0.682951  0.579592  0.664629  1
  O  O50  1  0.271929  0.797826  0.098728  1
  O  O51  1  0.778214  0.392903  0.147356  1
  O  O52  1  0.047381  0.348905  0.111663  1
  O  O53  1  0.357431  0.439846  0.825925  1
  O  O54  1  0.134017  0.422713  0.294825  1
  O  O55  1  0.086224  0.824821  0.998527  1
  O  O56  1  0.758890  0.514258  0.532866  1
  O  O57  1  0.316262  0.082916  0.842575  1
  O  O58  1  0.909990  0.282206  0.741298  1
  O  O59  1  0.452619  0.848905  0.888337  1
  O  O60  1  0.057038  0.998231  0.296665  1
  O  O61  1  0.728071  0.202174  0.901272  1
  O  O62  1  0.642569  0.560154  0.174075  1
  O  O63  1  0.499990  0.355259  0.427493  1
  O  O64  1  0.551350  0.349197  0.611118  1
  O  O65  1  0.442962  0.498231  0.703335  1
  O  O66  1  0.365983  0.922713  0.705175  1
  O  O67  1  0.129147  0.086850  0.794187  1
  O  O68  1  0.741110  0.014258  0.467134  1
  O  O69  1  0.586541  0.116776  0.517273  1
  O  O70  1  0.452131  0.004162  0.215124  1
  O  O71  1  0.910707  0.319661  0.511912  1
  O  O72  1  0.142569  0.939846  0.174075  1
  O  O73  1  0.593551  0.373813  0.019910  1
  O  O74  1  0.278214  0.107097  0.147356  1
  O  O75  1  0.007255  0.362483  0.928773  1
  O  O76  1  0.410707  0.180339  0.511912  1
  O  O77  1  0.231763  0.207241  0.399416  1
  O  O78  1  0.767282  0.983477  0.034528  1
  O  O79  1  0.999990  0.144741  0.427493  1
  O  O80  1  0.258890  0.985742  0.532866  1
  O  O81  1  0.952131  0.495838  0.215124  1
  O  O82  1  0.500010  0.644741  0.572507  1
  O  O83  1  0.865983  0.577287  0.705175  1
  O  O84  1  0.086541  0.383224  0.517273  1
  O  O85  1  0.413776  0.324821  0.001473  1
  O  O86  1  0.732718  0.483477  0.965472  1
  O  O87  1  0.583735  0.710133  0.762953  1
  O  O88  1  0.090010  0.717794  0.258702  1
  O  O89  1  0.228071  0.297826  0.901272  1
  O  O90  1  0.083735  0.789867  0.762953  1
  O  O91  1  0.406449  0.626187  0.980090  1
  O  O92  1  0.093551  0.126187  0.019910  1
  O  O93  1  0.413459  0.883224  0.482727  1
  O  O94  1  0.267282  0.516523  0.034528  1
  O  O95  1  0.992745  0.637517  0.071227  1
  O  O96  1  0.629147  0.413150  0.794187  1
  O  O97  1  0.557038  0.501769  0.296665  1
  O  O98  1  0.317049  0.420408  0.335371  1
  O  O99  1  0.047869  0.504162  0.784876  1
  O  O100  1  0.232718  0.016523  0.965472  1
  O  O101  1  0.913459  0.616776  0.482727  1
  O  O102  1  0.857431  0.060154  0.825925  1
  O  O103  1  0.547869  0.995838  0.784876  1
  O  O104  1  0.816262  0.417084  0.842575  1
  O  O105  1  0.916265  0.210133  0.237047  1
  O  O106  1  0.138658  0.580113  0.669082  1
  O  O107  1  0.416265  0.289867  0.237047  1
  O  O108  1  0.768237  0.792759  0.600584  1
  O  O109  1  0.721786  0.892903  0.852644  1
  O  O110  1  0.638658  0.919887  0.669082  1
  O  O111  1  0.089293  0.680339  0.488088  1
  O  O112  1  0.231531  0.893754  0.353659  1
  O  O113  1  0.361342  0.080113  0.330918  1
  O  O114  1  0.731531  0.606246  0.353659  1
  O  O115  1  0.409990  0.217794  0.741298  1
  O  O116  1  0.634017  0.077287  0.294825  1
  O  O117  1  0.268237  0.707241  0.600584  1
  O  O118  1  0.913776  0.175179  0.001473  1
  O  O119  1  0.589293  0.819661  0.488088  1
  O  O120  1  0.051350  0.150803  0.611118  1
  O  O121  1  0.948650  0.849197  0.388882  1
  O  O122  1  0.241110  0.485742  0.467134  1
  O  O123  1  0.183738  0.582916  0.157425  1
  O  O124  1  0.547381  0.151095  0.111663  1
  O  O125  1  0.771929  0.702174  0.098728  1
  O  O126  1  0.370853  0.586850  0.205813  1
  O  O127  1  0.768469  0.106246  0.646341  1
  O  O128  1  0.448650  0.650803  0.388882  1
  O  O129  1  0.000010  0.855259  0.572507  1
  O  O130  1  0.586224  0.675179  0.998527  1
  O  O131  1  0.731763  0.292759  0.399416  1
  O  O132  1  0.507255  0.137517  0.928773  1
  O  O133  1  0.861342  0.419887  0.330918  1
  O  O134  1  0.817049  0.079592  0.335371  1
  O  O135  1  0.492745  0.862483  0.071227  1
