# generated using pymatgen
data_Li2MnCo3O8
_symmetry_space_group_name_H-M   'P 1'
_cell_length_a   8.11997659
_cell_length_b   8.11997659
_cell_length_c   8.11786823
_cell_angle_alpha   89.89987697
_cell_angle_beta   90.10012303
_cell_angle_gamma   89.92604028
_symmetry_Int_Tables_number   1
_chemical_formula_structural   Li2MnCo3O8
_chemical_formula_sum   'Li8 Mn4 Co12 O32'
_cell_volume   535.24160262
_cell_formula_units_Z   4
loop_
 _symmetry_equiv_pos_site_id
 _symmetry_equiv_pos_as_xyz
  1  'x, y, z'
loop_
 _atom_site_type_symbol
 _atom_site_label
 _atom_site_symmetry_multiplicity
 _atom_site_fract_x
 _atom_site_fract_y
 _atom_site_fract_z
 _atom_site_occupancy
  Li  Li0  1  0.001393  0.747670  0.371773  1
  Li  Li1  1  0.747670  0.001393  0.628227  1
  Li  Li2  1  0.255296  0.502868  0.622007  1
  Li  Li3  1  0.995354  0.246928  0.877247  1
  Li  Li4  1  0.496295  0.753256  0.870998  1
  Li  Li5  1  0.753256  0.496295  0.129002  1
  Li  Li6  1  0.246928  0.995354  0.122753  1
  Li  Li7  1  0.502868  0.255296  0.377993  1
  Mn  Mn8  1  0.125035  0.125035  0.500000  1
  Mn  Mn9  1  0.871243  0.623716  0.746001  1
  Mn  Mn10  1  0.375800  0.375800  0.000000  1
  Mn  Mn11  1  0.623716  0.871243  0.253999  1
  Co  Co12  1  0.873886  0.374571  0.500439  1
  Co  Co13  1  0.624612  0.624612  0.500000  1
  Co  Co14  1  0.374571  0.873886  0.499561  1
  Co  Co15  1  0.624847  0.375080  0.748975  1
  Co  Co16  1  0.375393  0.125817  0.749700  1
  Co  Co17  1  0.125543  0.875026  0.749541  1
  Co  Co18  1  0.626060  0.124377  0.000126  1
  Co  Co19  1  0.874702  0.874702  0.000000  1
  Co  Co20  1  0.124377  0.626060  0.999874  1
  Co  Co21  1  0.875026  0.125543  0.250459  1
  Co  Co22  1  0.125817  0.375393  0.250300  1
  Co  Co23  1  0.375080  0.624847  0.251025  1
  O  O24  1  0.888116  0.137996  0.488489  1
  O  O25  1  0.115027  0.364483  0.483417  1
  O  O26  1  0.389904  0.639979  0.485132  1
  O  O27  1  0.864122  0.612571  0.512955  1
  O  O28  1  0.612571  0.864122  0.487045  1
  O  O29  1  0.639979  0.389904  0.514868  1
  O  O30  1  0.364483  0.115027  0.516583  1
  O  O31  1  0.137996  0.888116  0.511511  1
  O  O32  1  0.862029  0.387981  0.738243  1
  O  O33  1  0.637292  0.612845  0.738540  1
  O  O34  1  0.355778  0.890444  0.735229  1
  O  O35  1  0.387815  0.362753  0.763467  1
  O  O36  1  0.136432  0.108694  0.738683  1
  O  O37  1  0.609802  0.139005  0.766865  1
  O  O38  1  0.892194  0.862187  0.763629  1
  O  O39  1  0.115396  0.640802  0.766309  1
  O  O40  1  0.613182  0.359906  0.990671  1
  O  O41  1  0.389147  0.137831  0.986803  1
  O  O42  1  0.110440  0.859617  0.983991  1
  O  O43  1  0.636343  0.892499  0.011022  1
  O  O44  1  0.892499  0.636343  0.988978  1
  O  O45  1  0.859617  0.110440  0.016009  1
  O  O46  1  0.137831  0.389147  0.013197  1
  O  O47  1  0.359906  0.613182  0.009329  1
  O  O48  1  0.640802  0.115396  0.233691  1
  O  O49  1  0.862187  0.892194  0.236371  1
  O  O50  1  0.139005  0.609802  0.233135  1
  O  O51  1  0.108694  0.136432  0.261317  1
  O  O52  1  0.362753  0.387815  0.236533  1
  O  O53  1  0.890444  0.355778  0.264771  1
  O  O54  1  0.612845  0.637292  0.261460  1
  O  O55  1  0.387981  0.862029  0.261757  1
