# generated using pymatgen
data_DyHoO3
_symmetry_space_group_name_H-M   'P 1'
_cell_length_a   6.42343947
_cell_length_b   6.42343947
_cell_length_c   12.74775476
_cell_angle_alpha   90.00000000
_cell_angle_beta   90.00000000
_cell_angle_gamma   120.00000000
_symmetry_Int_Tables_number   1
_chemical_formula_structural   DyHoO3
_chemical_formula_sum   'Dy6 Ho6 O18'
_cell_volume   455.51177050
_cell_formula_units_Z   6
loop_
 _symmetry_equiv_pos_site_id
 _symmetry_equiv_pos_as_xyz
  1  'x, y, z'
loop_
 _atom_site_type_symbol
 _atom_site_label
 _atom_site_symmetry_multiplicity
 _atom_site_fract_x
 _atom_site_fract_y
 _atom_site_fract_z
 _atom_site_occupancy
  Dy  Dy0  1  0.333333  0.666667  0.233378  1
  Dy  Dy1  1  0.000000  0.000000  0.264738  1
  Dy  Dy2  1  0.000000  0.000000  0.764738  1
  Dy  Dy3  1  0.333333  0.666667  0.733378  1
  Dy  Dy4  1  0.666667  0.333333  0.733378  1
  Dy  Dy5  1  0.666667  0.333333  0.233378  1
  Ho  Ho6  1  0.000000  0.667273  0.496593  1
  Ho  Ho7  1  0.000000  0.332727  0.996593  1
  Ho  Ho8  1  0.332727  0.332727  0.496593  1
  Ho  Ho9  1  0.667273  0.667273  0.996593  1
  Ho  Ho10  1  0.332727  0.000000  0.996593  1
  Ho  Ho11  1  0.667273  0.000000  0.496593  1
  O  O12  1  0.000000  0.694490  0.670356  1
  O  O13  1  0.000000  0.635092  0.324484  1
  O  O14  1  0.000000  0.364908  0.824484  1
  O  O15  1  0.000000  0.305510  0.170356  1
  O  O16  1  0.333333  0.666667  0.022284  1
  O  O17  1  0.000000  0.000000  0.460927  1
  O  O18  1  0.333333  0.666667  0.522284  1
  O  O19  1  0.000000  0.000000  0.960927  1
  O  O20  1  0.305510  0.305510  0.670356  1
  O  O21  1  0.364908  0.364908  0.324484  1
  O  O22  1  0.305510  0.000000  0.170356  1
  O  O23  1  0.635092  0.635092  0.824484  1
  O  O24  1  0.694490  0.694490  0.170356  1
  O  O25  1  0.364908  0.000000  0.824484  1
  O  O26  1  0.666667  0.333333  0.522284  1
  O  O27  1  0.666667  0.333333  0.022284  1
  O  O28  1  0.635092  0.000000  0.324484  1
  O  O29  1  0.694490  0.000000  0.670356  1
