# generated using pymatgen
data_Li3Co(BO3)2
_symmetry_space_group_name_H-M   'P 1'
_cell_length_a   5.00500720
_cell_length_b   6.31619263
_cell_length_c   8.01008715
_cell_angle_alpha   74.57913830
_cell_angle_beta   89.34794783
_cell_angle_gamma   88.94438562
_symmetry_Int_Tables_number   1
_chemical_formula_structural   Li3Co(BO3)2
_chemical_formula_sum   'Li6 Co2 B4 O12'
_cell_volume   244.05640357
_cell_formula_units_Z   2
loop_
 _symmetry_equiv_pos_site_id
 _symmetry_equiv_pos_as_xyz
  1  'x, y, z'
loop_
 _atom_site_type_symbol
 _atom_site_label
 _atom_site_symmetry_multiplicity
 _atom_site_fract_x
 _atom_site_fract_y
 _atom_site_fract_z
 _atom_site_occupancy
  Li  Li0  1  0.174264  0.896764  0.926471  1
  Li  Li1  1  0.326344  0.025860  0.258568  1
  Li  Li2  1  0.331763  0.740316  0.609200  1
  Li  Li3  1  0.668237  0.259684  0.390800  1
  Li  Li4  1  0.673656  0.974140  0.741432  1
  Li  Li5  1  0.825736  0.103236  0.073529  1
  Co  Co6  1  0.153805  0.550134  0.270061  1
  Co  Co7  1  0.846195  0.449866  0.729939  1
  B  B8  1  0.157461  0.170066  0.574205  1
  B  B9  1  0.331616  0.323337  0.909565  1
  B  B10  1  0.668384  0.676663  0.090435  1
  B  B11  1  0.842539  0.829934  0.425795  1
  O  O12  1  0.109955  0.770789  0.397277  1
  O  O13  1  0.202680  0.487882  0.783205  1
  O  O14  1  0.201611  0.165975  0.028659  1
  O  O15  1  0.273285  0.278003  0.413473  1
  O  O16  1  0.292367  0.007787  0.687035  1
  O  O17  1  0.386521  0.678058  0.096180  1
  O  O18  1  0.613479  0.321942  0.903820  1
  O  O19  1  0.707633  0.992213  0.312965  1
  O  O20  1  0.726715  0.721997  0.586527  1
  O  O21  1  0.798389  0.834025  0.971341  1
  O  O22  1  0.797320  0.512118  0.216795  1
  O  O23  1  0.890045  0.229211  0.602723  1
