# generated using pymatgen
data_BaLi4O3
_symmetry_space_group_name_H-M   'P 1'
_cell_length_a   5.43535626
_cell_length_b   5.43535626
_cell_length_c   13.69117184
_cell_angle_alpha   90.00000000
_cell_angle_beta   90.00000000
_cell_angle_gamma   115.52633244
_symmetry_Int_Tables_number   1
_chemical_formula_structural   BaLi4O3
_chemical_formula_sum   'Ba4 Li16 O12'
_cell_volume   364.99729111
_cell_formula_units_Z   4
loop_
 _symmetry_equiv_pos_site_id
 _symmetry_equiv_pos_as_xyz
  1  'x, y, z'
loop_
 _atom_site_type_symbol
 _atom_site_label
 _atom_site_symmetry_multiplicity
 _atom_site_fract_x
 _atom_site_fract_y
 _atom_site_fract_z
 _atom_site_occupancy
  Ba  Ba0  1  0.770869  0.229131  0.657752  1
  Ba  Ba1  1  0.229131  0.770869  0.157752  1
  Ba  Ba2  1  0.726371  0.273629  0.344435  1
  Ba  Ba3  1  0.273629  0.726371  0.844435  1
  Li  Li4  1  0.583447  0.416553  0.823211  1
  Li  Li5  1  0.416553  0.583447  0.323211  1
  Li  Li6  1  0.951040  0.048960  0.841756  1
  Li  Li7  1  0.048960  0.951040  0.341756  1
  Li  Li8  1  0.935411  0.711186  0.507999  1
  Li  Li9  1  0.711186  0.935411  0.007999  1
  Li  Li10  1  0.800088  0.555191  0.994568  1
  Li  Li11  1  0.555191  0.800088  0.494568  1
  Li  Li12  1  0.199912  0.444809  0.494568  1
  Li  Li13  1  0.444809  0.199912  0.994568  1
  Li  Li14  1  0.064589  0.288814  0.007999  1
  Li  Li15  1  0.288814  0.064589  0.507999  1
  Li  Li16  1  0.083233  0.916767  0.679137  1
  Li  Li17  1  0.916767  0.083233  0.179137  1
  Li  Li18  1  0.449897  0.550103  0.657732  1
  Li  Li19  1  0.550103  0.449897  0.157732  1
  O  O20  1  0.259929  0.245804  0.750510  1
  O  O21  1  0.245804  0.259929  0.250510  1
  O  O22  1  0.438049  0.561951  0.010159  1
  O  O23  1  0.561951  0.438049  0.510159  1
  O  O24  1  0.252650  0.747350  0.602484  1
  O  O25  1  0.747350  0.252650  0.102484  1
  O  O26  1  0.754196  0.740071  0.750510  1
  O  O27  1  0.740071  0.754196  0.250510  1
  O  O28  1  0.930605  0.069395  0.491746  1
  O  O29  1  0.069395  0.930605  0.991746  1
  O  O30  1  0.756448  0.243552  0.897701  1
  O  O31  1  0.243552  0.756448  0.397701  1
