# generated using pymatgen
data_Li8Mn5Fe3(BO3)8
_symmetry_space_group_name_H-M   'P 1'
_cell_length_a   5.24304523
_cell_length_b   6.02796086
_cell_length_c   16.18618080
_cell_angle_alpha   81.78649489
_cell_angle_beta   88.77683808
_cell_angle_gamma   89.19914764
_symmetry_Int_Tables_number   1
_chemical_formula_structural   Li8Mn5Fe3(BO3)8
_chemical_formula_sum   'Li8 Mn5 Fe3 B8 O24'
_cell_volume   506.16861951
_cell_formula_units_Z   1
loop_
 _symmetry_equiv_pos_site_id
 _symmetry_equiv_pos_as_xyz
  1  'x, y, z'
loop_
 _atom_site_type_symbol
 _atom_site_label
 _atom_site_symmetry_multiplicity
 _atom_site_fract_x
 _atom_site_fract_y
 _atom_site_fract_z
 _atom_site_occupancy
  Li  Li0  1  0.846195  0.064909  0.389224  1
  Li  Li1  1  0.151547  0.436018  0.109211  1
  Li  Li2  1  0.652008  0.187750  0.860080  1
  Li  Li3  1  0.350661  0.311862  0.640450  1
  Li  Li4  1  0.651476  0.688536  0.358766  1
  Li  Li5  1  0.348152  0.813434  0.140239  1
  Li  Li6  1  0.846931  0.563565  0.889938  1
  Li  Li7  1  0.151191  0.934739  0.610544  1
  Mn  Mn8  1  0.167156  0.023321  0.789683  1
  Mn  Mn9  1  0.331445  0.224276  0.461171  1
  Mn  Mn10  1  0.167260  0.524722  0.290632  1
  Mn  Mn11  1  0.669368  0.772596  0.541499  1
  Mn  Mn12  1  0.331570  0.723867  0.960486  1
  Fe  Fe13  1  0.667014  0.272036  0.043165  1
  Fe  Fe14  1  0.838110  0.472745  0.710551  1
  Fe  Fe15  1  0.837715  0.972576  0.208586  1
  B  B16  1  0.327030  0.036780  0.296164  1
  B  B17  1  0.828714  0.283701  0.549071  1
  B  B18  1  0.670217  0.463128  0.201859  1
  B  B19  1  0.172181  0.216494  0.952911  1
  B  B20  1  0.828074  0.786900  0.048042  1
  B  B21  1  0.327493  0.536280  0.795960  1
  B  B22  1  0.171367  0.716560  0.452317  1
  B  B23  1  0.673094  0.964067  0.703038  1
  O  O24  1  0.586187  0.011999  0.308123  1
  O  O25  1  0.180151  0.170325  0.343640  1
  O  O26  1  0.714160  0.168184  0.491445  1
  O  O27  1  0.296701  0.331809  0.008852  1
  O  O28  1  0.786525  0.083114  0.759918  1
  O  O29  1  0.818407  0.326769  0.154841  1
  O  O30  1  0.318843  0.080423  0.906081  1
  O  O31  1  0.087415  0.261211  0.563515  1
  O  O32  1  0.411409  0.487440  0.187848  1
  O  O33  1  0.912139  0.240806  0.940824  1
  O  O34  1  0.679286  0.419615  0.595134  1
  O  O35  1  0.207389  0.421722  0.738462  1
  O  O36  1  0.787360  0.579015  0.258861  1
  O  O37  1  0.322229  0.580212  0.406743  1
  O  O38  1  0.086424  0.762519  0.063048  1
  O  O39  1  0.586472  0.511407  0.808793  1
  O  O40  1  0.912834  0.739506  0.437307  1
  O  O41  1  0.677568  0.920812  0.095127  1
  O  O42  1  0.179568  0.669066  0.843390  1
  O  O43  1  0.204468  0.922508  0.239212  1
  O  O44  1  0.713599  0.673444  0.989975  1
  O  O45  1  0.286982  0.833464  0.509467  1
  O  O46  1  0.823494  0.826894  0.657925  1
  O  O47  1  0.414421  0.986874  0.687881  1
