# generated using pymatgen
data_Ba2YI7
_symmetry_space_group_name_H-M   'P 1'
_cell_length_a   8.74310874
_cell_length_b   14.95875435
_cell_length_c   16.30212969
_cell_angle_alpha   90.00000000
_cell_angle_beta   90.00000000
_cell_angle_gamma   90.00000000
_symmetry_Int_Tables_number   1
_chemical_formula_structural   Ba2YI7
_chemical_formula_sum   'Ba8 Y4 I28'
_cell_volume   2132.09059279
_cell_formula_units_Z   4
loop_
 _symmetry_equiv_pos_site_id
 _symmetry_equiv_pos_as_xyz
  1  'x, y, z'
loop_
 _atom_site_type_symbol
 _atom_site_label
 _atom_site_symmetry_multiplicity
 _atom_site_fract_x
 _atom_site_fract_y
 _atom_site_fract_z
 _atom_site_occupancy
  Ba  Ba0  1  0.750000  0.763744  0.461464  1
  Ba  Ba1  1  0.750000  0.746719  0.760506  1
  Ba  Ba2  1  0.250000  0.753281  0.260506  1
  Ba  Ba3  1  0.250000  0.736256  0.961464  1
  Ba  Ba4  1  0.750000  0.263744  0.038536  1
  Ba  Ba5  1  0.750000  0.246719  0.739494  1
  Ba  Ba6  1  0.250000  0.253281  0.239494  1
  Ba  Ba7  1  0.250000  0.236256  0.538536  1
  Y  Y8  1  0.750000  0.062392  0.288363  1
  Y  Y9  1  0.250000  0.437608  0.788363  1
  Y  Y10  1  0.750000  0.562392  0.211637  1
  Y  Y11  1  0.250000  0.937608  0.711637  1
  I  I12  1  0.250000  0.896746  0.105087  1
  I  I13  1  0.977333  0.913475  0.343087  1
  I  I14  1  0.522667  0.913475  0.343087  1
  I  I15  1  0.026189  0.892740  0.852376  1
  I  I16  1  0.473811  0.892740  0.852376  1
  I  I17  1  0.470623  0.818768  0.615788  1
  I  I18  1  0.029377  0.818768  0.615788  1
  I  I19  1  0.970623  0.681232  0.115788  1
  I  I20  1  0.529377  0.681232  0.115788  1
  I  I21  1  0.973811  0.607260  0.352376  1
  I  I22  1  0.526189  0.607260  0.352376  1
  I  I23  1  0.022667  0.586525  0.843087  1
  I  I24  1  0.477333  0.586525  0.843087  1
  I  I25  1  0.750000  0.603254  0.605087  1
  I  I26  1  0.250000  0.396746  0.394913  1
  I  I27  1  0.977333  0.413475  0.156913  1
  I  I28  1  0.522667  0.413475  0.156913  1
  I  I29  1  0.026189  0.392740  0.647624  1
  I  I30  1  0.473811  0.392740  0.647624  1
  I  I31  1  0.029377  0.318768  0.884212  1
  I  I32  1  0.470623  0.318768  0.884212  1
  I  I33  1  0.529377  0.181232  0.384212  1
  I  I34  1  0.970623  0.181232  0.384212  1
  I  I35  1  0.526189  0.107260  0.147624  1
  I  I36  1  0.973811  0.107260  0.147624  1
  I  I37  1  0.477333  0.086525  0.656913  1
  I  I38  1  0.022667  0.086525  0.656913  1
  I  I39  1  0.750000  0.103254  0.894913  1
