# generated using pymatgen
data_Li15Mn2O12
_symmetry_space_group_name_H-M   'P 1'
_cell_length_a   5.46979451
_cell_length_b   5.78851621
_cell_length_c   7.97355934
_cell_angle_alpha   85.95427575
_cell_angle_beta   89.72116094
_cell_angle_gamma   89.97941823
_symmetry_Int_Tables_number   1
_chemical_formula_structural   Li15Mn2O12
_chemical_formula_sum   'Li15 Mn2 O12'
_cell_volume   251.82669647
_cell_formula_units_Z   1
loop_
 _symmetry_equiv_pos_site_id
 _symmetry_equiv_pos_as_xyz
  1  'x, y, z'
loop_
 _atom_site_type_symbol
 _atom_site_label
 _atom_site_symmetry_multiplicity
 _atom_site_fract_x
 _atom_site_fract_y
 _atom_site_fract_z
 _atom_site_occupancy
  Li  Li0  1  0.008249  0.323407  0.645986  1
  Li  Li1  1  0.876605  0.738346  0.628971  1
  Li  Li2  1  0.790435  0.380209  0.911224  1
  Li  Li3  1  0.804218  0.054929  0.304189  1
  Li  Li4  1  0.696018  0.436998  0.204318  1
  Li  Li5  1  0.660209  0.107489  0.595677  1
  Li  Li6  1  0.625851  0.804831  0.875891  1
  Li  Li7  1  0.489983  0.805910  0.161386  1
  Li  Li8  1  0.370925  0.204574  0.099125  1
  Li  Li9  1  0.338947  0.930878  0.432602  1
  Li  Li10  1  0.314752  0.523460  0.793037  1
  Li  Li11  1  0.222225  0.964693  0.721295  1
  Li  Li12  1  0.150972  0.566243  0.067878  1
  Li  Li13  1  0.143181  0.277998  0.361848  1
  Li  Li14  1  0.007512  0.684526  0.345615  1
  Mn  Mn15  1  0.503248  0.509867  0.496289  1
  Mn  Mn16  1  0.996479  0.992285  0.004470  1
  O  O17  1  0.874522  0.000034  0.771739  1
  O  O18  1  0.831010  0.695989  0.069106  1
  O  O19  1  0.804630  0.342845  0.427464  1
  O  O20  1  0.703865  0.145369  0.083098  1
  O  O21  1  0.663570  0.805347  0.431410  1
  O  O22  1  0.647876  0.516506  0.718353  1
  O  O23  1  0.360660  0.502507  0.265384  1
  O  O24  1  0.335486  0.211795  0.560612  1
  O  O25  1  0.290343  0.824580  0.938762  1
  O  O26  1  0.208720  0.669121  0.572314  1
  O  O27  1  0.134120  0.297164  0.933659  1
  O  O28  1  0.143143  0.999187  0.231787  1
