# generated using pymatgen
data_Fe3O5F
_symmetry_space_group_name_H-M   'P 1'
_cell_length_a   4.63788641
_cell_length_b   5.51149747
_cell_length_c   7.65604825
_cell_angle_alpha   85.45473240
_cell_angle_beta   88.38530828
_cell_angle_gamma   88.20191110
_symmetry_Int_Tables_number   1
_chemical_formula_structural   Fe3O5F
_chemical_formula_sum   'Fe6 O10 F2'
_cell_volume   194.92523623
_cell_formula_units_Z   2
loop_
 _symmetry_equiv_pos_site_id
 _symmetry_equiv_pos_as_xyz
  1  'x, y, z'
loop_
 _atom_site_type_symbol
 _atom_site_label
 _atom_site_symmetry_multiplicity
 _atom_site_fract_x
 _atom_site_fract_y
 _atom_site_fract_z
 _atom_site_occupancy
  Fe  Fe0  1  0.500000  0.500000  0.500000  1
  Fe  Fe1  1  0.500753  0.165497  0.831139  1
  Fe  Fe2  1  0.499247  0.834503  0.168861  1
  Fe  Fe3  1  0.000000  0.000000  0.500000  1
  Fe  Fe4  1  0.982622  0.330176  0.153860  1
  Fe  Fe5  1  0.017378  0.669824  0.846140  1
  O  O6  1  0.812495  0.041689  0.272814  1
  O  O7  1  0.805410  0.377239  0.927129  1
  O  O8  1  0.694402  0.872390  0.936188  1
  O  O9  1  0.690390  0.200763  0.597109  1
  O  O10  1  0.694074  0.540035  0.272554  1
  O  O11  1  0.309610  0.799237  0.402891  1
  O  O12  1  0.305598  0.127610  0.063812  1
  O  O13  1  0.305926  0.459965  0.727446  1
  O  O14  1  0.194590  0.622761  0.072871  1
  O  O15  1  0.187505  0.958311  0.727186  1
  F  F16  1  0.804608  0.696069  0.604057  1
  F  F17  1  0.195392  0.303931  0.395943  1
