# generated using pymatgen
data_Na6MgO4
_symmetry_space_group_name_H-M   'P 1'
_cell_length_a   7.66364552
_cell_length_b   7.66364552
_cell_length_c   5.92568234
_cell_angle_alpha   90.00000000
_cell_angle_beta   90.00000000
_cell_angle_gamma   120.00000000
_symmetry_Int_Tables_number   1
_chemical_formula_structural   Na6MgO4
_chemical_formula_sum   'Na12 Mg2 O8'
_cell_volume   301.39761700
_cell_formula_units_Z   2
loop_
 _symmetry_equiv_pos_site_id
 _symmetry_equiv_pos_as_xyz
  1  'x, y, z'
loop_
 _atom_site_type_symbol
 _atom_site_label
 _atom_site_symmetry_multiplicity
 _atom_site_fract_x
 _atom_site_fract_y
 _atom_site_fract_z
 _atom_site_occupancy
  Na  Na0  1  0.140688  0.859312  0.387040  1
  Na  Na1  1  0.074707  0.537354  0.711548  1
  Na  Na2  1  0.140688  0.281375  0.387040  1
  Na  Na3  1  0.462646  0.925293  0.711548  1
  Na  Na4  1  0.462646  0.537354  0.711548  1
  Na  Na5  1  0.281375  0.140688  0.887040  1
  Na  Na6  1  0.718625  0.859312  0.387040  1
  Na  Na7  1  0.537354  0.462646  0.211548  1
  Na  Na8  1  0.537354  0.074707  0.211548  1
  Na  Na9  1  0.859312  0.718625  0.887040  1
  Na  Na10  1  0.925293  0.462646  0.211548  1
  Na  Na11  1  0.859312  0.140688  0.887040  1
  Mg  Mg12  1  0.333333  0.666667  0.108387  1
  Mg  Mg13  1  0.666667  0.333333  0.608387  1
  O  O14  1  0.190349  0.809651  0.998073  1
  O  O15  1  0.333333  0.666667  0.442380  1
  O  O16  1  0.190349  0.380697  0.998073  1
  O  O17  1  0.619303  0.809651  0.998073  1
  O  O18  1  0.380697  0.190349  0.498073  1
  O  O19  1  0.666667  0.333333  0.942380  1
  O  O20  1  0.809651  0.619303  0.498073  1
  O  O21  1  0.809651  0.190349  0.498073  1
