# generated using pymatgen
data_Fe2O3F
_symmetry_space_group_name_H-M   'P 1'
_cell_length_a   4.67041013
_cell_length_b   7.61729420
_cell_length_c   9.81332580
_cell_angle_alpha   70.35113771
_cell_angle_beta   87.33140929
_cell_angle_gamma   88.59836675
_symmetry_Int_Tables_number   1
_chemical_formula_structural   Fe2O3F
_chemical_formula_sum   'Fe10 O15 F5'
_cell_volume   328.41807073
_cell_formula_units_Z   5
loop_
 _symmetry_equiv_pos_site_id
 _symmetry_equiv_pos_as_xyz
  1  'x, y, z'
loop_
 _atom_site_type_symbol
 _atom_site_label
 _atom_site_symmetry_multiplicity
 _atom_site_fract_x
 _atom_site_fract_y
 _atom_site_fract_z
 _atom_site_occupancy
  Fe  Fe0  1  0.483766  0.711131  0.901052  1
  Fe  Fe1  1  0.528856  0.901338  0.314148  1
  Fe  Fe2  1  0.530522  0.107423  0.707590  1
  Fe  Fe3  1  0.458796  0.287495  0.100373  1
  Fe  Fe4  1  0.474112  0.496033  0.481736  1
  Fe  Fe5  1  0.035786  0.395205  0.800857  1
  Fe  Fe6  1  0.007594  0.796170  0.604355  1
  Fe  Fe7  1  0.997439  0.194419  0.398967  1
  Fe  Fe8  1  0.993570  0.602767  0.192619  1
  Fe  Fe9  1  0.977936  0.006650  0.996575  1
  O  O10  1  0.189223  0.237845  0.977996  1
  O  O11  1  0.174902  0.437409  0.366405  1
  O  O12  1  0.197147  0.634329  0.779049  1
  O  O13  1  0.305503  0.952346  0.876856  1
  O  O14  1  0.316906  0.339883  0.668943  1
  O  O15  1  0.298965  0.541262  0.076061  1
  O  O16  1  0.300960  0.134249  0.287992  1
  O  O17  1  0.308129  0.729850  0.479839  1
  O  O18  1  0.698692  0.865981  0.726182  1
  O  O19  1  0.693065  0.262908  0.517073  1
  O  O20  1  0.696130  0.655894  0.320298  1
  O  O21  1  0.695566  0.059077  0.126276  1
  O  O22  1  0.818986  0.957231  0.434275  1
  O  O23  1  0.814287  0.176158  0.818981  1
  O  O24  1  0.809264  0.761323  0.022816  1
  F  F25  1  0.203524  0.038984  0.583650  1
  F  F26  1  0.196252  0.839419  0.180634  1
  F  F27  1  0.694384  0.462250  0.920081  1
  F  F28  1  0.807857  0.556974  0.624820  1
  F  F29  1  0.791882  0.357995  0.213502  1
