# generated using pymatgen
data_FeH12(NF2)3
_symmetry_space_group_name_H-M   'P 1'
_cell_length_a   9.13516879
_cell_length_b   9.14031061
_cell_length_c   9.14989006
_cell_angle_alpha   90.00000000
_cell_angle_beta   90.00000000
_cell_angle_gamma   90.00000000
_symmetry_Int_Tables_number   1
_chemical_formula_structural   FeH12(NF2)3
_chemical_formula_sum   'Fe4 H48 N12 F24'
_cell_volume   764.00008417
_cell_formula_units_Z   4
loop_
 _symmetry_equiv_pos_site_id
 _symmetry_equiv_pos_as_xyz
  1  'x, y, z'
loop_
 _atom_site_type_symbol
 _atom_site_label
 _atom_site_symmetry_multiplicity
 _atom_site_fract_x
 _atom_site_fract_y
 _atom_site_fract_z
 _atom_site_occupancy
  Fe  Fe0  1  0.248815  0.248545  0.749235  1
  Fe  Fe1  1  0.748815  0.251455  0.250765  1
  Fe  Fe2  1  0.251185  0.751455  0.249235  1
  Fe  Fe3  1  0.751185  0.748545  0.750765  1
  H  H4  1  0.071352  0.447877  0.929310  1
  H  H5  1  0.571352  0.052123  0.070690  1
  H  H6  1  0.428648  0.552123  0.429310  1
  H  H7  1  0.928648  0.947877  0.570690  1
  H  H8  1  0.934099  0.568587  0.934570  1
  H  H9  1  0.434099  0.931413  0.065430  1
  H  H10  1  0.565901  0.431413  0.434570  1
  H  H11  1  0.065901  0.068587  0.565430  1
  H  H12  1  0.051710  0.569363  0.073589  1
  H  H13  1  0.551710  0.930637  0.926411  1
  H  H14  1  0.448290  0.430637  0.573589  1
  H  H15  1  0.948290  0.069363  0.426411  1
  H  H16  1  0.929431  0.428906  0.053067  1
  H  H17  1  0.429431  0.071094  0.946933  1
  H  H18  1  0.570569  0.571094  0.553067  1
  H  H19  1  0.070569  0.928906  0.446933  1
  H  H20  1  0.564281  0.444197  0.926980  1
  H  H21  1  0.064281  0.055803  0.073020  1
  H  H22  1  0.935719  0.555803  0.426980  1
  H  H23  1  0.435719  0.944197  0.573020  1
  H  H24  1  0.428216  0.567648  0.944525  1
  H  H25  1  0.928216  0.932352  0.055475  1
  H  H26  1  0.071784  0.432352  0.444525  1
  H  H27  1  0.571784  0.067648  0.555475  1
  H  H28  1  0.565256  0.563913  0.063819  1
  H  H29  1  0.065256  0.936087  0.936181  1
  H  H30  1  0.934744  0.436087  0.563819  1
  H  H31  1  0.434744  0.063913  0.436181  1
  H  H32  1  0.443449  0.428990  0.066792  1
  H  H33  1  0.943449  0.071010  0.933208  1
  H  H34  1  0.056551  0.571010  0.566792  1
  H  H35  1  0.556551  0.928990  0.433208  1
  H  H36  1  0.687936  0.687939  0.319070  1
  H  H37  1  0.187936  0.812061  0.680930  1
  H  H38  1  0.812064  0.312061  0.819070  1
  H  H39  1  0.312064  0.187939  0.180930  1
  H  H40  1  0.817275  0.687159  0.187166  1
  H  H41  1  0.317275  0.812841  0.812834  1
  H  H42  1  0.682725  0.312841  0.687166  1
  H  H43  1  0.182725  0.187159  0.312834  1
  H  H44  1  0.686208  0.818217  0.188926  1
  H  H45  1  0.186208  0.681783  0.811074  1
  H  H46  1  0.813792  0.181783  0.688926  1
  H  H47  1  0.313792  0.318217  0.311074  1
  H  H48  1  0.815200  0.815216  0.315535  1
  H  H49  1  0.315200  0.684784  0.684465  1
  H  H50  1  0.684800  0.184784  0.815535  1
  H  H51  1  0.184800  0.315216  0.184465  1
  N  N52  1  0.998285  0.501337  0.998734  1
  N  N53  1  0.498285  0.998663  0.001266  1
  N  N54  1  0.501715  0.498663  0.498734  1
  N  N55  1  0.001715  0.001337  0.501266  1
  N  N56  1  0.499477  0.500329  0.999684  1
  N  N57  1  0.999477  0.999671  0.000316  1
  N  N58  1  0.000523  0.499671  0.499684  1
  N  N59  1  0.500523  0.000329  0.500316  1
  N  N60  1  0.750541  0.750586  0.250587  1
  N  N61  1  0.250541  0.749414  0.749413  1
  N  N62  1  0.749459  0.249414  0.750587  1
  N  N63  1  0.249459  0.250586  0.249413  1
  F  F64  1  0.205858  0.457301  0.784053  1
  F  F65  1  0.705858  0.042699  0.215947  1
  F  F66  1  0.294142  0.542699  0.284053  1
  F  F67  1  0.794142  0.957301  0.715947  1
  F  F68  1  0.289381  0.039496  0.724940  1
  F  F69  1  0.789381  0.460504  0.275060  1
  F  F70  1  0.210619  0.960504  0.224940  1
  F  F71  1  0.710619  0.539496  0.775060  1
  F  F72  1  0.214990  0.267673  0.538257  1
  F  F73  1  0.714990  0.232327  0.461743  1
  F  F74  1  0.285010  0.732327  0.038257  1
  F  F75  1  0.785010  0.767673  0.961743  1
  F  F76  1  0.289695  0.224347  0.959516  1
  F  F77  1  0.789695  0.275653  0.040484  1
  F  F78  1  0.210305  0.775653  0.459516  1
  F  F79  1  0.710305  0.724347  0.540484  1
  F  F80  1  0.040300  0.206330  0.776001  1
  F  F81  1  0.540300  0.293670  0.223999  1
  F  F82  1  0.459700  0.793670  0.276001  1
  F  F83  1  0.959700  0.706330  0.723999  1
  F  F84  1  0.456076  0.299272  0.714714  1
  F  F85  1  0.956076  0.200728  0.285286  1
  F  F86  1  0.043924  0.700728  0.214714  1
  F  F87  1  0.543924  0.799272  0.785286  1
