# generated using pymatgen
data_MnCSO7
_symmetry_space_group_name_H-M   'P 1'
_cell_length_a   5.14138943
_cell_length_b   6.22093442
_cell_length_c   8.71139768
_cell_angle_alpha   90.00000000
_cell_angle_beta   93.48522915
_cell_angle_gamma   90.00000000
_symmetry_Int_Tables_number   1
_chemical_formula_structural   MnCSO7
_chemical_formula_sum   'Mn2 C2 S2 O14'
_cell_volume   278.11217006
_cell_formula_units_Z   2
loop_
 _symmetry_equiv_pos_site_id
 _symmetry_equiv_pos_as_xyz
  1  'x, y, z'
loop_
 _atom_site_type_symbol
 _atom_site_label
 _atom_site_symmetry_multiplicity
 _atom_site_fract_x
 _atom_site_fract_y
 _atom_site_fract_z
 _atom_site_occupancy
  Mn  Mn0  1  0.217760  0.250000  0.330141  1
  Mn  Mn1  1  0.782240  0.750000  0.669859  1
  C  C2  1  0.268262  0.250000  0.057933  1
  C  C3  1  0.731738  0.750000  0.942067  1
  S  S4  1  0.282418  0.750000  0.424675  1
  S  S5  1  0.717582  0.250000  0.575325  1
  O  O6  1  0.701239  0.750000  0.080783  1
  O  O7  1  0.043463  0.250000  0.123799  1
  O  O8  1  0.464611  0.250000  0.162662  1
  O  O9  1  0.213183  0.936881  0.323430  1
  O  O10  1  0.213183  0.563119  0.323430  1
  O  O11  1  0.861743  0.250000  0.435232  1
  O  O12  1  0.567835  0.750000  0.467168  1
  O  O13  1  0.432165  0.250000  0.532832  1
  O  O14  1  0.138257  0.750000  0.564768  1
  O  O15  1  0.786817  0.436881  0.676570  1
  O  O16  1  0.786817  0.063119  0.676570  1
  O  O17  1  0.535389  0.750000  0.837338  1
  O  O18  1  0.956537  0.750000  0.876201  1
  O  O19  1  0.298761  0.250000  0.919217  1
