# generated using pymatgen
data_V3Co(PO4)4
_symmetry_space_group_name_H-M   'P 1'
_cell_length_a   4.89357677
_cell_length_b   5.89183603
_cell_length_c   10.02238371
_cell_angle_alpha   90.00000000
_cell_angle_beta   90.49832345
_cell_angle_gamma   90.00000000
_symmetry_Int_Tables_number   1
_chemical_formula_structural   V3Co(PO4)4
_chemical_formula_sum   'V3 Co1 P4 O16'
_cell_volume   288.95596031
_cell_formula_units_Z   1
loop_
 _symmetry_equiv_pos_site_id
 _symmetry_equiv_pos_as_xyz
  1  'x, y, z'
loop_
 _atom_site_type_symbol
 _atom_site_label
 _atom_site_symmetry_multiplicity
 _atom_site_fract_x
 _atom_site_fract_y
 _atom_site_fract_z
 _atom_site_occupancy
  V  V0  1  0.479695  0.000000  0.229533  1
  V  V1  1  0.544109  0.500000  0.777030  1
  V  V2  1  0.976846  0.500000  0.268880  1
  Co  Co3  1  0.036798  0.000000  0.723502  1
  P  P4  1  0.107256  0.500000  0.599361  1
  P  P5  1  0.409269  0.500000  0.093986  1
  P  P6  1  0.560421  0.000000  0.905175  1
  P  P7  1  0.914350  0.000000  0.404185  1
  O  O8  1  0.147746  0.500000  0.449047  1
  O  O9  1  0.265431  0.300739  0.671669  1
  O  O10  1  0.265431  0.699261  0.671669  1
  O  O11  1  0.220026  0.000000  0.376566  1
  O  O12  1  0.255451  0.000000  0.889126  1
  O  O13  1  0.263132  0.296621  0.167570  1
  O  O14  1  0.263132  0.703379  0.167570  1
  O  O15  1  0.337694  0.500000  0.943878  1
  O  O16  1  0.651887  0.000000  0.050735  1
  O  O17  1  0.702287  0.790881  0.829752  1
  O  O18  1  0.702287  0.209119  0.829752  1
  O  O19  1  0.716488  0.500000  0.117105  1
  O  O20  1  0.799552  0.500000  0.629244  1
  O  O21  1  0.766637  0.796415  0.327206  1
  O  O22  1  0.766637  0.203585  0.327206  1
  O  O23  1  0.847437  0.000000  0.550257  1
