# generated using pymatgen
data_CaDyMnSnO6
_symmetry_space_group_name_H-M   'P 1'
_cell_length_a   5.46114212
_cell_length_b   5.82848710
_cell_length_c   9.42017956
_cell_angle_alpha   90.00000000
_cell_angle_beta   125.04604213
_cell_angle_gamma   90.00000000
_symmetry_Int_Tables_number   1
_chemical_formula_structural   CaDyMnSnO6
_chemical_formula_sum   'Ca2 Dy2 Mn2 Sn2 O12'
_cell_volume   245.48131572
_cell_formula_units_Z   2
loop_
 _symmetry_equiv_pos_site_id
 _symmetry_equiv_pos_as_xyz
  1  'x, y, z'
loop_
 _atom_site_type_symbol
 _atom_site_label
 _atom_site_symmetry_multiplicity
 _atom_site_fract_x
 _atom_site_fract_y
 _atom_site_fract_z
 _atom_site_occupancy
  Ca  Ca0  1  0.235889  0.808587  0.748556  1
  Ca  Ca1  1  0.235889  0.191413  0.248556  1
  Dy  Dy2  1  0.773483  0.327005  0.752526  1
  Dy  Dy3  1  0.773483  0.672995  0.252526  1
  Mn  Mn4  1  0.503295  0.753873  0.499816  1
  Mn  Mn5  1  0.503295  0.246127  0.999816  1
  Sn  Sn6  1  0.001296  0.239433  0.499554  1
  Sn  Sn7  1  0.001296  0.760567  0.999554  1
  O  O8  1  0.382480  0.792205  0.258173  1
  O  O9  1  0.136988  0.070370  0.945120  1
  O  O10  1  0.752669  0.072250  0.563182  1
  O  O11  1  0.843788  0.552162  0.550895  1
  O  O12  1  0.233179  0.557282  0.941424  1
  O  O13  1  0.636932  0.293155  0.240755  1
  O  O14  1  0.382480  0.207795  0.758173  1
  O  O15  1  0.752669  0.927750  0.063182  1
  O  O16  1  0.136988  0.929630  0.445120  1
  O  O17  1  0.233179  0.442718  0.441424  1
  O  O18  1  0.843788  0.447838  0.050895  1
  O  O19  1  0.636932  0.706845  0.740755  1
