# generated using pymatgen
data_Na4Bi2B4SO16
_symmetry_space_group_name_H-M   'P 1'
_cell_length_a   10.31454534
_cell_length_b   10.26549135
_cell_length_c   10.04705716
_cell_angle_alpha   61.02246435
_cell_angle_beta   60.53417984
_cell_angle_gamma   58.44335582
_symmetry_Int_Tables_number   1
_chemical_formula_structural   Na4Bi2B4SO16
_chemical_formula_sum   'Na8 Bi4 B8 S2 O32'
_cell_volume   751.38656683
_cell_formula_units_Z   2
loop_
 _symmetry_equiv_pos_site_id
 _symmetry_equiv_pos_as_xyz
  1  'x, y, z'
loop_
 _atom_site_type_symbol
 _atom_site_label
 _atom_site_symmetry_multiplicity
 _atom_site_fract_x
 _atom_site_fract_y
 _atom_site_fract_z
 _atom_site_occupancy
  Na  Na0  1  0.546004  0.953996  0.546004  1
  Na  Na1  1  0.954619  0.545381  0.545381  1
  Na  Na2  1  0.704619  0.295381  0.295381  1
  Na  Na3  1  0.296004  0.703996  0.296004  1
  Na  Na4  1  0.953996  0.546004  0.953996  1
  Na  Na5  1  0.545381  0.954619  0.954619  1
  Na  Na6  1  0.295381  0.704619  0.704619  1
  Na  Na7  1  0.703996  0.296004  0.703996  1
  Bi  Bi8  1  0.125000  0.125000  0.625000  1
  Bi  Bi9  1  0.125000  0.125000  0.125000  1
  Bi  Bi10  1  0.625000  0.125000  0.125000  1
  Bi  Bi11  1  0.125000  0.625000  0.125000  1
  B  B12  1  0.911369  0.914273  0.274910  1
  B  B13  1  0.335727  0.338631  0.350552  1
  B  B14  1  0.274910  0.899448  0.911369  1
  B  B15  1  0.899448  0.274910  0.914273  1
  B  B16  1  0.350552  0.975090  0.335727  1
  B  B17  1  0.975090  0.350552  0.338631  1
  B  B18  1  0.914273  0.911369  0.899448  1
  B  B19  1  0.338631  0.335727  0.975090  1
  S  S20  1  0.500000  0.500000  0.500000  1
  S  S21  1  0.750000  0.750000  0.750000  1
  O  O22  1  0.765359  0.931879  0.281905  1
  O  O23  1  0.567116  0.320003  0.556055  1
  O  O24  1  0.927314  0.042956  0.267751  1
  O  O25  1  0.207044  0.322686  0.488020  1
  O  O26  1  0.267751  0.761980  0.927314  1
  O  O27  1  0.485086  0.213619  0.333511  1
  O  O28  1  0.556055  0.556826  0.567116  1
  O  O29  1  0.320003  0.567116  0.556826  1
  O  O30  1  0.967783  0.333511  0.213619  1
  O  O31  1  0.761980  0.267751  0.042956  1
  O  O32  1  0.318121  0.484641  0.229143  1
  O  O33  1  0.556826  0.556055  0.320003  1
  O  O34  1  0.281905  0.020857  0.765359  1
  O  O35  1  0.020857  0.281905  0.931879  1
  O  O36  1  0.036381  0.764914  0.282217  1
  O  O37  1  0.333511  0.967783  0.485086  1
  O  O38  1  0.916489  0.282217  0.764914  1
  O  O39  1  0.213619  0.485086  0.967783  1
  O  O40  1  0.229143  0.968095  0.318121  1
  O  O41  1  0.968095  0.229143  0.484641  1
  O  O42  1  0.693174  0.693945  0.929997  1
  O  O43  1  0.931879  0.765359  0.020857  1
  O  O44  1  0.488020  0.982249  0.207044  1
  O  O45  1  0.282217  0.916489  0.036381  1
  O  O46  1  0.929997  0.682884  0.693174  1
  O  O47  1  0.693945  0.693174  0.682884  1
  O  O48  1  0.764914  0.036381  0.916489  1
  O  O49  1  0.982249  0.488020  0.322686  1
  O  O50  1  0.042956  0.927314  0.761980  1
  O  O51  1  0.322686  0.207044  0.982249  1
  O  O52  1  0.682884  0.929997  0.693945  1
  O  O53  1  0.484641  0.318121  0.968095  1
