# generated using pymatgen
data_H7IN2
_symmetry_space_group_name_H-M   'P 1'
_cell_length_a   7.35795857
_cell_length_b   7.37231284
_cell_length_c   9.74706865
_cell_angle_alpha   90.00000000
_cell_angle_beta   90.00000000
_cell_angle_gamma   90.00000000
_symmetry_Int_Tables_number   1
_chemical_formula_structural   H7IN2
_chemical_formula_sum   'H28 I4 N8'
_cell_volume   528.73141972
_cell_formula_units_Z   4
loop_
 _symmetry_equiv_pos_site_id
 _symmetry_equiv_pos_as_xyz
  1  'x, y, z'
loop_
 _atom_site_type_symbol
 _atom_site_label
 _atom_site_symmetry_multiplicity
 _atom_site_fract_x
 _atom_site_fract_y
 _atom_site_fract_z
 _atom_site_occupancy
  H  H0  1  0.500000  0.500000  0.000000  1
  H  H1  1  0.000000  0.000000  0.500000  1
  H  H2  1  0.000000  0.000000  0.000000  1
  H  H3  1  0.500000  0.500000  0.500000  1
  H  H4  1  0.329528  0.655828  0.902909  1
  H  H5  1  0.170472  0.844172  0.402909  1
  H  H6  1  0.829528  0.844172  0.097091  1
  H  H7  1  0.670472  0.655828  0.597091  1
  H  H8  1  0.670472  0.344172  0.097091  1
  H  H9  1  0.829528  0.155828  0.597091  1
  H  H10  1  0.170472  0.155828  0.902909  1
  H  H11  1  0.329528  0.344172  0.402909  1
  H  H12  1  0.265903  0.588642  0.058341  1
  H  H13  1  0.234097  0.911358  0.558341  1
  H  H14  1  0.765903  0.911358  0.941659  1
  H  H15  1  0.734097  0.588642  0.441659  1
  H  H16  1  0.734097  0.411358  0.941659  1
  H  H17  1  0.765903  0.088642  0.441659  1
  H  H18  1  0.234097  0.088642  0.058341  1
  H  H19  1  0.265903  0.411358  0.558341  1
  H  H20  1  0.426807  0.745036  0.041612  1
  H  H21  1  0.073193  0.754964  0.541612  1
  H  H22  1  0.926807  0.754964  0.958388  1
  H  H23  1  0.573193  0.745036  0.458388  1
  H  H24  1  0.573193  0.254964  0.958388  1
  H  H25  1  0.926807  0.245036  0.458388  1
  H  H26  1  0.073193  0.245036  0.041612  1
  H  H27  1  0.426807  0.254964  0.541612  1
  I  I28  1  0.000000  0.489272  0.750000  1
  I  I29  1  0.500000  0.010728  0.250000  1
  I  I30  1  0.000000  0.510728  0.250000  1
  I  I31  1  0.500000  0.989272  0.750000  1
  N  N32  1  0.376332  0.627275  0.999639  1
  N  N33  1  0.123668  0.872725  0.499639  1
  N  N34  1  0.876332  0.872725  0.000361  1
  N  N35  1  0.623668  0.627275  0.500361  1
  N  N36  1  0.623668  0.372725  0.000361  1
  N  N37  1  0.876332  0.127275  0.500361  1
  N  N38  1  0.123668  0.127275  0.999639  1
  N  N39  1  0.376332  0.372725  0.499639  1
