# generated using pymatgen
data_Li6MnV3(PO4)6
_symmetry_space_group_name_H-M   'P 1'
_cell_length_a   8.62738077
_cell_length_b   8.63046465
_cell_length_c   12.73574953
_cell_angle_alpha   105.93532673
_cell_angle_beta   105.99766837
_cell_angle_gamma   94.42999571
_symmetry_Int_Tables_number   1
_chemical_formula_structural   Li6MnV3(PO4)6
_chemical_formula_sum   'Li12 Mn2 V6 P12 O48'
_cell_volume   864.45257746
_cell_formula_units_Z   2
loop_
 _symmetry_equiv_pos_site_id
 _symmetry_equiv_pos_as_xyz
  1  'x, y, z'
loop_
 _atom_site_type_symbol
 _atom_site_label
 _atom_site_symmetry_multiplicity
 _atom_site_fract_x
 _atom_site_fract_y
 _atom_site_fract_z
 _atom_site_occupancy
  Li  Li0  1  0.994375  0.001805  0.874292  1
  Li  Li1  1  0.995114  0.006647  0.376272  1
  Li  Li2  1  0.711769  0.287513  0.625751  1
  Li  Li3  1  0.500740  0.500065  0.749375  1
  Li  Li4  1  0.711653  0.287767  0.124812  1
  Li  Li5  1  0.500458  0.500835  0.500421  1
  Li  Li6  1  0.285266  0.710584  0.873780  1
  Li  Li7  1  0.499732  0.499671  0.250682  1
  Li  Li8  1  0.499499  0.498509  0.999030  1
  Li  Li9  1  0.289565  0.712515  0.376560  1
  Li  Li10  1  0.003751  0.992476  0.626322  1
  Li  Li11  1  0.004930  0.996983  0.124189  1
  Mn  Mn12  1  0.942552  0.624653  0.933638  1
  Mn  Mn13  1  0.625301  0.942791  0.683842  1
  V  V14  1  0.377339  0.058263  0.818883  1
  V  V15  1  0.379173  0.057461  0.321141  1
  V  V16  1  0.058020  0.378855  0.570829  1
  V  V17  1  0.058054  0.376980  0.069484  1
  V  V18  1  0.943733  0.619176  0.430379  1
  V  V19  1  0.619301  0.943335  0.180082  1
  P  P20  1  0.714039  0.286210  0.875015  1
  P  P21  1  0.335275  0.139098  0.567784  1
  P  P22  1  0.139320  0.335498  0.818210  1
  P  P23  1  0.713699  0.286545  0.375085  1
  P  P24  1  0.339016  0.137211  0.068284  1
  P  P25  1  0.137135  0.338514  0.317911  1
  P  P26  1  0.867124  0.660446  0.683694  1
  P  P27  1  0.660656  0.867348  0.932035  1
  P  P28  1  0.288087  0.716066  0.625459  1
  P  P29  1  0.861831  0.660919  0.181193  1
  P  P30  1  0.661075  0.861931  0.432991  1
  P  P31  1  0.284962  0.712552  0.125012  1
  O  O32  1  0.339114  0.012709  0.954042  1
  O  O33  1  0.386287  0.054369  0.663129  1
  O  O34  1  0.827525  0.256512  0.982876  1
  O  O35  1  0.339584  0.012011  0.455066  1
  O  O36  1  0.737144  0.170610  0.763551  1
  O  O37  1  0.159040  0.151124  0.798982  1
  O  O38  1  0.538362  0.265766  0.884567  1
  O  O39  1  0.150489  0.159689  0.547813  1
  O  O40  1  0.398706  0.049271  0.162959  1
  O  O41  1  0.827823  0.259916  0.484073  1
  O  O42  1  0.740714  0.171755  0.266642  1
  O  O43  1  0.157151  0.154987  0.303060  1
  O  O44  1  0.454298  0.296266  0.601296  1
  O  O45  1  0.054351  0.386152  0.913386  1
  O  O46  1  0.012986  0.339254  0.704772  1
  O  O47  1  0.740157  0.461549  0.864466  1
  O  O48  1  0.537470  0.263616  0.383544  1
  O  O49  1  0.296535  0.454799  0.851777  1
  O  O50  1  0.155617  0.156608  0.054517  1
  O  O51  1  0.456162  0.295899  0.102458  1
  O  O52  1  0.049552  0.398132  0.412688  1
  O  O53  1  0.706014  0.546594  0.648899  1
  O  O54  1  0.011151  0.339718  0.204223  1
  O  O55  1  0.737000  0.462428  0.365696  1
  O  O56  1  0.265534  0.539127  0.632933  1
  O  O57  1  0.990030  0.658358  0.799234  1
  O  O58  1  0.295504  0.455749  0.351846  1
  O  O59  1  0.952881  0.597083  0.587953  1
  O  O60  1  0.547838  0.706027  0.898415  1
  O  O61  1  0.844764  0.856837  0.946341  1
  O  O62  1  0.703382  0.544072  0.147239  1
  O  O63  1  0.463980  0.740805  0.615368  1
  O  O64  1  0.263884  0.537450  0.135130  1
  O  O65  1  0.987173  0.660393  0.295308  1
  O  O66  1  0.950484  0.599156  0.086241  1
  O  O67  1  0.543131  0.703772  0.397962  1
  O  O68  1  0.855321  0.844274  0.697419  1
  O  O69  1  0.258907  0.827413  0.734169  1
  O  O70  1  0.171713  0.742398  0.516705  1
  O  O71  1  0.595305  0.953061  0.835767  1
  O  O72  1  0.844093  0.841043  0.445865  1
  O  O73  1  0.460850  0.737222  0.115947  1
  O  O74  1  0.842101  0.843946  0.194362  1
  O  O75  1  0.256834  0.828452  0.232648  1
  O  O76  1  0.662969  0.986963  0.548437  1
  O  O77  1  0.170864  0.736660  0.013626  1
  O  O78  1  0.601242  0.950387  0.338417  1
  O  O79  1  0.655434  0.990392  0.045750  1
