# generated using pymatgen
data_Sr2LaCl7
_symmetry_space_group_name_H-M   'P 1'
_cell_length_a   9.45398869
_cell_length_b   10.53960346
_cell_length_c   13.31078421
_cell_angle_alpha   90.00000000
_cell_angle_beta   90.00000000
_cell_angle_gamma   90.00000000
_symmetry_Int_Tables_number   1
_chemical_formula_structural   Sr2LaCl7
_chemical_formula_sum   'Sr8 La4 Cl28'
_cell_volume   1326.30373499
_cell_formula_units_Z   4
loop_
 _symmetry_equiv_pos_site_id
 _symmetry_equiv_pos_as_xyz
  1  'x, y, z'
loop_
 _atom_site_type_symbol
 _atom_site_label
 _atom_site_symmetry_multiplicity
 _atom_site_fract_x
 _atom_site_fract_y
 _atom_site_fract_z
 _atom_site_occupancy
  Sr  Sr0  1  0.750000  0.867139  0.746659  1
  Sr  Sr1  1  0.250000  0.814912  0.912259  1
  Sr  Sr2  1  0.750000  0.685088  0.412259  1
  Sr  Sr3  1  0.250000  0.632861  0.246659  1
  Sr  Sr4  1  0.750000  0.367139  0.753341  1
  Sr  Sr5  1  0.250000  0.314912  0.587741  1
  Sr  Sr6  1  0.750000  0.185088  0.087741  1
  Sr  Sr7  1  0.250000  0.132861  0.253341  1
  La  La8  1  0.250000  0.819185  0.558182  1
  La  La9  1  0.750000  0.680815  0.058182  1
  La  La10  1  0.250000  0.319185  0.941818  1
  La  La11  1  0.750000  0.180815  0.441818  1
  Cl  Cl12  1  0.750000  0.931754  0.524243  1
  Cl  Cl13  1  0.750000  0.921928  0.130097  1
  Cl  Cl14  1  0.250000  0.883128  0.137495  1
  Cl  Cl15  1  0.443496  0.887973  0.700432  1
  Cl  Cl16  1  0.056504  0.887973  0.700432  1
  Cl  Cl17  1  0.058286  0.743016  0.409397  1
  Cl  Cl18  1  0.441714  0.743016  0.409397  1
  Cl  Cl19  1  0.941714  0.756984  0.909397  1
  Cl  Cl20  1  0.558286  0.756984  0.909397  1
  Cl  Cl21  1  0.943496  0.612027  0.200432  1
  Cl  Cl22  1  0.556504  0.612027  0.200432  1
  Cl  Cl23  1  0.750000  0.616872  0.637495  1
  Cl  Cl24  1  0.250000  0.578072  0.630097  1
  Cl  Cl25  1  0.250000  0.568246  0.024243  1
  Cl  Cl26  1  0.750000  0.431754  0.975757  1
  Cl  Cl27  1  0.750000  0.421928  0.369903  1
  Cl  Cl28  1  0.250000  0.383128  0.362505  1
  Cl  Cl29  1  0.443496  0.387973  0.799568  1
  Cl  Cl30  1  0.056504  0.387973  0.799568  1
  Cl  Cl31  1  0.441714  0.243016  0.090603  1
  Cl  Cl32  1  0.058286  0.243016  0.090603  1
  Cl  Cl33  1  0.941714  0.256984  0.590603  1
  Cl  Cl34  1  0.558286  0.256984  0.590603  1
  Cl  Cl35  1  0.943496  0.112027  0.299568  1
  Cl  Cl36  1  0.556504  0.112027  0.299568  1
  Cl  Cl37  1  0.750000  0.116872  0.862505  1
  Cl  Cl38  1  0.250000  0.078072  0.869903  1
  Cl  Cl39  1  0.250000  0.068246  0.475757  1
