# generated using pymatgen
data_Na6B4Sb2SO16
_symmetry_space_group_name_H-M   'P 1'
_cell_length_a   10.13884226
_cell_length_b   10.13884226
_cell_length_c   10.13884226
_cell_angle_alpha   60.00000000
_cell_angle_beta   60.00000000
_cell_angle_gamma   60.00000000
_symmetry_Int_Tables_number   1
_chemical_formula_structural   Na6B4Sb2SO16
_chemical_formula_sum   'Na12 B8 Sb4 S2 O32'
_cell_volume   736.97049457
_cell_formula_units_Z   2
loop_
 _symmetry_equiv_pos_site_id
 _symmetry_equiv_pos_as_xyz
  1  'x, y, z'
loop_
 _atom_site_type_symbol
 _atom_site_label
 _atom_site_symmetry_multiplicity
 _atom_site_fract_x
 _atom_site_fract_y
 _atom_site_fract_z
 _atom_site_occupancy
  Na  Na0  1  0.461907  0.461907  0.038093  1
  Na  Na1  1  0.038093  0.461907  0.038093  1
  Na  Na2  1  0.461907  0.038093  0.038093  1
  Na  Na3  1  0.038093  0.461907  0.461907  1
  Na  Na4  1  0.788093  0.211907  0.788093  1
  Na  Na5  1  0.211907  0.211907  0.788093  1
  Na  Na6  1  0.461907  0.038093  0.461907  1
  Na  Na7  1  0.038093  0.038093  0.461907  1
  Na  Na8  1  0.788093  0.211907  0.211907  1
  Na  Na9  1  0.211907  0.788093  0.788093  1
  Na  Na10  1  0.788093  0.788093  0.211907  1
  Na  Na11  1  0.211907  0.788093  0.211907  1
  B  B12  1  0.843252  0.470245  0.843252  1
  B  B13  1  0.843252  0.843252  0.843252  1
  B  B14  1  0.470245  0.843252  0.843252  1
  B  B15  1  0.843252  0.843252  0.470245  1
  B  B16  1  0.406748  0.406748  0.779755  1
  B  B17  1  0.779755  0.406748  0.406748  1
  B  B18  1  0.406748  0.406748  0.406748  1
  B  B19  1  0.406748  0.779755  0.406748  1
  Sb  Sb20  1  0.625000  0.625000  0.125000  1
  Sb  Sb21  1  0.625000  0.625000  0.625000  1
  Sb  Sb22  1  0.125000  0.625000  0.625000  1
  Sb  Sb23  1  0.625000  0.125000  0.625000  1
  S  S24  1  0.000000  1.000000  1.000000  1
  S  S25  1  0.250000  0.250000  0.250000  1
  O  O26  1  0.060284  0.819148  0.060284  1
  O  O27  1  0.819148  0.060284  0.060284  1
  O  O28  1  0.060284  0.060284  0.060284  1
  O  O29  1  0.060284  0.060284  0.819148  1
  O  O30  1  0.719804  0.466884  0.991359  1
  O  O31  1  0.991359  0.466884  0.821952  1
  O  O32  1  0.821952  0.719804  0.991359  1
  O  O33  1  0.821952  0.466884  0.719804  1
  O  O34  1  0.466884  0.821952  0.991359  1
  O  O35  1  0.466884  0.719804  0.821952  1
  O  O36  1  0.991359  0.821952  0.719804  1
  O  O37  1  0.719804  0.991359  0.821952  1
  O  O38  1  0.991359  0.719804  0.466884  1
  O  O39  1  0.466884  0.991359  0.719804  1
  O  O40  1  0.719804  0.821952  0.466884  1
  O  O41  1  0.428048  0.258641  0.783116  1
  O  O42  1  0.821952  0.991359  0.466884  1
  O  O43  1  0.530196  0.428048  0.783116  1
  O  O44  1  0.783116  0.258641  0.530196  1
  O  O45  1  0.258641  0.530196  0.783116  1
  O  O46  1  0.530196  0.258641  0.428048  1
  O  O47  1  0.258641  0.428048  0.530196  1
  O  O48  1  0.783116  0.530196  0.428048  1
  O  O49  1  0.783116  0.428048  0.258641  1
  O  O50  1  0.428048  0.783116  0.530196  1
  O  O51  1  0.428048  0.530196  0.258641  1
  O  O52  1  0.258641  0.783116  0.428048  1
  O  O53  1  0.530196  0.783116  0.258641  1
  O  O54  1  0.189716  0.189716  0.430852  1
  O  O55  1  0.430852  0.189716  0.189716  1
  O  O56  1  0.189716  0.189716  0.189716  1
  O  O57  1  0.189716  0.430852  0.189716  1
