# generated using pymatgen
data_Li2Fe3(PO4)3
_symmetry_space_group_name_H-M   'P 1'
_cell_length_a   8.50852325
_cell_length_b   8.50852325
_cell_length_c   8.36895147
_cell_angle_alpha   64.17361560
_cell_angle_beta   115.82638440
_cell_angle_gamma   116.37878890
_symmetry_Int_Tables_number   1
_chemical_formula_structural   Li2Fe3(PO4)3
_chemical_formula_sum   'Li4 Fe6 P6 O24'
_cell_volume   466.03425680
_cell_formula_units_Z   2
loop_
 _symmetry_equiv_pos_site_id
 _symmetry_equiv_pos_as_xyz
  1  'x, y, z'
loop_
 _atom_site_type_symbol
 _atom_site_label
 _atom_site_symmetry_multiplicity
 _atom_site_fract_x
 _atom_site_fract_y
 _atom_site_fract_z
 _atom_site_occupancy
  Li  Li0  1  0.856505  0.856505  0.000000  1
  Li  Li1  1  0.155837  0.155837  0.500000  1
  Li  Li2  1  0.750375  0.347349  0.903136  1
  Li  Li3  1  0.347349  0.750375  0.096864  1
  Fe  Fe4  1  0.001533  0.495888  0.256981  1
  Fe  Fe5  1  0.642833  0.853637  0.604422  1
  Fe  Fe6  1  0.155689  0.347458  0.098855  1
  Fe  Fe7  1  0.495888  0.001533  0.743019  1
  Fe  Fe8  1  0.853637  0.642833  0.395578  1
  Fe  Fe9  1  0.347458  0.155689  0.901145  1
  P  P10  1  0.251776  0.941374  0.311091  1
  P  P11  1  0.941374  0.251776  0.688909  1
  P  P12  1  0.558484  0.558484  0.000000  1
  P  P13  1  0.456938  0.456938  0.500000  1
  P  P14  1  0.040819  0.752202  0.800882  1
  P  P15  1  0.752202  0.040819  0.199118  1
  O  O16  1  0.097255  0.189667  0.714310  1
  O  O17  1  0.532025  0.403406  0.935258  1
  O  O18  1  0.317605  0.971617  0.152296  1
  O  O19  1  0.089066  0.754934  0.314025  1
  O  O20  1  0.189667  0.097255  0.285690  1
  O  O21  1  0.405024  0.921914  0.504071  1
  O  O22  1  0.921914  0.405024  0.495929  1
  O  O23  1  0.754934  0.089066  0.685975  1
  O  O24  1  0.610484  0.501142  0.424252  1
  O  O25  1  0.583251  0.755362  0.850918  1
  O  O26  1  0.261200  0.437682  0.350621  1
  O  O27  1  0.981934  0.685171  0.635582  1
  O  O28  1  0.971617  0.317605  0.847704  1
  O  O29  1  0.755362  0.583251  0.149082  1
  O  O30  1  0.437682  0.261200  0.649379  1
  O  O31  1  0.403406  0.532025  0.064742  1
  O  O32  1  0.235317  0.902119  0.809821  1
  O  O33  1  0.066097  0.600597  0.995966  1
  O  O34  1  0.600597  0.066097  0.004034  1
  O  O35  1  0.820206  0.891223  0.217974  1
  O  O36  1  0.902119  0.235317  0.190179  1
  O  O37  1  0.685171  0.981934  0.364418  1
  O  O38  1  0.501142  0.610484  0.575748  1
  O  O39  1  0.891223  0.820206  0.782026  1
