# generated using pymatgen
data_V6O5F19
_symmetry_space_group_name_H-M   'P 1'
_cell_length_a   5.30498814
_cell_length_b   5.54875842
_cell_length_c   14.78008054
_cell_angle_alpha   100.19634846
_cell_angle_beta   89.88489909
_cell_angle_gamma   90.85910345
_symmetry_Int_Tables_number   1
_chemical_formula_structural   V6O5F19
_chemical_formula_sum   'V6 O5 F19'
_cell_volume   428.14859334
_cell_formula_units_Z   1
loop_
 _symmetry_equiv_pos_site_id
 _symmetry_equiv_pos_as_xyz
  1  'x, y, z'
loop_
 _atom_site_type_symbol
 _atom_site_label
 _atom_site_symmetry_multiplicity
 _atom_site_fract_x
 _atom_site_fract_y
 _atom_site_fract_z
 _atom_site_occupancy
  V  V0  1  0.009657  0.984660  0.000997  1
  V  V1  1  0.524943  0.107900  0.330526  1
  V  V2  1  0.978879  0.277316  0.664357  1
  V  V3  1  0.530125  0.452532  0.996937  1
  V  V4  1  0.978796  0.611178  0.331236  1
  V  V5  1  0.525053  0.774268  0.663764  1
  O  O6  1  0.791062  0.033054  0.642890  1
  O  O7  1  0.705332  0.208589  0.977213  1
  O  O8  1  0.790656  0.367068  0.309692  1
  O  O9  1  0.708260  0.533483  0.642706  1
  O  O10  1  0.708110  0.867263  0.309181  1
  F  F11  1  0.270945  0.145034  0.691959  1
  F  F12  1  0.905057  0.053049  0.116285  1
  F  F13  1  0.584738  0.233353  0.447407  1
  F  F14  1  0.913075  0.400473  0.780685  1
  F  F15  1  0.418609  0.147069  0.220523  1
  F  F16  1  0.078273  0.314050  0.553018  1
  F  F17  1  0.410406  0.473457  0.886947  1
  F  F18  1  0.794867  0.685893  0.976119  1
  F  F19  1  0.221540  0.296952  0.024313  1
  F  F20  1  0.270406  0.478762  0.359196  1
  F  F21  1  0.226529  0.640862  0.691521  1
  F  F22  1  0.573488  0.563069  0.115656  1
  F  F23  1  0.913261  0.735215  0.447524  1
  F  F24  1  0.583757  0.899761  0.780667  1
  F  F25  1  0.078753  0.646804  0.219878  1
  F  F26  1  0.420530  0.812536  0.553397  1
  F  F27  1  0.068862  0.970795  0.882482  1
  F  F28  1  0.289410  0.811024  0.024379  1
  F  F29  1  0.226619  0.974532  0.358545  1
