# generated using pymatgen
data_V2OF5
_symmetry_space_group_name_H-M   'P 1'
_cell_length_a   4.71597079
_cell_length_b   5.06356629
_cell_length_c   18.04241567
_cell_angle_alpha   90.00000000
_cell_angle_beta   105.16217474
_cell_angle_gamma   90.00000000
_symmetry_Int_Tables_number   1
_chemical_formula_structural   V2OF5
_chemical_formula_sum   'V8 O4 F20'
_cell_volume   415.84819759
_cell_formula_units_Z   4
loop_
 _symmetry_equiv_pos_site_id
 _symmetry_equiv_pos_as_xyz
  1  'x, y, z'
loop_
 _atom_site_type_symbol
 _atom_site_label
 _atom_site_symmetry_multiplicity
 _atom_site_fract_x
 _atom_site_fract_y
 _atom_site_fract_z
 _atom_site_occupancy
  V  V0  1  0.735089  0.469979  0.711515  1
  V  V1  1  0.286971  0.001639  0.287314  1
  V  V2  1  0.286971  0.998361  0.787314  1
  V  V3  1  0.914755  0.017426  0.443244  1
  V  V4  1  0.053049  0.509779  0.549150  1
  V  V5  1  0.735089  0.530021  0.211515  1
  V  V6  1  0.914755  0.982574  0.943244  1
  V  V7  1  0.053049  0.490221  0.049150  1
  O  O8  1  0.959742  0.205556  0.718841  1
  O  O9  1  0.619147  0.112752  0.374116  1
  O  O10  1  0.619147  0.887248  0.874116  1
  O  O11  1  0.959742  0.794444  0.218841  1
  F  F12  1  0.178462  0.682455  0.964357  1
  F  F13  1  0.870384  0.643960  0.628959  1
  F  F14  1  0.128311  0.134712  0.873961  1
  F  F15  1  0.024854  0.683302  0.785920  1
  F  F16  1  0.240026  0.169922  0.030104  1
  F  F17  1  0.534747  0.675158  0.285119  1
  F  F18  1  0.744786  0.679535  0.464750  1
  F  F19  1  0.818339  0.181968  0.533461  1
  F  F20  1  0.470474  0.198703  0.217268  1
  F  F21  1  0.392017  0.636098  0.129844  1
  F  F22  1  0.240026  0.830078  0.530104  1
  F  F23  1  0.534747  0.324842  0.785119  1
  F  F24  1  0.178462  0.317545  0.464357  1
  F  F25  1  0.744786  0.320465  0.964750  1
  F  F26  1  0.470474  0.801297  0.717268  1
  F  F27  1  0.392017  0.363902  0.629844  1
  F  F28  1  0.870384  0.356040  0.128959  1
  F  F29  1  0.128311  0.865288  0.373961  1
  F  F30  1  0.024854  0.316698  0.285920  1
  F  F31  1  0.818339  0.818032  0.033461  1
