# generated using pymatgen
data_LiCo2OF3
_symmetry_space_group_name_H-M   'P 1'
_cell_length_a   6.09292250
_cell_length_b   6.09292250
_cell_length_c   8.61754787
_cell_angle_alpha   90.00000000
_cell_angle_beta   90.00000000
_cell_angle_gamma   90.00000000
_symmetry_Int_Tables_number   1
_chemical_formula_structural   LiCo2OF3
_chemical_formula_sum   'Li4 Co8 O4 F12'
_cell_volume   319.91530128
_cell_formula_units_Z   4
loop_
 _symmetry_equiv_pos_site_id
 _symmetry_equiv_pos_as_xyz
  1  'x, y, z'
loop_
 _atom_site_type_symbol
 _atom_site_label
 _atom_site_symmetry_multiplicity
 _atom_site_fract_x
 _atom_site_fract_y
 _atom_site_fract_z
 _atom_site_occupancy
  Li  Li0  1  0.253568  0.505561  0.250155  1
  Li  Li1  1  0.494439  0.253568  0.000155  1
  Li  Li2  1  0.505561  0.746432  0.500155  1
  Li  Li3  1  0.746432  0.494439  0.750155  1
  Co  Co4  1  0.010606  0.246142  0.984927  1
  Co  Co5  1  0.989394  0.753858  0.484927  1
  Co  Co6  1  0.225829  0.255507  0.635772  1
  Co  Co7  1  0.255507  0.774171  0.885772  1
  Co  Co8  1  0.246142  0.989394  0.234927  1
  Co  Co9  1  0.753858  0.010606  0.734927  1
  Co  Co10  1  0.744493  0.225829  0.385772  1
  Co  Co11  1  0.774171  0.744493  0.135772  1
  O  O12  1  0.026527  0.755245  0.260564  1
  O  O13  1  0.244755  0.026527  0.010564  1
  O  O14  1  0.755245  0.973473  0.510564  1
  O  O15  1  0.973473  0.244755  0.760564  1
  F  F16  1  0.006171  0.265457  0.240359  1
  F  F17  1  0.265457  0.993829  0.490359  1
  F  F18  1  0.259089  0.495392  0.008128  1
  F  F19  1  0.249809  0.517676  0.495126  1
  F  F20  1  0.504608  0.259089  0.758128  1
  F  F21  1  0.517676  0.750191  0.745126  1
  F  F22  1  0.482324  0.249809  0.245126  1
  F  F23  1  0.495392  0.740911  0.258128  1
  F  F24  1  0.740911  0.504608  0.508128  1
  F  F25  1  0.750191  0.482324  0.995126  1
  F  F26  1  0.734543  0.006171  0.990359  1
  F  F27  1  0.993829  0.734543  0.740359  1
