# generated using pymatgen
data_Y11Ta5O28
_symmetry_space_group_name_H-M   'P 1'
_cell_length_a   7.46711105
_cell_length_b   7.45168482
_cell_length_c   10.53476212
_cell_angle_alpha   90.00000000
_cell_angle_beta   90.43796608
_cell_angle_gamma   90.00000000
_symmetry_Int_Tables_number   1
_chemical_formula_structural   Y11Ta5O28
_chemical_formula_sum   'Y11 Ta5 O28'
_cell_volume   586.16398747
_cell_formula_units_Z   1
loop_
 _symmetry_equiv_pos_site_id
 _symmetry_equiv_pos_as_xyz
  1  'x, y, z'
loop_
 _atom_site_type_symbol
 _atom_site_label
 _atom_site_symmetry_multiplicity
 _atom_site_fract_x
 _atom_site_fract_y
 _atom_site_fract_z
 _atom_site_occupancy
  Y  Y0  1  0.477973  0.757447  0.003428  1
  Y  Y1  1  0.477973  0.242553  0.003428  1
  Y  Y2  1  0.266892  0.000000  0.269606  1
  Y  Y3  1  0.235054  0.500000  0.237881  1
  Y  Y4  1  0.732893  0.000000  0.267553  1
  Y  Y5  1  0.751486  0.500000  0.242901  1
  Y  Y6  1  0.003842  0.247920  0.496831  1
  Y  Y7  1  0.003842  0.752080  0.496831  1
  Y  Y8  1  0.763534  0.000000  0.756281  1
  Y  Y9  1  0.238450  0.000000  0.754924  1
  Y  Y10  1  0.264362  0.500000  0.734743  1
  Ta  Ta11  1  0.998164  0.748553  0.996680  1
  Ta  Ta12  1  0.998164  0.251447  0.996680  1
  Ta  Ta13  1  0.495264  0.275189  0.486608  1
  Ta  Ta14  1  0.495264  0.724811  0.486608  1
  Ta  Ta15  1  0.729910  0.500000  0.726479  1
  O  O16  1  0.197122  0.784663  0.120243  1
  O  O17  1  0.197122  0.215337  0.120243  1
  O  O18  1  0.797974  0.780698  0.113789  1
  O  O19  1  0.797974  0.219302  0.113789  1
  O  O20  1  0.497561  0.000000  0.134392  1
  O  O21  1  0.493590  0.500000  0.121288  1
  O  O22  1  0.000080  0.000000  0.367078  1
  O  O23  1  0.998000  0.500000  0.363918  1
  O  O24  1  0.714019  0.267294  0.379070  1
  O  O25  1  0.714019  0.732706  0.379070  1
  O  O26  1  0.284075  0.730862  0.372060  1
  O  O27  1  0.284075  0.269138  0.372060  1
  O  O28  1  0.501150  0.000000  0.430659  1
  O  O29  1  0.510317  0.500000  0.595852  1
  O  O30  1  0.697654  0.753281  0.635979  1
  O  O31  1  0.697654  0.246719  0.635979  1
  O  O32  1  0.293304  0.768598  0.617268  1
  O  O33  1  0.293304  0.231402  0.617268  1
  O  O34  1  0.995348  0.000000  0.631981  1
  O  O35  1  0.975678  0.500000  0.639074  1
  O  O36  1  0.506956  0.000000  0.866188  1
  O  O37  1  0.527059  0.500000  0.847351  1
  O  O38  1  0.215252  0.724721  0.878003  1
  O  O39  1  0.215252  0.275279  0.878003  1
  O  O40  1  0.835611  0.683258  0.855747  1
  O  O41  1  0.835611  0.316742  0.855747  1
  O  O42  1  0.983260  0.000000  0.923676  1
  O  O43  1  0.007912  0.500000  0.064566  1
