# generated using pymatgen
data_Li4Cr3Fe2Co3O16
_symmetry_space_group_name_H-M   'P 1'
_cell_length_a   5.80600812
_cell_length_b   5.80898121
_cell_length_c   9.50262957
_cell_angle_alpha   90.17505667
_cell_angle_beta   90.87718228
_cell_angle_gamma   119.04292695
_symmetry_Int_Tables_number   1
_chemical_formula_structural   Li4Cr3Fe2Co3O16
_chemical_formula_sum   'Li4 Cr3 Fe2 Co3 O16'
_cell_volume   280.14185113
_cell_formula_units_Z   1
loop_
 _symmetry_equiv_pos_site_id
 _symmetry_equiv_pos_as_xyz
  1  'x, y, z'
loop_
 _atom_site_type_symbol
 _atom_site_label
 _atom_site_symmetry_multiplicity
 _atom_site_fract_x
 _atom_site_fract_y
 _atom_site_fract_z
 _atom_site_occupancy
  Li  Li0  1  0.672321  0.328500  0.107971  1
  Li  Li1  1  0.993426  0.005118  0.003673  1
  Li  Li2  1  0.993436  0.005394  0.502384  1
  Li  Li3  1  0.338340  0.668299  0.605693  1
  Cr  Cr4  1  0.338740  0.170373  0.786278  1
  Cr  Cr5  1  0.830987  0.665395  0.788001  1
  Cr  Cr6  1  0.170324  0.827408  0.285532  1
  Fe  Fe7  1  0.663078  0.333680  0.509431  1
  Fe  Fe8  1  0.331509  0.662719  0.009937  1
  Co  Co9  1  0.829818  0.171585  0.783542  1
  Co  Co10  1  0.168295  0.336152  0.284511  1
  Co  Co11  1  0.662953  0.828804  0.286823  1
  O  O12  1  0.319923  0.155488  0.401202  1
  O  O13  1  0.526711  0.489139  0.664682  1
  O  O14  1  0.679426  0.330954  0.893368  1
  O  O15  1  0.989871  0.005143  0.690025  1
  O  O16  1  0.989321  0.982690  0.191062  1
  O  O17  1  0.832326  0.677317  0.397947  1
  O  O18  1  0.533197  0.040464  0.662968  1
  O  O19  1  0.963881  0.480336  0.666087  1
  O  O20  1  0.153622  0.830712  0.897594  1
  O  O21  1  0.826714  0.154898  0.390241  1
  O  O22  1  0.039466  0.524967  0.163003  1
  O  O23  1  0.488069  0.959532  0.165427  1
  O  O24  1  0.344928  0.680465  0.392886  1
  O  O25  1  0.154348  0.324309  0.901059  1
  O  O26  1  0.491780  0.525128  0.167210  1
  O  O27  1  0.672889  0.834731  0.893619  1
