# generated using pymatgen
data_SiH10(O2F3)2
_symmetry_space_group_name_H-M   'P 1'
_cell_length_a   6.09031837
_cell_length_b   10.10890386
_cell_length_c   6.62261908
_cell_angle_alpha   90.00000000
_cell_angle_beta   104.17429029
_cell_angle_gamma   90.00000000
_symmetry_Int_Tables_number   1
_chemical_formula_structural   SiH10(O2F3)2
_chemical_formula_sum   'Si2 H20 O8 F12'
_cell_volume   395.31785906
_cell_formula_units_Z   2
loop_
 _symmetry_equiv_pos_site_id
 _symmetry_equiv_pos_as_xyz
  1  'x, y, z'
loop_
 _atom_site_type_symbol
 _atom_site_label
 _atom_site_symmetry_multiplicity
 _atom_site_fract_x
 _atom_site_fract_y
 _atom_site_fract_z
 _atom_site_occupancy
  Si  Si0  1  0.000000  0.500000  0.500000  1
  Si  Si1  1  0.000000  0.000000  0.000000  1
  H  H2  1  0.205400  0.622376  0.921867  1
  H  H3  1  0.794600  0.122376  0.578133  1
  H  H4  1  0.794600  0.377624  0.078133  1
  H  H5  1  0.205400  0.877624  0.421867  1
  H  H6  1  0.166341  0.624771  0.156955  1
  H  H7  1  0.833659  0.124771  0.343045  1
  H  H8  1  0.833659  0.375229  0.843045  1
  H  H9  1  0.166341  0.875229  0.656955  1
  H  H10  1  0.423881  0.695307  0.126256  1
  H  H11  1  0.576119  0.195307  0.373744  1
  H  H12  1  0.576119  0.304693  0.873744  1
  H  H13  1  0.423881  0.804693  0.626256  1
  H  H14  1  0.733794  0.719892  0.234474  1
  H  H15  1  0.266206  0.219892  0.265526  1
  H  H16  1  0.266206  0.280108  0.765526  1
  H  H17  1  0.733794  0.780108  0.734474  1
  H  H18  1  0.615361  0.850441  0.124651  1
  H  H19  1  0.384639  0.350441  0.375349  1
  H  H20  1  0.384639  0.149559  0.875349  1
  H  H21  1  0.615361  0.649559  0.624651  1
  O  O22  1  0.281797  0.618745  0.073896  1
  O  O23  1  0.718203  0.118745  0.426104  1
  O  O24  1  0.718203  0.381255  0.926104  1
  O  O25  1  0.281797  0.881255  0.573896  1
  O  O26  1  0.591299  0.771233  0.204936  1
  O  O27  1  0.408701  0.271233  0.295064  1
  O  O28  1  0.408701  0.228767  0.795064  1
  O  O29  1  0.591299  0.728767  0.704936  1
  F  F30  1  0.078009  0.623784  0.681202  1
  F  F31  1  0.921991  0.123784  0.818798  1
  F  F32  1  0.921991  0.376216  0.318798  1
  F  F33  1  0.078009  0.876216  0.181202  1
  F  F34  1  0.275647  0.475532  0.499967  1
  F  F35  1  0.724353  0.975532  0.000033  1
  F  F36  1  0.724353  0.524468  0.500033  1
  F  F37  1  0.275647  0.024468  0.999967  1
  F  F38  1  0.025824  0.384353  0.699842  1
  F  F39  1  0.974176  0.884353  0.800158  1
  F  F40  1  0.974176  0.615647  0.300158  1
  F  F41  1  0.025824  0.115647  0.199842  1
