# generated using pymatgen
data_Li8TiMn3(PO4)6
_symmetry_space_group_name_H-M   'P 1'
_cell_length_a   8.92072087
_cell_length_b   8.92072087
_cell_length_c   8.92072087
_cell_angle_alpha   60.85266472
_cell_angle_beta   60.85266472
_cell_angle_gamma   60.85266472
_symmetry_Int_Tables_number   1
_chemical_formula_structural   Li8TiMn3(PO4)6
_chemical_formula_sum   'Li8 Ti1 Mn3 P6 O24'
_cell_volume   511.62884079
_cell_formula_units_Z   1
loop_
 _symmetry_equiv_pos_site_id
 _symmetry_equiv_pos_as_xyz
  1  'x, y, z'
loop_
 _atom_site_type_symbol
 _atom_site_label
 _atom_site_symmetry_multiplicity
 _atom_site_fract_x
 _atom_site_fract_y
 _atom_site_fract_z
 _atom_site_occupancy
  Li  Li0  1  0.034586  0.034586  0.034586  1
  Li  Li1  1  0.763480  0.357442  0.198030  1
  Li  Li2  1  0.198030  0.763480  0.357442  1
  Li  Li3  1  0.357442  0.198030  0.763480  1
  Li  Li4  1  0.526325  0.526325  0.526325  1
  Li  Li5  1  0.680643  0.865699  0.276315  1
  Li  Li6  1  0.865699  0.276315  0.680643  1
  Li  Li7  1  0.276315  0.680643  0.865699  1
  Ti  Ti8  1  0.850947  0.850947  0.850947  1
  Mn  Mn9  1  0.161420  0.161420  0.161420  1
  Mn  Mn10  1  0.657235  0.657235  0.657235  1
  Mn  Mn11  1  0.351813  0.351813  0.351813  1
  P  P12  1  0.450980  0.752858  0.046357  1
  P  P13  1  0.752858  0.046357  0.450980  1
  P  P14  1  0.046357  0.450980  0.752858  1
  P  P15  1  0.940705  0.556189  0.245145  1
  P  P16  1  0.245145  0.940705  0.556189  1
  P  P17  1  0.556189  0.245145  0.940705  1
  O  O18  1  0.268587  0.910495  0.077878  1
  O  O19  1  0.617000  0.815130  0.976166  1
  O  O20  1  0.450180  0.596989  0.230889  1
  O  O21  1  0.695313  0.902177  0.465079  1
  O  O22  1  0.910495  0.077878  0.268587  1
  O  O23  1  0.596989  0.230889  0.450180  1
  O  O24  1  0.902177  0.465079  0.695313  1
  O  O25  1  0.230889  0.450180  0.596989  1
  O  O26  1  0.956752  0.399235  0.203045  1
  O  O27  1  0.904490  0.742493  0.085303  1
  O  O28  1  0.465079  0.695313  0.902177  1
  O  O29  1  0.203045  0.956752  0.399235  1
  O  O30  1  0.815130  0.976166  0.617000  1
  O  O31  1  0.524302  0.269908  0.113119  1
  O  O32  1  0.077878  0.268587  0.910495  1
  O  O33  1  0.976166  0.617000  0.815130  1
  O  O34  1  0.762279  0.586134  0.406898  1
  O  O35  1  0.113119  0.524302  0.269908  1
  O  O36  1  0.406898  0.762279  0.586134  1
  O  O37  1  0.085303  0.904490  0.742493  1
  O  O38  1  0.269908  0.113119  0.524302  1
  O  O39  1  0.399235  0.203045  0.956752  1
  O  O40  1  0.586134  0.406898  0.762279  1
  O  O41  1  0.742493  0.085303  0.904490  1
