# generated using pymatgen
data_CaScSi3HO9
_symmetry_space_group_name_H-M   'P 1'
_cell_length_a   6.86659428
_cell_length_b   7.14054165
_cell_length_c   7.58638686
_cell_angle_alpha   104.42146496
_cell_angle_beta   93.60692148
_cell_angle_gamma   91.83733988
_symmetry_Int_Tables_number   1
_chemical_formula_structural   CaScSi3HO9
_chemical_formula_sum   'Ca2 Sc2 Si6 H2 O18'
_cell_volume   359.09664497
_cell_formula_units_Z   2
loop_
 _symmetry_equiv_pos_site_id
 _symmetry_equiv_pos_as_xyz
  1  'x, y, z'
loop_
 _atom_site_type_symbol
 _atom_site_label
 _atom_site_symmetry_multiplicity
 _atom_site_fract_x
 _atom_site_fract_y
 _atom_site_fract_z
 _atom_site_occupancy
  Ca  Ca0  1  0.343375  0.914555  0.668491  1
  Ca  Ca1  1  0.656625  0.085445  0.331509  1
  Sc  Sc2  1  0.351160  0.406447  0.643041  1
  Sc  Sc3  1  0.648840  0.593553  0.356959  1
  Si  Si4  1  0.175608  0.089962  0.258825  1
  Si  Si5  1  0.824392  0.910038  0.741175  1
  Si  Si6  1  0.143360  0.523714  0.278381  1
  Si  Si7  1  0.856640  0.476286  0.721619  1
  Si  Si8  1  0.366293  0.740163  0.045521  1
  Si  Si9  1  0.633707  0.259837  0.954479  1
  H  H10  1  0.970647  0.839025  0.305132  1
  H  H11  1  0.029353  0.160975  0.694868  1
  O  O12  1  0.666176  0.872141  0.563343  1
  O  O13  1  0.333824  0.127859  0.436657  1
  O  O14  1  0.671938  0.420493  0.561813  1
  O  O15  1  0.328062  0.579507  0.438187  1
  O  O16  1  0.438834  0.240025  0.815853  1
  O  O17  1  0.561166  0.759975  0.184147  1
  O  O18  1  0.972569  0.976847  0.289984  1
  O  O19  1  0.027431  0.023153  0.710016  1
  O  O20  1  0.946128  0.630652  0.347419  1
  O  O21  1  0.053872  0.369348  0.652581  1
  O  O22  1  0.394767  0.673709  0.828331  1
  O  O23  1  0.605233  0.326291  0.171669  1
  O  O24  1  0.101670  0.288476  0.215572  1
  O  O25  1  0.898330  0.711524  0.784428  1
  O  O26  1  0.204562  0.594771  0.099367  1
  O  O27  1  0.795438  0.405229  0.900633  1
  O  O28  1  0.280995  0.961814  0.081481  1
  O  O29  1  0.719005  0.038186  0.918519  1
