# generated using pymatgen
data_Li24Mn5Cr7O36
_symmetry_space_group_name_H-M   'P 1'
_cell_length_a   5.01215032
_cell_length_b   5.02522812
_cell_length_c   28.87704935
_cell_angle_alpha   90.17662477
_cell_angle_beta   90.40668892
_cell_angle_gamma   119.62317503
_symmetry_Int_Tables_number   1
_chemical_formula_structural   Li24Mn5Cr7O36
_chemical_formula_sum   'Li24 Mn5 Cr7 O36'
_cell_volume   632.23200162
_cell_formula_units_Z   1
loop_
 _symmetry_equiv_pos_site_id
 _symmetry_equiv_pos_as_xyz
  1  'x, y, z'
loop_
 _atom_site_type_symbol
 _atom_site_label
 _atom_site_symmetry_multiplicity
 _atom_site_fract_x
 _atom_site_fract_y
 _atom_site_fract_z
 _atom_site_occupancy
  Li  Li0  1  0.334542  0.833474  0.333351  1
  Li  Li1  1  0.335444  0.835831  0.083305  1
  Li  Li2  1  0.325463  0.500952  0.166847  1
  Li  Li3  1  0.667546  0.166354  0.666684  1
  Li  Li4  1  0.669213  0.164350  0.416653  1
  Li  Li5  1  0.665955  0.165557  0.166764  1
  Li  Li6  1  0.661201  0.836736  0.500036  1
  Li  Li7  1  0.997222  0.497008  0.999855  1
  Li  Li8  1  0.004390  0.502102  0.750027  1
  Li  Li9  1  0.002312  0.502483  0.499967  1
  Li  Li10  1  0.334880  0.157593  0.000052  1
  Li  Li11  1  0.991288  0.169296  0.833575  1
  Li  Li12  1  0.330962  0.828626  0.833396  1
  Li  Li13  1  0.993638  0.173632  0.333190  1
  Li  Li14  1  0.670721  0.494182  0.333478  1
  Li  Li15  1  0.327661  0.508532  0.666402  1
  Li  Li16  1  0.004246  0.825189  0.666932  1
  Li  Li17  1  0.009368  0.834733  0.166572  1
  Li  Li18  1  0.665968  0.844077  0.999701  1
  Li  Li19  1  0.000725  0.496852  0.250006  1
  Li  Li20  1  0.335878  0.161191  0.499858  1
  Li  Li21  1  0.329666  0.829835  0.583329  1
  Li  Li22  1  0.676664  0.502638  0.833272  1
  Li  Li23  1  0.670252  0.166676  0.916653  1
  Mn  Mn24  1  0.332657  0.167004  0.250036  1
  Mn  Mn25  1  0.665547  0.498931  0.583295  1
  Mn  Mn26  1  0.000249  0.834412  0.916701  1
  Mn  Mn27  1  0.999329  0.834218  0.416543  1
  Mn  Mn28  1  0.667036  0.833680  0.750091  1
  Cr  Cr29  1  0.668733  0.828206  0.249957  1
  Cr  Cr30  1  0.996459  0.159972  0.583316  1
  Cr  Cr31  1  0.668474  0.507671  0.083443  1
  Cr  Cr32  1  0.339139  0.498084  0.916777  1
  Cr  Cr33  1  0.338332  0.172470  0.750031  1
  Cr  Cr34  1  0.004436  0.168375  0.083513  1
  Cr  Cr35  1  0.336506  0.496438  0.416579  1
  O  O36  1  0.359855  0.859573  0.212168  1
  O  O37  1  0.641198  0.142372  0.287975  1
  O  O38  1  0.696355  0.193985  0.545498  1
  O  O39  1  0.336387  0.472823  0.045868  1
  O  O40  1  0.353829  0.494608  0.287616  1
  O  O41  1  0.974816  0.479370  0.621747  1
  O  O42  1  0.332122  0.188838  0.120836  1
  O  O43  1  0.022839  0.525119  0.878674  1
  O  O44  1  0.672001  0.813366  0.378895  1
  O  O45  1  0.691833  0.832685  0.620531  1
  O  O46  1  0.691894  0.833074  0.120844  1
  O  O47  1  0.639742  0.500551  0.212867  1
  O  O48  1  0.306721  0.805254  0.954521  1
  O  O49  1  0.665696  0.527366  0.453737  1
  O  O50  1  0.998487  0.138303  0.712766  1
  O  O51  1  0.005392  0.146743  0.212228  1
  O  O52  1  0.020615  0.160946  0.954386  1
  O  O53  1  0.019607  0.160764  0.454372  1
  O  O54  1  0.972952  0.827489  0.545970  1
  O  O55  1  0.974239  0.836404  0.045943  1
  O  O56  1  0.999930  0.859339  0.787288  1
  O  O57  1  0.999042  0.862125  0.287095  1
  O  O58  1  0.335758  0.476683  0.545768  1
  O  O59  1  0.687268  0.187349  0.044899  1
  O  O60  1  0.360439  0.507708  0.787694  1
  O  O61  1  0.304921  0.168605  0.879529  1
  O  O62  1  0.305238  0.168064  0.379580  1
  O  O63  1  0.332887  0.195903  0.620558  1
  O  O64  1  0.971378  0.472252  0.121334  1
  O  O65  1  0.671208  0.813316  0.879218  1
  O  O66  1  0.025185  0.526371  0.378750  1
  O  O67  1  0.637522  0.497567  0.712881  1
  O  O68  1  0.667539  0.527202  0.953843  1
  O  O69  1  0.308036  0.808185  0.454532  1
  O  O70  1  0.358186  0.852628  0.711530  1
  O  O71  1  0.636785  0.139708  0.787875  1
