# generated using pymatgen
data_LiMnF3
_symmetry_space_group_name_H-M   'P 1'
_cell_length_a   6.67262020
_cell_length_b   6.67262020
_cell_length_c   5.92977961
_cell_angle_alpha   88.39625109
_cell_angle_beta   91.60374891
_cell_angle_gamma   95.58983357
_symmetry_Int_Tables_number   1
_chemical_formula_structural   LiMnF3
_chemical_formula_sum   'Li4 Mn4 F12'
_cell_volume   262.57358732
_cell_formula_units_Z   4
loop_
 _symmetry_equiv_pos_site_id
 _symmetry_equiv_pos_as_xyz
  1  'x, y, z'
loop_
 _atom_site_type_symbol
 _atom_site_label
 _atom_site_symmetry_multiplicity
 _atom_site_fract_x
 _atom_site_fract_y
 _atom_site_fract_z
 _atom_site_occupancy
  Li  Li0  1  0.671017  0.328983  0.112686  1
  Li  Li1  1  0.672102  0.672102  0.500000  1
  Li  Li2  1  0.327898  0.327898  0.500000  1
  Li  Li3  1  0.328983  0.671017  0.887314  1
  Mn  Mn4  1  0.767579  0.232421  0.689112  1
  Mn  Mn5  1  0.810747  0.810747  0.000000  1
  Mn  Mn6  1  0.189253  0.189253  0.000000  1
  Mn  Mn7  1  0.232421  0.767579  0.310888  1
  F  F8  1  0.862289  0.137711  0.052971  1
  F  F9  1  0.628267  0.371733  0.417029  1
  F  F10  1  0.276222  0.082370  0.327101  1
  F  F11  1  0.917630  0.723778  0.327101  1
  F  F12  1  0.480679  0.225218  0.867618  1
  F  F13  1  0.774782  0.519321  0.867618  1
  F  F14  1  0.225218  0.480679  0.132382  1
  F  F15  1  0.519321  0.774782  0.132382  1
  F  F16  1  0.723778  0.917630  0.672899  1
  F  F17  1  0.082370  0.276222  0.672899  1
  F  F18  1  0.371733  0.628267  0.582971  1
  F  F19  1  0.137711  0.862289  0.947029  1
