# generated using pymatgen
data_Li2Mn2(SO4)3
_symmetry_space_group_name_H-M   'P 1'
_cell_length_a   8.05941075
_cell_length_b   8.05941075
_cell_length_c   8.91876920
_cell_angle_alpha   68.18786662
_cell_angle_beta   111.81213338
_cell_angle_gamma   113.01575901
_symmetry_Int_Tables_number   1
_chemical_formula_structural   Li2Mn2(SO4)3
_chemical_formula_sum   'Li4 Mn4 S6 O24'
_cell_volume   477.34975170
_cell_formula_units_Z   2
loop_
 _symmetry_equiv_pos_site_id
 _symmetry_equiv_pos_as_xyz
  1  'x, y, z'
loop_
 _atom_site_type_symbol
 _atom_site_label
 _atom_site_symmetry_multiplicity
 _atom_site_fract_x
 _atom_site_fract_y
 _atom_site_fract_z
 _atom_site_occupancy
  Li  Li0  1  0.130293  0.666471  0.552789  1
  Li  Li1  1  0.333529  0.869707  0.052789  1
  Li  Li2  1  0.666471  0.130293  0.947211  1
  Li  Li3  1  0.869707  0.333529  0.447211  1
  Mn  Mn4  1  0.130549  0.365240  0.984713  1
  Mn  Mn5  1  0.634760  0.869451  0.484713  1
  Mn  Mn6  1  0.365240  0.130549  0.515287  1
  Mn  Mn7  1  0.869451  0.634760  0.015287  1
  S  S8  1  0.456573  0.753506  0.819740  1
  S  S9  1  0.246494  0.543427  0.319740  1
  S  S10  1  0.061640  0.061640  0.750000  1
  S  S11  1  0.938360  0.938360  0.250000  1
  S  S12  1  0.753506  0.456573  0.680260  1
  S  S13  1  0.543427  0.246494  0.180260  1
  O  O14  1  0.053141  0.878916  0.882696  1
  O  O15  1  0.121084  0.946859  0.382696  1
  O  O16  1  0.493846  0.875407  0.925093  1
  O  O17  1  0.264271  0.619866  0.808469  1
  O  O18  1  0.455989  0.869602  0.640293  1
  O  O19  1  0.124593  0.506154  0.425093  1
  O  O20  1  0.099732  0.212707  0.823749  1
  O  O21  1  0.598482  0.655930  0.880969  1
  O  O22  1  0.380134  0.735729  0.308469  1
  O  O23  1  0.130398  0.544011  0.140293  1
  O  O24  1  0.787293  0.900268  0.323749  1
  O  O25  1  0.655930  0.598482  0.619031  1
  O  O26  1  0.344070  0.401518  0.380969  1
  O  O27  1  0.212707  0.099732  0.676251  1
  O  O28  1  0.869602  0.455989  0.859707  1
  O  O29  1  0.619866  0.264271  0.691531  1
  O  O30  1  0.401518  0.344070  0.119031  1
  O  O31  1  0.900268  0.787293  0.176251  1
  O  O32  1  0.875407  0.493846  0.574907  1
  O  O33  1  0.544011  0.130398  0.359707  1
  O  O34  1  0.735729  0.380134  0.191531  1
  O  O35  1  0.506154  0.124593  0.074907  1
  O  O36  1  0.878916  0.053141  0.617304  1
  O  O37  1  0.946859  0.121084  0.117304  1
