# generated using pymatgen
data_Li5Ni2(PO4)3
_symmetry_space_group_name_H-M   'P 1'
_cell_length_a   8.31873268
_cell_length_b   8.35928286
_cell_length_c   9.17467472
_cell_angle_alpha   63.41982003
_cell_angle_beta   63.34008701
_cell_angle_gamma   60.19370870
_symmetry_Int_Tables_number   1
_chemical_formula_structural   Li5Ni2(PO4)3
_chemical_formula_sum   'Li10 Ni4 P6 O24'
_cell_volume   473.56887873
_cell_formula_units_Z   2
loop_
 _symmetry_equiv_pos_site_id
 _symmetry_equiv_pos_as_xyz
  1  'x, y, z'
loop_
 _atom_site_type_symbol
 _atom_site_label
 _atom_site_symmetry_multiplicity
 _atom_site_fract_x
 _atom_site_fract_y
 _atom_site_fract_z
 _atom_site_occupancy
  Li  Li0  1  0.272209  0.926815  0.133197  1
  Li  Li1  1  0.923093  0.687214  0.112086  1
  Li  Li2  1  0.692797  0.275115  0.101532  1
  Li  Li3  1  0.899820  0.462382  0.420489  1
  Li  Li4  1  0.483802  0.213561  0.408540  1
  Li  Li5  1  0.516198  0.786439  0.591460  1
  Li  Li6  1  0.100180  0.537618  0.579511  1
  Li  Li7  1  0.307203  0.724885  0.898468  1
  Li  Li8  1  0.076907  0.312786  0.887914  1
  Li  Li9  1  0.727791  0.073185  0.866803  1
  Ni  Ni10  1  0.654370  0.653655  0.043485  1
  Ni  Ni11  1  0.142794  0.126754  0.575702  1
  Ni  Ni12  1  0.857206  0.873246  0.424298  1
  Ni  Ni13  1  0.345630  0.346345  0.956515  1
  P  P14  1  0.954833  0.254870  0.248446  1
  P  P15  1  0.546937  0.957602  0.242596  1
  P  P16  1  0.253805  0.544659  0.243291  1
  P  P17  1  0.746195  0.455341  0.756709  1
  P  P18  1  0.453063  0.042398  0.757404  1
  P  P19  1  0.045167  0.745130  0.751554  1
  O  O20  1  0.143939  0.206267  0.097826  1
  O  O21  1  0.834527  0.475290  0.204575  1
  O  O22  1  0.498889  0.837152  0.193598  1
  O  O23  1  0.547924  0.151770  0.098211  1
  O  O24  1  0.199918  0.543670  0.100949  1
  O  O25  1  0.998850  0.201124  0.412174  1
  O  O26  1  0.753581  0.845282  0.266921  1
  O  O27  1  0.406203  0.999682  0.413149  1
  O  O28  1  0.474730  0.484487  0.198501  1
  O  O29  1  0.138665  0.748212  0.265945  1
  O  O30  1  0.193368  0.398109  0.416307  1
  O  O31  1  0.836691  0.145523  0.267730  1
  O  O32  1  0.163309  0.854477  0.732270  1
  O  O33  1  0.806632  0.601891  0.583693  1
  O  O34  1  0.861335  0.251788  0.734055  1
  O  O35  1  0.525270  0.515513  0.801499  1
  O  O36  1  0.593797  0.000318  0.586851  1
  O  O37  1  0.246419  0.154718  0.733079  1
  O  O38  1  0.001150  0.798876  0.587826  1
  O  O39  1  0.800082  0.456330  0.899051  1
  O  O40  1  0.452076  0.848230  0.901789  1
  O  O41  1  0.501111  0.162848  0.806402  1
  O  O42  1  0.165473  0.524710  0.795425  1
  O  O43  1  0.856061  0.793733  0.902174  1
