# generated using pymatgen
data_LiVSiO4
_symmetry_space_group_name_H-M   'P 1'
_cell_length_a   5.15732402
_cell_length_b   10.31523199
_cell_length_c   13.70664446
_cell_angle_alpha   90.00000000
_cell_angle_beta   90.00000000
_cell_angle_gamma   90.00000000
_symmetry_Int_Tables_number   1
_chemical_formula_structural   LiVSiO4
_chemical_formula_sum   'Li8 V8 Si8 O32'
_cell_volume   729.17969247
_cell_formula_units_Z   8
loop_
 _symmetry_equiv_pos_site_id
 _symmetry_equiv_pos_as_xyz
  1  'x, y, z'
loop_
 _atom_site_type_symbol
 _atom_site_label
 _atom_site_symmetry_multiplicity
 _atom_site_fract_x
 _atom_site_fract_y
 _atom_site_fract_z
 _atom_site_occupancy
  Li  Li0  1  0.062512  0.035005  0.249165  1
  Li  Li1  1  0.551547  0.213455  0.996356  1
  Li  Li2  1  0.551547  0.286545  0.496356  1
  Li  Li3  1  0.062512  0.464995  0.749165  1
  Li  Li4  1  0.937488  0.535005  0.249165  1
  Li  Li5  1  0.448453  0.713455  0.996356  1
  Li  Li6  1  0.448453  0.786545  0.496356  1
  Li  Li7  1  0.937488  0.964995  0.749165  1
  V  V8  1  0.925580  0.032630  0.499075  1
  V  V9  1  0.557597  0.216020  0.248092  1
  V  V10  1  0.557597  0.283980  0.748092  1
  V  V11  1  0.925580  0.467370  0.999075  1
  V  V12  1  0.074420  0.532630  0.499075  1
  V  V13  1  0.442403  0.716020  0.248092  1
  V  V14  1  0.442403  0.783980  0.748092  1
  V  V15  1  0.074420  0.967370  0.999075  1
  Si  Si16  1  0.435301  0.032175  0.624050  1
  Si  Si17  1  0.056092  0.216577  0.872603  1
  Si  Si18  1  0.056092  0.283423  0.372603  1
  Si  Si19  1  0.435301  0.467825  0.124050  1
  Si  Si20  1  0.564699  0.532175  0.624050  1
  Si  Si21  1  0.943908  0.716577  0.872603  1
  Si  Si22  1  0.943908  0.783423  0.372603  1
  Si  Si23  1  0.564699  0.967825  0.124050  1
  O  O24  1  0.877462  0.998796  0.117381  1
  O  O25  1  0.574782  0.972291  0.525859  1
  O  O26  1  0.446680  0.038994  0.222106  1
  O  O27  1  0.995209  0.060027  0.878278  1
  O  O28  1  0.496441  0.188664  0.629018  1
  O  O29  1  0.923387  0.216193  0.469736  1
  O  O30  1  0.925528  0.282172  0.774696  1
  O  O31  1  0.369953  0.244704  0.867986  1
  O  O32  1  0.369953  0.255296  0.367986  1
  O  O33  1  0.925528  0.217828  0.274696  1
  O  O34  1  0.923387  0.283807  0.969736  1
  O  O35  1  0.496441  0.311336  0.129018  1
  O  O36  1  0.995209  0.439973  0.378278  1
  O  O37  1  0.446680  0.461006  0.722106  1
  O  O38  1  0.574782  0.527709  0.025859  1
  O  O39  1  0.877462  0.501204  0.617381  1
  O  O40  1  0.122538  0.498796  0.117381  1
  O  O41  1  0.425218  0.472291  0.525859  1
  O  O42  1  0.553320  0.538994  0.222106  1
  O  O43  1  0.004791  0.560027  0.878278  1
  O  O44  1  0.503559  0.688664  0.629018  1
  O  O45  1  0.076613  0.716193  0.469736  1
  O  O46  1  0.074472  0.782172  0.774696  1
  O  O47  1  0.630047  0.744704  0.867986  1
  O  O48  1  0.630047  0.755296  0.367986  1
  O  O49  1  0.074472  0.717828  0.274696  1
  O  O50  1  0.076613  0.783807  0.969736  1
  O  O51  1  0.503559  0.811336  0.129018  1
  O  O52  1  0.004791  0.939973  0.378278  1
  O  O53  1  0.553320  0.961006  0.722106  1
  O  O54  1  0.425218  0.027709  0.025859  1
  O  O55  1  0.122538  0.001204  0.617381  1
