# generated using pymatgen
data_Zr2N2O
_symmetry_space_group_name_H-M   'P 1'
_cell_length_a   8.86223376
_cell_length_b   8.87573839
_cell_length_c   8.88088409
_cell_angle_alpha   109.63509938
_cell_angle_beta   109.45969529
_cell_angle_gamma   109.24776287
_symmetry_Int_Tables_number   1
_chemical_formula_structural   Zr2N2O
_chemical_formula_sum   'Zr16 N16 O8'
_cell_volume   538.21871022
_cell_formula_units_Z   8
loop_
 _symmetry_equiv_pos_site_id
 _symmetry_equiv_pos_as_xyz
  1  'x, y, z'
loop_
 _atom_site_type_symbol
 _atom_site_label
 _atom_site_symmetry_multiplicity
 _atom_site_fract_x
 _atom_site_fract_y
 _atom_site_fract_z
 _atom_site_occupancy
  Zr  Zr0  1  0.546768  0.785382  0.246541  1
  Zr  Zr1  1  0.006041  0.006738  0.004399  1
  Zr  Zr2  1  0.788708  0.257353  0.965838  1
  Zr  Zr3  1  0.499141  0.998413  0.497953  1
  Zr  Zr4  1  0.284137  0.250089  0.469614  1
  Zr  Zr5  1  0.997719  0.506592  0.501387  1
  Zr  Zr6  1  0.968950  0.714696  0.742956  1
  Zr  Zr7  1  0.741287  0.025520  0.706952  1
  Zr  Zr8  1  0.253502  0.968573  0.286945  1
  Zr  Zr9  1  0.748812  0.536157  0.213551  1
  Zr  Zr10  1  0.245955  0.459318  0.792605  1
  Zr  Zr11  1  0.031293  0.291870  0.244876  1
  Zr  Zr12  1  0.508792  0.509650  0.991591  1
  Zr  Zr13  1  0.720211  0.748900  0.535799  1
  Zr  Zr14  1  0.214312  0.747259  0.035862  1
  Zr  Zr15  1  0.452877  0.211001  0.759967  1
  N  N16  1  0.771998  0.764393  0.267788  1
  N  N17  1  0.481216  0.531169  0.244123  1
  N  N18  1  0.228165  0.969257  0.547442  1
  N  N19  1  0.951297  0.487752  0.277212  1
  N  N20  1  0.531354  0.038851  0.228166  1
  N  N21  1  0.466109  0.956391  0.771699  1
  N  N22  1  0.729587  0.455196  0.012948  1
  N  N23  1  0.967811  0.736660  0.487802  1
  N  N24  1  0.985870  0.225160  0.046143  1
  N  N25  1  0.771166  0.033228  0.454187  1
  N  N26  1  0.738287  0.773630  0.775951  1
  N  N27  1  0.049541  0.511462  0.721090  1
  N  N28  1  0.236079  0.011584  0.037509  1
  N  N29  1  0.515720  0.465561  0.759901  1
  N  N30  1  0.271698  0.544146  0.989474  1
  N  N31  1  0.226744  0.234089  0.727263  1
  O  O32  1  0.546216  0.271686  0.462809  1
  O  O33  1  0.270749  0.725126  0.262874  1
  O  O34  1  0.013315  0.771362  0.956306  1
  O  O35  1  0.255372  0.224508  0.232387  1
  O  O36  1  0.762014  0.990352  0.962114  1
  O  O37  1  0.453766  0.727512  0.533209  1
  O  O38  1  0.733097  0.272398  0.734679  1
  O  O39  1  0.034321  0.261014  0.510085  1
