# generated using pymatgen
data_Na4Al4H10O13
_symmetry_space_group_name_H-M   'P 1'
_cell_length_a   10.58886655
_cell_length_b   10.58886655
_cell_length_c   5.37252781
_cell_angle_alpha   90.00000000
_cell_angle_beta   90.00000000
_cell_angle_gamma   90.00000000
_symmetry_Int_Tables_number   1
_chemical_formula_structural   Na4Al4H10O13
_chemical_formula_sum   'Na8 Al8 H20 O26'
_cell_volume   602.38981711
_cell_formula_units_Z   2
loop_
 _symmetry_equiv_pos_site_id
 _symmetry_equiv_pos_as_xyz
  1  'x, y, z'
loop_
 _atom_site_type_symbol
 _atom_site_label
 _atom_site_symmetry_multiplicity
 _atom_site_fract_x
 _atom_site_fract_y
 _atom_site_fract_z
 _atom_site_occupancy
  Na  Na0  1  0.600337  0.899663  0.906801  1
  Na  Na1  1  0.697632  0.197632  0.173929  1
  Na  Na2  1  0.802368  0.697632  0.826071  1
  Na  Na3  1  0.899663  0.399663  0.093199  1
  Na  Na4  1  0.100337  0.600337  0.093199  1
  Na  Na5  1  0.197632  0.302368  0.826071  1
  Na  Na6  1  0.302368  0.802368  0.173929  1
  Na  Na7  1  0.399663  0.100337  0.906801  1
  Al  Al8  1  0.594938  0.689254  0.397759  1
  Al  Al9  1  0.689254  0.405062  0.602241  1
  Al  Al10  1  0.810746  0.905062  0.397759  1
  Al  Al11  1  0.905062  0.189254  0.602241  1
  Al  Al12  1  0.094938  0.810746  0.602241  1
  Al  Al13  1  0.189254  0.094938  0.397759  1
  Al  Al14  1  0.310746  0.594938  0.602241  1
  Al  Al15  1  0.405062  0.310746  0.397759  1
  H  H16  1  0.516045  0.661459  0.985707  1
  H  H17  1  0.553984  0.946016  0.387052  1
  H  H18  1  0.585488  0.189101  0.680194  1
  H  H19  1  0.661459  0.483955  0.014293  1
  H  H20  1  0.689101  0.085488  0.680194  1
  H  H21  1  0.810899  0.585488  0.319806  1
  H  H22  1  0.838541  0.983955  0.985707  1
  H  H23  1  0.914512  0.689101  0.319806  1
  H  H24  1  0.946016  0.446016  0.612948  1
  H  H25  1  0.983955  0.161459  0.014293  1
  H  H26  1  0.016045  0.838541  0.014293  1
  H  H27  1  0.053984  0.553984  0.612948  1
  H  H28  1  0.085488  0.310899  0.319806  1
  H  H29  1  0.161459  0.016045  0.985707  1
  H  H30  1  0.189101  0.414512  0.319806  1
  H  H31  1  0.310899  0.914512  0.680194  1
  H  H32  1  0.338541  0.516045  0.014293  1
  H  H33  1  0.414512  0.810899  0.680194  1
  H  H34  1  0.446016  0.053984  0.387052  1
  H  H35  1  0.483955  0.338541  0.985707  1
  O  O36  1  0.500000  0.000000  0.277376  1
  O  O37  1  0.562842  0.310202  0.499020  1
  O  O38  1  0.595622  0.689793  0.060699  1
  O  O39  1  0.615292  0.115292  0.786402  1
  O  O40  1  0.668488  0.831512  0.498312  1
  O  O41  1  0.689798  0.562842  0.500980  1
  O  O42  1  0.689793  0.404378  0.939301  1
  O  O43  1  0.810207  0.904378  0.060699  1
  O  O44  1  0.810202  0.062842  0.499020  1
  O  O45  1  0.831512  0.331512  0.501688  1
  O  O46  1  0.884708  0.615292  0.213598  1
  O  O47  1  0.904378  0.189793  0.939301  1
  O  O48  1  0.937158  0.810202  0.500980  1
  O  O49  1  0.000000  0.500000  0.722624  1
  O  O50  1  0.062842  0.189798  0.500980  1
  O  O51  1  0.095622  0.810207  0.939301  1
  O  O52  1  0.115292  0.384708  0.213598  1
  O  O53  1  0.168488  0.668488  0.501688  1
  O  O54  1  0.189798  0.937158  0.499020  1
  O  O55  1  0.189793  0.095622  0.060699  1
  O  O56  1  0.310207  0.595622  0.939301  1
  O  O57  1  0.310202  0.437158  0.500980  1
  O  O58  1  0.331512  0.168488  0.498312  1
  O  O59  1  0.384708  0.884708  0.786402  1
  O  O60  1  0.404378  0.310207  0.060699  1
  O  O61  1  0.437158  0.689798  0.499020  1
