# generated using pymatgen
data_Li5Cu3(SbO5)2
_symmetry_space_group_name_H-M   'P 1'
_cell_length_a   5.26470513
_cell_length_b   5.51250745
_cell_length_c   7.89198441
_cell_angle_alpha   103.60674859
_cell_angle_beta   104.37366987
_cell_angle_gamma   104.07605507
_symmetry_Int_Tables_number   1
_chemical_formula_structural   Li5Cu3(SbO5)2
_chemical_formula_sum   'Li5 Cu3 Sb2 O10'
_cell_volume   204.27794865
_cell_formula_units_Z   1
loop_
 _symmetry_equiv_pos_site_id
 _symmetry_equiv_pos_as_xyz
  1  'x, y, z'
loop_
 _atom_site_type_symbol
 _atom_site_label
 _atom_site_symmetry_multiplicity
 _atom_site_fract_x
 _atom_site_fract_y
 _atom_site_fract_z
 _atom_site_occupancy
  Li  Li0  1  0.223990  0.889986  0.383103  1
  Li  Li1  1  0.419490  0.299335  0.807478  1
  Li  Li2  1  0.500000  0.500000  0.500000  1
  Li  Li3  1  0.580510  0.700665  0.192522  1
  Li  Li4  1  0.776010  0.110014  0.616897  1
  Cu  Cu5  1  0.000000  0.500000  0.000000  1
  Cu  Cu6  1  0.708230  0.888083  0.898405  1
  Cu  Cu7  1  0.291770  0.111917  0.101595  1
  Sb  Sb8  1  0.109114  0.694682  0.700892  1
  Sb  Sb9  1  0.890886  0.305318  0.299108  1
  O  O10  1  0.056951  0.030785  0.829792  1
  O  O11  1  0.357082  0.667813  0.927089  1
  O  O12  1  0.137893  0.337597  0.550530  1
  O  O13  1  0.212942  0.521092  0.249574  1
  O  O14  1  0.445821  0.889966  0.659059  1
  O  O15  1  0.554179  0.110034  0.340941  1
  O  O16  1  0.787058  0.478908  0.750426  1
  O  O17  1  0.862107  0.662403  0.449470  1
  O  O18  1  0.642918  0.332187  0.072911  1
  O  O19  1  0.943049  0.969215  0.170208  1
