# generated using pymatgen
data_TmAsO4
_symmetry_space_group_name_H-M   'P 1'
_cell_length_a   6.63852771
_cell_length_b   6.93773986
_cell_length_c   8.05632752
_cell_angle_alpha   90.00000000
_cell_angle_beta   126.61914078
_cell_angle_gamma   90.00000000
_symmetry_Int_Tables_number   1
_chemical_formula_structural   TmAsO4
_chemical_formula_sum   'Tm4 As4 O16'
_cell_volume   297.80770369
_cell_formula_units_Z   4
loop_
 _symmetry_equiv_pos_site_id
 _symmetry_equiv_pos_as_xyz
  1  'x, y, z'
loop_
 _atom_site_type_symbol
 _atom_site_label
 _atom_site_symmetry_multiplicity
 _atom_site_fract_x
 _atom_site_fract_y
 _atom_site_fract_z
 _atom_site_occupancy
  Tm  Tm0  1  0.804256  0.856281  0.219338  1
  Tm  Tm1  1  0.195744  0.356281  0.280662  1
  Tm  Tm2  1  0.804256  0.643719  0.719338  1
  Tm  Tm3  1  0.195744  0.143719  0.780662  1
  As  As4  1  0.310919  0.839660  0.199846  1
  As  As5  1  0.689081  0.339660  0.300154  1
  As  As6  1  0.310919  0.660340  0.699846  1
  As  As7  1  0.689081  0.160340  0.800154  1
  O  O8  1  0.358589  0.896410  0.017072  1
  O  O9  1  0.379599  0.285426  0.109047  1
  O  O10  1  0.107083  0.647786  0.100365  1
  O  O11  1  0.840792  0.509102  0.254669  1
  O  O12  1  0.620401  0.785426  0.390953  1
  O  O13  1  0.159208  0.009102  0.245331  1
  O  O14  1  0.892917  0.147786  0.399635  1
  O  O15  1  0.641411  0.396410  0.482928  1
  O  O16  1  0.358589  0.603590  0.517072  1
  O  O17  1  0.107083  0.852214  0.600365  1
  O  O18  1  0.840792  0.990898  0.754669  1
  O  O19  1  0.379599  0.214574  0.609047  1
  O  O20  1  0.159208  0.490898  0.745331  1
  O  O21  1  0.892917  0.352214  0.899635  1
  O  O22  1  0.620401  0.714574  0.890953  1
  O  O23  1  0.641411  0.103590  0.982928  1
