# generated using pymatgen
data_Al2O3
_symmetry_space_group_name_H-M   'P 1'
_cell_length_a   5.65688228
_cell_length_b   5.65803662
_cell_length_c   24.26605565
_cell_angle_alpha   90.00000000
_cell_angle_beta   102.64075981
_cell_angle_gamma   90.00000000
_symmetry_Int_Tables_number   1
_chemical_formula_structural   Al2O3
_chemical_formula_sum   'Al32 O48'
_cell_volume   757.85424293
_cell_formula_units_Z   16
loop_
 _symmetry_equiv_pos_site_id
 _symmetry_equiv_pos_as_xyz
  1  'x, y, z'
loop_
 _atom_site_type_symbol
 _atom_site_label
 _atom_site_symmetry_multiplicity
 _atom_site_fract_x
 _atom_site_fract_y
 _atom_site_fract_z
 _atom_site_occupancy
  Al  Al0  1  0.191510  0.246962  0.708956  1
  Al  Al1  1  0.462862  0.264564  0.458768  1
  Al  Al2  1  0.322577  0.234227  0.579150  1
  Al  Al3  1  0.829838  0.233954  0.580062  1
  Al  Al4  1  0.808490  0.246962  0.791044  1
  Al  Al5  1  0.677423  0.234227  0.920850  1
  Al  Al6  1  0.170162  0.233954  0.919938  1
  Al  Al7  1  0.123049  0.250056  0.123373  1
  Al  Al8  1  0.537138  0.264564  0.041232  1
  Al  Al9  1  0.000000  0.253959  0.250000  1
  Al  Al10  1  0.876951  0.250056  0.376627  1
  Al  Al11  1  0.649499  0.007914  0.169544  1
  Al  Al12  1  0.350501  0.007914  0.330456  1
  Al  Al13  1  0.649499  0.992086  0.669544  1
  Al  Al14  1  0.350501  0.992086  0.830456  1
  Al  Al15  1  0.537138  0.735436  0.541232  1
  Al  Al16  1  0.876951  0.749944  0.876627  1
  Al  Al17  1  0.191510  0.753038  0.208956  1
  Al  Al18  1  0.170162  0.766046  0.419938  1
  Al  Al19  1  0.829838  0.766046  0.080062  1
  Al  Al20  1  0.462862  0.735436  0.958768  1
  Al  Al21  1  0.808490  0.753038  0.291044  1
  Al  Al22  1  0.000000  0.746041  0.750000  1
  Al  Al23  1  0.123049  0.749944  0.623373  1
  Al  Al24  1  0.677423  0.765773  0.420850  1
  Al  Al25  1  0.322577  0.765773  0.079150  1
  Al  Al26  1  0.347992  0.500302  0.829684  1
  Al  Al27  1  0.000000  0.500000  0.000000  1
  Al  Al28  1  0.000000  0.500000  0.500000  1
  Al  Al29  1  0.652008  0.500302  0.670316  1
  Al  Al30  1  0.347992  0.499698  0.329684  1
  Al  Al31  1  0.652008  0.499698  0.170316  1
  O  O32  1  0.249280  0.270288  0.502119  1
  O  O33  1  0.757159  0.269220  0.502441  1
  O  O34  1  0.423235  0.247755  0.665564  1
  O  O35  1  0.884360  0.247854  0.662503  1
  O  O36  1  0.750720  0.270288  0.997881  1
  O  O37  1  0.242841  0.269220  0.997559  1
  O  O38  1  0.895287  0.254000  0.166681  1
  O  O39  1  0.429386  0.254129  0.160462  1
  O  O40  1  0.104713  0.254000  0.333319  1
  O  O41  1  0.570614  0.254129  0.339538  1
  O  O42  1  0.576765  0.247755  0.834436  1
  O  O43  1  0.115640  0.247854  0.837497  1
  O  O44  1  0.085639  0.022771  0.588723  1
  O  O45  1  0.416771  0.991752  0.414494  1
  O  O46  1  0.765631  0.006666  0.246285  1
  O  O47  1  0.234369  0.006666  0.253715  1
  O  O48  1  0.416771  0.008248  0.914494  1
  O  O49  1  0.914361  0.022771  0.911277  1
  O  O50  1  0.583229  0.008248  0.585506  1
  O  O51  1  0.234369  0.993334  0.753715  1
  O  O52  1  0.914361  0.977229  0.411277  1
  O  O53  1  0.583229  0.991752  0.085506  1
  O  O54  1  0.085639  0.977229  0.088723  1
  O  O55  1  0.765631  0.993334  0.746285  1
  O  O56  1  0.242841  0.730780  0.497559  1
  O  O57  1  0.570614  0.745871  0.839538  1
  O  O58  1  0.884360  0.752146  0.162503  1
  O  O59  1  0.115640  0.752146  0.337497  1
  O  O60  1  0.757159  0.730780  0.002441  1
  O  O61  1  0.104713  0.746000  0.833319  1
  O  O62  1  0.423235  0.752245  0.165564  1
  O  O63  1  0.429386  0.745871  0.660462  1
  O  O64  1  0.750720  0.729712  0.497881  1
  O  O65  1  0.576765  0.752245  0.334436  1
  O  O66  1  0.249280  0.729712  0.002119  1
  O  O67  1  0.895287  0.746000  0.666681  1
  O  O68  1  0.767388  0.500811  0.747770  1
  O  O69  1  0.076517  0.519747  0.080508  1
  O  O70  1  0.581759  0.526724  0.086058  1
  O  O71  1  0.923483  0.519747  0.419492  1
  O  O72  1  0.232612  0.500811  0.752230  1
  O  O73  1  0.581759  0.473276  0.586058  1
  O  O74  1  0.923483  0.480253  0.919492  1
  O  O75  1  0.418241  0.473276  0.913942  1
  O  O76  1  0.232612  0.499189  0.252230  1
  O  O77  1  0.767388  0.499189  0.247770  1
  O  O78  1  0.418241  0.526724  0.413942  1
  O  O79  1  0.076517  0.480253  0.580508  1
