# generated using pymatgen
data_Li3V4P2O8F9
_symmetry_space_group_name_H-M   'P 1'
_cell_length_a   7.04601613
_cell_length_b   14.59025194
_cell_length_c   7.42062071
_cell_angle_alpha   90.00000000
_cell_angle_beta   104.49724573
_cell_angle_gamma   90.00000000
_symmetry_Int_Tables_number   1
_chemical_formula_structural   Li3V4P2O8F9
_chemical_formula_sum   'Li6 V8 P4 O16 F18'
_cell_volume   738.57337586
_cell_formula_units_Z   2
loop_
 _symmetry_equiv_pos_site_id
 _symmetry_equiv_pos_as_xyz
  1  'x, y, z'
loop_
 _atom_site_type_symbol
 _atom_site_label
 _atom_site_symmetry_multiplicity
 _atom_site_fract_x
 _atom_site_fract_y
 _atom_site_fract_z
 _atom_site_occupancy
  Li  Li0  1  0.980485  0.750000  0.440378  1
  Li  Li1  1  0.183973  0.449274  0.726834  1
  Li  Li2  1  0.183973  0.050726  0.726834  1
  Li  Li3  1  0.816027  0.550726  0.273166  1
  Li  Li4  1  0.816027  0.949274  0.273166  1
  Li  Li5  1  0.019515  0.250000  0.559622  1
  V  V6  1  0.036459  0.750000  0.060662  1
  V  V7  1  0.482403  0.250000  0.949235  1
  V  V8  1  0.314134  0.380568  0.324218  1
  V  V9  1  0.314134  0.119432  0.324218  1
  V  V10  1  0.685866  0.619432  0.675782  1
  V  V11  1  0.685866  0.880568  0.675782  1
  V  V12  1  0.517597  0.750000  0.050765  1
  V  V13  1  0.963541  0.250000  0.939338  1
  P  P14  1  0.336161  0.899958  0.297821  1
  P  P15  1  0.336161  0.600042  0.297821  1
  P  P16  1  0.663839  0.399958  0.702179  1
  P  P17  1  0.663839  0.100042  0.702179  1
  O  O18  1  0.139571  0.844351  0.256382  1
  O  O19  1  0.139571  0.655649  0.256382  1
  O  O20  1  0.287870  0.503983  0.211645  1
  O  O21  1  0.287870  0.996017  0.211645  1
  O  O22  1  0.507581  0.354587  0.789775  1
  O  O23  1  0.507581  0.145413  0.789775  1
  O  O24  1  0.421145  0.904048  0.510271  1
  O  O25  1  0.421145  0.595952  0.510271  1
  O  O26  1  0.578855  0.404048  0.489729  1
  O  O27  1  0.578855  0.095952  0.489729  1
  O  O28  1  0.492419  0.854587  0.210225  1
  O  O29  1  0.492419  0.645413  0.210225  1
  O  O30  1  0.712130  0.496017  0.788355  1
  O  O31  1  0.712130  0.003983  0.788355  1
  O  O32  1  0.860429  0.344351  0.743618  1
  O  O33  1  0.860429  0.155649  0.743618  1
  F  F34  1  0.190562  0.250000  0.813837  1
  F  F35  1  0.239270  0.750000  0.920794  1
  F  F36  1  0.137289  0.411836  0.488129  1
  F  F37  1  0.137289  0.088164  0.488129  1
  F  F38  1  0.076501  0.345685  0.120511  1
  F  F39  1  0.076501  0.154315  0.120511  1
  F  F40  1  0.289685  0.250000  0.420286  1
  F  F41  1  0.544480  0.841511  0.862974  1
  F  F42  1  0.544480  0.658489  0.862974  1
  F  F43  1  0.455520  0.341511  0.137026  1
  F  F44  1  0.455520  0.158489  0.137026  1
  F  F45  1  0.710315  0.750000  0.579714  1
  F  F46  1  0.923499  0.845685  0.879489  1
  F  F47  1  0.923499  0.654315  0.879489  1
  F  F48  1  0.862711  0.911836  0.511871  1
  F  F49  1  0.862711  0.588164  0.511871  1
  F  F50  1  0.760730  0.250000  0.079206  1
  F  F51  1  0.809438  0.750000  0.186163  1
