# generated using pymatgen
data_NaFeAsCO7
_symmetry_space_group_name_H-M   'P 1'
_cell_length_a   5.39750267
_cell_length_b   6.68170509
_cell_length_c   9.35208895
_cell_angle_alpha   90.00000000
_cell_angle_beta   92.65990359
_cell_angle_gamma   90.00000000
_symmetry_Int_Tables_number   1
_chemical_formula_structural   NaFeAsCO7
_chemical_formula_sum   'Na2 Fe2 As2 C2 O14'
_cell_volume   336.91522363
_cell_formula_units_Z   2
loop_
 _symmetry_equiv_pos_site_id
 _symmetry_equiv_pos_as_xyz
  1  'x, y, z'
loop_
 _atom_site_type_symbol
 _atom_site_label
 _atom_site_symmetry_multiplicity
 _atom_site_fract_x
 _atom_site_fract_y
 _atom_site_fract_z
 _atom_site_occupancy
  Na  Na0  1  0.767272  0.517437  0.730550  1
  Na  Na1  1  0.232728  0.017437  0.269450  1
  Fe  Fe2  1  0.207352  0.237160  0.852060  1
  Fe  Fe3  1  0.792648  0.737160  0.147940  1
  As  As4  1  0.277765  0.746433  0.928441  1
  As  As5  1  0.722235  0.246433  0.071559  1
  C  C6  1  0.275540  0.254244  0.582434  1
  C  C7  1  0.724460  0.754244  0.417566  1
  O  O8  1  0.692529  0.748472  0.549610  1
  O  O9  1  0.057503  0.251335  0.634213  1
  O  O10  1  0.458997  0.261390  0.677384  1
  O  O11  1  0.212366  0.948827  0.822550  1
  O  O12  1  0.198784  0.542184  0.825904  1
  O  O13  1  0.866570  0.259709  0.911610  1
  O  O14  1  0.594565  0.734961  0.970213  1
  O  O15  1  0.405435  0.234961  0.029787  1
  O  O16  1  0.133430  0.759709  0.088390  1
  O  O17  1  0.801216  0.042184  0.174096  1
  O  O18  1  0.787634  0.448827  0.177450  1
  O  O19  1  0.541003  0.761390  0.322616  1
  O  O20  1  0.942497  0.751335  0.365787  1
  O  O21  1  0.307471  0.248472  0.450390  1
