# generated using pymatgen
data_LiNiPO4
_symmetry_space_group_name_H-M   'P 1'
_cell_length_a   4.83325963
_cell_length_b   6.39743847
_cell_length_c   9.86315129
_cell_angle_alpha   90.00000000
_cell_angle_beta   90.00000000
_cell_angle_gamma   90.00000000
_symmetry_Int_Tables_number   1
_chemical_formula_structural   LiNiPO4
_chemical_formula_sum   'Li4 Ni4 P4 O16'
_cell_volume   304.97338297
_cell_formula_units_Z   4
loop_
 _symmetry_equiv_pos_site_id
 _symmetry_equiv_pos_as_xyz
  1  'x, y, z'
loop_
 _atom_site_type_symbol
 _atom_site_label
 _atom_site_symmetry_multiplicity
 _atom_site_fract_x
 _atom_site_fract_y
 _atom_site_fract_z
 _atom_site_occupancy
  Li  Li0  1  0.930850  0.772289  0.169149  1
  Li  Li1  1  0.069150  0.272289  0.330851  1
  Li  Li2  1  0.569150  0.227711  0.669149  1
  Li  Li3  1  0.430850  0.727711  0.830851  1
  Ni  Ni4  1  0.482250  0.042246  0.021439  1
  Ni  Ni5  1  0.517750  0.542246  0.478561  1
  Ni  Ni6  1  0.017750  0.957754  0.521439  1
  Ni  Ni7  1  0.982250  0.457754  0.978561  1
  P  P8  1  0.412999  0.498077  0.154125  1
  P  P9  1  0.587001  0.998077  0.345875  1
  P  P10  1  0.087001  0.501923  0.654125  1
  P  P11  1  0.912999  0.001923  0.845875  1
  O  O12  1  0.265713  0.679416  0.075789  1
  O  O13  1  0.281318  0.297485  0.087928  1
  O  O14  1  0.729939  0.504683  0.141891  1
  O  O15  1  0.679907  0.000396  0.196105  1
  O  O16  1  0.320093  0.500396  0.303895  1
  O  O17  1  0.270061  0.004683  0.358109  1
  O  O18  1  0.718682  0.797485  0.412072  1
  O  O19  1  0.734287  0.179416  0.424211  1
  O  O20  1  0.234287  0.320584  0.575789  1
  O  O21  1  0.218682  0.702515  0.587928  1
  O  O22  1  0.770061  0.495317  0.641891  1
  O  O23  1  0.820093  0.999604  0.696105  1
  O  O24  1  0.179907  0.499604  0.803895  1
  O  O25  1  0.229939  0.995317  0.858109  1
  O  O26  1  0.781318  0.202515  0.912072  1
  O  O27  1  0.765713  0.820584  0.924211  1
