# generated using pymatgen
data_KLiCoO2
_symmetry_space_group_name_H-M   'P 1'
_cell_length_a   5.71086211
_cell_length_b   5.71086211
_cell_length_c   8.36646441
_cell_angle_alpha   60.92859290
_cell_angle_beta   119.07140710
_cell_angle_gamma   145.48112144
_symmetry_Int_Tables_number   1
_chemical_formula_structural   KLiCoO2
_chemical_formula_sum   'K2 Li2 Co2 O4'
_cell_volume   133.11388994
_cell_formula_units_Z   2
loop_
 _symmetry_equiv_pos_site_id
 _symmetry_equiv_pos_as_xyz
  1  'x, y, z'
loop_
 _atom_site_type_symbol
 _atom_site_label
 _atom_site_symmetry_multiplicity
 _atom_site_fract_x
 _atom_site_fract_y
 _atom_site_fract_z
 _atom_site_occupancy
  K  K0  1  0.835491  0.164509  0.872469  1
  K  K1  1  0.164509  0.835491  0.127531  1
  Li  Li2  1  0.660325  0.339675  0.444854  1
  Li  Li3  1  0.339675  0.660325  0.555146  1
  Co  Co4  1  0.961094  0.038906  0.321312  1
  Co  Co5  1  0.038906  0.961094  0.678688  1
  O  O6  1  0.461940  0.538060  0.196520  1
  O  O7  1  0.164506  0.835494  0.564174  1
  O  O8  1  0.835494  0.164506  0.435826  1
  O  O9  1  0.538060  0.461940  0.803480  1
