# generated using pymatgen
data_Li2Cr3CuO8
_symmetry_space_group_name_H-M   'P 1'
_cell_length_a   8.31477342
_cell_length_b   8.35802081
_cell_length_c   8.34729614
_cell_angle_alpha   90.00000000
_cell_angle_beta   90.03396458
_cell_angle_gamma   90.00000000
_symmetry_Int_Tables_number   1
_chemical_formula_structural   Li2Cr3CuO8
_chemical_formula_sum   'Li8 Cr12 Cu4 O32'
_cell_volume   580.09565423
_cell_formula_units_Z   4
loop_
 _symmetry_equiv_pos_site_id
 _symmetry_equiv_pos_as_xyz
  1  'x, y, z'
loop_
 _atom_site_type_symbol
 _atom_site_label
 _atom_site_symmetry_multiplicity
 _atom_site_fract_x
 _atom_site_fract_y
 _atom_site_fract_z
 _atom_site_occupancy
  Li  Li0  1  0.252905  0.001079  0.501072  1
  Li  Li1  1  0.497825  0.248930  0.746663  1
  Li  Li2  1  0.502175  0.748930  0.253337  1
  Li  Li3  1  0.747095  0.501079  0.498928  1
  Li  Li4  1  0.751998  0.998991  0.996523  1
  Li  Li5  1  0.997892  0.751162  0.749100  1
  Li  Li6  1  0.002108  0.251162  0.250900  1
  Li  Li7  1  0.248002  0.498991  0.003477  1
  Cr  Cr8  1  0.372933  0.627014  0.624838  1
  Cr  Cr9  1  0.371374  0.874342  0.874662  1
  Cr  Cr10  1  0.376023  0.123811  0.121395  1
  Cr  Cr11  1  0.623977  0.623811  0.878605  1
  Cr  Cr12  1  0.628626  0.374342  0.125338  1
  Cr  Cr13  1  0.627067  0.127014  0.375162  1
  Cr  Cr14  1  0.874639  0.377006  0.871615  1
  Cr  Cr15  1  0.878606  0.125809  0.623204  1
  Cr  Cr16  1  0.879309  0.875958  0.374398  1
  Cr  Cr17  1  0.120691  0.375958  0.625602  1
  Cr  Cr18  1  0.121394  0.625809  0.376796  1
  Cr  Cr19  1  0.125361  0.877006  0.128385  1
  Cu  Cu20  1  0.375468  0.374429  0.374742  1
  Cu  Cu21  1  0.624532  0.874429  0.625258  1
  Cu  Cu22  1  0.873566  0.624936  0.124869  1
  Cu  Cu23  1  0.126434  0.124936  0.875131  1
  O  O24  1  0.352251  0.387828  0.617814  1
  O  O25  1  0.355595  0.615433  0.384936  1
  O  O26  1  0.364541  0.885895  0.111857  1
  O  O27  1  0.384131  0.862714  0.639151  1
  O  O28  1  0.373275  0.103482  0.885179  1
  O  O29  1  0.383455  0.641519  0.864356  1
  O  O30  1  0.395818  0.364419  0.134104  1
  O  O31  1  0.398906  0.128397  0.360923  1
  O  O32  1  0.601094  0.628397  0.639077  1
  O  O33  1  0.604182  0.864419  0.865896  1
  O  O34  1  0.616545  0.141519  0.135644  1
  O  O35  1  0.626725  0.603482  0.114821  1
  O  O36  1  0.615869  0.362714  0.360849  1
  O  O37  1  0.635459  0.385895  0.888143  1
  O  O38  1  0.644405  0.115433  0.615064  1
  O  O39  1  0.647749  0.887828  0.382186  1
  O  O40  1  0.859038  0.613860  0.882852  1
  O  O41  1  0.854758  0.380862  0.108064  1
  O  O42  1  0.861487  0.115625  0.387732  1
  O  O43  1  0.879840  0.137393  0.851041  1
  O  O44  1  0.868664  0.890687  0.603329  1
  O  O45  1  0.891547  0.363184  0.629433  1
  O  O46  1  0.893674  0.642393  0.371085  1
  O  O47  1  0.884597  0.866419  0.145423  1
  O  O48  1  0.115403  0.366419  0.854577  1
  O  O49  1  0.106326  0.142393  0.628915  1
  O  O50  1  0.108453  0.863184  0.370567  1
  O  O51  1  0.131336  0.390687  0.396671  1
  O  O52  1  0.120160  0.637393  0.148959  1
  O  O53  1  0.138513  0.615625  0.612268  1
  O  O54  1  0.145242  0.880862  0.891936  1
  O  O55  1  0.140962  0.113860  0.117148  1
