# generated using pymatgen
data_Li10Cr(SiO5)2
_symmetry_space_group_name_H-M   'P 1'
_cell_length_a   15.40189253
_cell_length_b   15.40189253
_cell_length_c   5.16146571
_cell_angle_alpha   79.78635268
_cell_angle_beta   100.21364732
_cell_angle_gamma   157.03575129
_symmetry_Int_Tables_number   1
_chemical_formula_structural   Li10Cr(SiO5)2
_chemical_formula_sum   'Li20 Cr2 Si4 O20'
_cell_volume   469.82055649
_cell_formula_units_Z   2
loop_
 _symmetry_equiv_pos_site_id
 _symmetry_equiv_pos_as_xyz
  1  'x, y, z'
loop_
 _atom_site_type_symbol
 _atom_site_label
 _atom_site_symmetry_multiplicity
 _atom_site_fract_x
 _atom_site_fract_y
 _atom_site_fract_z
 _atom_site_occupancy
  Li  Li0  1  0.510637  0.489363  0.256180  1
  Li  Li1  1  0.779779  0.645668  0.734868  1
  Li  Li2  1  0.354332  0.220221  0.734868  1
  Li  Li3  1  0.132817  0.867183  0.979291  1
  Li  Li4  1  0.915299  0.651368  0.523419  1
  Li  Li5  1  0.348632  0.084701  0.523419  1
  Li  Li6  1  0.676159  0.323841  0.914207  1
  Li  Li7  1  0.951042  0.559177  0.285949  1
  Li  Li8  1  0.440823  0.048958  0.285949  1
  Li  Li9  1  0.730987  0.269013  0.630369  1
  Li  Li10  1  0.269013  0.730987  0.369631  1
  Li  Li11  1  0.048958  0.440823  0.714051  1
  Li  Li12  1  0.559177  0.951042  0.714051  1
  Li  Li13  1  0.326831  0.673169  0.076002  1
  Li  Li14  1  0.651368  0.915299  0.476581  1
  Li  Li15  1  0.084701  0.348632  0.476581  1
  Li  Li16  1  0.867183  0.132817  0.020709  1
  Li  Li17  1  0.220221  0.354332  0.265132  1
  Li  Li18  1  0.645668  0.779779  0.265132  1
  Li  Li19  1  0.489363  0.510637  0.743820  1
  Cr  Cr20  1  0.036428  0.963572  0.368233  1
  Cr  Cr21  1  0.963572  0.036428  0.631767  1
  Si  Si22  1  0.601419  0.398581  0.189601  1
  Si  Si23  1  0.219963  0.780037  0.804431  1
  Si  Si24  1  0.780037  0.219963  0.195569  1
  Si  Si25  1  0.398581  0.601419  0.810399  1
  O  O26  1  0.551429  0.448571  0.995421  1
  O  O27  1  0.093113  0.906887  0.629296  1
  O  O28  1  0.596376  0.403624  0.504279  1
  O  O29  1  0.847193  0.587336  0.131803  1
  O  O30  1  0.412664  0.152807  0.131803  1
  O  O31  1  0.415997  0.027293  0.665501  1
  O  O32  1  0.972707  0.584003  0.665501  1
  O  O33  1  0.214820  0.785180  0.115641  1
  O  O34  1  0.729415  0.270585  0.233039  1
  O  O35  1  0.270585  0.729415  0.766961  1
  O  O36  1  0.785180  0.214820  0.884359  1
  O  O37  1  0.584003  0.972707  0.334499  1
  O  O38  1  0.027293  0.415997  0.334499  1
  O  O39  1  0.587336  0.847193  0.868197  1
  O  O40  1  0.152807  0.412664  0.868197  1
  O  O41  1  0.403624  0.596376  0.495721  1
  O  O42  1  0.906887  0.093113  0.370704  1
  O  O43  1  0.448571  0.551429  0.004579  1
  O  O44  1  0.749388  0.749388  0.500000  1
  O  O45  1  0.250612  0.250612  0.500000  1
