# generated using pymatgen
data_Ba4Pb3O10
_symmetry_space_group_name_H-M   'P 1'
_cell_length_a   4.38305660
_cell_length_b   4.38255134
_cell_length_c   15.68890097
_cell_angle_alpha   97.94689869
_cell_angle_beta   97.95616605
_cell_angle_gamma   90.01110768
_symmetry_Int_Tables_number   1
_chemical_formula_structural   Ba4Pb3O10
_chemical_formula_sum   'Ba4 Pb3 O10'
_cell_volume   295.54305111
_cell_formula_units_Z   1
loop_
 _symmetry_equiv_pos_site_id
 _symmetry_equiv_pos_as_xyz
  1  'x, y, z'
loop_
 _atom_site_type_symbol
 _atom_site_label
 _atom_site_symmetry_multiplicity
 _atom_site_fract_x
 _atom_site_fract_y
 _atom_site_fract_z
 _atom_site_occupancy
  Ba  Ba0  1  0.704451  0.704869  0.405673  1
  Ba  Ba1  1  0.577312  0.553084  0.139215  1
  Ba  Ba2  1  0.297915  0.299779  0.594496  1
  Ba  Ba3  1  0.453295  0.431143  0.860928  1
  Pb  Pb4  1  0.006617  0.998422  0.000015  1
  Pb  Pb5  1  0.864276  0.859940  0.716264  1
  Pb  Pb6  1  0.149339  0.143839  0.283814  1
  O  O7  1  0.145693  0.645046  0.281779  1
  O  O8  1  0.364260  0.859922  0.719169  1
  O  O9  1  0.896044  0.931505  0.858391  1
  O  O10  1  0.804136  0.789962  0.574639  1
  O  O11  1  0.076556  0.114891  0.141700  1
  O  O12  1  0.508033  0.000151  0.006522  1
  O  O13  1  0.648701  0.144587  0.281373  1
  O  O14  1  0.859639  0.360404  0.717396  1
  O  O15  1  0.999538  0.496743  0.993265  1
  O  O16  1  0.232393  0.217911  0.425363  1
