# generated using pymatgen
data_Li5NiOF5
_symmetry_space_group_name_H-M   'P 1'
_cell_length_a   3.17791045
_cell_length_b   3.17791045
_cell_length_c   15.21530340
_cell_angle_alpha   90.00000000
_cell_angle_beta   90.00000000
_cell_angle_gamma   120.00000000
_symmetry_Int_Tables_number   1
_chemical_formula_structural   Li5NiOF5
_chemical_formula_sum   'Li5 Ni1 O1 F5'
_cell_volume   133.07441315
_cell_formula_units_Z   1
loop_
 _symmetry_equiv_pos_site_id
 _symmetry_equiv_pos_as_xyz
  1  'x, y, z'
loop_
 _atom_site_type_symbol
 _atom_site_label
 _atom_site_symmetry_multiplicity
 _atom_site_fract_x
 _atom_site_fract_y
 _atom_site_fract_z
 _atom_site_occupancy
  Li  Li0  1  0.666667  0.333333  0.334937  1
  Li  Li1  1  0.666667  0.333333  0.664895  1
  Li  Li2  1  0.000000  0.000000  0.500057  1
  Li  Li3  1  0.000000  0.000000  0.172943  1
  Li  Li4  1  0.000000  0.000000  0.828299  1
  Ni  Ni5  1  0.666667  0.333333  0.992063  1
  O  O6  1  0.000000  0.000000  0.958055  1
  F  F7  1  0.666667  0.333333  0.460795  1
  F  F8  1  0.666667  0.333333  0.789836  1
  F  F9  1  0.666667  0.333333  0.138348  1
  F  F10  1  0.000000  0.000000  0.296712  1
  F  F11  1  0.000000  0.000000  0.626092  1
