# generated using pymatgen
data_MnTlO3
_symmetry_space_group_name_H-M   'P 1'
_cell_length_a   6.13181379
_cell_length_b   6.13181379
_cell_length_c   12.01344415
_cell_angle_alpha   90.00000000
_cell_angle_beta   90.00000000
_cell_angle_gamma   120.00000000
_symmetry_Int_Tables_number   1
_chemical_formula_structural   MnTlO3
_chemical_formula_sum   'Mn6 Tl6 O18'
_cell_volume   391.17949377
_cell_formula_units_Z   6
loop_
 _symmetry_equiv_pos_site_id
 _symmetry_equiv_pos_as_xyz
  1  'x, y, z'
loop_
 _atom_site_type_symbol
 _atom_site_label
 _atom_site_symmetry_multiplicity
 _atom_site_fract_x
 _atom_site_fract_y
 _atom_site_fract_z
 _atom_site_occupancy
  Mn  Mn0  1  0.000000  0.665112  0.493562  1
  Mn  Mn1  1  0.000000  0.334888  0.993562  1
  Mn  Mn2  1  0.334888  0.334888  0.493562  1
  Mn  Mn3  1  0.334888  0.000000  0.993562  1
  Mn  Mn4  1  0.665112  0.665112  0.993562  1
  Mn  Mn5  1  0.665112  0.000000  0.493562  1
  Tl  Tl6  1  0.333333  0.666667  0.233200  1
  Tl  Tl7  1  0.000000  0.000000  0.263927  1
  Tl  Tl8  1  0.000000  0.000000  0.763927  1
  Tl  Tl9  1  0.333333  0.666667  0.733200  1
  Tl  Tl10  1  0.666667  0.333333  0.733200  1
  Tl  Tl11  1  0.666667  0.333333  0.233200  1
  O  O12  1  0.000000  0.683059  0.655229  1
  O  O13  1  0.000000  0.649263  0.332111  1
  O  O14  1  0.000000  0.350737  0.832111  1
  O  O15  1  0.000000  0.316941  0.155229  1
  O  O16  1  0.333333  0.666667  0.002294  1
  O  O17  1  0.000000  0.000000  0.477639  1
  O  O18  1  0.000000  0.000000  0.977639  1
  O  O19  1  0.333333  0.666667  0.502294  1
  O  O20  1  0.316941  0.316941  0.655229  1
  O  O21  1  0.350737  0.350737  0.332111  1
  O  O22  1  0.316941  0.000000  0.155229  1
  O  O23  1  0.649263  0.649263  0.832111  1
  O  O24  1  0.350737  0.000000  0.832111  1
  O  O25  1  0.683059  0.683059  0.155229  1
  O  O26  1  0.666667  0.333333  0.502294  1
  O  O27  1  0.666667  0.333333  0.002294  1
  O  O28  1  0.649263  0.000000  0.332111  1
  O  O29  1  0.683059  0.000000  0.655229  1
