# generated using pymatgen
data_LiV2O2F3
_symmetry_space_group_name_H-M   'P 1'
_cell_length_a   5.85108118
_cell_length_b   5.85108118
_cell_length_c   7.20521486
_cell_angle_alpha   70.00114929
_cell_angle_beta   109.99885071
_cell_angle_gamma   126.06278118
_symmetry_Int_Tables_number   1
_chemical_formula_structural   LiV2O2F3
_chemical_formula_sum   'Li2 V4 O4 F6'
_cell_volume   184.13734863
_cell_formula_units_Z   2
loop_
 _symmetry_equiv_pos_site_id
 _symmetry_equiv_pos_as_xyz
  1  'x, y, z'
loop_
 _atom_site_type_symbol
 _atom_site_label
 _atom_site_symmetry_multiplicity
 _atom_site_fract_x
 _atom_site_fract_y
 _atom_site_fract_z
 _atom_site_occupancy
  Li  Li0  1  0.000000  0.000000  0.000000  1
  Li  Li1  1  0.000000  0.000000  0.500000  1
  V  V2  1  0.377292  0.609130  0.794361  1
  V  V3  1  0.390870  0.622708  0.294361  1
  V  V4  1  0.609130  0.377292  0.705639  1
  V  V5  1  0.622708  0.390870  0.205639  1
  O  O6  1  0.276825  0.436192  0.560721  1
  O  O7  1  0.563808  0.723175  0.060721  1
  O  O8  1  0.436192  0.276825  0.939279  1
  O  O9  1  0.723175  0.563808  0.439279  1
  F  F10  1  0.956389  0.348156  0.839083  1
  F  F11  1  0.348156  0.956389  0.660917  1
  F  F12  1  0.651844  0.043611  0.339083  1
  F  F13  1  0.043611  0.651844  0.160917  1
  F  F14  1  0.800803  0.800803  0.750000  1
  F  F15  1  0.199197  0.199197  0.250000  1
