# generated using pymatgen
data_Mg10FeO11
_symmetry_space_group_name_H-M   'P 1'
_cell_length_a   5.22244856
_cell_length_b   6.76158024
_cell_length_c   6.76643573
_cell_angle_alpha   107.45998198
_cell_angle_beta   104.98229289
_cell_angle_gamma   97.68925541
_symmetry_Int_Tables_number   1
_chemical_formula_structural   Mg10FeO11
_chemical_formula_sum   'Mg10 Fe1 O11'
_cell_volume   214.30931593
_cell_formula_units_Z   1
loop_
 _symmetry_equiv_pos_site_id
 _symmetry_equiv_pos_as_xyz
  1  'x, y, z'
loop_
 _atom_site_type_symbol
 _atom_site_label
 _atom_site_symmetry_multiplicity
 _atom_site_fract_x
 _atom_site_fract_y
 _atom_site_fract_z
 _atom_site_occupancy
  Mg  Mg0  1  0.453021  0.091162  0.316226  1
  Mg  Mg1  1  0.546979  0.908838  0.683774  1
  Mg  Mg2  1  0.909127  0.181987  0.138538  1
  Mg  Mg3  1  0.364004  0.273653  0.956861  1
  Mg  Mg4  1  0.273363  0.454065  0.590826  1
  Mg  Mg5  1  0.820763  0.363828  0.773128  1
  Mg  Mg6  1  0.179237  0.636172  0.226872  1
  Mg  Mg7  1  0.726637  0.545935  0.409174  1
  Mg  Mg8  1  0.090873  0.818013  0.861462  1
  Mg  Mg9  1  0.635996  0.726347  0.043139  1
  Fe  Fe10  1  0.000000  0.000000  0.500000  1
  O  O11  1  0.046376  0.905997  0.174251  1
  O  O12  1  0.411099  0.181691  0.637182  1
  O  O13  1  0.500000  0.000000  0.000000  1
  O  O14  1  0.317741  0.363535  0.273463  1
  O  O15  1  0.953624  0.094003  0.825749  1
  O  O16  1  0.859007  0.278430  0.453358  1
  O  O17  1  0.228250  0.544152  0.908950  1
  O  O18  1  0.140993  0.721570  0.546642  1
  O  O19  1  0.771750  0.455848  0.091050  1
  O  O20  1  0.588901  0.818309  0.362818  1
  O  O21  1  0.682259  0.636465  0.726537  1
