# generated using pymatgen
data_Fe2Ni(PO4)3
_symmetry_space_group_name_H-M   'P 1'
_cell_length_a   8.49224595
_cell_length_b   8.49224595
_cell_length_c   8.49224595
_cell_angle_alpha   61.08462939
_cell_angle_beta   61.08462939
_cell_angle_gamma   61.08462939
_symmetry_Int_Tables_number   1
_chemical_formula_structural   Fe2Ni(PO4)3
_chemical_formula_sum   'Fe4 Ni2 P6 O24'
_cell_volume   443.63879414
_cell_formula_units_Z   2
loop_
 _symmetry_equiv_pos_site_id
 _symmetry_equiv_pos_as_xyz
  1  'x, y, z'
loop_
 _atom_site_type_symbol
 _atom_site_label
 _atom_site_symmetry_multiplicity
 _atom_site_fract_x
 _atom_site_fract_y
 _atom_site_fract_z
 _atom_site_occupancy
  Fe  Fe0  1  0.855764  0.855764  0.855764  1
  Fe  Fe1  1  0.644236  0.644236  0.644236  1
  Fe  Fe2  1  0.355764  0.355764  0.355764  1
  Fe  Fe3  1  0.144236  0.144236  0.144236  1
  Ni  Ni4  1  0.000000  0.000000  0.000000  1
  Ni  Ni5  1  0.500000  0.500000  0.500000  1
  P  P6  1  0.546347  0.953653  0.250000  1
  P  P7  1  0.250000  0.546347  0.953653  1
  P  P8  1  0.953653  0.250000  0.546347  1
  P  P9  1  0.046347  0.750000  0.453653  1
  P  P10  1  0.750000  0.453653  0.046347  1
  P  P11  1  0.453653  0.046347  0.750000  1
  O  O12  1  0.495162  0.890817  0.680244  1
  O  O13  1  0.890817  0.680244  0.495162  1
  O  O14  1  0.746022  0.938991  0.092409  1
  O  O15  1  0.680244  0.495162  0.890817  1
  O  O16  1  0.390817  0.995162  0.180244  1
  O  O17  1  0.561009  0.753978  0.407591  1
  O  O18  1  0.092409  0.746022  0.938991  1
  O  O19  1  0.407591  0.561009  0.753978  1
  O  O20  1  0.004838  0.819756  0.609183  1
  O  O21  1  0.753978  0.407591  0.561009  1
  O  O22  1  0.061009  0.907591  0.253978  1
  O  O23  1  0.819756  0.609183  0.004838  1
  O  O24  1  0.180244  0.390817  0.995162  1
  O  O25  1  0.938991  0.092409  0.746022  1
  O  O26  1  0.246022  0.592409  0.438991  1
  O  O27  1  0.995162  0.180244  0.390817  1
  O  O28  1  0.592409  0.438991  0.246022  1
  O  O29  1  0.907591  0.253978  0.061009  1
  O  O30  1  0.438991  0.246022  0.592409  1
  O  O31  1  0.609183  0.004838  0.819756  1
  O  O32  1  0.319756  0.504838  0.109183  1
  O  O33  1  0.253978  0.061009  0.907591  1
  O  O34  1  0.109183  0.319756  0.504838  1
  O  O35  1  0.504838  0.109183  0.319756  1
