# generated using pymatgen
data_Li19Cr4P8O35F
_symmetry_space_group_name_H-M   'P 1'
_cell_length_a   6.87957202
_cell_length_b   10.57014205
_cell_length_c   10.59276959
_cell_angle_alpha   85.29282334
_cell_angle_beta   108.93925599
_cell_angle_gamma   108.94233833
_symmetry_Int_Tables_number   1
_chemical_formula_structural   Li19Cr4P8O35F
_chemical_formula_sum   'Li19 Cr4 P8 O35 F1'
_cell_volume   688.89515320
_cell_formula_units_Z   1
loop_
 _symmetry_equiv_pos_site_id
 _symmetry_equiv_pos_as_xyz
  1  'x, y, z'
loop_
 _atom_site_type_symbol
 _atom_site_label
 _atom_site_symmetry_multiplicity
 _atom_site_fract_x
 _atom_site_fract_y
 _atom_site_fract_z
 _atom_site_occupancy
  Li  Li0  1  0.007072  0.251264  0.760352  1
  Li  Li1  1  0.504506  0.250887  0.760560  1
  Li  Li2  1  0.623428  0.261372  0.515861  1
  Li  Li3  1  0.376700  0.486307  0.745978  1
  Li  Li4  1  0.118397  0.738725  0.994993  1
  Li  Li5  1  0.878132  0.011303  0.247159  1
  Li  Li6  1  0.734093  0.733726  0.739681  1
  Li  Li7  1  0.229969  0.725050  0.731161  1
  Li  Li8  1  0.264116  0.265992  0.263710  1
  Li  Li9  1  0.773540  0.274384  0.271459  1
  Li  Li10  1  0.001415  0.498797  0.500574  1
  Li  Li11  1  0.619943  0.994685  0.748603  1
  Li  Li12  1  0.383175  0.259064  0.004021  1
  Li  Li13  1  0.837531  0.731106  0.486059  1
  Li  Li14  1  0.144785  0.511382  0.255597  1
  Li  Li15  1  0.996986  0.744569  0.235688  1
  Li  Li16  1  0.482393  0.745742  0.234933  1
  Li  Li17  1  0.001002  0.999294  0.999252  1
  Li  Li18  1  0.497616  0.999428  0.999169  1
  Cr  Cr19  1  0.261023  0.004198  0.501338  1
  Cr  Cr20  1  0.751266  0.500566  0.998164  1
  Cr  Cr21  1  0.739472  0.998395  0.503804  1
  Cr  Cr22  1  0.252927  0.498355  0.003420  1
  P  P23  1  0.870065  0.504136  0.726128  1
  P  P24  1  0.131297  0.273999  0.496253  1
  P  P25  1  0.635779  0.774643  0.995885  1
  P  P26  1  0.365769  0.004949  0.227546  1
  P  P27  1  0.133618  0.993065  0.775406  1
  P  P28  1  0.866175  0.224783  0.005643  1
  P  P29  1  0.640313  0.495106  0.276110  1
  P  P30  1  0.359819  0.724302  0.504251  1
  O  O31  1  0.757307  0.096129  0.916951  1
  O  O32  1  0.242058  0.082237  0.903067  1
  O  O33  1  0.076113  0.300241  0.969839  1
  O  O34  1  0.697929  0.301931  0.966199  1
  O  O35  1  0.299799  0.032905  0.696168  1
  O  O36  1  0.923263  0.028709  0.697898  1
  O  O37  1  0.439260  0.442379  0.932319  1
  O  O38  1  0.564357  0.070659  0.560307  1
  O  O39  1  0.775877  0.351155  0.693424  1
  O  O40  1  0.224174  0.307839  0.648222  1
  O  O41  1  0.888229  0.182854  0.458158  1
  O  O42  1  0.734914  0.545350  0.799741  1
  O  O43  1  0.265514  0.198266  0.455183  1
  O  O44  1  0.113617  0.540756  0.813452  1
  O  O45  1  0.574179  0.806104  0.844650  1
  O  O46  1  0.427000  0.155566  0.195515  1
  O  O47  1  0.878113  0.592530  0.604390  1
  O  O48  1  0.122124  0.393927  0.406495  1
  O  O49  1  0.680765  0.406710  0.397459  1
  O  O50  1  0.322571  0.605049  0.594970  1
  O  O51  1  0.925324  0.194157  0.157480  1
  O  O52  1  0.074869  0.841608  0.806234  1
  O  O53  1  0.243515  0.814979  0.540994  1
  O  O54  1  0.611012  0.800954  0.544329  1
  O  O55  1  0.390652  0.454675  0.202021  1
  O  O56  1  0.759994  0.459055  0.188476  1
  O  O57  1  0.732036  0.648846  0.308617  1
  O  O58  1  0.267501  0.689959  0.352470  1
  O  O59  1  0.065066  0.557077  0.069572  1
  O  O60  1  0.429774  0.697307  0.035131  1
  O  O61  1  0.572456  0.965566  0.307530  1
  O  O62  1  0.197258  0.970379  0.305598  1
  O  O63  1  0.806031  0.698971  0.031284  1
  O  O64  1  0.256965  0.912840  0.101679  1
  O  O65  1  0.744644  0.902646  0.085934  1
  F  F66  1  0.933417  0.927621  0.441971  1
