# generated using pymatgen
data_Li4TiCo2Ni3(PO4)6
_symmetry_space_group_name_H-M   'P 1'
_cell_length_a   8.41453974
_cell_length_b   8.50778720
_cell_length_c   8.52599123
_cell_angle_alpha   62.09020190
_cell_angle_beta   62.45929744
_cell_angle_gamma   62.31374424
_symmetry_Int_Tables_number   1
_chemical_formula_structural   Li4TiCo2Ni3(PO4)6
_chemical_formula_sum   'Li4 Ti1 Co2 Ni3 P6 O24'
_cell_volume   453.62539089
_cell_formula_units_Z   1
loop_
 _symmetry_equiv_pos_site_id
 _symmetry_equiv_pos_as_xyz
  1  'x, y, z'
loop_
 _atom_site_type_symbol
 _atom_site_label
 _atom_site_symmetry_multiplicity
 _atom_site_fract_x
 _atom_site_fract_y
 _atom_site_fract_z
 _atom_site_occupancy
  Li  Li0  1  0.254720  0.641085  0.847864  1
  Li  Li1  1  0.710576  0.351642  0.152369  1
  Li  Li2  1  0.354254  0.147318  0.710621  1
  Li  Li3  1  0.146389  0.708964  0.353710  1
  Ti  Ti4  1  0.147643  0.148918  0.153311  1
  Co  Co5  1  0.988921  0.001813  0.998231  1
  Co  Co6  1  0.509361  0.498248  0.495774  1
  Ni  Ni7  1  0.857052  0.855084  0.852821  1
  Ni  Ni8  1  0.641687  0.645927  0.643510  1
  Ni  Ni9  1  0.355422  0.351753  0.352925  1
  P  P10  1  0.753927  0.042052  0.454626  1
  P  P11  1  0.446589  0.751158  0.040460  1
  P  P12  1  0.053030  0.458173  0.754660  1
  P  P13  1  0.947242  0.554872  0.256419  1
  P  P14  1  0.556864  0.249968  0.952411  1
  P  P15  1  0.251910  0.952496  0.556057  1
  O  O16  1  0.883389  0.500589  0.706922  1
  O  O17  1  0.693256  0.889255  0.478310  1
  O  O18  1  0.940011  0.740734  0.092032  1
  O  O19  1  0.446851  0.697105  0.892984  1
  O  O20  1  0.008772  0.385484  0.186844  1
  O  O21  1  0.753591  0.555628  0.407634  1
  O  O22  1  0.749440  0.095852  0.926266  1
  O  O23  1  0.536622  0.412529  0.768192  1
  O  O24  1  0.832897  0.002115  0.599600  1
  O  O25  1  0.398414  0.754395  0.563133  1
  O  O26  1  0.904505  0.082452  0.246158  1
  O  O27  1  0.606062  0.819889  0.982381  1
  O  O28  1  0.387911  0.175756  0.017751  1
  O  O29  1  0.100327  0.926493  0.751547  1
  O  O30  1  0.595654  0.241736  0.437458  1
  O  O31  1  0.181810  0.012330  0.388426  1
  O  O32  1  0.439157  0.591699  0.236949  1
  O  O33  1  0.241887  0.905568  0.086751  1
  O  O34  1  0.248523  0.434772  0.591645  1
  O  O35  1  0.041834  0.600652  0.822237  1
  O  O36  1  0.529509  0.315268  0.104599  1
  O  O37  1  0.083960  0.251205  0.906251  1
  O  O38  1  0.320006  0.104313  0.525608  1
  O  O39  1  0.100031  0.521712  0.327556  1
