# generated using pymatgen
data_Na3V5O10
_symmetry_space_group_name_H-M   'P 1'
_cell_length_a   5.09543908
_cell_length_b   6.59713473
_cell_length_c   7.24786908
_cell_angle_alpha   108.80090034
_cell_angle_beta   97.29845977
_cell_angle_gamma   104.42814398
_symmetry_Int_Tables_number   1
_chemical_formula_structural   Na3V5O10
_chemical_formula_sum   'Na3 V5 O10'
_cell_volume   217.57826295
_cell_formula_units_Z   1
loop_
 _symmetry_equiv_pos_site_id
 _symmetry_equiv_pos_as_xyz
  1  'x, y, z'
loop_
 _atom_site_type_symbol
 _atom_site_label
 _atom_site_symmetry_multiplicity
 _atom_site_fract_x
 _atom_site_fract_y
 _atom_site_fract_z
 _atom_site_occupancy
  Na  Na0  1  0.696438  0.895523  0.397660  1
  Na  Na1  1  0.500000  0.500000  0.000000  1
  Na  Na2  1  0.303562  0.104477  0.602340  1
  V  V3  1  0.713257  0.400950  0.405158  1
  V  V4  1  0.500000  0.000000  0.000000  1
  V  V5  1  0.286743  0.599050  0.594842  1
  V  V6  1  0.100675  0.204466  0.195174  1
  V  V7  1  0.899325  0.795534  0.804826  1
  O  O8  1  0.789913  0.888472  0.077913  1
  O  O9  1  0.585128  0.909572  0.723442  1
  O  O10  1  0.597907  0.487561  0.673805  1
  O  O11  1  0.780435  0.309507  0.127128  1
  O  O12  1  0.414872  0.090428  0.276558  1
  O  O13  1  0.402093  0.512439  0.326195  1
  O  O14  1  0.219565  0.690493  0.872872  1
  O  O15  1  0.003990  0.278314  0.472721  1
  O  O16  1  0.210087  0.111528  0.922087  1
  O  O17  1  0.996010  0.721686  0.527279  1
