# generated using pymatgen
data_Li2Fe2Ni(PO4)3
_symmetry_space_group_name_H-M   'P 1'
_cell_length_a   8.44370949
_cell_length_b   8.44370949
_cell_length_c   8.35191748
_cell_angle_alpha   63.94258366
_cell_angle_beta   116.05741634
_cell_angle_gamma   116.29517303
_symmetry_Int_Tables_number   1
_chemical_formula_structural   Li2Fe2Ni(PO4)3
_chemical_formula_sum   'Li4 Fe4 Ni2 P6 O24'
_cell_volume   456.91484832
_cell_formula_units_Z   2
loop_
 _symmetry_equiv_pos_site_id
 _symmetry_equiv_pos_as_xyz
  1  'x, y, z'
loop_
 _atom_site_type_symbol
 _atom_site_label
 _atom_site_symmetry_multiplicity
 _atom_site_fract_x
 _atom_site_fract_y
 _atom_site_fract_z
 _atom_site_occupancy
  Li  Li0  1  0.858080  0.858080  0.000000  1
  Li  Li1  1  0.152181  0.152181  0.500000  1
  Li  Li2  1  0.750538  0.349743  0.899476  1
  Li  Li3  1  0.349743  0.750538  0.100524  1
  Fe  Fe4  1  0.853600  0.641924  0.396978  1
  Fe  Fe5  1  0.641924  0.853600  0.603022  1
  Fe  Fe6  1  0.347572  0.154186  0.901928  1
  Fe  Fe7  1  0.154186  0.347572  0.098072  1
  Ni  Ni8  1  0.001685  0.495525  0.255871  1
  Ni  Ni9  1  0.495525  0.001685  0.744129  1
  P  P10  1  0.252299  0.940861  0.311286  1
  P  P11  1  0.940861  0.252299  0.688714  1
  P  P12  1  0.558076  0.558076  0.000000  1
  P  P13  1  0.454014  0.454014  0.500000  1
  P  P14  1  0.044425  0.752027  0.802804  1
  P  P15  1  0.752027  0.044425  0.197196  1
  O  O16  1  0.685595  0.987412  0.362936  1
  O  O17  1  0.498408  0.608675  0.575422  1
  O  O18  1  0.089318  0.752207  0.313673  1
  O  O19  1  0.892697  0.820064  0.781728  1
  O  O20  1  0.186942  0.097221  0.282931  1
  O  O21  1  0.405755  0.923514  0.505917  1
  O  O22  1  0.923514  0.405755  0.494083  1
  O  O23  1  0.752207  0.089318  0.686327  1
  O  O24  1  0.608675  0.498408  0.424578  1
  O  O25  1  0.580908  0.757606  0.850383  1
  O  O26  1  0.256914  0.436248  0.350667  1
  O  O27  1  0.987412  0.685595  0.637064  1
  O  O28  1  0.971637  0.319716  0.845803  1
  O  O29  1  0.757606  0.580908  0.149617  1
  O  O30  1  0.436248  0.256914  0.649333  1
  O  O31  1  0.404190  0.531271  0.066410  1
  O  O32  1  0.240000  0.901828  0.812422  1
  O  O33  1  0.068600  0.599542  0.998856  1
  O  O34  1  0.599542  0.068600  0.001144  1
  O  O35  1  0.820064  0.892697  0.218272  1
  O  O36  1  0.097221  0.186942  0.717069  1
  O  O37  1  0.901828  0.240000  0.187578  1
  O  O38  1  0.531271  0.404190  0.933590  1
  O  O39  1  0.319716  0.971637  0.154197  1
