# generated using pymatgen
data_Li9Co9O17
_symmetry_space_group_name_H-M   'P 1'
_cell_length_a   6.62518056
_cell_length_b   7.73918325
_cell_length_c   7.80666711
_cell_angle_alpha   115.02251243
_cell_angle_beta   85.68003919
_cell_angle_gamma   114.79027467
_symmetry_Int_Tables_number   1
_chemical_formula_structural   Li9Co9O17
_chemical_formula_sum   'Li9 Co9 O17'
_cell_volume   326.73978702
_cell_formula_units_Z   1
loop_
 _symmetry_equiv_pos_site_id
 _symmetry_equiv_pos_as_xyz
  1  'x, y, z'
loop_
 _atom_site_type_symbol
 _atom_site_label
 _atom_site_symmetry_multiplicity
 _atom_site_fract_x
 _atom_site_fract_y
 _atom_site_fract_z
 _atom_site_occupancy
  Li  Li0  1  0.556008  0.721045  0.055785  1
  Li  Li1  1  0.080252  0.933892  0.598923  1
  Li  Li2  1  0.667394  0.169321  0.166606  1
  Li  Li3  1  0.228525  0.389474  0.724691  1
  Li  Li4  1  0.778359  0.613705  0.276716  1
  Li  Li5  1  0.326992  0.812018  0.843517  1
  Li  Li6  1  0.884361  0.054306  0.386098  1
  Li  Li7  1  0.452616  0.299468  0.963866  1
  Li  Li8  1  0.001861  0.502436  0.498776  1
  Co  Co9  1  0.999579  0.000963  0.999405  1
  Co  Co10  1  0.560642  0.229054  0.549594  1
  Co  Co11  1  0.111780  0.443498  0.112335  1
  Co  Co12  1  0.662729  0.664864  0.663293  1
  Co  Co13  1  0.219785  0.889354  0.221277  1
  Co  Co14  1  0.796304  0.112309  0.779126  1
  Co  Co15  1  0.333425  0.341166  0.337705  1
  Co  Co16  1  0.888282  0.553843  0.887169  1
  Co  Co17  1  0.446551  0.771746  0.437796  1
  O  O18  1  0.562430  0.450942  0.786088  1
  O  O19  1  0.123265  0.705545  0.353130  1
  O  O20  1  0.670070  0.905419  0.904239  1
  O  O21  1  0.991104  0.744408  0.758311  1
  O  O22  1  0.250912  0.149744  0.473677  1
  O  O23  1  0.544481  0.988864  0.331647  1
  O  O24  1  0.793016  0.365774  0.019456  1
  O  O25  1  0.117544  0.190781  0.872323  1
  O  O26  1  0.340274  0.590147  0.581544  1
  O  O27  1  0.660218  0.434430  0.424212  1
  O  O28  1  0.897562  0.807350  0.127808  1
  O  O29  1  0.211236  0.634947  0.980121  1
  O  O30  1  0.763814  0.864521  0.535824  1
  O  O31  1  0.009330  0.248696  0.243531  1
  O  O32  1  0.325222  0.077257  0.091221  1
  O  O33  1  0.854012  0.293087  0.638799  1
  O  O34  1  0.427128  0.516692  0.193662  1
