# generated using pymatgen
data_Li5MnO4
_symmetry_space_group_name_H-M   'P 1'
_cell_length_a   5.36011184
_cell_length_b   9.92618898
_cell_length_c   15.35609742
_cell_angle_alpha   90.00000000
_cell_angle_beta   90.00000000
_cell_angle_gamma   90.00000000
_symmetry_Int_Tables_number   1
_chemical_formula_structural   Li5MnO4
_chemical_formula_sum   'Li40 Mn8 O32'
_cell_volume   817.02858142
_cell_formula_units_Z   8
loop_
 _symmetry_equiv_pos_site_id
 _symmetry_equiv_pos_as_xyz
  1  'x, y, z'
loop_
 _atom_site_type_symbol
 _atom_site_label
 _atom_site_symmetry_multiplicity
 _atom_site_fract_x
 _atom_site_fract_y
 _atom_site_fract_z
 _atom_site_occupancy
  Li  Li0  1  0.923245  0.958247  0.430732  1
  Li  Li1  1  0.576755  0.958247  0.930732  1
  Li  Li2  1  0.400085  0.877292  0.757338  1
  Li  Li3  1  0.099915  0.877292  0.257338  1
  Li  Li4  1  0.292464  0.789265  0.993461  1
  Li  Li5  1  0.207536  0.789265  0.493461  1
  Li  Li6  1  0.893691  0.836891  0.826045  1
  Li  Li7  1  0.606309  0.836891  0.326045  1
  Li  Li8  1  0.437470  0.826949  0.156033  1
  Li  Li9  1  0.062530  0.826949  0.656033  1
  Li  Li10  1  0.937470  0.673051  0.156033  1
  Li  Li11  1  0.562530  0.673051  0.656033  1
  Li  Li12  1  0.393691  0.663109  0.826045  1
  Li  Li13  1  0.106309  0.663109  0.326045  1
  Li  Li14  1  0.792464  0.710735  0.993461  1
  Li  Li15  1  0.707536  0.710735  0.493461  1
  Li  Li16  1  0.599915  0.622708  0.257338  1
  Li  Li17  1  0.900085  0.622708  0.757338  1
  Li  Li18  1  0.076755  0.541753  0.930732  1
  Li  Li19  1  0.423245  0.541753  0.430732  1
  Li  Li20  1  0.923245  0.458247  0.069268  1
  Li  Li21  1  0.576755  0.458247  0.569268  1
  Li  Li22  1  0.099915  0.377292  0.242662  1
  Li  Li23  1  0.400085  0.377292  0.742662  1
  Li  Li24  1  0.207536  0.289265  0.006539  1
  Li  Li25  1  0.292464  0.289265  0.506539  1
  Li  Li26  1  0.606309  0.336891  0.173955  1
  Li  Li27  1  0.893691  0.336891  0.673955  1
  Li  Li28  1  0.437470  0.326949  0.343967  1
  Li  Li29  1  0.062530  0.326949  0.843967  1
  Li  Li30  1  0.937470  0.173051  0.343967  1
  Li  Li31  1  0.562530  0.173051  0.843967  1
  Li  Li32  1  0.393691  0.163109  0.673955  1
  Li  Li33  1  0.106309  0.163109  0.173955  1
  Li  Li34  1  0.792464  0.210735  0.506539  1
  Li  Li35  1  0.707536  0.210735  0.006539  1
  Li  Li36  1  0.900085  0.122708  0.742662  1
  Li  Li37  1  0.599915  0.122708  0.242662  1
  Li  Li38  1  0.076755  0.041753  0.569268  1
  Li  Li39  1  0.423245  0.041753  0.069268  1
  Mn  Mn40  1  0.850042  0.944038  0.120073  1
  Mn  Mn41  1  0.649958  0.944038  0.620073  1
  Mn  Mn42  1  0.350042  0.555962  0.120073  1
  Mn  Mn43  1  0.149958  0.555962  0.620073  1
  Mn  Mn44  1  0.850042  0.444038  0.379927  1
  Mn  Mn45  1  0.649958  0.444038  0.879927  1
  Mn  Mn46  1  0.350042  0.055962  0.379927  1
  Mn  Mn47  1  0.149958  0.055962  0.879927  1
  O  O48  1  0.184421  0.974860  0.149079  1
  O  O49  1  0.315579  0.974860  0.649079  1
  O  O50  1  0.774595  0.818787  0.212003  1
  O  O51  1  0.725405  0.818787  0.712003  1
  O  O52  1  0.607828  0.865517  0.040783  1
  O  O53  1  0.892172  0.865517  0.540783  1
  O  O54  1  0.238655  0.867034  0.378812  1
  O  O55  1  0.261345  0.867034  0.878812  1
  O  O56  1  0.738655  0.632966  0.378812  1
  O  O57  1  0.761345  0.632966  0.878812  1
  O  O58  1  0.107828  0.634483  0.040783  1
  O  O59  1  0.392172  0.634483  0.540783  1
  O  O60  1  0.225405  0.681213  0.712003  1
  O  O61  1  0.274595  0.681213  0.212003  1
  O  O62  1  0.684421  0.525140  0.149079  1
  O  O63  1  0.815579  0.525140  0.649079  1
  O  O64  1  0.184421  0.474860  0.350921  1
  O  O65  1  0.315579  0.474860  0.850921  1
  O  O66  1  0.725405  0.318787  0.787997  1
  O  O67  1  0.774595  0.318787  0.287997  1
  O  O68  1  0.892172  0.365517  0.959217  1
  O  O69  1  0.607828  0.365517  0.459217  1
  O  O70  1  0.238655  0.367034  0.121188  1
  O  O71  1  0.261345  0.367034  0.621188  1
  O  O72  1  0.761345  0.132966  0.621188  1
  O  O73  1  0.738655  0.132966  0.121188  1
  O  O74  1  0.107828  0.134483  0.459217  1
  O  O75  1  0.392172  0.134483  0.959217  1
  O  O76  1  0.225405  0.181213  0.787997  1
  O  O77  1  0.274595  0.181213  0.287997  1
  O  O78  1  0.684421  0.025140  0.350921  1
  O  O79  1  0.815579  0.025140  0.850921  1
