# generated using pymatgen
data_Li4NiOF4
_symmetry_space_group_name_H-M   'P 1'
_cell_length_a   10.61099989
_cell_length_b   10.61099989
_cell_length_c   10.61099989
_cell_angle_alpha   164.25754401
_cell_angle_beta   164.25754401
_cell_angle_gamma   22.33436872
_symmetry_Int_Tables_number   1
_chemical_formula_structural   Li4NiOF4
_chemical_formula_sum   'Li4 Ni1 O1 F4'
_cell_volume   87.92919814
_cell_formula_units_Z   1
loop_
 _symmetry_equiv_pos_site_id
 _symmetry_equiv_pos_as_xyz
  1  'x, y, z'
loop_
 _atom_site_type_symbol
 _atom_site_label
 _atom_site_symmetry_multiplicity
 _atom_site_fract_x
 _atom_site_fract_y
 _atom_site_fract_z
 _atom_site_occupancy
  Li  Li0  1  0.600921  0.600921  0.000000  1
  Li  Li1  1  0.201623  0.201623  0.000000  1
  Li  Li2  1  0.798377  0.798377  0.000000  1
  Li  Li3  1  0.399079  0.399079  0.000000  1
  Ni  Ni4  1  0.000000  0.000000  0.000000  1
  O  O5  1  0.500000  0.500000  0.000000  1
  F  F6  1  0.103931  0.103931  0.000000  1
  F  F7  1  0.700940  0.700940  0.000000  1
  F  F8  1  0.299060  0.299060  0.000000  1
  F  F9  1  0.896069  0.896069  0.000000  1
