# generated using pymatgen
data_BaP2(HO2)4
_symmetry_space_group_name_H-M   'P 1'
_cell_length_a   7.78938500
_cell_length_b   8.62824352
_cell_length_c   10.57345269
_cell_angle_alpha   90.00000000
_cell_angle_beta   90.00000000
_cell_angle_gamma   90.00000000
_symmetry_Int_Tables_number   1
_chemical_formula_structural   BaP2(HO2)4
_chemical_formula_sum   'Ba4 P8 H16 O32'
_cell_volume   710.62812242
_cell_formula_units_Z   4
loop_
 _symmetry_equiv_pos_site_id
 _symmetry_equiv_pos_as_xyz
  1  'x, y, z'
loop_
 _atom_site_type_symbol
 _atom_site_label
 _atom_site_symmetry_multiplicity
 _atom_site_fract_x
 _atom_site_fract_y
 _atom_site_fract_z
 _atom_site_occupancy
  Ba  Ba0  1  0.250000  0.899866  0.750000  1
  Ba  Ba1  1  0.750000  0.600134  0.250000  1
  Ba  Ba2  1  0.750000  0.100134  0.250000  1
  Ba  Ba3  1  0.250000  0.399866  0.750000  1
  P  P4  1  0.925375  0.708444  0.577111  1
  P  P5  1  0.574625  0.708444  0.922889  1
  P  P6  1  0.425375  0.791556  0.422889  1
  P  P7  1  0.074625  0.791556  0.077111  1
  P  P8  1  0.074625  0.291556  0.422889  1
  P  P9  1  0.425375  0.291556  0.077111  1
  P  P10  1  0.574625  0.208444  0.577111  1
  P  P11  1  0.925375  0.208444  0.922889  1
  H  H12  1  0.081986  0.801949  0.421837  1
  H  H13  1  0.418014  0.801949  0.078163  1
  H  H14  1  0.581986  0.698051  0.578163  1
  H  H15  1  0.918014  0.698051  0.921837  1
  H  H16  1  0.918014  0.198051  0.578163  1
  H  H17  1  0.581986  0.198051  0.921837  1
  H  H18  1  0.418014  0.301949  0.421837  1
  H  H19  1  0.081986  0.301949  0.078163  1
  H  H20  1  0.816172  0.949172  0.618021  1
  H  H21  1  0.683828  0.949172  0.881979  1
  H  H22  1  0.316172  0.550828  0.381979  1
  H  H23  1  0.183828  0.550828  0.118021  1
  H  H24  1  0.183828  0.050828  0.381979  1
  H  H25  1  0.316172  0.050828  0.118021  1
  H  H26  1  0.683828  0.449172  0.618021  1
  H  H27  1  0.816172  0.449172  0.881979  1
  O  O28  1  0.760569  0.612907  0.570469  1
  O  O29  1  0.739431  0.612907  0.929531  1
  O  O30  1  0.260569  0.887093  0.429531  1
  O  O31  1  0.239431  0.887093  0.070469  1
  O  O32  1  0.239431  0.387093  0.429531  1
  O  O33  1  0.260569  0.387093  0.070469  1
  O  O34  1  0.739431  0.112907  0.570469  1
  O  O35  1  0.760569  0.112907  0.929531  1
  O  O36  1  0.962740  0.754278  0.432902  1
  O  O37  1  0.537260  0.754278  0.067098  1
  O  O38  1  0.462740  0.745722  0.567098  1
  O  O39  1  0.037260  0.745722  0.932902  1
  O  O40  1  0.037260  0.245722  0.567098  1
  O  O41  1  0.462740  0.245722  0.932902  1
  O  O42  1  0.537260  0.254278  0.432902  1
  O  O43  1  0.962740  0.254278  0.067098  1
  O  O44  1  0.082831  0.639206  0.639004  1
  O  O45  1  0.417169  0.639206  0.860996  1
  O  O46  1  0.582831  0.860794  0.360996  1
  O  O47  1  0.917169  0.860794  0.139004  1
  O  O48  1  0.917169  0.360794  0.360996  1
  O  O49  1  0.582831  0.360794  0.139004  1
  O  O50  1  0.417169  0.139206  0.639004  1
  O  O51  1  0.082831  0.139206  0.860996  1
  O  O52  1  0.897130  0.867248  0.652048  1
  O  O53  1  0.602870  0.867248  0.847952  1
  O  O54  1  0.397130  0.632752  0.347952  1
  O  O55  1  0.102870  0.632752  0.152048  1
  O  O56  1  0.102870  0.132752  0.347952  1
  O  O57  1  0.397130  0.132752  0.152048  1
  O  O58  1  0.602870  0.367248  0.652048  1
  O  O59  1  0.897130  0.367248  0.847952  1
