# generated using pymatgen
data_NaV2O5
_symmetry_space_group_name_H-M   'P 1'
_cell_length_a   5.89915622
_cell_length_b   5.89915622
_cell_length_c   11.42386295
_cell_angle_alpha   90.00000000
_cell_angle_beta   90.00000000
_cell_angle_gamma   143.53575913
_symmetry_Int_Tables_number   1
_chemical_formula_structural   NaV2O5
_chemical_formula_sum   'Na2 V4 O10'
_cell_volume   236.27285791
_cell_formula_units_Z   2
loop_
 _symmetry_equiv_pos_site_id
 _symmetry_equiv_pos_as_xyz
  1  'x, y, z'
loop_
 _atom_site_type_symbol
 _atom_site_label
 _atom_site_symmetry_multiplicity
 _atom_site_fract_x
 _atom_site_fract_y
 _atom_site_fract_z
 _atom_site_occupancy
  Na  Na0  1  0.903452  0.096548  0.750000  1
  Na  Na1  1  0.096548  0.903452  0.250000  1
  V  V2  1  0.795840  0.204160  0.400330  1
  V  V3  1  0.795840  0.204160  0.099670  1
  V  V4  1  0.204160  0.795840  0.599670  1
  V  V5  1  0.204160  0.795840  0.900330  1
  O  O6  1  0.940903  0.059097  0.116502  1
  O  O7  1  0.940903  0.059097  0.383498  1
  O  O8  1  0.731970  0.268030  0.250000  1
  O  O9  1  0.756798  0.243202  0.570861  1
  O  O10  1  0.756798  0.243202  0.929139  1
  O  O11  1  0.268030  0.731970  0.750000  1
  O  O12  1  0.243202  0.756798  0.070861  1
  O  O13  1  0.243202  0.756798  0.429139  1
  O  O14  1  0.059097  0.940903  0.616502  1
  O  O15  1  0.059097  0.940903  0.883498  1
