# generated using pymatgen
data_Li3Fe2(SiO4)2
_symmetry_space_group_name_H-M   'P 1'
_cell_length_a   5.13260505
_cell_length_b   10.63019139
_cell_length_c   6.59877045
_cell_angle_alpha   90.00000000
_cell_angle_beta   90.52833710
_cell_angle_gamma   90.00000000
_symmetry_Int_Tables_number   1
_chemical_formula_structural   Li3Fe2(SiO4)2
_chemical_formula_sum   'Li6 Fe4 Si4 O16'
_cell_volume   360.01739658
_cell_formula_units_Z   2
loop_
 _symmetry_equiv_pos_site_id
 _symmetry_equiv_pos_as_xyz
  1  'x, y, z'
loop_
 _atom_site_type_symbol
 _atom_site_label
 _atom_site_symmetry_multiplicity
 _atom_site_fract_x
 _atom_site_fract_y
 _atom_site_fract_z
 _atom_site_occupancy
  Li  Li0  1  0.563664  0.160355  0.262136  1
  Li  Li1  1  0.436336  0.660355  0.737864  1
  Li  Li2  1  0.066129  0.344201  0.749895  1
  Li  Li3  1  0.043919  0.573981  0.980783  1
  Li  Li4  1  0.956081  0.073981  0.019217  1
  Li  Li5  1  0.933871  0.844201  0.250105  1
  Fe  Fe6  1  0.081935  0.341348  0.266501  1
  Fe  Fe7  1  0.918065  0.841348  0.733499  1
  Fe  Fe8  1  0.560473  0.163756  0.749465  1
  Fe  Fe9  1  0.439527  0.663756  0.250535  1
  Si  Si10  1  0.940858  0.588282  0.503602  1
  Si  Si11  1  0.059142  0.088282  0.496398  1
  Si  Si12  1  0.429996  0.906359  0.990098  1
  Si  Si13  1  0.570004  0.406359  0.009902  1
  O  O14  1  0.068467  0.657662  0.294642  1
  O  O15  1  0.949803  0.156850  0.289740  1
  O  O16  1  0.377513  0.114112  0.517236  1
  O  O17  1  0.993439  0.940069  0.490969  1
  O  O18  1  0.622487  0.614112  0.482764  1
  O  O19  1  0.006561  0.440069  0.509031  1
  O  O20  1  0.050197  0.656850  0.710260  1
  O  O21  1  0.931533  0.157662  0.705358  1
  O  O22  1  0.538793  0.831790  0.794122  1
  O  O23  1  0.451829  0.329889  0.808719  1
  O  O24  1  0.455787  0.555522  0.010636  1
  O  O25  1  0.889471  0.409020  0.000731  1
  O  O26  1  0.544213  0.055522  0.989364  1
  O  O27  1  0.110529  0.909020  0.999269  1
  O  O28  1  0.548171  0.829889  0.191281  1
  O  O29  1  0.461207  0.331790  0.205878  1
