# generated using pymatgen
data_LiMnF4
_symmetry_space_group_name_H-M   'P 1'
_cell_length_a   7.52319895
_cell_length_b   4.98128834
_cell_length_c   7.64202247
_cell_angle_alpha   90.00000000
_cell_angle_beta   102.90603566
_cell_angle_gamma   90.00000000
_symmetry_Int_Tables_number   1
_chemical_formula_structural   LiMnF4
_chemical_formula_sum   'Li4 Mn4 F16'
_cell_volume   279.15170794
_cell_formula_units_Z   4
loop_
 _symmetry_equiv_pos_site_id
 _symmetry_equiv_pos_as_xyz
  1  'x, y, z'
loop_
 _atom_site_type_symbol
 _atom_site_label
 _atom_site_symmetry_multiplicity
 _atom_site_fract_x
 _atom_site_fract_y
 _atom_site_fract_z
 _atom_site_occupancy
  Li  Li0  1  0.162008  0.240786  0.857881  1
  Li  Li1  1  0.662008  0.259214  0.857881  1
  Li  Li2  1  0.337992  0.740786  0.142119  1
  Li  Li3  1  0.837992  0.759214  0.142119  1
  Mn  Mn4  1  0.317830  0.749686  0.683935  1
  Mn  Mn5  1  0.817830  0.750314  0.683935  1
  Mn  Mn6  1  0.182170  0.249686  0.316065  1
  Mn  Mn7  1  0.682170  0.250314  0.316065  1
  F  F8  1  0.305732  0.570735  0.908778  1
  F  F9  1  0.805732  0.929265  0.908778  1
  F  F10  1  0.414488  0.055886  0.801610  1
  F  F11  1  0.914488  0.444114  0.801610  1
  F  F12  1  0.066515  0.913549  0.688898  1
  F  F13  1  0.566515  0.586451  0.688898  1
  F  F14  1  0.203282  0.445340  0.558860  1
  F  F15  1  0.703282  0.054660  0.558860  1
  F  F16  1  0.296718  0.945340  0.441140  1
  F  F17  1  0.796718  0.554660  0.441140  1
  F  F18  1  0.433485  0.413549  0.311102  1
  F  F19  1  0.933485  0.086451  0.311102  1
  F  F20  1  0.085512  0.555886  0.198390  1
  F  F21  1  0.585512  0.944114  0.198390  1
  F  F22  1  0.194268  0.070735  0.091222  1
  F  F23  1  0.694268  0.429265  0.091222  1
