# generated using pymatgen
data_VOF3
_symmetry_space_group_name_H-M   'P 1'
_cell_length_a   8.76918097
_cell_length_b   8.76918097
_cell_length_c   4.02668919
_cell_angle_alpha   90.00000000
_cell_angle_beta   90.00000000
_cell_angle_gamma   90.00000000
_symmetry_Int_Tables_number   1
_chemical_formula_structural   VOF3
_chemical_formula_sum   'V4 O4 F12'
_cell_volume   309.64649883
_cell_formula_units_Z   4
loop_
 _symmetry_equiv_pos_site_id
 _symmetry_equiv_pos_as_xyz
  1  'x, y, z'
loop_
 _atom_site_type_symbol
 _atom_site_label
 _atom_site_symmetry_multiplicity
 _atom_site_fract_x
 _atom_site_fract_y
 _atom_site_fract_z
 _atom_site_occupancy
  V  V0  1  0.127362  0.627362  0.185238  1
  V  V1  1  0.372638  0.127362  0.814762  1
  V  V2  1  0.627362  0.872638  0.814762  1
  V  V3  1  0.872638  0.372638  0.185238  1
  O  O4  1  0.119967  0.619967  0.784116  1
  O  O5  1  0.380033  0.119967  0.215884  1
  O  O6  1  0.619967  0.880033  0.215884  1
  O  O7  1  0.880033  0.380033  0.784116  1
  F  F8  1  0.094313  0.405687  0.269088  1
  F  F9  1  0.103983  0.822176  0.269370  1
  F  F10  1  0.177824  0.103983  0.730630  1
  F  F11  1  0.322176  0.603983  0.269370  1
  F  F12  1  0.396017  0.322176  0.730630  1
  F  F13  1  0.405687  0.905687  0.730912  1
  F  F14  1  0.594313  0.094313  0.730912  1
  F  F15  1  0.603983  0.677824  0.730630  1
  F  F16  1  0.677824  0.396017  0.269370  1
  F  F17  1  0.822176  0.896017  0.730630  1
  F  F18  1  0.896017  0.177824  0.269370  1
  F  F19  1  0.905687  0.594313  0.269088  1
