# generated using pymatgen
data_Li2Mn3NiO8
_symmetry_space_group_name_H-M   'P 1'
_cell_length_a   5.79735400
_cell_length_b   5.79735400
_cell_length_c   9.58291214
_cell_angle_alpha   90.00000000
_cell_angle_beta   90.00000000
_cell_angle_gamma   120.00000000
_symmetry_Int_Tables_number   1
_chemical_formula_structural   Li2Mn3NiO8
_chemical_formula_sum   'Li4 Mn6 Ni2 O16'
_cell_volume   278.92521631
_cell_formula_units_Z   2
loop_
 _symmetry_equiv_pos_site_id
 _symmetry_equiv_pos_as_xyz
  1  'x, y, z'
loop_
 _atom_site_type_symbol
 _atom_site_label
 _atom_site_symmetry_multiplicity
 _atom_site_fract_x
 _atom_site_fract_y
 _atom_site_fract_z
 _atom_site_occupancy
  Li  Li0  1  0.333333  0.666667  0.885852  1
  Li  Li1  1  0.000000  0.000000  0.998884  1
  Li  Li2  1  0.000000  0.000000  0.498884  1
  Li  Li3  1  0.666667  0.333333  0.385852  1
  Mn  Mn4  1  0.168685  0.831315  0.215208  1
  Mn  Mn5  1  0.168685  0.337369  0.215208  1
  Mn  Mn6  1  0.662631  0.831315  0.215208  1
  Mn  Mn7  1  0.337369  0.168685  0.715208  1
  Mn  Mn8  1  0.831315  0.662631  0.715208  1
  Mn  Mn9  1  0.831315  0.168685  0.715208  1
  Ni  Ni10  1  0.333333  0.666667  0.489254  1
  Ni  Ni11  1  0.666667  0.333333  0.989254  1
  O  O12  1  0.158489  0.841511  0.607064  1
  O  O13  1  0.035098  0.517549  0.330728  1
  O  O14  1  0.333333  0.666667  0.108848  1
  O  O15  1  0.000000  0.000000  0.312091  1
  O  O16  1  0.000000  0.000000  0.812091  1
  O  O17  1  0.158489  0.316978  0.607064  1
  O  O18  1  0.482451  0.964902  0.330728  1
  O  O19  1  0.482451  0.517549  0.330728  1
  O  O20  1  0.316978  0.158489  0.107064  1
  O  O21  1  0.683022  0.841511  0.607064  1
  O  O22  1  0.517549  0.482451  0.830728  1
  O  O23  1  0.517549  0.035098  0.830728  1
  O  O24  1  0.666667  0.333333  0.608848  1
  O  O25  1  0.841511  0.683022  0.107064  1
  O  O26  1  0.964902  0.482451  0.830728  1
  O  O27  1  0.841511  0.158489  0.107064  1
