# generated using pymatgen
data_Co9Cu3O16
_symmetry_space_group_name_H-M   'P 1'
_cell_length_a   5.80995554
_cell_length_b   5.80995554
_cell_length_c   8.20472702
_cell_angle_alpha   90.00000000
_cell_angle_beta   90.00000000
_cell_angle_gamma   90.00000000
_symmetry_Int_Tables_number   1
_chemical_formula_structural   Co9Cu3O16
_chemical_formula_sum   'Co9 Cu3 O16'
_cell_volume   276.95534680
_cell_formula_units_Z   1
loop_
 _symmetry_equiv_pos_site_id
 _symmetry_equiv_pos_as_xyz
  1  'x, y, z'
loop_
 _atom_site_type_symbol
 _atom_site_label
 _atom_site_symmetry_multiplicity
 _atom_site_fract_x
 _atom_site_fract_y
 _atom_site_fract_z
 _atom_site_occupancy
  Co  Co0  1  0.000000  0.249215  0.877150  1
  Co  Co1  1  0.000000  0.750785  0.877150  1
  Co  Co2  1  0.249215  0.000000  0.122850  1
  Co  Co3  1  0.750785  0.000000  0.122850  1
  Co  Co4  1  0.500000  0.751691  0.372386  1
  Co  Co5  1  0.500000  0.248309  0.372386  1
  Co  Co6  1  0.000000  0.000000  0.500000  1
  Co  Co7  1  0.248309  0.500000  0.627614  1
  Co  Co8  1  0.751691  0.500000  0.627614  1
  Cu  Cu9  1  0.500000  0.000000  0.750969  1
  Cu  Cu10  1  0.500000  0.500000  0.000000  1
  Cu  Cu11  1  0.000000  0.500000  0.249031  1
  O  O12  1  0.780800  0.500000  0.863911  1
  O  O13  1  0.219200  0.500000  0.863911  1
  O  O14  1  0.220482  0.000000  0.890872  1
  O  O15  1  0.779518  0.000000  0.890872  1
  O  O16  1  0.000000  0.779518  0.109128  1
  O  O17  1  0.000000  0.220482  0.109128  1
  O  O18  1  0.500000  0.780800  0.136089  1
  O  O19  1  0.500000  0.219200  0.136089  1
  O  O20  1  0.269780  0.000000  0.359224  1
  O  O21  1  0.730220  0.000000  0.359224  1
  O  O22  1  0.270461  0.500000  0.386677  1
  O  O23  1  0.729539  0.500000  0.386677  1
  O  O24  1  0.500000  0.729539  0.613323  1
  O  O25  1  0.500000  0.270461  0.613323  1
  O  O26  1  0.000000  0.269780  0.640776  1
  O  O27  1  0.000000  0.730220  0.640776  1
