# generated using pymatgen
data_LiCuF3
_symmetry_space_group_name_H-M   'P 1'
_cell_length_a   5.05690689
_cell_length_b   5.05690689
_cell_length_c   14.61170152
_cell_angle_alpha   90.00000000
_cell_angle_beta   90.00000000
_cell_angle_gamma   120.00000000
_symmetry_Int_Tables_number   1
_chemical_formula_structural   LiCuF3
_chemical_formula_sum   'Li6 Cu6 F18'
_cell_volume   323.59465364
_cell_formula_units_Z   6
loop_
 _symmetry_equiv_pos_site_id
 _symmetry_equiv_pos_as_xyz
  1  'x, y, z'
loop_
 _atom_site_type_symbol
 _atom_site_label
 _atom_site_symmetry_multiplicity
 _atom_site_fract_x
 _atom_site_fract_y
 _atom_site_fract_z
 _atom_site_occupancy
  Li  Li0  1  0.117126  0.058563  0.083333  1
  Li  Li1  1  0.941437  0.882874  0.750000  1
  Li  Li2  1  0.058563  0.941437  0.916667  1
  Li  Li3  1  0.941437  0.058563  0.416667  1
  Li  Li4  1  0.058563  0.117126  0.250000  1
  Li  Li5  1  0.882874  0.941437  0.583333  1
  Cu  Cu6  1  0.572185  0.286093  0.583333  1
  Cu  Cu7  1  0.713907  0.427815  0.250000  1
  Cu  Cu8  1  0.713907  0.286093  0.916667  1
  Cu  Cu9  1  0.286093  0.713907  0.416667  1
  Cu  Cu10  1  0.286093  0.572185  0.750000  1
  Cu  Cu11  1  0.427815  0.713907  0.083333  1
  F  F12  1  0.240947  0.240947  0.666667  1
  F  F13  1  0.408496  0.298921  0.990358  1
  F  F14  1  0.408496  0.109576  0.176309  1
  F  F15  1  0.759053  0.759053  0.166667  1
  F  F16  1  0.701079  0.591504  0.842976  1
  F  F17  1  0.890424  0.591504  0.657024  1
  F  F18  1  0.000000  0.759053  0.333333  1
  F  F19  1  0.701079  0.109576  0.323691  1
  F  F20  1  0.240947  0.000000  0.500000  1
  F  F21  1  0.890424  0.298921  0.509642  1
  F  F22  1  0.109576  0.701079  0.009642  1
  F  F23  1  0.759053  0.000000  0.000000  1
  F  F24  1  0.298921  0.890424  0.823691  1
  F  F25  1  0.000000  0.240947  0.833333  1
  F  F26  1  0.109576  0.408496  0.157024  1
  F  F27  1  0.298921  0.408496  0.342976  1
  F  F28  1  0.591504  0.890424  0.676309  1
  F  F29  1  0.591504  0.701079  0.490358  1
