# generated using pymatgen
data_LiFe4(BO3)4
_symmetry_space_group_name_H-M   'P 1'
_cell_length_a   5.31995206
_cell_length_b   9.04984677
_cell_length_c   11.36603703
_cell_angle_alpha   90.00000000
_cell_angle_beta   117.38032328
_cell_angle_gamma   90.00000000
_symmetry_Int_Tables_number   1
_chemical_formula_structural   LiFe4(BO3)4
_chemical_formula_sum   'Li2 Fe8 B8 O24'
_cell_volume   485.91237150
_cell_formula_units_Z   2
loop_
 _symmetry_equiv_pos_site_id
 _symmetry_equiv_pos_as_xyz
  1  'x, y, z'
loop_
 _atom_site_type_symbol
 _atom_site_label
 _atom_site_symmetry_multiplicity
 _atom_site_fract_x
 _atom_site_fract_y
 _atom_site_fract_z
 _atom_site_occupancy
  Li  Li0  1  0.494785  0.254131  0.846145  1
  Li  Li1  1  0.494785  0.745869  0.346145  1
  Fe  Fe2  1  0.960869  0.414553  0.121624  1
  Fe  Fe3  1  0.533952  0.406676  0.370616  1
  Fe  Fe4  1  0.533952  0.593324  0.870616  1
  Fe  Fe5  1  0.960869  0.585447  0.621624  1
  Fe  Fe6  1  0.032738  0.917730  0.374981  1
  Fe  Fe7  1  0.468224  0.079452  0.622573  1
  Fe  Fe8  1  0.468224  0.920548  0.122573  1
  Fe  Fe9  1  0.032738  0.082270  0.874981  1
  B  B10  1  0.466646  0.420740  0.627421  1
  B  B11  1  0.045631  0.577036  0.369825  1
  B  B12  1  0.045631  0.422964  0.869825  1
  B  B13  1  0.466646  0.579260  0.127421  1
  B  B14  1  0.536593  0.919862  0.873350  1
  B  B15  1  0.954202  0.917842  0.620328  1
  B  B16  1  0.954202  0.082158  0.120328  1
  B  B17  1  0.536593  0.080138  0.373350  1
  O  O18  1  0.408441  0.282481  0.652765  1
  O  O19  1  0.835772  0.438866  0.914511  1
  O  O20  1  0.165318  0.292670  0.871246  1
  O  O21  1  0.122175  0.447857  0.323056  1
  O  O22  1  0.364291  0.543152  0.668224  1
  O  O23  1  0.364291  0.456848  0.168224  1
  O  O24  1  0.638927  0.446823  0.566080  1
  O  O25  1  0.638927  0.553177  0.066080  1
  O  O26  1  0.165318  0.707330  0.371246  1
  O  O27  1  0.835772  0.561134  0.414511  1
  O  O28  1  0.122175  0.552143  0.823056  1
  O  O29  1  0.644183  0.785924  0.864396  1
  O  O30  1  0.408441  0.717519  0.152765  1
  O  O31  1  0.860649  0.965942  0.168946  1
  O  O32  1  0.158870  0.942391  0.579879  1
  O  O33  1  0.839297  0.779225  0.606317  1
  O  O34  1  0.356933  0.931433  0.930008  1
  O  O35  1  0.356933  0.068567  0.430008  1
  O  O36  1  0.601176  0.049842  0.825549  1
  O  O37  1  0.601176  0.950158  0.325549  1
  O  O38  1  0.860649  0.034058  0.668946  1
  O  O39  1  0.839297  0.220775  0.106317  1
  O  O40  1  0.158870  0.057609  0.079879  1
  O  O41  1  0.644183  0.214076  0.364396  1
