# generated using pymatgen
data_DyBO3
_symmetry_space_group_name_H-M   'P 1'
_cell_length_a   3.95612486
_cell_length_b   3.95612486
_cell_length_c   8.67106748
_cell_angle_alpha   90.00000000
_cell_angle_beta   90.00000000
_cell_angle_gamma   117.35274925
_symmetry_Int_Tables_number   1
_chemical_formula_structural   DyBO3
_chemical_formula_sum   'Dy2 B2 O6'
_cell_volume   120.53708265
_cell_formula_units_Z   2
loop_
 _symmetry_equiv_pos_site_id
 _symmetry_equiv_pos_as_xyz
  1  'x, y, z'
loop_
 _atom_site_type_symbol
 _atom_site_label
 _atom_site_symmetry_multiplicity
 _atom_site_fract_x
 _atom_site_fract_y
 _atom_site_fract_z
 _atom_site_occupancy
  Dy  Dy0  1  0.052462  0.052462  0.000000  1
  Dy  Dy1  1  0.052462  0.052462  0.500000  1
  B  B2  1  0.501869  0.758455  0.250000  1
  B  B3  1  0.758455  0.501869  0.750000  1
  O  O4  1  0.333568  0.674862  0.103573  1
  O  O5  1  0.333568  0.674862  0.396427  1
  O  O6  1  0.892411  0.957574  0.250000  1
  O  O7  1  0.674862  0.333568  0.603573  1
  O  O8  1  0.674862  0.333568  0.896427  1
  O  O9  1  0.957574  0.892411  0.750000  1
