# generated using pymatgen
data_Na5(NiO2)6
_symmetry_space_group_name_H-M   'P 1'
_cell_length_a   5.98443077
_cell_length_b   6.85380105
_cell_length_c   6.90597896
_cell_angle_alpha   66.80694689
_cell_angle_beta   76.84093460
_cell_angle_gamma   67.21001774
_symmetry_Int_Tables_number   1
_chemical_formula_structural   Na5(NiO2)6
_chemical_formula_sum   'Na5 Ni6 O12'
_cell_volume   239.09344954
_cell_formula_units_Z   1
loop_
 _symmetry_equiv_pos_site_id
 _symmetry_equiv_pos_as_xyz
  1  'x, y, z'
loop_
 _atom_site_type_symbol
 _atom_site_label
 _atom_site_symmetry_multiplicity
 _atom_site_fract_x
 _atom_site_fract_y
 _atom_site_fract_z
 _atom_site_occupancy
  Na  Na0  1  0.320252  0.176694  0.827053  1
  Na  Na1  1  0.500000  0.500000  0.500000  1
  Na  Na2  1  0.838310  0.185570  0.817238  1
  Na  Na3  1  0.161690  0.814430  0.182762  1
  Na  Na4  1  0.679748  0.823306  0.172947  1
  Ni  Ni5  1  0.580560  0.668621  0.833774  1
  Ni  Ni6  1  0.080141  0.668154  0.833011  1
  Ni  Ni7  1  0.248332  0.002874  0.501457  1
  Ni  Ni8  1  0.419440  0.331379  0.166226  1
  Ni  Ni9  1  0.751668  0.997126  0.498543  1
  Ni  Ni10  1  0.919859  0.331846  0.166989  1
  O  O11  1  0.209929  0.895668  0.804213  1
  O  O12  1  0.404406  0.215477  0.468527  1
  O  O13  1  0.104594  0.783964  0.531781  1
  O  O14  1  0.709545  0.896787  0.801071  1
  O  O15  1  0.549793  0.556888  0.138618  1
  O  O16  1  0.290455  0.103213  0.198929  1
  O  O17  1  0.895406  0.216036  0.468219  1
  O  O18  1  0.595594  0.784523  0.531473  1
  O  O19  1  0.450207  0.443112  0.861382  1
  O  O20  1  0.054302  0.554121  0.133274  1
  O  O21  1  0.790071  0.104332  0.195787  1
  O  O22  1  0.945698  0.445879  0.866726  1
