# generated using pymatgen
data_Sb2(SO4)3
_symmetry_space_group_name_H-M   'P 1'
_cell_length_a   9.07261311
_cell_length_b   9.23258612
_cell_length_c   25.45404564
_cell_angle_alpha   90.00000000
_cell_angle_beta   90.00000000
_cell_angle_gamma   90.00000000
_symmetry_Int_Tables_number   1
_chemical_formula_structural   Sb2(SO4)3
_chemical_formula_sum   'Sb16 S24 O96'
_cell_volume   2132.12458133
_cell_formula_units_Z   8
loop_
 _symmetry_equiv_pos_site_id
 _symmetry_equiv_pos_as_xyz
  1  'x, y, z'
loop_
 _atom_site_type_symbol
 _atom_site_label
 _atom_site_symmetry_multiplicity
 _atom_site_fract_x
 _atom_site_fract_y
 _atom_site_fract_z
 _atom_site_occupancy
  Sb  Sb0  1  0.003804  0.380716  0.063351  1
  Sb  Sb1  1  0.003804  0.119284  0.563351  1
  Sb  Sb2  1  0.990983  0.804038  0.179602  1
  Sb  Sb3  1  0.990983  0.695962  0.679602  1
  Sb  Sb4  1  0.509017  0.304038  0.179602  1
  Sb  Sb5  1  0.509017  0.195962  0.679602  1
  Sb  Sb6  1  0.496196  0.619284  0.563351  1
  Sb  Sb7  1  0.496196  0.880716  0.063351  1
  Sb  Sb8  1  0.503804  0.380716  0.436649  1
  Sb  Sb9  1  0.503804  0.119284  0.936649  1
  Sb  Sb10  1  0.490983  0.695962  0.820398  1
  Sb  Sb11  1  0.490983  0.804038  0.320398  1
  Sb  Sb12  1  0.009017  0.304038  0.320398  1
  Sb  Sb13  1  0.009017  0.195962  0.820398  1
  Sb  Sb14  1  0.996196  0.880716  0.436649  1
  Sb  Sb15  1  0.996196  0.619284  0.936649  1
  S  S16  1  0.144089  0.944887  0.297156  1
  S  S17  1  0.144089  0.555113  0.797156  1
  S  S18  1  0.148870  0.263677  0.449739  1
  S  S19  1  0.148870  0.236323  0.949739  1
  S  S20  1  0.190472  0.087591  0.116326  1
  S  S21  1  0.190472  0.412409  0.616326  1
  S  S22  1  0.309528  0.587591  0.116326  1
  S  S23  1  0.309528  0.912409  0.616326  1
  S  S24  1  0.351130  0.763677  0.449739  1
  S  S25  1  0.351130  0.736323  0.949739  1
  S  S26  1  0.355911  0.444887  0.297156  1
  S  S27  1  0.355911  0.055113  0.797156  1
  S  S28  1  0.644089  0.555113  0.702844  1
  S  S29  1  0.644089  0.944887  0.202844  1
  S  S30  1  0.648870  0.263677  0.050261  1
  S  S31  1  0.648870  0.236323  0.550261  1
  S  S32  1  0.690472  0.087591  0.383674  1
  S  S33  1  0.690472  0.412409  0.883674  1
  S  S34  1  0.809528  0.587591  0.383674  1
  S  S35  1  0.809528  0.912409  0.883674  1
  S  S36  1  0.851130  0.763677  0.050261  1
  S  S37  1  0.851130  0.736323  0.550261  1
  S  S38  1  0.855911  0.444887  0.202844  1
  S  S39  1  0.855911  0.055113  0.702844  1
  O  O40  1  0.071641  0.396792  0.459894  1
  O  O41  1  0.071641  0.103208  0.959894  1
  O  O42  1  0.093860  0.090306  0.279907  1
  O  O43  1  0.093860  0.409694  0.779907  1
  O  O44  1  0.085284  0.136430  0.482993  1
  O  O45  1  0.085284  0.363570  0.982993  1
  O  O46  1  0.089981  0.905968  0.349766  1
  O  O47  1  0.089981  0.594032  0.849766  1
  O  O48  1  0.089142  0.178769  0.081802  1
  O  O49  1  0.089142  0.321231  0.581802  1
  O  O50  1  0.093486  0.831797  0.258905  1
  O  O51  1  0.093486  0.668203  0.758905  1
  O  O52  1  0.094731  0.015560  0.156184  1
  O  O53  1  0.094731  0.484440  0.656184  1
  O  O54  1  0.139419  0.212630  0.394084  1
  O  O55  1  0.139419  0.287370  0.894084  1
  O  O56  1  0.188921  0.447334  0.296880  1
  O  O57  1  0.188921  0.052666  0.796880  1
  O  O58  1  0.202255  0.680472  0.143448  1
  O  O59  1  0.202255  0.819528  0.643448  1
  O  O60  1  0.190258  0.766564  0.465791  1
  O  O61  1  0.190258  0.733436  0.965791  1
  O  O62  1  0.240080  0.018950  0.580957  1
  O  O63  1  0.240080  0.481050  0.080957  1
  O  O64  1  0.259920  0.518950  0.580957  1
  O  O65  1  0.259920  0.981050  0.080957  1
  O  O66  1  0.309742  0.233436  0.965791  1
  O  O67  1  0.309742  0.266564  0.465791  1
  O  O68  1  0.297745  0.180472  0.143448  1
  O  O69  1  0.297745  0.319528  0.643448  1
  O  O70  1  0.311079  0.947334  0.296880  1
  O  O71  1  0.311079  0.552666  0.796880  1
  O  O72  1  0.360581  0.712630  0.394084  1
  O  O73  1  0.360581  0.787370  0.894084  1
  O  O74  1  0.405269  0.984440  0.656184  1
  O  O75  1  0.405269  0.515560  0.156184  1
  O  O76  1  0.406514  0.331797  0.258905  1
  O  O77  1  0.406514  0.168203  0.758905  1
  O  O78  1  0.410858  0.678769  0.081802  1
  O  O79  1  0.410858  0.821231  0.581802  1
  O  O80  1  0.410019  0.094032  0.849766  1
  O  O81  1  0.410019  0.405968  0.349766  1
  O  O82  1  0.414716  0.863570  0.982993  1
  O  O83  1  0.414716  0.636430  0.482993  1
  O  O84  1  0.406140  0.590306  0.279907  1
  O  O85  1  0.406140  0.909694  0.779907  1
  O  O86  1  0.428359  0.603208  0.959894  1
  O  O87  1  0.428359  0.896792  0.459894  1
  O  O88  1  0.571641  0.396792  0.040106  1
  O  O89  1  0.571641  0.103208  0.540106  1
  O  O90  1  0.593860  0.090306  0.220093  1
  O  O91  1  0.593860  0.409694  0.720093  1
  O  O92  1  0.585284  0.136430  0.017007  1
  O  O93  1  0.585284  0.363570  0.517007  1
  O  O94  1  0.589981  0.594032  0.650234  1
  O  O95  1  0.589981  0.905968  0.150234  1
  O  O96  1  0.589142  0.178769  0.418198  1
  O  O97  1  0.589142  0.321231  0.918198  1
  O  O98  1  0.593486  0.831797  0.241095  1
  O  O99  1  0.593486  0.668203  0.741095  1
  O  O100  1  0.594731  0.015560  0.343816  1
  O  O101  1  0.594731  0.484440  0.843816  1
  O  O102  1  0.639419  0.212630  0.105916  1
  O  O103  1  0.639419  0.287370  0.605916  1
  O  O104  1  0.688921  0.447334  0.203120  1
  O  O105  1  0.688921  0.052666  0.703120  1
  O  O106  1  0.702255  0.680472  0.356552  1
  O  O107  1  0.702255  0.819528  0.856552  1
  O  O108  1  0.690258  0.766564  0.034209  1
  O  O109  1  0.690258  0.733436  0.534209  1
  O  O110  1  0.740080  0.481050  0.419043  1
  O  O111  1  0.740080  0.018950  0.919043  1
  O  O112  1  0.759920  0.981050  0.419043  1
  O  O113  1  0.759920  0.518950  0.919043  1
  O  O114  1  0.809742  0.266564  0.034209  1
  O  O115  1  0.809742  0.233436  0.534209  1
  O  O116  1  0.797745  0.180472  0.356552  1
  O  O117  1  0.797745  0.319528  0.856552  1
  O  O118  1  0.811079  0.552666  0.703120  1
  O  O119  1  0.811079  0.947334  0.203120  1
  O  O120  1  0.860581  0.712630  0.105916  1
  O  O121  1  0.860581  0.787370  0.605916  1
  O  O122  1  0.905269  0.515560  0.343816  1
  O  O123  1  0.905269  0.984440  0.843816  1
  O  O124  1  0.906514  0.331797  0.241095  1
  O  O125  1  0.906514  0.168203  0.741095  1
  O  O126  1  0.910858  0.678769  0.418198  1
  O  O127  1  0.910858  0.821231  0.918198  1
  O  O128  1  0.910019  0.405968  0.150234  1
  O  O129  1  0.910019  0.094032  0.650234  1
  O  O130  1  0.914716  0.636430  0.017007  1
  O  O131  1  0.914716  0.863570  0.517007  1
  O  O132  1  0.906140  0.590306  0.220093  1
  O  O133  1  0.906140  0.909694  0.720093  1
  O  O134  1  0.928359  0.603208  0.540106  1
  O  O135  1  0.928359  0.896792  0.040106  1
