# generated using pymatgen
data_Li6Cr2O7
_symmetry_space_group_name_H-M   'P 1'
_cell_length_a   5.75063253
_cell_length_b   5.75063253
_cell_length_c   9.63468685
_cell_angle_alpha   80.61803433
_cell_angle_beta   99.38196567
_cell_angle_gamma   120.54672228
_symmetry_Int_Tables_number   1
_chemical_formula_structural   Li6Cr2O7
_chemical_formula_sum   'Li12 Cr4 O14'
_cell_volume   269.51963913
_cell_formula_units_Z   2
loop_
 _symmetry_equiv_pos_site_id
 _symmetry_equiv_pos_as_xyz
  1  'x, y, z'
loop_
 _atom_site_type_symbol
 _atom_site_label
 _atom_site_symmetry_multiplicity
 _atom_site_fract_x
 _atom_site_fract_y
 _atom_site_fract_z
 _atom_site_occupancy
  Li  Li0  1  0.669877  0.528558  0.614878  1
  Li  Li1  1  0.211369  0.078005  0.600025  1
  Li  Li2  1  0.471442  0.330123  0.114878  1
  Li  Li3  1  0.921995  0.788631  0.100025  1
  Li  Li4  1  0.078004  0.668768  0.884387  1
  Li  Li5  1  0.331232  0.921996  0.384387  1
  Li  Li6  1  0.668768  0.078004  0.615613  1
  Li  Li7  1  0.921996  0.331232  0.115613  1
  Li  Li8  1  0.078005  0.211369  0.899975  1
  Li  Li9  1  0.528558  0.669877  0.885122  1
  Li  Li10  1  0.788631  0.921995  0.399975  1
  Li  Li11  1  0.330123  0.471442  0.385122  1
  Cr  Cr12  1  0.560814  0.192261  0.869276  1
  Cr  Cr13  1  0.807739  0.439186  0.369276  1
  Cr  Cr14  1  0.192261  0.560814  0.630724  1
  Cr  Cr15  1  0.439186  0.807739  0.130724  1
  O  O16  1  0.736068  0.489433  0.971439  1
  O  O17  1  0.510567  0.263932  0.471439  1
  O  O18  1  0.001889  0.728412  0.502242  1
  O  O19  1  0.364999  0.872744  0.750901  1
  O  O20  1  0.872744  0.364999  0.749099  1
  O  O21  1  0.271588  0.998111  0.002242  1
  O  O22  1  0.728412  0.001889  0.997758  1
  O  O23  1  0.127256  0.635001  0.250901  1
  O  O24  1  0.635001  0.127256  0.249099  1
  O  O25  1  0.998111  0.271588  0.497758  1
  O  O26  1  0.489433  0.736068  0.528561  1
  O  O27  1  0.348086  0.348086  0.750000  1
  O  O28  1  0.263932  0.510567  0.028561  1
  O  O29  1  0.651914  0.651914  0.250000  1
