# generated using pymatgen
data_Li5NiO4
_symmetry_space_group_name_H-M   'P 1'
_cell_length_a   5.15795101
_cell_length_b   9.42174602
_cell_length_c   15.68748829
_cell_angle_alpha   90.00000000
_cell_angle_beta   90.00000000
_cell_angle_gamma   90.00000000
_symmetry_Int_Tables_number   1
_chemical_formula_structural   Li5NiO4
_chemical_formula_sum   'Li40 Ni8 O32'
_cell_volume   762.36336870
_cell_formula_units_Z   8
loop_
 _symmetry_equiv_pos_site_id
 _symmetry_equiv_pos_as_xyz
  1  'x, y, z'
loop_
 _atom_site_type_symbol
 _atom_site_label
 _atom_site_symmetry_multiplicity
 _atom_site_fract_x
 _atom_site_fract_y
 _atom_site_fract_z
 _atom_site_occupancy
  Li  Li0  1  0.918097  0.931052  0.433884  1
  Li  Li1  1  0.581903  0.931052  0.933884  1
  Li  Li2  1  0.096707  0.921601  0.252670  1
  Li  Li3  1  0.403293  0.921601  0.752670  1
  Li  Li4  1  0.093387  0.829089  0.002559  1
  Li  Li5  1  0.406613  0.829089  0.502559  1
  Li  Li6  1  0.596195  0.823433  0.329203  1
  Li  Li7  1  0.903805  0.823433  0.829203  1
  Li  Li8  1  0.429166  0.804605  0.142944  1
  Li  Li9  1  0.070834  0.804605  0.642944  1
  Li  Li10  1  0.929166  0.695395  0.142944  1
  Li  Li11  1  0.570834  0.695395  0.642944  1
  Li  Li12  1  0.403805  0.676567  0.829203  1
  Li  Li13  1  0.096195  0.676567  0.329203  1
  Li  Li14  1  0.593387  0.670911  0.002559  1
  Li  Li15  1  0.906613  0.670911  0.502559  1
  Li  Li16  1  0.596707  0.578399  0.252670  1
  Li  Li17  1  0.903293  0.578399  0.752670  1
  Li  Li18  1  0.081903  0.568948  0.933884  1
  Li  Li19  1  0.418097  0.568948  0.433884  1
  Li  Li20  1  0.918097  0.431052  0.066116  1
  Li  Li21  1  0.581903  0.431052  0.566116  1
  Li  Li22  1  0.096707  0.421601  0.247330  1
  Li  Li23  1  0.403293  0.421601  0.747330  1
  Li  Li24  1  0.406613  0.329089  0.997441  1
  Li  Li25  1  0.093387  0.329089  0.497441  1
  Li  Li26  1  0.596195  0.323433  0.170797  1
  Li  Li27  1  0.903805  0.323433  0.670797  1
  Li  Li28  1  0.429166  0.304605  0.357056  1
  Li  Li29  1  0.070834  0.304605  0.857056  1
  Li  Li30  1  0.929166  0.195395  0.357056  1
  Li  Li31  1  0.570834  0.195395  0.857056  1
  Li  Li32  1  0.403805  0.176567  0.670797  1
  Li  Li33  1  0.096195  0.176567  0.170797  1
  Li  Li34  1  0.906613  0.170911  0.997441  1
  Li  Li35  1  0.593387  0.170911  0.497441  1
  Li  Li36  1  0.903293  0.078399  0.747330  1
  Li  Li37  1  0.596707  0.078399  0.247330  1
  Li  Li38  1  0.081903  0.068948  0.566116  1
  Li  Li39  1  0.418097  0.068948  0.066116  1
  Ni  Ni40  1  0.829698  0.960429  0.121355  1
  Ni  Ni41  1  0.670302  0.960429  0.621355  1
  Ni  Ni42  1  0.329698  0.539571  0.121355  1
  Ni  Ni43  1  0.170302  0.539571  0.621355  1
  Ni  Ni44  1  0.829698  0.460429  0.378645  1
  Ni  Ni45  1  0.670302  0.460429  0.878645  1
  Ni  Ni46  1  0.329698  0.039571  0.378645  1
  Ni  Ni47  1  0.170302  0.039571  0.878645  1
  O  O48  1  0.183035  0.952684  0.123835  1
  O  O49  1  0.316965  0.952684  0.623835  1
  O  O50  1  0.727615  0.863955  0.219248  1
  O  O51  1  0.772385  0.863955  0.719248  1
  O  O52  1  0.690187  0.854305  0.036171  1
  O  O53  1  0.809813  0.854305  0.536171  1
  O  O54  1  0.272230  0.851716  0.875058  1
  O  O55  1  0.227770  0.851716  0.375058  1
  O  O56  1  0.772230  0.648284  0.875058  1
  O  O57  1  0.727770  0.648284  0.375058  1
  O  O58  1  0.190187  0.645695  0.036171  1
  O  O59  1  0.309813  0.645695  0.536171  1
  O  O60  1  0.227615  0.636045  0.219248  1
  O  O61  1  0.272385  0.636045  0.719248  1
  O  O62  1  0.683035  0.547316  0.123835  1
  O  O63  1  0.816965  0.547316  0.623835  1
  O  O64  1  0.316965  0.452684  0.876165  1
  O  O65  1  0.183035  0.452684  0.376165  1
  O  O66  1  0.727615  0.363955  0.280752  1
  O  O67  1  0.772385  0.363955  0.780752  1
  O  O68  1  0.809813  0.354305  0.963829  1
  O  O69  1  0.690187  0.354305  0.463829  1
  O  O70  1  0.227770  0.351716  0.124942  1
  O  O71  1  0.272230  0.351716  0.624942  1
  O  O72  1  0.772230  0.148284  0.624942  1
  O  O73  1  0.727770  0.148284  0.124942  1
  O  O74  1  0.190187  0.145695  0.463829  1
  O  O75  1  0.309813  0.145695  0.963829  1
  O  O76  1  0.272385  0.136045  0.780752  1
  O  O77  1  0.227615  0.136045  0.280752  1
  O  O78  1  0.683035  0.047316  0.376165  1
  O  O79  1  0.816965  0.047316  0.876165  1
