# generated using pymatgen
data_Ti3CuSn2(PO4)6
_symmetry_space_group_name_H-M   'P 1'
_cell_length_a   9.01160928
_cell_length_b   9.01160928
_cell_length_c   9.01160928
_cell_angle_alpha   57.39493019
_cell_angle_beta   57.39493019
_cell_angle_gamma   57.39493019
_symmetry_Int_Tables_number   1
_chemical_formula_structural   Ti3CuSn2(PO4)6
_chemical_formula_sum   'Ti3 Cu1 Sn2 P6 O24'
_cell_volume   486.45661990
_cell_formula_units_Z   1
loop_
 _symmetry_equiv_pos_site_id
 _symmetry_equiv_pos_as_xyz
  1  'x, y, z'
loop_
 _atom_site_type_symbol
 _atom_site_label
 _atom_site_symmetry_multiplicity
 _atom_site_fract_x
 _atom_site_fract_y
 _atom_site_fract_z
 _atom_site_occupancy
  Ti  Ti0  1  0.855582  0.855582  0.855582  1
  Ti  Ti1  1  0.647653  0.647653  0.647653  1
  Ti  Ti2  1  0.349535  0.349535  0.349535  1
  Cu  Cu3  1  0.151655  0.151655  0.151655  1
  Sn  Sn4  1  0.012070  0.012070  0.012070  1
  Sn  Sn5  1  0.498467  0.498467  0.498467  1
  P  P6  1  0.248357  0.537509  0.958774  1
  P  P7  1  0.958774  0.248357  0.537509  1
  P  P8  1  0.464725  0.037682  0.747497  1
  P  P9  1  0.037682  0.747497  0.464725  1
  P  P10  1  0.747497  0.464725  0.037682  1
  P  P11  1  0.537509  0.958774  0.248357  1
  O  O12  1  0.697728  0.506503  0.876168  1
  O  O13  1  0.506503  0.876168  0.697728  1
  O  O14  1  0.076613  0.723719  0.935687  1
  O  O15  1  0.876168  0.697728  0.506503  1
  O  O16  1  0.217258  0.379809  0.977817  1
  O  O17  1  0.421892  0.572648  0.777153  1
  O  O18  1  0.935687  0.076613  0.723719  1
  O  O19  1  0.777153  0.421892  0.572648  1
  O  O20  1  0.627879  0.002999  0.789907  1
  O  O21  1  0.572648  0.777153  0.421892  1
  O  O22  1  0.280286  0.055366  0.916098  1
  O  O23  1  0.002999  0.789907  0.627879  1
  O  O24  1  0.977817  0.217258  0.379809  1
  O  O25  1  0.723719  0.935687  0.076613  1
  O  O26  1  0.443119  0.222373  0.572517  1
  O  O27  1  0.379809  0.977817  0.217258  1
  O  O28  1  0.222373  0.572517  0.443119  1
  O  O29  1  0.055366  0.916098  0.280286  1
  O  O30  1  0.572517  0.443119  0.222373  1
  O  O31  1  0.789907  0.627879  0.002999  1
  O  O32  1  0.128533  0.286716  0.501705  1
  O  O33  1  0.916098  0.280286  0.055366  1
  O  O34  1  0.501705  0.128533  0.286716  1
  O  O35  1  0.286716  0.501705  0.128533  1
