# generated using pymatgen
data_VZnHPbO5
_symmetry_space_group_name_H-M   'P 1'
_cell_length_a   6.19263775
_cell_length_b   7.68190766
_cell_length_c   9.55320815
_cell_angle_alpha   90.00000000
_cell_angle_beta   90.00000000
_cell_angle_gamma   90.00000000
_symmetry_Int_Tables_number   1
_chemical_formula_structural   VZnHPbO5
_chemical_formula_sum   'V4 Zn4 H4 Pb4 O20'
_cell_volume   454.45825733
_cell_formula_units_Z   4
loop_
 _symmetry_equiv_pos_site_id
 _symmetry_equiv_pos_as_xyz
  1  'x, y, z'
loop_
 _atom_site_type_symbol
 _atom_site_label
 _atom_site_symmetry_multiplicity
 _atom_site_fract_x
 _atom_site_fract_y
 _atom_site_fract_z
 _atom_site_occupancy
  V  V0  1  0.250000  0.132364  0.187597  1
  V  V1  1  0.250000  0.632364  0.312403  1
  V  V2  1  0.750000  0.867636  0.812403  1
  V  V3  1  0.750000  0.367636  0.687597  1
  Zn  Zn4  1  0.000000  0.500000  0.000000  1
  Zn  Zn5  1  0.500000  0.000000  0.500000  1
  Zn  Zn6  1  0.500000  0.500000  0.000000  1
  Zn  Zn7  1  0.000000  0.000000  0.500000  1
  H  H8  1  0.750000  0.239898  0.016710  1
  H  H9  1  0.750000  0.739898  0.483290  1
  H  H10  1  0.250000  0.760102  0.983290  1
  H  H11  1  0.250000  0.260102  0.516710  1
  Pb  Pb12  1  0.750000  0.366321  0.323350  1
  Pb  Pb13  1  0.750000  0.866321  0.176650  1
  Pb  Pb14  1  0.250000  0.633679  0.676650  1
  Pb  Pb15  1  0.250000  0.133679  0.823350  1
  O  O16  1  0.250000  0.314528  0.073917  1
  O  O17  1  0.250000  0.814528  0.426083  1
  O  O18  1  0.750000  0.685472  0.926083  1
  O  O19  1  0.750000  0.185472  0.573917  1
  O  O20  1  0.250000  0.955075  0.080760  1
  O  O21  1  0.250000  0.455075  0.419240  1
  O  O22  1  0.750000  0.044925  0.919240  1
  O  O23  1  0.750000  0.544925  0.580760  1
  O  O24  1  0.010224  0.123043  0.290167  1
  O  O25  1  0.489776  0.623043  0.209833  1
  O  O26  1  0.510224  0.876957  0.709833  1
  O  O27  1  0.989776  0.376957  0.790167  1
  O  O28  1  0.989776  0.876957  0.709833  1
  O  O29  1  0.510224  0.376957  0.790167  1
  O  O30  1  0.489776  0.123043  0.290167  1
  O  O31  1  0.010224  0.623043  0.209833  1
  O  O32  1  0.750000  0.353724  0.066771  1
  O  O33  1  0.750000  0.853724  0.433229  1
  O  O34  1  0.250000  0.646276  0.933229  1
  O  O35  1  0.250000  0.146276  0.566771  1
