# generated using pymatgen
data_Li3Fe2(PO4)3
_symmetry_space_group_name_H-M   'P 1'
_cell_length_a   10.19566952
_cell_length_b   10.19566952
_cell_length_c   10.19566952
_cell_angle_alpha   109.47122063
_cell_angle_beta   109.47122063
_cell_angle_gamma   109.47122063
_symmetry_Int_Tables_number   1
_chemical_formula_structural   Li3Fe2(PO4)3
_chemical_formula_sum   'Li12 Fe8 P12 O48'
_cell_volume   815.87825535
_cell_formula_units_Z   4
loop_
 _symmetry_equiv_pos_site_id
 _symmetry_equiv_pos_as_xyz
  1  'x, y, z'
loop_
 _atom_site_type_symbol
 _atom_site_label
 _atom_site_symmetry_multiplicity
 _atom_site_fract_x
 _atom_site_fract_y
 _atom_site_fract_z
 _atom_site_occupancy
  Li  Li0  1  0.750000  0.125000  0.375000  1
  Li  Li1  1  0.375000  0.125000  0.250000  1
  Li  Li2  1  0.875000  0.625000  0.250000  1
  Li  Li3  1  0.250000  0.375000  0.125000  1
  Li  Li4  1  0.375000  0.750000  0.125000  1
  Li  Li5  1  0.625000  0.250000  0.875000  1
  Li  Li6  1  0.125000  0.250000  0.375000  1
  Li  Li7  1  0.875000  0.750000  0.625000  1
  Li  Li8  1  0.750000  0.625000  0.875000  1
  Li  Li9  1  0.625000  0.875000  0.750000  1
  Li  Li10  1  0.125000  0.375000  0.750000  1
  Li  Li11  1  0.250000  0.875000  0.625000  1
  Fe  Fe12  1  0.500000  0.000000  0.000000  1
  Fe  Fe13  1  0.000000  0.000000  0.000000  1
  Fe  Fe14  1  0.500000  0.500000  0.000000  1
  Fe  Fe15  1  0.500000  1.000000  0.500000  1
  Fe  Fe16  1  0.000000  0.500000  0.000000  1
  Fe  Fe17  1  0.000000  0.000000  0.500000  1
  Fe  Fe18  1  0.500000  0.500000  0.500000  1
  Fe  Fe19  1  0.000000  0.500000  0.500000  1
  P  P20  1  0.875000  0.250000  0.125000  1
  P  P21  1  0.625000  0.375000  0.250000  1
  P  P22  1  0.875000  0.125000  0.750000  1
  P  P23  1  0.750000  0.875000  0.125000  1
  P  P24  1  0.750000  0.375000  0.625000  1
  P  P25  1  0.625000  0.750000  0.375000  1
  P  P26  1  0.375000  0.250000  0.625000  1
  P  P27  1  0.250000  0.625000  0.375000  1
  P  P28  1  0.250000  0.125000  0.875000  1
  P  P29  1  0.125000  0.875000  0.250000  1
  P  P30  1  0.375000  0.625000  0.750000  1
  P  P31  1  0.125000  0.750000  0.875000  1
  O  O32  1  0.890150  0.006823  0.299051  1
  O  O33  1  0.883327  0.390150  0.091099  1
  O  O34  1  0.908901  0.292228  0.299051  1
  O  O35  1  0.908901  0.116673  0.609850  1
  O  O36  1  0.993177  0.700949  0.109850  1
  O  O37  1  0.591099  0.200949  0.207772  1
  O  O38  1  0.616673  0.408901  0.109850  1
  O  O39  1  0.207772  0.116673  0.006823  1
  O  O40  1  0.890150  0.383327  0.591099  1
  O  O41  1  0.609850  0.200949  0.493177  1
  O  O42  1  0.707772  0.700949  0.091099  1
  O  O43  1  0.799051  0.506823  0.390150  1
  O  O44  1  0.116673  0.006823  0.207772  1
  O  O45  1  0.700949  0.091099  0.707772  1
  O  O46  1  0.493177  0.383327  0.292228  1
  O  O47  1  0.006823  0.207772  0.116673  1
  O  O48  1  0.493177  0.609850  0.200949  1
  O  O49  1  0.408901  0.109850  0.616673  1
  O  O50  1  0.383327  0.292228  0.493177  1
  O  O51  1  0.799051  0.792228  0.408901  1
  O  O52  1  0.700949  0.109850  0.993177  1
  O  O53  1  0.707772  0.506823  0.616673  1
  O  O54  1  0.792228  0.408901  0.799051  1
  O  O55  1  0.609850  0.908901  0.116673  1
  O  O56  1  0.292228  0.493177  0.383327  1
  O  O57  1  0.207772  0.591099  0.200949  1
  O  O58  1  0.390150  0.091099  0.883327  1
  O  O59  1  0.616673  0.707772  0.506823  1
  O  O60  1  0.299051  0.890150  0.006823  1
  O  O61  1  0.200949  0.207772  0.591099  1
  O  O62  1  0.591099  0.890150  0.383327  1
  O  O63  1  0.506823  0.390150  0.799051  1
  O  O64  1  0.993177  0.792228  0.883327  1
  O  O65  1  0.506823  0.616673  0.707772  1
  O  O66  1  0.883327  0.993177  0.792228  1
  O  O67  1  0.200949  0.493177  0.609850  1
  O  O68  1  0.299051  0.908901  0.292228  1
  O  O69  1  0.109850  0.616673  0.408901  1
  O  O70  1  0.292228  0.299051  0.908901  1
  O  O71  1  0.390150  0.799051  0.506823  1
  O  O72  1  0.792228  0.883327  0.993177  1
  O  O73  1  0.383327  0.591099  0.890150  1
  O  O74  1  0.006823  0.299051  0.890150  1
  O  O75  1  0.091099  0.883327  0.390150  1
  O  O76  1  0.408901  0.799051  0.792228  1
  O  O77  1  0.091099  0.707772  0.700949  1
  O  O78  1  0.116673  0.609850  0.908901  1
  O  O79  1  0.109850  0.993177  0.700949  1
