# generated using pymatgen
data_Na5GdO4
_symmetry_space_group_name_H-M   'P 1'
_cell_length_a   5.59570656
_cell_length_b   7.59843252
_cell_length_c   7.91711596
_cell_angle_alpha   90.00000000
_cell_angle_beta   90.00000000
_cell_angle_gamma   90.00000000
_symmetry_Int_Tables_number   1
_chemical_formula_structural   Na5GdO4
_chemical_formula_sum   'Na10 Gd2 O8'
_cell_volume   336.62467635
_cell_formula_units_Z   2
loop_
 _symmetry_equiv_pos_site_id
 _symmetry_equiv_pos_as_xyz
  1  'x, y, z'
loop_
 _atom_site_type_symbol
 _atom_site_label
 _atom_site_symmetry_multiplicity
 _atom_site_fract_x
 _atom_site_fract_y
 _atom_site_fract_z
 _atom_site_occupancy
  Na  Na0  1  0.255231  0.738855  0.692477  1
  Na  Na1  1  0.255231  0.261145  0.692477  1
  Na  Na2  1  0.795332  0.000000  0.500000  1
  Na  Na3  1  0.255231  0.261145  0.307523  1
  Na  Na4  1  0.255231  0.738855  0.307523  1
  Na  Na5  1  0.744769  0.238855  0.192477  1
  Na  Na6  1  0.744769  0.761145  0.192477  1
  Na  Na7  1  0.204668  0.500000  0.000000  1
  Na  Na8  1  0.744769  0.238855  0.807523  1
  Na  Na9  1  0.744769  0.761145  0.807523  1
  Gd  Gd10  1  0.779428  0.500000  0.500000  1
  Gd  Gd11  1  0.220572  0.000000  0.000000  1
  O  O12  1  0.988398  0.500000  0.734722  1
  O  O13  1  0.568752  0.260818  0.500000  1
  O  O14  1  0.568752  0.739182  0.500000  1
  O  O15  1  0.988398  0.500000  0.265278  1
  O  O16  1  0.011602  0.000000  0.234722  1
  O  O17  1  0.431248  0.239182  0.000000  1
  O  O18  1  0.431248  0.760818  0.000000  1
  O  O19  1  0.011602  0.000000  0.765278  1
