# generated using pymatgen
data_LiCoPO4
_symmetry_space_group_name_H-M   'P 1'
_cell_length_a   7.97630607
_cell_length_b   5.29911693
_cell_length_c   8.39524689
_cell_angle_alpha   90.00000000
_cell_angle_beta   104.98803807
_cell_angle_gamma   90.00000000
_symmetry_Int_Tables_number   1
_chemical_formula_structural   LiCoPO4
_chemical_formula_sum   'Li4 Co4 P4 O16'
_cell_volume   342.77319199
_cell_formula_units_Z   4
loop_
 _symmetry_equiv_pos_site_id
 _symmetry_equiv_pos_as_xyz
  1  'x, y, z'
loop_
 _atom_site_type_symbol
 _atom_site_label
 _atom_site_symmetry_multiplicity
 _atom_site_fract_x
 _atom_site_fract_y
 _atom_site_fract_z
 _atom_site_occupancy
  Li  Li0  1  0.130720  0.344465  0.791527  1
  Li  Li1  1  0.634425  0.829553  0.611976  1
  Li  Li2  1  0.130720  0.655535  0.291527  1
  Li  Li3  1  0.634425  0.170447  0.111976  1
  Co  Co4  1  0.031034  0.850380  0.927642  1
  Co  Co5  1  0.510396  0.331322  0.729573  1
  Co  Co6  1  0.031034  0.149620  0.427642  1
  Co  Co7  1  0.510396  0.668678  0.229573  1
  P  P8  1  0.747965  0.669697  0.988520  1
  P  P9  1  0.262161  0.827538  0.671150  1
  P  P10  1  0.747965  0.330303  0.488520  1
  P  P11  1  0.262161  0.172462  0.171150  1
  O  O12  1  0.125800  0.182393  0.000748  1
  O  O13  1  0.679231  0.397088  0.946306  1
  O  O14  1  0.185498  0.703465  0.804568  1
  O  O15  1  0.303321  0.110955  0.713903  1
  O  O16  1  0.774663  0.805087  0.831892  1
  O  O17  1  0.424410  0.679368  0.659278  1
  O  O18  1  0.125800  0.817607  0.500748  1
  O  O19  1  0.617762  0.185298  0.563156  1
  O  O20  1  0.933812  0.322106  0.605963  1
  O  O21  1  0.679231  0.602912  0.446306  1
  O  O22  1  0.185498  0.296535  0.304568  1
  O  O23  1  0.303321  0.889045  0.213903  1
  O  O24  1  0.774663  0.194913  0.331892  1
  O  O25  1  0.424410  0.320632  0.159278  1
  O  O26  1  0.617762  0.814702  0.063156  1
  O  O27  1  0.933812  0.677894  0.105963  1
