# generated using pymatgen
data_Li6Sn5(P2O7)4
_symmetry_space_group_name_H-M   'P 1'
_cell_length_a   9.62673271
_cell_length_b   11.41976418
_cell_length_c   13.65259112
_cell_angle_alpha   77.44934387
_cell_angle_beta   74.83760897
_cell_angle_gamma   67.10069883
_symmetry_Int_Tables_number   1
_chemical_formula_structural   Li6Sn5(P2O7)4
_chemical_formula_sum   'Li12 Sn10 P16 O56'
_cell_volume   1323.16830428
_cell_formula_units_Z   2
loop_
 _symmetry_equiv_pos_site_id
 _symmetry_equiv_pos_as_xyz
  1  'x, y, z'
loop_
 _atom_site_type_symbol
 _atom_site_label
 _atom_site_symmetry_multiplicity
 _atom_site_fract_x
 _atom_site_fract_y
 _atom_site_fract_z
 _atom_site_occupancy
  Li  Li0  1  0.039994  0.871592  0.575512  1
  Li  Li1  1  0.437939  0.654017  0.672039  1
  Li  Li2  1  0.000000  0.500000  0.500000  1
  Li  Li3  1  0.562061  0.345983  0.327961  1
  Li  Li4  1  0.960006  0.128408  0.424488  1
  Li  Li5  1  0.174737  0.057231  0.247574  1
  Li  Li6  1  0.050480  0.872813  0.051027  1
  Li  Li7  1  0.418937  0.704273  0.155947  1
  Li  Li8  1  0.000000  0.500000  0.000000  1
  Li  Li9  1  0.581063  0.295727  0.844053  1
  Li  Li10  1  0.949520  0.127187  0.948973  1
  Li  Li11  1  0.825263  0.942769  0.752426  1
  Sn  Sn12  1  0.596821  0.294082  0.597080  1
  Sn  Sn13  1  0.194182  0.002076  0.752123  1
  Sn  Sn14  1  0.260209  0.267762  0.571213  1
  Sn  Sn15  1  0.739791  0.732238  0.428787  1
  Sn  Sn16  1  0.805818  0.997924  0.247877  1
  Sn  Sn17  1  0.403179  0.705918  0.402920  1
  Sn  Sn18  1  0.586444  0.305527  0.100969  1
  Sn  Sn19  1  0.265697  0.258036  0.078280  1
  Sn  Sn20  1  0.734303  0.741964  0.921720  1
  Sn  Sn21  1  0.413556  0.694473  0.899031  1
  P  P22  1  0.224320  0.581291  0.595409  1
  P  P23  1  0.679320  0.789965  0.659334  1
  P  P24  1  0.897239  0.297599  0.717211  1
  P  P25  1  0.718076  0.007895  0.513727  1
  P  P26  1  0.281924  0.992105  0.486273  1
  P  P27  1  0.102761  0.702401  0.282789  1
  P  P28  1  0.320680  0.210035  0.340666  1
  P  P29  1  0.775680  0.418709  0.404591  1
  P  P30  1  0.225117  0.580394  0.094255  1
  P  P31  1  0.664771  0.812515  0.157919  1
  P  P32  1  0.894371  0.300911  0.216957  1
  P  P33  1  0.713685  0.015026  0.995039  1
  P  P34  1  0.286315  0.984974  0.004961  1
  P  P35  1  0.105629  0.699089  0.783043  1
  P  P36  1  0.335229  0.187485  0.842081  1
  P  P37  1  0.774883  0.419606  0.905745  1
  O  O38  1  0.046049  0.835863  0.726723  1
  O  O39  1  0.117371  0.600242  0.707917  1
  O  O40  1  0.258626  0.163516  0.765071  1
  O  O41  1  0.394274  0.536287  0.604989  1
  O  O42  1  0.540534  0.748339  0.705577  1
  O  O43  1  0.840664  0.004699  0.568019  1
  O  O44  1  0.611217  0.932093  0.591748  1
  O  O45  1  0.731354  0.325919  0.707098  1
  O  O46  1  0.183353  0.713049  0.528344  1
  O  O47  1  0.181649  0.487874  0.554793  1
  O  O48  1  0.611751  0.143738  0.485244  1
  O  O49  1  0.002065  0.333765  0.619753  1
  O  O50  1  0.798854  0.702411  0.580741  1
  O  O51  1  0.207708  0.068073  0.581094  1
  O  O52  1  0.792292  0.931927  0.418906  1
  O  O53  1  0.201146  0.297589  0.419259  1
  O  O54  1  0.997935  0.666235  0.380247  1
  O  O55  1  0.388249  0.856262  0.514756  1
  O  O56  1  0.818351  0.512126  0.445207  1
  O  O57  1  0.816647  0.286951  0.471656  1
  O  O58  1  0.268646  0.674081  0.292902  1
  O  O59  1  0.388783  0.067907  0.408252  1
  O  O60  1  0.159336  0.995301  0.431981  1
  O  O61  1  0.459466  0.251661  0.294423  1
  O  O62  1  0.035593  0.842816  0.230521  1
  O  O63  1  0.605726  0.463713  0.395011  1
  O  O64  1  0.741374  0.836484  0.234929  1
  O  O65  1  0.114114  0.608040  0.205148  1
  O  O66  1  0.882629  0.399758  0.292083  1
  O  O67  1  0.250185  0.186462  0.262728  1
  O  O68  1  0.394774  0.534263  0.106454  1
  O  O69  1  0.953951  0.164137  0.273277  1
  O  O70  1  0.521859  0.780217  0.213111  1
  O  O71  1  0.851835  0.000804  0.040022  1
  O  O72  1  0.604432  0.952377  0.086819  1
  O  O73  1  0.727317  0.337026  0.203090  1
  O  O74  1  0.190784  0.709787  0.024081  1
  O  O75  1  0.179180  0.487644  0.056823  1
  O  O76  1  0.616029  0.155400  0.970767  1
  O  O77  1  0.003711  0.329799  0.119204  1
  O  O78  1  0.780286  0.717485  0.085478  1
  O  O79  1  0.234858  0.060395  0.096669  1
  O  O80  1  0.765142  0.939605  0.903331  1
  O  O81  1  0.219714  0.282515  0.914522  1
  O  O82  1  0.996289  0.670201  0.880796  1
  O  O83  1  0.383971  0.844600  0.029233  1
  O  O84  1  0.820820  0.512356  0.943177  1
  O  O85  1  0.809216  0.290213  0.975919  1
  O  O86  1  0.272683  0.662974  0.796910  1
  O  O87  1  0.395568  0.047623  0.913181  1
  O  O88  1  0.148165  0.999196  0.959978  1
  O  O89  1  0.478141  0.219783  0.786889  1
  O  O90  1  0.605226  0.465737  0.893546  1
  O  O91  1  0.749815  0.813538  0.737272  1
  O  O92  1  0.885886  0.391960  0.794852  1
  O  O93  1  0.964407  0.157184  0.769479  1
