# generated using pymatgen
data_Zn(CuO2)2
_symmetry_space_group_name_H-M   'P 1'
_cell_length_a   6.15748436
_cell_length_b   6.15748436
_cell_length_c   6.15748436
_cell_angle_alpha   127.40703829
_cell_angle_beta   127.40703829
_cell_angle_gamma   77.58759120
_symmetry_Int_Tables_number   1
_chemical_formula_structural   Zn(CuO2)2
_chemical_formula_sum   'Zn2 Cu4 O8'
_cell_volume   142.84750443
_cell_formula_units_Z   2
loop_
 _symmetry_equiv_pos_site_id
 _symmetry_equiv_pos_as_xyz
  1  'x, y, z'
loop_
 _atom_site_type_symbol
 _atom_site_label
 _atom_site_symmetry_multiplicity
 _atom_site_fract_x
 _atom_site_fract_y
 _atom_site_fract_z
 _atom_site_occupancy
  Zn  Zn0  1  0.250000  0.750000  0.500000  1
  Zn  Zn1  1  0.500000  0.500000  1.000000  1
  Cu  Cu2  1  0.875000  0.625000  0.750000  1
  Cu  Cu3  1  0.875000  0.125000  0.750000  1
  Cu  Cu4  1  0.375000  0.125000  0.250000  1
  Cu  Cu5  1  0.875000  0.125000  0.250000  1
  O  O6  1  0.655641  0.122110  0.872915  1
  O  O7  1  0.500805  0.467274  0.372915  1
  O  O8  1  0.872110  0.499195  0.966469  1
  O  O9  1  0.217274  0.344359  0.466469  1
  O  O10  1  0.532726  0.905641  0.033531  1
  O  O11  1  0.877890  0.750805  0.533531  1
  O  O12  1  0.249195  0.782726  0.127085  1
  O  O13  1  0.094359  0.127890  0.627085  1
