# generated using pymatgen
data_Li4Fe5Sn3O16
_symmetry_space_group_name_H-M   'P 1'
_cell_length_a   6.10138102
_cell_length_b   6.10536856
_cell_length_c   9.69812004
_cell_angle_alpha   90.19545769
_cell_angle_beta   90.18947246
_cell_angle_gamma   119.83825145
_symmetry_Int_Tables_number   1
_chemical_formula_structural   Li4Fe5Sn3O16
_chemical_formula_sum   'Li4 Fe5 Sn3 O16'
_cell_volume   313.36754214
_cell_formula_units_Z   1
loop_
 _symmetry_equiv_pos_site_id
 _symmetry_equiv_pos_as_xyz
  1  'x, y, z'
loop_
 _atom_site_type_symbol
 _atom_site_label
 _atom_site_symmetry_multiplicity
 _atom_site_fract_x
 _atom_site_fract_y
 _atom_site_fract_z
 _atom_site_occupancy
  Li  Li0  1  0.316462  0.666832  0.888201  1
  Li  Li1  1  0.022066  0.983519  0.991417  1
  Li  Li2  1  0.011294  0.987859  0.499683  1
  Li  Li3  1  0.663860  0.334060  0.398319  1
  Fe  Fe4  1  0.341832  0.679505  0.494600  1
  Fe  Fe5  1  0.170642  0.832389  0.219474  1
  Fe  Fe6  1  0.656553  0.334139  0.987897  1
  Fe  Fe7  1  0.340279  0.170293  0.713518  1
  Fe  Fe8  1  0.824025  0.660273  0.716916  1
  Sn  Sn9  1  0.165564  0.339307  0.214167  1
  Sn  Sn10  1  0.659361  0.829420  0.210927  1
  Sn  Sn11  1  0.835468  0.175462  0.713158  1
  O  O12  1  0.176738  0.325142  0.599314  1
  O  O13  1  0.483051  0.519606  0.343292  1
  O  O14  1  0.323992  0.669239  0.096783  1
  O  O15  1  0.000452  0.998340  0.314641  1
  O  O16  1  0.016797  0.004015  0.807593  1
  O  O17  1  0.680033  0.837717  0.596342  1
  O  O18  1  0.038713  0.525927  0.346583  1
  O  O19  1  0.481585  0.965644  0.342274  1
  O  O20  1  0.835380  0.159140  0.090567  1
  O  O21  1  0.180087  0.847798  0.605823  1
  O  O22  1  0.508039  0.039483  0.836202  1
  O  O23  1  0.952986  0.486100  0.844497  1
  O  O24  1  0.652826  0.333661  0.605430  1
  O  O25  1  0.328418  0.162409  0.100138  1
  O  O26  1  0.498691  0.463437  0.834102  1
  O  O27  1  0.834508  0.668984  0.095981  1
