# generated using pymatgen
data_Fe6O5F7
_symmetry_space_group_name_H-M   'P 1'
_cell_length_a   4.76752582
_cell_length_b   5.69555205
_cell_length_c   7.87215069
_cell_angle_alpha   85.20039977
_cell_angle_beta   88.14597138
_cell_angle_gamma   87.55174848
_symmetry_Int_Tables_number   1
_chemical_formula_structural   Fe6O5F7
_chemical_formula_sum   'Fe6 O5 F7'
_cell_volume   212.72503223
_cell_formula_units_Z   1
loop_
 _symmetry_equiv_pos_site_id
 _symmetry_equiv_pos_as_xyz
  1  'x, y, z'
loop_
 _atom_site_type_symbol
 _atom_site_label
 _atom_site_symmetry_multiplicity
 _atom_site_fract_x
 _atom_site_fract_y
 _atom_site_fract_z
 _atom_site_occupancy
  Fe  Fe0  1  0.559563  0.830836  0.662337  1
  Fe  Fe1  1  0.499674  0.486577  0.005620  1
  Fe  Fe2  1  0.508081  0.165733  0.323547  1
  Fe  Fe3  1  0.976276  0.334289  0.673432  1
  Fe  Fe4  1  0.009284  0.665745  0.334381  1
  Fe  Fe5  1  0.964125  0.009088  0.987319  1
  O  O6  1  0.804558  0.029966  0.771044  1
  O  O7  1  0.700242  0.203885  0.104211  1
  O  O8  1  0.673577  0.542327  0.781980  1
  O  O9  1  0.704280  0.869370  0.425249  1
  O  O10  1  0.300360  0.465366  0.235269  1
  F  F11  1  0.796961  0.376180  0.426805  1
  F  F12  1  0.808932  0.705793  0.101993  1
  F  F13  1  0.312683  0.125301  0.559794  1
  F  F14  1  0.292046  0.803959  0.907942  1
  F  F15  1  0.194393  0.961651  0.225412  1
  F  F16  1  0.192686  0.635851  0.564176  1
  F  F17  1  0.202283  0.288085  0.909490  1
