# generated using pymatgen
data_LiBi(PO3)4
_symmetry_space_group_name_H-M   'P 1'
_cell_length_a   6.98219965
_cell_length_b   9.23790789
_cell_length_c   7.55813023
_cell_angle_alpha   90.00000000
_cell_angle_beta   94.18188942
_cell_angle_gamma   90.00000000
_symmetry_Int_Tables_number   1
_chemical_formula_structural   LiBi(PO3)4
_chemical_formula_sum   'Li2 Bi2 P8 O24'
_cell_volume   486.20838466
_cell_formula_units_Z   2
loop_
 _symmetry_equiv_pos_site_id
 _symmetry_equiv_pos_as_xyz
  1  'x, y, z'
loop_
 _atom_site_type_symbol
 _atom_site_label
 _atom_site_symmetry_multiplicity
 _atom_site_fract_x
 _atom_site_fract_y
 _atom_site_fract_z
 _atom_site_occupancy
  Li  Li0  1  0.782275  0.978086  0.214735  1
  Li  Li1  1  0.217725  0.478086  0.785265  1
  Bi  Bi2  1  0.756023  0.635977  0.731646  1
  Bi  Bi3  1  0.243977  0.135977  0.268354  1
  P  P4  1  0.007220  0.639278  0.420544  1
  P  P5  1  0.902169  0.438188  0.120950  1
  P  P6  1  0.605267  0.269813  0.592826  1
  P  P7  1  0.548531  0.609300  0.088784  1
  P  P8  1  0.451469  0.109300  0.911216  1
  P  P9  1  0.394733  0.769813  0.407174  1
  P  P10  1  0.097831  0.938188  0.879050  1
  P  P11  1  0.992780  0.139278  0.579456  1
  O  O12  1  0.976243  0.059709  0.764893  1
  O  O13  1  0.932284  0.469620  0.928122  1
  O  O14  1  0.950142  0.039385  0.422420  1
  O  O15  1  0.961469  0.292027  0.191785  1
  O  O16  1  0.835183  0.260461  0.599382  1
  O  O17  1  0.816854  0.715497  0.430994  1
  O  O18  1  0.682925  0.471513  0.162928  1
  O  O19  1  0.682187  0.727088  0.030066  1
  O  O20  1  0.530723  0.222034  0.410688  1
  O  O21  1  0.556800  0.149332  0.737024  1
  O  O22  1  0.595674  0.055127  0.050039  1
  O  O23  1  0.564675  0.420856  0.654807  1
  O  O24  1  0.435325  0.920856  0.345193  1
  O  O25  1  0.404326  0.555127  0.949961  1
  O  O26  1  0.443200  0.649332  0.262976  1
  O  O27  1  0.469277  0.722034  0.589312  1
  O  O28  1  0.317813  0.227088  0.969934  1
  O  O29  1  0.317075  0.971513  0.837072  1
  O  O30  1  0.183146  0.215497  0.569006  1
  O  O31  1  0.164817  0.760461  0.400618  1
  O  O32  1  0.038531  0.792027  0.808215  1
  O  O33  1  0.049858  0.539385  0.577580  1
  O  O34  1  0.067716  0.969620  0.071878  1
  O  O35  1  0.023757  0.559709  0.235107  1
