# generated using pymatgen
data_Na2NiAsCO7
_symmetry_space_group_name_H-M   'P 1'
_cell_length_a   5.28103077
_cell_length_b   6.71199494
_cell_length_c   9.11720063
_cell_angle_alpha   90.00000000
_cell_angle_beta   92.42513975
_cell_angle_gamma   90.00000000
_symmetry_Int_Tables_number   1
_chemical_formula_structural   Na2NiAsCO7
_chemical_formula_sum   'Na4 Ni2 As2 C2 O14'
_cell_volume   322.88114463
_cell_formula_units_Z   2
loop_
 _symmetry_equiv_pos_site_id
 _symmetry_equiv_pos_as_xyz
  1  'x, y, z'
loop_
 _atom_site_type_symbol
 _atom_site_label
 _atom_site_symmetry_multiplicity
 _atom_site_fract_x
 _atom_site_fract_y
 _atom_site_fract_z
 _atom_site_occupancy
  Na  Na0  1  0.767242  0.504737  0.232854  1
  Na  Na1  1  0.767242  0.995263  0.232854  1
  Na  Na2  1  0.232758  0.495263  0.767146  1
  Na  Na3  1  0.232758  0.004737  0.767146  1
  Ni  Ni4  1  0.214409  0.250000  0.347333  1
  Ni  Ni5  1  0.785591  0.750000  0.652667  1
  As  As6  1  0.290463  0.750000  0.426927  1
  As  As7  1  0.709537  0.250000  0.573073  1
  C  C8  1  0.280541  0.250000  0.077732  1
  C  C9  1  0.719459  0.750000  0.922268  1
  O  O10  1  0.712581  0.750000  0.060073  1
  O  O11  1  0.063017  0.250000  0.141981  1
  O  O12  1  0.476670  0.250000  0.166928  1
  O  O13  1  0.208667  0.950013  0.317702  1
  O  O14  1  0.208667  0.549987  0.317702  1
  O  O15  1  0.845739  0.250000  0.405942  1
  O  O16  1  0.620877  0.750000  0.456333  1
  O  O17  1  0.379123  0.250000  0.543667  1
  O  O18  1  0.154261  0.750000  0.594058  1
  O  O19  1  0.791333  0.450013  0.682298  1
  O  O20  1  0.791333  0.049987  0.682298  1
  O  O21  1  0.523330  0.750000  0.833072  1
  O  O22  1  0.936983  0.750000  0.858019  1
  O  O23  1  0.287419  0.250000  0.939927  1
