# generated using pymatgen
data_Mn(CoO3)2
_symmetry_space_group_name_H-M   'P 1'
_cell_length_a   6.44796848
_cell_length_b   6.44796848
_cell_length_c   5.77149267
_cell_angle_alpha   76.30408911
_cell_angle_beta   103.69591089
_cell_angle_gamma   154.18945407
_symmetry_Int_Tables_number   1
_chemical_formula_structural   Mn(CoO3)2
_chemical_formula_sum   'Mn1 Co2 O6'
_cell_volume   101.34758887
_cell_formula_units_Z   1
loop_
 _symmetry_equiv_pos_site_id
 _symmetry_equiv_pos_as_xyz
  1  'x, y, z'
loop_
 _atom_site_type_symbol
 _atom_site_label
 _atom_site_symmetry_multiplicity
 _atom_site_fract_x
 _atom_site_fract_y
 _atom_site_fract_z
 _atom_site_occupancy
  Mn  Mn0  1  0.000000  1.000000  0.500000  1
  Co  Co1  1  0.331947  0.668053  0.164210  1
  Co  Co2  1  0.668053  0.331947  0.835790  1
  O  O3  1  0.841940  0.158060  0.383302  1
  O  O4  1  0.513260  0.486740  0.727266  1
  O  O5  1  0.178252  0.821748  0.054327  1
  O  O6  1  0.486740  0.513260  0.272734  1
  O  O7  1  0.158060  0.841940  0.616698  1
  O  O8  1  0.821748  0.178252  0.945673  1
