# generated using pymatgen
data_Cs4U3Mo3O20
_symmetry_space_group_name_H-M   'P 1'
_cell_length_a   7.77317339
_cell_length_b   8.05532866
_cell_length_c   9.89088577
_cell_angle_alpha   79.13392568
_cell_angle_beta   82.30435516
_cell_angle_gamma   87.61673596
_symmetry_Int_Tables_number   1
_chemical_formula_structural   Cs4U3Mo3O20
_chemical_formula_sum   'Cs4 U3 Mo3 O20'
_cell_volume   602.65534186
_cell_formula_units_Z   1
loop_
 _symmetry_equiv_pos_site_id
 _symmetry_equiv_pos_as_xyz
  1  'x, y, z'
loop_
 _atom_site_type_symbol
 _atom_site_label
 _atom_site_symmetry_multiplicity
 _atom_site_fract_x
 _atom_site_fract_y
 _atom_site_fract_z
 _atom_site_occupancy
  Cs  Cs0  1  0.361770  0.265481  0.751066  1
  Cs  Cs1  1  0.486732  0.784885  0.039431  1
  Cs  Cs2  1  0.476140  0.252558  0.268660  1
  Cs  Cs3  1  0.686125  0.714178  0.507305  1
  U  U4  1  0.984669  0.534725  0.156694  1
  U  U5  1  0.975712  0.021278  0.145457  1
  U  U6  1  0.012822  0.852072  0.802746  1
  Mo  Mo7  1  0.855278  0.349764  0.883405  1
  Mo  Mo8  1  0.199612  0.725413  0.443110  1
  Mo  Mo9  1  0.913639  0.194809  0.499241  1
  O  O10  1  0.742383  0.971553  0.188178  1
  O  O11  1  0.967591  0.546282  0.905213  1
  O  O12  1  0.686181  0.196212  0.544017  1
  O  O13  1  0.055750  0.736500  0.603967  1
  O  O14  1  0.043444  0.098117  0.635502  1
  O  O15  1  0.991205  0.392811  0.392289  1
  O  O16  1  0.752209  0.577491  0.209685  1
  O  O17  1  0.999914  0.802562  0.031086  1
  O  O18  1  0.210812  0.065265  0.105859  1
  O  O19  1  0.867782  0.387992  0.700428  1
  O  O20  1  0.952281  0.126692  0.907879  1
  O  O21  1  0.347859  0.891356  0.407980  1
  O  O22  1  0.905518  0.292743  0.113979  1
  O  O23  1  0.630060  0.354813  0.937664  1
  O  O24  1  0.218848  0.492925  0.114359  1
  O  O25  1  0.777581  0.855227  0.793485  1
  O  O26  1  0.250412  0.856636  0.797804  1
  O  O27  1  0.072950  0.739117  0.293961  1
  O  O28  1  0.328975  0.539289  0.469560  1
  O  O29  1  0.954216  0.046204  0.381892  1
