# generated using pymatgen
data_P2WO8
_symmetry_space_group_name_H-M   'P 1'
_cell_length_a   5.25589446
_cell_length_b   11.12564996
_cell_length_c   11.25366173
_cell_angle_alpha   90.00000000
_cell_angle_beta   90.00000000
_cell_angle_gamma   90.00000000
_symmetry_Int_Tables_number   1
_chemical_formula_structural   P2WO8
_chemical_formula_sum   'P8 W4 O32'
_cell_volume   658.06059292
_cell_formula_units_Z   4
loop_
 _symmetry_equiv_pos_site_id
 _symmetry_equiv_pos_as_xyz
  1  'x, y, z'
loop_
 _atom_site_type_symbol
 _atom_site_label
 _atom_site_symmetry_multiplicity
 _atom_site_fract_x
 _atom_site_fract_y
 _atom_site_fract_z
 _atom_site_occupancy
  P  P0  1  0.254585  0.095871  0.038979  1
  P  P1  1  0.249707  0.861204  0.155681  1
  P  P2  1  0.750293  0.361204  0.344319  1
  P  P3  1  0.745415  0.595871  0.461021  1
  P  P4  1  0.245415  0.904129  0.538979  1
  P  P5  1  0.250293  0.138796  0.655681  1
  P  P6  1  0.749707  0.638796  0.844319  1
  P  P7  1  0.754585  0.404129  0.961021  1
  W  W8  1  0.249683  0.400830  0.158758  1
  W  W9  1  0.750317  0.900830  0.341242  1
  W  W10  1  0.250317  0.599170  0.658758  1
  W  W11  1  0.749683  0.099170  0.841242  1
  O  O12  1  0.999303  0.436218  0.029539  1
  O  O13  1  0.521446  0.433252  0.039142  1
  O  O14  1  0.232087  0.803674  0.039510  1
  O  O15  1  0.253866  0.222742  0.084405  1
  O  O16  1  0.244760  0.009126  0.150443  1
  O  O17  1  0.245320  0.544774  0.215852  1
  O  O18  1  0.493940  0.836805  0.232893  1
  O  O19  1  0.027371  0.836127  0.246510  1
  O  O20  1  0.972629  0.336127  0.253490  1
  O  O21  1  0.506060  0.336805  0.267107  1
  O  O22  1  0.754680  0.044774  0.284148  1
  O  O23  1  0.755240  0.509126  0.349557  1
  O  O24  1  0.746134  0.722742  0.415595  1
  O  O25  1  0.767913  0.303674  0.460490  1
  O  O26  1  0.478554  0.933252  0.460858  1
  O  O27  1  0.000697  0.936218  0.470461  1
  O  O28  1  0.500697  0.563782  0.529539  1
  O  O29  1  0.978554  0.566748  0.539142  1
  O  O30  1  0.267913  0.196326  0.539510  1
  O  O31  1  0.246134  0.777258  0.584405  1
  O  O32  1  0.255240  0.990874  0.650443  1
  O  O33  1  0.254680  0.455226  0.715852  1
  O  O34  1  0.006060  0.163195  0.732893  1
  O  O35  1  0.472629  0.163873  0.746510  1
  O  O36  1  0.527371  0.663873  0.753490  1
  O  O37  1  0.993940  0.663195  0.767107  1
  O  O38  1  0.745320  0.955226  0.784148  1
  O  O39  1  0.744760  0.490874  0.849557  1
  O  O40  1  0.753866  0.277258  0.915595  1
  O  O41  1  0.732087  0.696326  0.960490  1
  O  O42  1  0.021446  0.066748  0.960858  1
  O  O43  1  0.499303  0.063782  0.970461  1
