# generated using pymatgen
data_LiFe2O2F3
_symmetry_space_group_name_H-M   'P 1'
_cell_length_a   5.32375060
_cell_length_b   5.32375060
_cell_length_c   10.22395616
_cell_angle_alpha   90.00000000
_cell_angle_beta   90.00000000
_cell_angle_gamma   137.76285817
_symmetry_Int_Tables_number   1
_chemical_formula_structural   LiFe2O2F3
_chemical_formula_sum   'Li2 Fe4 O4 F6'
_cell_volume   194.78402061
_cell_formula_units_Z   2
loop_
 _symmetry_equiv_pos_site_id
 _symmetry_equiv_pos_as_xyz
  1  'x, y, z'
loop_
 _atom_site_type_symbol
 _atom_site_label
 _atom_site_symmetry_multiplicity
 _atom_site_fract_x
 _atom_site_fract_y
 _atom_site_fract_z
 _atom_site_occupancy
  Li  Li0  1  0.814849  0.185151  0.250000  1
  Li  Li1  1  0.185151  0.814849  0.750000  1
  Fe  Fe2  1  0.847650  0.152350  0.557298  1
  Fe  Fe3  1  0.847650  0.152350  0.942702  1
  Fe  Fe4  1  0.152350  0.847650  0.057298  1
  Fe  Fe5  1  0.152350  0.847650  0.442702  1
  O  O6  1  0.687220  0.312780  0.436374  1
  O  O7  1  0.687220  0.312780  0.063626  1
  O  O8  1  0.312780  0.687220  0.936374  1
  O  O9  1  0.312780  0.687220  0.563626  1
  F  F10  1  0.959165  0.040835  0.115515  1
  F  F11  1  0.959165  0.040835  0.384485  1
  F  F12  1  0.764560  0.235440  0.750000  1
  F  F13  1  0.235440  0.764560  0.250000  1
  F  F14  1  0.040835  0.959165  0.615515  1
  F  F15  1  0.040835  0.959165  0.884485  1
