# generated using pymatgen
data_LiFe3OF5
_symmetry_space_group_name_H-M   'P 1'
_cell_length_a   5.94209233
_cell_length_b   5.94209233
_cell_length_c   7.60411364
_cell_angle_alpha   71.77960114
_cell_angle_beta   108.22039886
_cell_angle_gamma   107.07642853
_symmetry_Int_Tables_number   1
_chemical_formula_structural   LiFe3OF5
_chemical_formula_sum   'Li2 Fe6 O2 F10'
_cell_volume   236.46278034
_cell_formula_units_Z   2
loop_
 _symmetry_equiv_pos_site_id
 _symmetry_equiv_pos_as_xyz
  1  'x, y, z'
loop_
 _atom_site_type_symbol
 _atom_site_label
 _atom_site_symmetry_multiplicity
 _atom_site_fract_x
 _atom_site_fract_y
 _atom_site_fract_z
 _atom_site_occupancy
  Li  Li0  1  0.363605  0.115571  0.876524  1
  Li  Li1  1  0.884429  0.636395  0.876524  1
  Fe  Fe2  1  0.673664  0.326336  0.176684  1
  Fe  Fe3  1  0.999280  0.000720  0.512833  1
  Fe  Fe4  1  0.336658  0.663342  0.335823  1
  Fe  Fe5  1  0.351865  0.648135  0.827382  1
  Fe  Fe6  1  0.711698  0.288302  0.662432  1
  Fe  Fe7  1  0.957119  0.042881  0.013313  1
  O  O8  1  0.935389  0.064611  0.731834  1
  O  O9  1  0.731005  0.268995  0.953705  1
  F  F10  1  0.700020  0.704637  0.010992  1
  F  F11  1  0.295363  0.299980  0.010992  1
  F  F12  1  0.237979  0.762021  0.021073  1
  F  F13  1  0.572277  0.427723  0.368424  1
  F  F14  1  0.047343  0.376571  0.336951  1
  F  F15  1  0.623429  0.952657  0.336951  1
  F  F16  1  0.097171  0.902829  0.308271  1
  F  F17  1  0.378249  0.012870  0.670654  1
  F  F18  1  0.987130  0.621751  0.670654  1
  F  F19  1  0.451458  0.548542  0.638125  1
