# generated using pymatgen
data_Li4Fe7(PO4)6
_symmetry_space_group_name_H-M   'P 1'
_cell_length_a   8.99864063
_cell_length_b   8.99864063
_cell_length_c   6.51378017
_cell_angle_alpha   80.94844221
_cell_angle_beta   99.05155779
_cell_angle_gamma   76.71612905
_symmetry_Int_Tables_number   1
_chemical_formula_structural   Li4Fe7(PO4)6
_chemical_formula_sum   'Li4 Fe7 P6 O24'
_cell_volume   496.57413034
_cell_formula_units_Z   1
loop_
 _symmetry_equiv_pos_site_id
 _symmetry_equiv_pos_as_xyz
  1  'x, y, z'
loop_
 _atom_site_type_symbol
 _atom_site_label
 _atom_site_symmetry_multiplicity
 _atom_site_fract_x
 _atom_site_fract_y
 _atom_site_fract_z
 _atom_site_occupancy
  Li  Li0  1  0.759592  0.240408  0.535924  1
  Li  Li1  1  0.573198  0.661699  0.472970  1
  Li  Li2  1  0.338301  0.426802  0.472970  1
  Li  Li3  1  0.064902  0.935098  0.446575  1
  Fe  Fe4  1  0.991217  0.642625  0.818828  1
  Fe  Fe5  1  0.357375  0.008783  0.818828  1
  Fe  Fe6  1  0.639726  0.646912  0.984503  1
  Fe  Fe7  1  0.353088  0.360274  0.984503  1
  Fe  Fe8  1  0.993681  0.006319  0.990007  1
  Fe  Fe9  1  0.642623  0.994523  0.190287  1
  Fe  Fe10  1  0.005477  0.357377  0.190287  1
  P  P11  1  0.282511  0.102849  0.290639  1
  P  P12  1  0.897151  0.717489  0.290639  1
  P  P13  1  0.673649  0.326351  0.927398  1
  P  P14  1  0.311586  0.688414  0.082820  1
  P  P15  1  0.711440  0.914257  0.706502  1
  P  P16  1  0.085743  0.288560  0.706502  1
  O  O17  1  0.582585  0.240082  0.073208  1
  O  O18  1  0.759918  0.417415  0.073208  1
  O  O19  1  0.792174  0.207826  0.847275  1
  O  O20  1  0.956600  0.616597  0.131869  1
  O  O21  1  0.383403  0.043400  0.131869  1
  O  O22  1  0.894397  0.895420  0.231175  1
  O  O23  1  0.104580  0.105602  0.231175  1
  O  O24  1  0.718897  0.721596  0.272030  1
  O  O25  1  0.278404  0.281103  0.272030  1
  O  O26  1  0.554248  0.445752  0.745386  1
  O  O27  1  0.419624  0.580376  0.285569  1
  O  O28  1  0.111865  0.108654  0.781644  1
  O  O29  1  0.891346  0.888135  0.781644  1
  O  O30  1  0.252645  0.310854  0.693386  1
  O  O31  1  0.689146  0.747355  0.693386  1
  O  O32  1  0.665300  0.034624  0.494410  1
  O  O33  1  0.965376  0.334700  0.494410  1
  O  O34  1  0.185081  0.814919  0.130935  1
  O  O35  1  0.614044  0.971982  0.869928  1
  O  O36  1  0.028018  0.385956  0.869928  1
  O  O37  1  0.414238  0.764703  0.944596  1
  O  O38  1  0.235297  0.585762  0.944596  1
  O  O39  1  0.345444  0.998897  0.510916  1
  O  O40  1  0.001103  0.654556  0.510916  1
