# generated using pymatgen
data_Li2MnV(PO4)3
_symmetry_space_group_name_H-M   'P 1'
_cell_length_a   8.22387557
_cell_length_b   8.41617071
_cell_length_c   8.88430530
_cell_angle_alpha   117.58026741
_cell_angle_beta   90.29570510
_cell_angle_gamma   118.29393239
_symmetry_Int_Tables_number   1
_chemical_formula_structural   Li2MnV(PO4)3
_chemical_formula_sum   'Li4 Mn2 V2 P6 O24'
_cell_volume   459.61555444
_cell_formula_units_Z   2
loop_
 _symmetry_equiv_pos_site_id
 _symmetry_equiv_pos_as_xyz
  1  'x, y, z'
loop_
 _atom_site_type_symbol
 _atom_site_label
 _atom_site_symmetry_multiplicity
 _atom_site_fract_x
 _atom_site_fract_y
 _atom_site_fract_z
 _atom_site_occupancy
  Li  Li0  1  0.915295  0.732314  0.858807  1
  Li  Li1  1  0.671763  0.067714  0.867818  1
  Li  Li2  1  0.328237  0.932286  0.132182  1
  Li  Li3  1  0.084705  0.267686  0.141193  1
  Mn  Mn4  1  0.649333  0.354331  0.948748  1
  Mn  Mn5  1  0.350667  0.645669  0.051252  1
  V  V6  1  0.144405  0.847114  0.436445  1
  V  V7  1  0.855595  0.152886  0.563555  1
  P  P8  1  0.246757  0.030970  0.745181  1
  P  P9  1  0.961510  0.454622  0.753928  1
  P  P10  1  0.534838  0.748907  0.751381  1
  P  P11  1  0.465162  0.251093  0.248619  1
  P  P12  1  0.038490  0.545378  0.246072  1
  P  P13  1  0.753243  0.969030  0.254819  1
  O  O14  1  0.205262  0.839042  0.908610  1
  O  O15  1  0.097452  0.117751  0.711873  1
  O  O16  1  0.454251  0.159096  0.794785  1
  O  O17  1  0.818450  0.495276  0.791138  1
  O  O18  1  0.142314  0.445342  0.912476  1
  O  O19  1  0.512820  0.791000  0.891934  1
  O  O20  1  0.194655  0.988166  0.578731  1
  O  O21  1  0.859405  0.256315  0.725320  1
  O  O22  1  0.008428  0.612320  0.583901  1
  O  O23  1  0.512549  0.541236  0.802293  1
  O  O24  1  0.737693  0.887914  0.730335  1
  O  O25  1  0.381457  0.804990  0.572387  1
  O  O26  1  0.618543  0.195010  0.427613  1
  O  O27  1  0.262307  0.112086  0.269665  1
  O  O28  1  0.487451  0.458764  0.197707  1
  O  O29  1  0.991572  0.387680  0.416099  1
  O  O30  1  0.140595  0.743685  0.274680  1
  O  O31  1  0.805345  0.011834  0.421269  1
  O  O32  1  0.487180  0.209000  0.108066  1
  O  O33  1  0.857686  0.554658  0.087524  1
  O  O34  1  0.181550  0.504724  0.208862  1
  O  O35  1  0.545749  0.840904  0.205215  1
  O  O36  1  0.902548  0.882249  0.288127  1
  O  O37  1  0.794738  0.160958  0.091390  1
