# generated using pymatgen
data_Li4Ti2V3Ni3O16
_symmetry_space_group_name_H-M   'P 1'
_cell_length_a   5.86395704
_cell_length_b   5.89264094
_cell_length_c   9.60855577
_cell_angle_alpha   90.50351032
_cell_angle_beta   90.03819498
_cell_angle_gamma   119.74600246
_symmetry_Int_Tables_number   1
_chemical_formula_structural   Li4Ti2V3Ni3O16
_chemical_formula_sum   'Li4 Ti2 V3 Ni3 O16'
_cell_volume   288.25133691
_cell_formula_units_Z   1
loop_
 _symmetry_equiv_pos_site_id
 _symmetry_equiv_pos_as_xyz
  1  'x, y, z'
loop_
 _atom_site_type_symbol
 _atom_site_label
 _atom_site_symmetry_multiplicity
 _atom_site_fract_x
 _atom_site_fract_y
 _atom_site_fract_z
 _atom_site_occupancy
  Li  Li0  1  0.341238  0.682769  0.103992  1
  Li  Li1  1  0.005604  0.001680  0.011265  1
  Li  Li2  1  0.997886  0.995480  0.502006  1
  Li  Li3  1  0.660374  0.336882  0.595549  1
  Ti  Ti4  1  0.334814  0.664372  0.489723  1
  Ti  Ti5  1  0.640379  0.287199  0.009976  1
  V  V6  1  0.167623  0.811400  0.773125  1
  V  V7  1  0.660634  0.812839  0.787545  1
  V  V8  1  0.822886  0.639079  0.265099  1
  Ni  Ni9  1  0.169490  0.336162  0.794265  1
  Ni  Ni10  1  0.338593  0.168806  0.291780  1
  Ni  Ni11  1  0.830362  0.168497  0.292007  1
  O  O12  1  0.163209  0.819903  0.405031  1
  O  O13  1  0.468536  0.970799  0.669345  1
  O  O14  1  0.331225  0.692781  0.897414  1
  O  O15  1  0.005710  0.986774  0.694824  1
  O  O16  1  0.986523  0.972857  0.200360  1
  O  O17  1  0.657630  0.822915  0.405528  1
  O  O18  1  0.032480  0.531431  0.664680  1
  O  O19  1  0.499115  0.545364  0.665522  1
  O  O20  1  0.843796  0.673447  0.895838  1
  O  O21  1  0.169804  0.337791  0.413715  1
  O  O22  1  0.535158  0.504330  0.154995  1
  O  O23  1  0.971496  0.502519  0.156043  1
  O  O24  1  0.687710  0.376010  0.393665  1
  O  O25  1  0.334520  0.162131  0.907017  1
  O  O26  1  0.524649  0.048418  0.149736  1
  O  O27  1  0.818259  0.147364  0.902113  1
