# generated using pymatgen
data_K2ZrSi3(HO5)2
_symmetry_space_group_name_H-M   'P 1'
_cell_length_a   7.29170516
_cell_length_b   10.44431219
_cell_length_c   13.50854476
_cell_angle_alpha   90.00000000
_cell_angle_beta   90.00000000
_cell_angle_gamma   90.00000000
_symmetry_Int_Tables_number   1
_chemical_formula_structural   K2ZrSi3(HO5)2
_chemical_formula_sum   'K8 Zr4 Si12 H8 O40'
_cell_volume   1028.76815066
_cell_formula_units_Z   4
loop_
 _symmetry_equiv_pos_site_id
 _symmetry_equiv_pos_as_xyz
  1  'x, y, z'
loop_
 _atom_site_type_symbol
 _atom_site_label
 _atom_site_symmetry_multiplicity
 _atom_site_fract_x
 _atom_site_fract_y
 _atom_site_fract_z
 _atom_site_occupancy
  K  K0  1  0.778252  0.929344  0.077644  1
  K  K1  1  0.278252  0.570656  0.922356  1
  K  K2  1  0.221748  0.429344  0.422356  1
  K  K3  1  0.721748  0.070656  0.577644  1
  K  K4  1  0.859204  0.781520  0.368542  1
  K  K5  1  0.359204  0.718480  0.631458  1
  K  K6  1  0.140796  0.281520  0.131458  1
  K  K7  1  0.640796  0.218480  0.868542  1
  Zr  Zr8  1  0.239867  0.947620  0.207146  1
  Zr  Zr9  1  0.739867  0.552380  0.792854  1
  Zr  Zr10  1  0.760133  0.447620  0.292854  1
  Zr  Zr11  1  0.260133  0.052380  0.707146  1
  Si  Si12  1  0.270371  0.968698  0.948427  1
  Si  Si13  1  0.770371  0.531302  0.051573  1
  Si  Si14  1  0.729629  0.468698  0.551573  1
  Si  Si15  1  0.229629  0.031302  0.448427  1
  Si  Si16  1  0.994946  0.826876  0.825915  1
  Si  Si17  1  0.494946  0.673124  0.174085  1
  Si  Si18  1  0.005054  0.326876  0.674085  1
  Si  Si19  1  0.505054  0.173124  0.325915  1
  Si  Si20  1  0.582806  0.863572  0.832609  1
  Si  Si21  1  0.082806  0.636428  0.167391  1
  Si  Si22  1  0.417194  0.363572  0.667391  1
  Si  Si23  1  0.917194  0.136428  0.332609  1
  H  H24  1  0.829167  0.728917  0.591499  1
  H  H25  1  0.329167  0.771083  0.408501  1
  H  H26  1  0.170833  0.228917  0.908501  1
  H  H27  1  0.670833  0.271083  0.091499  1
  H  H28  1  0.959283  0.842885  0.619737  1
  H  H29  1  0.459283  0.657115  0.380263  1
  H  H30  1  0.040717  0.342885  0.880263  1
  H  H31  1  0.540717  0.157115  0.119737  1
  O  O32  1  0.253732  0.918613  0.365499  1
  O  O33  1  0.753732  0.581387  0.634501  1
  O  O34  1  0.746268  0.418613  0.134501  1
  O  O35  1  0.246268  0.081387  0.865499  1
  O  O36  1  0.088475  0.888956  0.727597  1
  O  O37  1  0.588475  0.611044  0.272403  1
  O  O38  1  0.911525  0.388956  0.772403  1
  O  O39  1  0.411525  0.111044  0.227597  1
  O  O40  1  0.500407  0.943471  0.739376  1
  O  O41  1  0.000407  0.556529  0.260624  1
  O  O42  1  0.499593  0.443471  0.760624  1
  O  O43  1  0.999593  0.056529  0.239376  1
  O  O44  1  0.227874  0.013265  0.060516  1
  O  O45  1  0.727874  0.486735  0.939484  1
  O  O46  1  0.772126  0.513265  0.439484  1
  O  O47  1  0.272126  0.986735  0.560516  1
  O  O48  1  0.130676  0.847407  0.922402  1
  O  O49  1  0.630676  0.652593  0.077598  1
  O  O50  1  0.869324  0.347407  0.577598  1
  O  O51  1  0.369324  0.152593  0.422402  1
  O  O52  1  0.062029  0.790002  0.184821  1
  O  O53  1  0.562029  0.709998  0.815179  1
  O  O54  1  0.937971  0.290002  0.315179  1
  O  O55  1  0.437971  0.209998  0.684821  1
  O  O56  1  0.800342  0.901848  0.853038  1
  O  O57  1  0.300342  0.598152  0.146962  1
  O  O58  1  0.199658  0.401848  0.646962  1
  O  O59  1  0.699658  0.098152  0.353038  1
  O  O60  1  0.482237  0.910706  0.937176  1
  O  O61  1  0.982237  0.589294  0.062824  1
  O  O62  1  0.517763  0.410706  0.562824  1
  O  O63  1  0.017763  0.089294  0.437176  1
  O  O64  1  0.461166  0.825699  0.186502  1
  O  O65  1  0.961166  0.674301  0.813498  1
  O  O66  1  0.538834  0.325699  0.313498  1
  O  O67  1  0.038834  0.174301  0.686502  1
  O  O68  1  0.874165  0.813613  0.566928  1
  O  O69  1  0.374165  0.686387  0.433072  1
  O  O70  1  0.125835  0.313613  0.933072  1
  O  O71  1  0.625835  0.186387  0.066928  1
