# generated using pymatgen
data_Li3Mn2(SiO4)2
_symmetry_space_group_name_H-M   'P 1'
_cell_length_a   5.08299667
_cell_length_b   10.77408166
_cell_length_c   6.36313271
_cell_angle_alpha   90.00000000
_cell_angle_beta   90.32126138
_cell_angle_gamma   90.00000000
_symmetry_Int_Tables_number   1
_chemical_formula_structural   Li3Mn2(SiO4)2
_chemical_formula_sum   'Li6 Mn4 Si4 O16'
_cell_volume   348.46907460
_cell_formula_units_Z   2
loop_
 _symmetry_equiv_pos_site_id
 _symmetry_equiv_pos_as_xyz
  1  'x, y, z'
loop_
 _atom_site_type_symbol
 _atom_site_label
 _atom_site_symmetry_multiplicity
 _atom_site_fract_x
 _atom_site_fract_y
 _atom_site_fract_z
 _atom_site_occupancy
  Li  Li0  1  0.571830  0.912848  0.246786  1
  Li  Li1  1  0.428170  0.412848  0.753214  1
  Li  Li2  1  0.917512  0.082014  0.750450  1
  Li  Li3  1  0.066154  0.588546  0.750324  1
  Li  Li4  1  0.082488  0.582015  0.249550  1
  Li  Li5  1  0.933846  0.088546  0.249676  1
  Mn  Mn6  1  0.434962  0.159532  0.504370  1
  Mn  Mn7  1  0.565038  0.659532  0.495630  1
  Mn  Mn8  1  0.918643  0.342892  0.010777  1
  Mn  Mn9  1  0.081357  0.842892  0.989223  1
  Si  Si10  1  0.080908  0.832736  0.492925  1
  Si  Si11  1  0.919092  0.332736  0.507075  1
  Si  Si12  1  0.581401  0.669190  0.000636  1
  Si  Si13  1  0.418599  0.169190  0.999364  1
  O  O14  1  0.996455  0.409254  0.294876  1
  O  O15  1  0.969489  0.906152  0.281189  1
  O  O16  1  0.405834  0.823810  0.476013  1
  O  O17  1  0.030071  0.187319  0.500242  1
  O  O18  1  0.969929  0.687319  0.499758  1
  O  O19  1  0.594166  0.323810  0.523987  1
  O  O20  1  0.003545  0.909254  0.705124  1
  O  O21  1  0.030511  0.406152  0.718811  1
  O  O22  1  0.528495  0.099671  0.784112  1
  O  O23  1  0.468318  0.596729  0.786384  1
  O  O24  1  0.473616  0.812998  0.004672  1
  O  O25  1  0.906188  0.664931  0.998665  1
  O  O26  1  0.526384  0.312998  0.995328  1
  O  O27  1  0.093812  0.164931  0.001335  1
  O  O28  1  0.471505  0.599671  0.215888  1
  O  O29  1  0.531682  0.096729  0.213616  1
