# generated using pymatgen
data_Sn2N2O
_symmetry_space_group_name_H-M   'P 1'
_cell_length_a   6.45457819
_cell_length_b   6.45457819
_cell_length_c   15.80929768
_cell_angle_alpha   90.00000000
_cell_angle_beta   90.00000000
_cell_angle_gamma   120.00000000
_symmetry_Int_Tables_number   1
_chemical_formula_structural   Sn2N2O
_chemical_formula_sum   'Sn16 N16 O8'
_cell_volume   570.39924325
_cell_formula_units_Z   8
loop_
 _symmetry_equiv_pos_site_id
 _symmetry_equiv_pos_as_xyz
  1  'x, y, z'
loop_
 _atom_site_type_symbol
 _atom_site_label
 _atom_site_symmetry_multiplicity
 _atom_site_fract_x
 _atom_site_fract_y
 _atom_site_fract_z
 _atom_site_occupancy
  Sn  Sn0  1  0.666667  0.333333  0.955071  1
  Sn  Sn1  1  0.666667  0.333333  0.331378  1
  Sn  Sn2  1  0.500000  0.000000  0.500000  1
  Sn  Sn3  1  0.831900  0.168100  0.165215  1
  Sn  Sn4  1  0.663801  0.831900  0.834785  1
  Sn  Sn5  1  0.168100  0.336199  0.834785  1
  Sn  Sn6  1  0.000000  0.000000  0.628678  1
  Sn  Sn7  1  0.500000  0.500000  0.500000  1
  Sn  Sn8  1  0.000000  0.000000  0.371322  1
  Sn  Sn9  1  0.000000  0.000000  0.000000  1
  Sn  Sn10  1  0.831900  0.663801  0.165215  1
  Sn  Sn11  1  0.336199  0.168100  0.165215  1
  Sn  Sn12  1  0.168100  0.831900  0.834785  1
  Sn  Sn13  1  0.000000  0.500000  0.500000  1
  Sn  Sn14  1  0.333333  0.666667  0.668622  1
  Sn  Sn15  1  0.333333  0.666667  0.044929  1
  N  N16  1  0.666667  0.333333  0.088559  1
  N  N17  1  0.821501  0.178499  0.417621  1
  N  N18  1  0.845256  0.154744  0.912703  1
  N  N19  1  0.178499  0.356998  0.582379  1
  N  N20  1  0.643002  0.821501  0.582379  1
  N  N21  1  0.690513  0.845256  0.087297  1
  N  N22  1  0.154744  0.309487  0.087297  1
  N  N23  1  0.000000  0.000000  0.761387  1
  N  N24  1  0.000000  0.000000  0.238613  1
  N  N25  1  0.845256  0.690513  0.912703  1
  N  N26  1  0.309487  0.154744  0.912703  1
  N  N27  1  0.821501  0.643002  0.417621  1
  N  N28  1  0.356998  0.178499  0.417621  1
  N  N29  1  0.154744  0.845256  0.087297  1
  N  N30  1  0.178499  0.821501  0.582379  1
  N  N31  1  0.333333  0.666667  0.911441  1
  O  O32  1  0.523194  0.476806  0.242491  1
  O  O33  1  0.666667  0.333333  0.563660  1
  O  O34  1  0.523194  0.046389  0.242491  1
  O  O35  1  0.953611  0.476806  0.242491  1
  O  O36  1  0.046389  0.523194  0.757509  1
  O  O37  1  0.476806  0.953611  0.757509  1
  O  O38  1  0.333333  0.666667  0.436340  1
  O  O39  1  0.476806  0.523194  0.757509  1
