# generated using pymatgen
data_Li3Co13O16
_symmetry_space_group_name_H-M   'P 1'
_cell_length_a   5.16086881
_cell_length_b   5.16629281
_cell_length_c   11.58274376
_cell_angle_alpha   85.86105176
_cell_angle_beta   81.52087254
_cell_angle_gamma   80.71439251
_symmetry_Int_Tables_number   1
_chemical_formula_structural   Li3Co13O16
_chemical_formula_sum   'Li3 Co13 O16'
_cell_volume   301.07693645
_cell_formula_units_Z   1
loop_
 _symmetry_equiv_pos_site_id
 _symmetry_equiv_pos_as_xyz
  1  'x, y, z'
loop_
 _atom_site_type_symbol
 _atom_site_label
 _atom_site_symmetry_multiplicity
 _atom_site_fract_x
 _atom_site_fract_y
 _atom_site_fract_z
 _atom_site_occupancy
  Li  Li0  1  0.000000  0.500000  0.000000  1
  Li  Li1  1  0.811042  0.250366  0.687754  1
  Li  Li2  1  0.188958  0.749634  0.312246  1
  Co  Co3  1  0.753368  0.504422  0.248917  1
  Co  Co4  1  0.566003  0.254037  0.937376  1
  Co  Co5  1  0.500000  0.500000  0.500000  1
  Co  Co6  1  0.881040  0.996236  0.123935  1
  Co  Co7  1  0.309080  0.252262  0.187733  1
  Co  Co8  1  0.065490  0.248773  0.436592  1
  Co  Co9  1  0.246632  0.495578  0.751083  1
  Co  Co10  1  0.118960  0.003764  0.876065  1
  Co  Co11  1  0.625926  0.995926  0.373707  1
  Co  Co12  1  0.433997  0.745963  0.062624  1
  Co  Co13  1  0.374074  0.004074  0.626293  1
  Co  Co14  1  0.934510  0.751227  0.563408  1
  Co  Co15  1  0.690920  0.747738  0.812267  1
  O  O16  1  0.348278  0.631360  0.904633  1
  O  O17  1  0.840222  0.621533  0.407465  1
  O  O18  1  0.093964  0.624791  0.155663  1
  O  O19  1  0.906036  0.375209  0.844337  1
  O  O20  1  0.965873  0.133661  0.279729  1
  O  O21  1  0.225982  0.119171  0.030647  1
  O  O22  1  0.719682  0.122810  0.527352  1
  O  O23  1  0.586715  0.634042  0.657169  1
  O  O24  1  0.774018  0.880829  0.969353  1
  O  O25  1  0.159778  0.378467  0.592535  1
  O  O26  1  0.651722  0.368640  0.095367  1
  O  O27  1  0.413285  0.365958  0.342831  1
  O  O28  1  0.464208  0.121299  0.784094  1
  O  O29  1  0.280318  0.877190  0.472648  1
  O  O30  1  0.535792  0.878701  0.215906  1
  O  O31  1  0.034127  0.866339  0.720271  1
