# generated using pymatgen
data_Dy(BiO2)3
_symmetry_space_group_name_H-M   'P 1'
_cell_length_a   7.00729651
_cell_length_b   7.00729651
_cell_length_c   7.00729651
_cell_angle_alpha   92.75440492
_cell_angle_beta   92.75440492
_cell_angle_gamma   92.75440492
_symmetry_Int_Tables_number   1
_chemical_formula_structural   Dy(BiO2)3
_chemical_formula_sum   'Dy2 Bi6 O12'
_cell_volume   342.84147503
_cell_formula_units_Z   2
loop_
 _symmetry_equiv_pos_site_id
 _symmetry_equiv_pos_as_xyz
  1  'x, y, z'
loop_
 _atom_site_type_symbol
 _atom_site_label
 _atom_site_symmetry_multiplicity
 _atom_site_fract_x
 _atom_site_fract_y
 _atom_site_fract_z
 _atom_site_occupancy
  Dy  Dy0  1  0.000000  0.000000  0.000000  1
  Dy  Dy1  1  0.500000  0.500000  0.500000  1
  Bi  Bi2  1  0.250573  0.553379  0.068145  1
  Bi  Bi3  1  0.553379  0.068145  0.250573  1
  Bi  Bi4  1  0.931855  0.749427  0.446621  1
  Bi  Bi5  1  0.068145  0.250573  0.553379  1
  Bi  Bi6  1  0.446621  0.931855  0.749427  1
  Bi  Bi7  1  0.749427  0.446621  0.931855  1
  O  O8  1  0.925033  0.691548  0.072575  1
  O  O9  1  0.308452  0.927425  0.074967  1
  O  O10  1  0.526193  0.400237  0.187872  1
  O  O11  1  0.927425  0.074967  0.308452  1
  O  O12  1  0.187872  0.526193  0.400237  1
  O  O13  1  0.599763  0.812128  0.473807  1
  O  O14  1  0.400237  0.187872  0.526193  1
  O  O15  1  0.812128  0.473807  0.599763  1
  O  O16  1  0.072575  0.925033  0.691548  1
  O  O17  1  0.473807  0.599763  0.812128  1
  O  O18  1  0.691548  0.072575  0.925033  1
  O  O19  1  0.074967  0.308452  0.927425  1
