# generated using pymatgen
data_LiFeSi3O8
_symmetry_space_group_name_H-M   'P 1'
_cell_length_a   7.78626662
_cell_length_b   7.78626662
_cell_length_c   12.94013376
_cell_angle_alpha   87.45739280
_cell_angle_beta   92.54260720
_cell_angle_gamma   61.65250341
_symmetry_Int_Tables_number   1
_chemical_formula_structural   LiFeSi3O8
_chemical_formula_sum   'Li4 Fe4 Si12 O32'
_cell_volume   687.84074050
_cell_formula_units_Z   4
loop_
 _symmetry_equiv_pos_site_id
 _symmetry_equiv_pos_as_xyz
  1  'x, y, z'
loop_
 _atom_site_type_symbol
 _atom_site_label
 _atom_site_symmetry_multiplicity
 _atom_site_fract_x
 _atom_site_fract_y
 _atom_site_fract_z
 _atom_site_occupancy
  Li  Li0  1  0.695288  0.807238  0.427660  1
  Li  Li1  1  0.807238  0.695288  0.072340  1
  Li  Li2  1  0.192762  0.304712  0.927660  1
  Li  Li3  1  0.304712  0.192762  0.572340  1
  Fe  Fe4  1  0.389671  0.890662  0.166248  1
  Fe  Fe5  1  0.109338  0.610329  0.666248  1
  Fe  Fe6  1  0.890662  0.389671  0.333752  1
  Fe  Fe7  1  0.610329  0.109338  0.833752  1
  Si  Si8  1  0.611915  0.128784  0.163127  1
  Si  Si9  1  0.930271  0.246246  0.103288  1
  Si  Si10  1  0.281314  0.556932  0.114159  1
  Si  Si11  1  0.556932  0.281314  0.385841  1
  Si  Si12  1  0.246246  0.930271  0.396712  1
  Si  Si13  1  0.871216  0.388085  0.663127  1
  Si  Si14  1  0.128784  0.611915  0.336873  1
  Si  Si15  1  0.443068  0.718686  0.614159  1
  Si  Si16  1  0.753754  0.069729  0.603288  1
  Si  Si17  1  0.069729  0.753754  0.896712  1
  Si  Si18  1  0.718686  0.443068  0.885841  1
  Si  Si19  1  0.388085  0.871216  0.836873  1
  O  O20  1  0.160234  0.093678  0.101988  1
  O  O21  1  0.409399  0.318342  0.113626  1
  O  O22  1  0.408438  0.881295  0.312093  1
  O  O23  1  0.620342  0.136451  0.289815  1
  O  O24  1  0.608256  0.929354  0.131711  1
  O  O25  1  0.422737  0.655347  0.116908  1
  O  O26  1  0.804107  0.128673  0.117804  1
  O  O27  1  0.681658  0.590601  0.613626  1
  O  O28  1  0.906322  0.839766  0.601988  1
  O  O29  1  0.128673  0.804107  0.382196  1
  O  O30  1  0.655347  0.422737  0.383092  1
  O  O31  1  0.118705  0.591562  0.812093  1
  O  O32  1  0.863549  0.379658  0.789815  1
  O  O33  1  0.929354  0.608256  0.368289  1
  O  O34  1  0.621792  0.127466  0.489795  1
  O  O35  1  0.378208  0.872534  0.510205  1
  O  O36  1  0.070646  0.391744  0.631711  1
  O  O37  1  0.881295  0.408438  0.187907  1
  O  O38  1  0.136451  0.620342  0.210185  1
  O  O39  1  0.871327  0.195893  0.617804  1
  O  O40  1  0.344653  0.577263  0.616908  1
  O  O41  1  0.093678  0.160234  0.398012  1
  O  O42  1  0.318342  0.409399  0.386374  1
  O  O43  1  0.577263  0.344653  0.883092  1
  O  O44  1  0.195893  0.871327  0.882196  1
  O  O45  1  0.391744  0.070646  0.868289  1
  O  O46  1  0.127466  0.621792  0.010205  1
  O  O47  1  0.872535  0.378208  0.989795  1
  O  O48  1  0.591562  0.118705  0.687907  1
  O  O49  1  0.379658  0.863549  0.710185  1
  O  O50  1  0.590601  0.681658  0.886374  1
  O  O51  1  0.839766  0.906322  0.898012  1
