# generated using pymatgen
data_V6F13
_symmetry_space_group_name_H-M   'P 1'
_cell_length_a   8.12772033
_cell_length_b   8.17500612
_cell_length_c   10.58374002
_cell_angle_alpha   72.19743436
_cell_angle_beta   75.68331388
_cell_angle_gamma   61.91100141
_symmetry_Int_Tables_number   1
_chemical_formula_structural   V6F13
_chemical_formula_sum   'V12 F26'
_cell_volume   586.20607494
_cell_formula_units_Z   2
loop_
 _symmetry_equiv_pos_site_id
 _symmetry_equiv_pos_as_xyz
  1  'x, y, z'
loop_
 _atom_site_type_symbol
 _atom_site_label
 _atom_site_symmetry_multiplicity
 _atom_site_fract_x
 _atom_site_fract_y
 _atom_site_fract_z
 _atom_site_occupancy
  V  V0  1  0.955129  0.926253  0.754280  1
  V  V1  1  0.865656  0.719999  0.498161  1
  V  V2  1  0.781232  0.575083  0.977850  1
  V  V3  1  0.420111  0.844530  0.498034  1
  V  V4  1  0.678062  0.367583  0.751438  1
  V  V5  1  0.758587  0.502695  0.272234  1
  V  V6  1  0.241413  0.497305  0.727766  1
  V  V7  1  0.321938  0.632417  0.248562  1
  V  V8  1  0.579889  0.155470  0.501966  1
  V  V9  1  0.218768  0.424917  0.022150  1
  V  V10  1  0.134344  0.280001  0.501839  1
  V  V11  1  0.044871  0.073747  0.245720  1
  F  F12  1  0.837459  0.995039  0.386074  1
  F  F13  1  0.764993  0.830699  0.870016  1
  F  F14  1  0.603374  0.876634  0.598295  1
  F  F15  1  0.685588  0.705025  0.387198  1
  F  F16  1  0.632464  0.543847  0.864443  1
  F  F17  1  0.259339  0.838419  0.362117  1
  F  F18  1  0.884549  0.445131  0.613804  1
  F  F19  1  0.170408  0.686706  0.855712  1
  F  F20  1  0.947639  0.578240  0.115234  1
  F  F21  1  0.466087  0.571549  0.624195  1
  F  F22  1  0.553697  0.682238  0.138837  1
  F  F23  1  0.120707  0.860631  0.149866  1
  F  F24  1  0.021960  0.731263  0.628755  1
  F  F25  1  0.978040  0.268737  0.371245  1
  F  F26  1  0.879293  0.139369  0.850134  1
  F  F27  1  0.446303  0.317762  0.861163  1
  F  F28  1  0.533913  0.428451  0.375805  1
  F  F29  1  0.052361  0.421760  0.884766  1
  F  F30  1  0.829592  0.313294  0.144288  1
  F  F31  1  0.115451  0.554869  0.386196  1
  F  F32  1  0.740661  0.161581  0.637883  1
  F  F33  1  0.367536  0.456153  0.135557  1
  F  F34  1  0.314412  0.294975  0.612802  1
  F  F35  1  0.396626  0.123366  0.401705  1
  F  F36  1  0.235007  0.169301  0.129984  1
  F  F37  1  0.162541  0.004961  0.613926  1
