# generated using pymatgen
data_Li4V3Co3(SnO8)2
_symmetry_space_group_name_H-M   'P 1'
_cell_length_a   5.96032612
_cell_length_b   5.96987832
_cell_length_c   9.72144463
_cell_angle_alpha   89.13666573
_cell_angle_beta   89.21490966
_cell_angle_gamma   60.18823875
_symmetry_Int_Tables_number   1
_chemical_formula_structural   Li4V3Co3(SnO8)2
_chemical_formula_sum   'Li4 V3 Co3 Sn2 O16'
_cell_volume   300.09389668
_cell_formula_units_Z   1
loop_
 _symmetry_equiv_pos_site_id
 _symmetry_equiv_pos_as_xyz
  1  'x, y, z'
loop_
 _atom_site_type_symbol
 _atom_site_label
 _atom_site_symmetry_multiplicity
 _atom_site_fract_x
 _atom_site_fract_y
 _atom_site_fract_z
 _atom_site_occupancy
  Li  Li0  1  0.336827  0.329101  0.897357  1
  Li  Li1  1  0.995366  0.002309  0.995548  1
  Li  Li2  1  0.996983  0.997974  0.492967  1
  Li  Li3  1  0.677571  0.667482  0.392316  1
  V  V4  1  0.827079  0.824096  0.720298  1
  V  V5  1  0.657316  0.166246  0.218305  1
  V  V6  1  0.818168  0.340354  0.712682  1
  Co  Co7  1  0.172871  0.656134  0.214880  1
  Co  Co8  1  0.177108  0.164873  0.210270  1
  Co  Co9  1  0.339418  0.830723  0.710389  1
  Sn  Sn10  1  0.319565  0.347113  0.493017  1
  Sn  Sn11  1  0.660350  0.666151  0.995299  1
  O  O12  1  0.155796  0.683396  0.598857  1
  O  O13  1  0.041422  0.491050  0.334173  1
  O  O14  1  0.380746  0.307790  0.099918  1
  O  O15  1  0.970027  0.019136  0.305941  1
  O  O16  1  0.975882  0.999494  0.806813  1
  O  O17  1  0.137793  0.180291  0.601524  1
  O  O18  1  0.483053  0.484741  0.331287  1
  O  O19  1  0.504887  0.039114  0.344527  1
  O  O20  1  0.312634  0.832967  0.098559  1
  O  O21  1  0.668782  0.170650  0.601502  1
  O  O22  1  0.524466  0.961495  0.842755  1
  O  O23  1  0.539494  0.493887  0.833749  1
  O  O24  1  0.697694  0.666503  0.602839  1
  O  O25  1  0.838144  0.837659  0.108659  1
  O  O26  1  0.966971  0.515888  0.840667  1
  O  O27  1  0.823585  0.323678  0.102740  1
