# generated using pymatgen
data_Li2FeSiO4
_symmetry_space_group_name_H-M   'P 1'
_cell_length_a   5.13230196
_cell_length_b   11.03734157
_cell_length_c   6.23237949
_cell_angle_alpha   90.00000000
_cell_angle_beta   91.30707646
_cell_angle_gamma   90.00000000
_symmetry_Int_Tables_number   1
_chemical_formula_structural   Li2FeSiO4
_chemical_formula_sum   'Li8 Fe4 Si4 O16'
_cell_volume   352.95355001
_cell_formula_units_Z   4
loop_
 _symmetry_equiv_pos_site_id
 _symmetry_equiv_pos_as_xyz
  1  'x, y, z'
loop_
 _atom_site_type_symbol
 _atom_site_label
 _atom_site_symmetry_multiplicity
 _atom_site_fract_x
 _atom_site_fract_y
 _atom_site_fract_z
 _atom_site_occupancy
  Li  Li0  1  0.942112  0.656690  0.748279  1
  Li  Li1  1  0.048157  0.926843  0.010972  1
  Li  Li2  1  0.951843  0.426843  0.989028  1
  Li  Li3  1  0.057888  0.156690  0.251721  1
  Li  Li4  1  0.546305  0.569893  0.501533  1
  Li  Li5  1  0.558315  0.339407  0.743208  1
  Li  Li6  1  0.441685  0.839407  0.256792  1
  Li  Li7  1  0.453695  0.069893  0.498467  1
  Fe  Fe8  1  0.551053  0.330846  0.243571  1
  Fe  Fe9  1  0.448947  0.830846  0.756429  1
  Fe  Fe10  1  0.051344  0.166738  0.753088  1
  Fe  Fe11  1  0.948656  0.666738  0.246912  1
  Si  Si12  1  0.056071  0.409145  0.493308  1
  Si  Si13  1  0.943929  0.909145  0.506692  1
  Si  Si14  1  0.557294  0.087388  0.002910  1
  Si  Si15  1  0.442706  0.587388  0.997090  1
  O  O16  1  0.119967  0.584172  0.995241  1
  O  O17  1  0.040451  0.832823  0.723424  1
  O  O18  1  0.045401  0.840551  0.286800  1
  O  O19  1  0.938231  0.547845  0.493631  1
  O  O20  1  0.061769  0.047845  0.506369  1
  O  O21  1  0.954599  0.340551  0.713200  1
  O  O22  1  0.959549  0.332823  0.276576  1
  O  O23  1  0.880033  0.084172  0.004759  1
  O  O24  1  0.621361  0.912255  0.503080  1
  O  O25  1  0.539090  0.664124  0.214417  1
  O  O26  1  0.560137  0.448709  0.997239  1
  O  O27  1  0.455706  0.155779  0.222875  1
  O  O28  1  0.544294  0.655779  0.777125  1
  O  O29  1  0.439863  0.948709  0.002761  1
  O  O30  1  0.460910  0.164124  0.785583  1
  O  O31  1  0.378639  0.412255  0.496920  1
