# generated using pymatgen
data_Na2Li4Ti3Al(PO4)6
_symmetry_space_group_name_H-M   'P 1'
_cell_length_a   8.76411715
_cell_length_b   8.78035317
_cell_length_c   8.78179656
_cell_angle_alpha   60.31344308
_cell_angle_beta   60.12736390
_cell_angle_gamma   60.18779307
_symmetry_Int_Tables_number   1
_chemical_formula_structural   Na2Li4Ti3Al(PO4)6
_chemical_formula_sum   'Na2 Li4 Ti3 Al1 P6 O24'
_cell_volume   480.11107771
_cell_formula_units_Z   1
loop_
 _symmetry_equiv_pos_site_id
 _symmetry_equiv_pos_as_xyz
  1  'x, y, z'
loop_
 _atom_site_type_symbol
 _atom_site_label
 _atom_site_symmetry_multiplicity
 _atom_site_fract_x
 _atom_site_fract_y
 _atom_site_fract_z
 _atom_site_occupancy
  Na  Na0  1  0.987707  0.991124  0.001132  1
  Na  Na1  1  0.504107  0.501293  0.509339  1
  Li  Li2  1  0.746745  0.346999  0.158339  1
  Li  Li3  1  0.252160  0.657984  0.849167  1
  Li  Li4  1  0.251531  0.847526  0.241056  1
  Li  Li5  1  0.251627  0.240267  0.660341  1
  Ti  Ti6  1  0.930681  0.354584  0.362836  1
  Ti  Ti7  1  0.565558  0.138693  0.146973  1
  Ti  Ti8  1  0.054252  0.650521  0.648004  1
  Al  Al9  1  0.449138  0.850435  0.848550  1
  P  P10  1  0.747154  0.460148  0.752544  1
  P  P11  1  0.744648  0.746901  0.043202  1
  P  P12  1  0.745725  0.041795  0.462514  1
  P  P13  1  0.252439  0.959997  0.548065  1
  P  P14  1  0.246113  0.240837  0.963584  1
  P  P15  1  0.257946  0.544109  0.239827  1
  O  O16  1  0.932452  0.702582  0.884231  1
  O  O17  1  0.932284  0.886333  0.481521  1
  O  O18  1  0.933284  0.485032  0.699856  1
  O  O19  1  0.745237  0.284265  0.928239  1
  O  O20  1  0.748063  0.435716  0.590379  1
  O  O21  1  0.572590  0.628669  0.795722  1
  O  O22  1  0.738284  0.907353  0.075749  1
  O  O23  1  0.742589  0.569001  0.216520  1
  O  O24  1  0.741658  0.230514  0.438948  1
  O  O25  1  0.425410  0.987538  0.379778  1
  O  O26  1  0.265782  0.929485  0.734051  1
  O  O27  1  0.415055  0.212463  0.997134  1
  O  O28  1  0.571783  0.799276  0.997597  1
  O  O29  1  0.744795  0.071535  0.273251  1
  O  O30  1  0.571606  0.001761  0.627425  1
  O  O31  1  0.244667  0.770787  0.581136  1
  O  O32  1  0.242349  0.403325  0.774437  1
  O  O33  1  0.263738  0.070138  0.933332  1
  O  O34  1  0.437654  0.377349  0.209690  1
  O  O35  1  0.245365  0.580558  0.403619  1
  O  O36  1  0.268298  0.728763  0.070516  1
  O  O37  1  0.087076  0.512785  0.269267  1
  O  O38  1  0.078249  0.127410  0.522973  1
  O  O39  1  0.064196  0.275150  0.128156  1
