# generated using pymatgen
data_LiMn4(BO3)4
_symmetry_space_group_name_H-M   'P 1'
_cell_length_a   5.32978452
_cell_length_b   5.79137715
_cell_length_c   9.10266019
_cell_angle_alpha   105.91585979
_cell_angle_beta   92.95235332
_cell_angle_gamma   112.19592990
_symmetry_Int_Tables_number   1
_chemical_formula_structural   LiMn4(BO3)4
_chemical_formula_sum   'Li1 Mn4 B4 O12'
_cell_volume   246.35185152
_cell_formula_units_Z   1
loop_
 _symmetry_equiv_pos_site_id
 _symmetry_equiv_pos_as_xyz
  1  'x, y, z'
loop_
 _atom_site_type_symbol
 _atom_site_label
 _atom_site_symmetry_multiplicity
 _atom_site_fract_x
 _atom_site_fract_y
 _atom_site_fract_z
 _atom_site_occupancy
  Li  Li0  1  0.745880  0.522205  0.806135  1
  Mn  Mn1  1  0.746508  0.346407  0.391145  1
  Mn  Mn2  1  0.280576  0.866149  0.889560  1
  Mn  Mn3  1  0.765102  0.150276  0.122001  1
  Mn  Mn4  1  0.226764  0.645189  0.602495  1
  B  B5  1  0.791108  0.700305  0.052740  1
  B  B6  1  0.271555  0.198920  0.535664  1
  B  B7  1  0.711693  0.791277  0.463266  1
  B  B8  1  0.224583  0.307100  0.948299  1
  O  O9  1  0.621927  0.815849  0.076994  1
  O  O10  1  0.094783  0.308947  0.557486  1
  O  O11  1  0.389301  0.311989  0.408289  1
  O  O12  1  0.831222  0.477862  0.168620  1
  O  O13  1  0.299107  0.971603  0.646627  1
  O  O14  1  0.119293  0.201374  0.081628  1
  O  O15  1  0.885337  0.781117  0.918618  1
  O  O16  1  0.678096  0.015494  0.352318  1
  O  O17  1  0.131090  0.494723  0.825402  1
  O  O18  1  0.602311  0.683460  0.595525  1
  O  O19  1  0.887162  0.683376  0.439090  1
  O  O20  1  0.444872  0.240859  0.935105  1
