# generated using pymatgen
data_Li4(NiO2)5
_symmetry_space_group_name_H-M   'P 1'
_cell_length_a   5.07017798
_cell_length_b   5.82180289
_cell_length_c   6.42406638
_cell_angle_alpha   104.82784961
_cell_angle_beta   96.74523493
_cell_angle_gamma   107.47151282
_symmetry_Int_Tables_number   1
_chemical_formula_structural   Li4(NiO2)5
_chemical_formula_sum   'Li4 Ni5 O10'
_cell_volume   170.92621968
_cell_formula_units_Z   1
loop_
 _symmetry_equiv_pos_site_id
 _symmetry_equiv_pos_as_xyz
  1  'x, y, z'
loop_
 _atom_site_type_symbol
 _atom_site_label
 _atom_site_symmetry_multiplicity
 _atom_site_fract_x
 _atom_site_fract_y
 _atom_site_fract_z
 _atom_site_occupancy
  Li  Li0  1  0.599097  0.193375  0.189975  1
  Li  Li1  1  0.400903  0.806625  0.810025  1
  Li  Li2  1  0.195981  0.388136  0.390684  1
  Li  Li3  1  0.804019  0.611864  0.609316  1
  Ni  Ni4  1  0.604945  0.702754  0.202486  1
  Ni  Ni5  1  0.203189  0.903106  0.398890  1
  Ni  Ni6  1  0.395055  0.297246  0.797514  1
  Ni  Ni7  1  0.000000  0.500000  0.000000  1
  Ni  Ni8  1  0.796811  0.096894  0.601110  1
  O  O9  1  0.666741  0.625785  0.909225  1
  O  O10  1  0.479970  0.238669  0.514001  1
  O  O11  1  0.673564  0.163096  0.873291  1
  O  O12  1  0.520030  0.761331  0.485999  1
  O  O13  1  0.333259  0.374215  0.090775  1
  O  O14  1  0.326436  0.836904  0.126709  1
  O  O15  1  0.103964  0.419082  0.701157  1
  O  O16  1  0.875489  0.034196  0.317193  1
  O  O17  1  0.124511  0.965804  0.682807  1
  O  O18  1  0.896036  0.580918  0.298843  1
