# generated using pymatgen
data_Li2FePO4F
_symmetry_space_group_name_H-M   'P 1'
_cell_length_a   5.08936912
_cell_length_b   11.51676359
_cell_length_c   13.14445212
_cell_angle_alpha   90.00000000
_cell_angle_beta   90.00000000
_cell_angle_gamma   90.00000000
_symmetry_Int_Tables_number   1
_chemical_formula_structural   Li2FePO4F
_chemical_formula_sum   'Li16 Fe8 P8 O32 F8'
_cell_volume   770.43657362
_cell_formula_units_Z   8
loop_
 _symmetry_equiv_pos_site_id
 _symmetry_equiv_pos_as_xyz
  1  'x, y, z'
loop_
 _atom_site_type_symbol
 _atom_site_label
 _atom_site_symmetry_multiplicity
 _atom_site_fract_x
 _atom_site_fract_y
 _atom_site_fract_z
 _atom_site_occupancy
  Li  Li0  1  0.782070  0.822537  0.260151  1
  Li  Li1  1  0.782070  0.322537  0.739849  1
  Li  Li2  1  0.778006  0.097944  0.133313  1
  Li  Li3  1  0.778006  0.597944  0.866687  1
  Li  Li4  1  0.721994  0.597944  0.366687  1
  Li  Li5  1  0.721994  0.097944  0.633313  1
  Li  Li6  1  0.717930  0.322537  0.239849  1
  Li  Li7  1  0.717930  0.822537  0.760151  1
  Li  Li8  1  0.282070  0.177463  0.239849  1
  Li  Li9  1  0.282070  0.677463  0.760151  1
  Li  Li10  1  0.278006  0.902056  0.366687  1
  Li  Li11  1  0.278006  0.402056  0.633313  1
  Li  Li12  1  0.221994  0.402056  0.133313  1
  Li  Li13  1  0.221994  0.902056  0.866687  1
  Li  Li14  1  0.217930  0.177463  0.739849  1
  Li  Li15  1  0.217930  0.677463  0.260151  1
  Fe  Fe16  1  0.771078  0.330354  0.007742  1
  Fe  Fe17  1  0.771078  0.830354  0.992258  1
  Fe  Fe18  1  0.728922  0.330354  0.507742  1
  Fe  Fe19  1  0.728922  0.830354  0.492258  1
  Fe  Fe20  1  0.271078  0.169646  0.507742  1
  Fe  Fe21  1  0.271078  0.669646  0.492258  1
  Fe  Fe22  1  0.228922  0.169646  0.007742  1
  Fe  Fe23  1  0.228922  0.669646  0.992258  1
  P  P24  1  0.795925  0.583830  0.627670  1
  P  P25  1  0.795925  0.083830  0.372330  1
  P  P26  1  0.704075  0.583830  0.127670  1
  P  P27  1  0.704075  0.083830  0.872330  1
  P  P28  1  0.295925  0.916170  0.127670  1
  P  P29  1  0.295925  0.416170  0.872330  1
  P  P30  1  0.204075  0.416170  0.372330  1
  P  P31  1  0.204075  0.916170  0.627670  1
  O  O32  1  0.895414  0.905371  0.621134  1
  O  O33  1  0.895414  0.405371  0.378866  1
  O  O34  1  0.821112  0.642768  0.029819  1
  O  O35  1  0.821112  0.142768  0.970181  1
  O  O36  1  0.811888  0.643529  0.222946  1
  O  O37  1  0.811888  0.143529  0.777054  1
  O  O38  1  0.781891  0.453818  0.127428  1
  O  O39  1  0.781891  0.953818  0.872572  1
  O  O40  1  0.718109  0.953818  0.372572  1
  O  O41  1  0.718109  0.453818  0.627428  1
  O  O42  1  0.688112  0.143529  0.277054  1
  O  O43  1  0.688112  0.643529  0.722946  1
  O  O44  1  0.678888  0.642768  0.529819  1
  O  O45  1  0.678888  0.142768  0.470181  1
  O  O46  1  0.604586  0.905371  0.121134  1
  O  O47  1  0.604586  0.405371  0.878866  1
  O  O48  1  0.395414  0.094629  0.878866  1
  O  O49  1  0.395414  0.594629  0.121134  1
  O  O50  1  0.321112  0.357232  0.470181  1
  O  O51  1  0.321112  0.857232  0.529819  1
  O  O52  1  0.311888  0.856471  0.722946  1
  O  O53  1  0.311888  0.356471  0.277054  1
  O  O54  1  0.281891  0.546182  0.372572  1
  O  O55  1  0.281891  0.046182  0.627428  1
  O  O56  1  0.218109  0.046182  0.127428  1
  O  O57  1  0.218109  0.546182  0.872572  1
  O  O58  1  0.188112  0.856471  0.222946  1
  O  O59  1  0.188112  0.356471  0.777054  1
  O  O60  1  0.178888  0.857232  0.029819  1
  O  O61  1  0.178888  0.357232  0.970181  1
  O  O62  1  0.104586  0.094629  0.378866  1
  O  O63  1  0.104586  0.594629  0.621134  1
  F  F64  1  0.000000  0.750000  0.394891  1
  F  F65  1  0.000000  0.250000  0.135702  1
  F  F66  1  0.000000  0.750000  0.864298  1
  F  F67  1  0.000000  0.250000  0.605109  1
  F  F68  1  0.500000  0.750000  0.364298  1
  F  F69  1  0.500000  0.250000  0.105109  1
  F  F70  1  0.500000  0.250000  0.635702  1
  F  F71  1  0.500000  0.750000  0.894891  1
