# generated using pymatgen
data_Cr3(CoO6)2
_symmetry_space_group_name_H-M   'P 1'
_cell_length_a   8.94938933
_cell_length_b   9.03438803
_cell_length_c   12.58216737
_cell_angle_alpha   90.00000000
_cell_angle_beta   90.00000000
_cell_angle_gamma   90.00000000
_symmetry_Int_Tables_number   1
_chemical_formula_structural   Cr3(CoO6)2
_chemical_formula_sum   'Cr12 Co8 O48'
_cell_volume   1017.29661522
_cell_formula_units_Z   4
loop_
 _symmetry_equiv_pos_site_id
 _symmetry_equiv_pos_as_xyz
  1  'x, y, z'
loop_
 _atom_site_type_symbol
 _atom_site_label
 _atom_site_symmetry_multiplicity
 _atom_site_fract_x
 _atom_site_fract_y
 _atom_site_fract_z
 _atom_site_occupancy
  Cr  Cr0  1  0.250000  0.530843  0.000000  1
  Cr  Cr1  1  0.750000  0.469157  0.000000  1
  Cr  Cr2  1  0.896275  0.897448  0.144090  1
  Cr  Cr3  1  0.396275  0.102552  0.144090  1
  Cr  Cr4  1  0.396275  0.602552  0.355910  1
  Cr  Cr5  1  0.896275  0.397448  0.355910  1
  Cr  Cr6  1  0.750000  0.969157  0.500000  1
  Cr  Cr7  1  0.250000  0.030843  0.500000  1
  Cr  Cr8  1  0.103725  0.602552  0.644090  1
  Cr  Cr9  1  0.603725  0.397448  0.644090  1
  Cr  Cr10  1  0.603725  0.897448  0.855910  1
  Cr  Cr11  1  0.103725  0.102552  0.855910  1
  Co  Co12  1  0.529259  0.750811  0.122846  1
  Co  Co13  1  0.029259  0.249189  0.122846  1
  Co  Co14  1  0.029259  0.749189  0.377154  1
  Co  Co15  1  0.529259  0.250811  0.377154  1
  Co  Co16  1  0.470741  0.749189  0.622846  1
  Co  Co17  1  0.970741  0.250811  0.622846  1
  Co  Co18  1  0.970741  0.750811  0.877154  1
  Co  Co19  1  0.470741  0.249189  0.877154  1
  O  O20  1  0.940878  0.844767  0.023258  1
  O  O21  1  0.440878  0.155233  0.023258  1
  O  O22  1  0.136865  0.422153  0.071507  1
  O  O23  1  0.636865  0.577847  0.071507  1
  O  O24  1  0.344881  0.637078  0.082927  1
  O  O25  1  0.844881  0.362922  0.082927  1
  O  O26  1  0.411289  0.915559  0.156112  1
  O  O27  1  0.911289  0.084441  0.156112  1
  O  O28  1  0.722574  0.848451  0.171033  1
  O  O29  1  0.222574  0.151549  0.171033  1
  O  O30  1  0.016488  0.822774  0.229211  1
  O  O31  1  0.516488  0.177226  0.229211  1
  O  O32  1  0.516488  0.677226  0.270789  1
  O  O33  1  0.016488  0.322774  0.270789  1
  O  O34  1  0.722574  0.348451  0.328967  1
  O  O35  1  0.222574  0.651549  0.328967  1
  O  O36  1  0.911289  0.584441  0.343888  1
  O  O37  1  0.411289  0.415559  0.343888  1
  O  O38  1  0.844881  0.862922  0.417073  1
  O  O39  1  0.344881  0.137078  0.417073  1
  O  O40  1  0.136865  0.922153  0.428493  1
  O  O41  1  0.636865  0.077847  0.428493  1
  O  O42  1  0.940878  0.344767  0.476742  1
  O  O43  1  0.440878  0.655233  0.476742  1
  O  O44  1  0.059122  0.655233  0.523258  1
  O  O45  1  0.559122  0.344767  0.523258  1
  O  O46  1  0.363135  0.922153  0.571507  1
  O  O47  1  0.863135  0.077847  0.571507  1
  O  O48  1  0.655119  0.862922  0.582927  1
  O  O49  1  0.155119  0.137078  0.582927  1
  O  O50  1  0.588711  0.584441  0.656112  1
  O  O51  1  0.088711  0.415559  0.656112  1
  O  O52  1  0.277426  0.651549  0.671033  1
  O  O53  1  0.777426  0.348451  0.671033  1
  O  O54  1  0.983512  0.677226  0.729211  1
  O  O55  1  0.483512  0.322774  0.729211  1
  O  O56  1  0.483512  0.822774  0.770789  1
  O  O57  1  0.983512  0.177226  0.770789  1
  O  O58  1  0.777426  0.848451  0.828967  1
  O  O59  1  0.277426  0.151549  0.828967  1
  O  O60  1  0.088711  0.915559  0.843888  1
  O  O61  1  0.588711  0.084441  0.843888  1
  O  O62  1  0.155119  0.637078  0.917073  1
  O  O63  1  0.655119  0.362922  0.917073  1
  O  O64  1  0.863135  0.577847  0.928493  1
  O  O65  1  0.363135  0.422153  0.928493  1
  O  O66  1  0.559122  0.844767  0.976742  1
  O  O67  1  0.059122  0.155233  0.976742  1
