# generated using pymatgen
data_LiCuF4
_symmetry_space_group_name_H-M   'P 1'
_cell_length_a   6.12958134
_cell_length_b   6.12958134
_cell_length_c   6.12958134
_cell_angle_alpha   129.45349834
_cell_angle_beta   129.45349834
_cell_angle_gamma   74.28196200
_symmetry_Int_Tables_number   1
_chemical_formula_structural   LiCuF4
_chemical_formula_sum   'Li2 Cu2 F8'
_cell_volume   133.85011138
_cell_formula_units_Z   2
loop_
 _symmetry_equiv_pos_site_id
 _symmetry_equiv_pos_as_xyz
  1  'x, y, z'
loop_
 _atom_site_type_symbol
 _atom_site_label
 _atom_site_symmetry_multiplicity
 _atom_site_fract_x
 _atom_site_fract_y
 _atom_site_fract_z
 _atom_site_occupancy
  Li  Li0  1  0.750000  0.750000  0.000000  1
  Li  Li1  1  0.250000  0.250000  0.000000  1
  Cu  Cu2  1  0.500000  0.000000  0.500000  1
  Cu  Cu3  1  0.000000  0.500000  0.500000  1
  F  F4  1  0.453577  0.302410  0.500000  1
  F  F5  1  0.953577  0.453577  0.151167  1
  F  F6  1  0.197590  0.046423  0.500000  1
  F  F7  1  0.302410  0.802410  0.848833  1
  F  F8  1  0.697590  0.197590  0.151167  1
  F  F9  1  0.802410  0.953577  0.500000  1
  F  F10  1  0.046423  0.546423  0.848833  1
  F  F11  1  0.546423  0.697590  0.500000  1
