# generated using pymatgen
data_La8Cu3O16
_symmetry_space_group_name_H-M   'P 1'
_cell_length_a   7.10727376
_cell_length_b   7.54050362
_cell_length_c   8.42140099
_cell_angle_alpha   116.52928928
_cell_angle_beta   96.77287682
_cell_angle_gamma   105.50635310
_symmetry_Int_Tables_number   1
_chemical_formula_structural   La8Cu3O16
_chemical_formula_sum   'La8 Cu3 O16'
_cell_volume   374.06832376
_cell_formula_units_Z   1
loop_
 _symmetry_equiv_pos_site_id
 _symmetry_equiv_pos_as_xyz
  1  'x, y, z'
loop_
 _atom_site_type_symbol
 _atom_site_label
 _atom_site_symmetry_multiplicity
 _atom_site_fract_x
 _atom_site_fract_y
 _atom_site_fract_z
 _atom_site_occupancy
  La  La0  1  0.269817  0.163221  0.323324  1
  La  La1  1  0.723698  0.852605  0.672650  1
  La  La2  1  0.274818  0.646859  0.329692  1
  La  La3  1  0.279333  0.405309  0.810999  1
  La  La4  1  0.277805  0.922906  0.813855  1
  La  La5  1  0.728348  0.337073  0.678521  1
  La  La6  1  0.721169  0.095553  0.189951  1
  La  La7  1  0.722213  0.578281  0.185739  1
  Cu  Cu8  1  0.001009  0.750016  0.500015  1
  Cu  Cu9  1  0.000959  0.499361  0.999913  1
  Cu  Cu10  1  0.996377  0.998941  0.997456  1
  O  O11  1  0.994363  0.874705  0.248117  1
  O  O12  1  0.632231  0.705206  0.410818  1
  O  O13  1  0.001085  0.378670  0.244886  1
  O  O14  1  0.003903  0.993670  0.501034  1
  O  O15  1  0.624231  0.201386  0.399921  1
  O  O16  1  0.637162  0.449741  0.907455  1
  O  O17  1  0.632826  0.953405  0.897734  1
  O  O18  1  0.373392  0.298433  0.594053  1
  O  O19  1  0.999831  0.122868  0.754930  1
  O  O20  1  0.995938  0.507066  0.499012  1
  O  O21  1  0.997172  0.748472  0.000612  1
  O  O22  1  0.997818  0.248118  0.000828  1
  O  O23  1  0.365455  0.793740  0.583150  1
  O  O24  1  0.366928  0.539341  0.091041  1
  O  O25  1  0.364838  0.044358  0.083097  1
  O  O26  1  0.006038  0.626970  0.751026  1
