# generated using pymatgen
data_Li3MnPCO7
_symmetry_space_group_name_H-M   'P 1'
_cell_length_a   5.10077885
_cell_length_b   6.56248050
_cell_length_c   8.45532806
_cell_angle_alpha   90.00000000
_cell_angle_beta   91.36857330
_cell_angle_gamma   90.00000000
_symmetry_Int_Tables_number   1
_chemical_formula_structural   Li3MnPCO7
_chemical_formula_sum   'Li6 Mn2 P2 C2 O14'
_cell_volume   282.95089919
_cell_formula_units_Z   2
loop_
 _symmetry_equiv_pos_site_id
 _symmetry_equiv_pos_as_xyz
  1  'x, y, z'
loop_
 _atom_site_type_symbol
 _atom_site_label
 _atom_site_symmetry_multiplicity
 _atom_site_fract_x
 _atom_site_fract_y
 _atom_site_fract_z
 _atom_site_occupancy
  Li  Li0  1  0.023232  0.499691  0.997999  1
  Li  Li1  1  0.471878  0.179813  0.828469  1
  Li  Li2  1  0.450782  0.452006  0.503968  1
  Li  Li3  1  0.549218  0.952006  0.496032  1
  Li  Li4  1  0.528122  0.679813  0.171531  1
  Li  Li5  1  0.976768  0.999691  0.002001  1
  Mn  Mn6  1  0.005226  0.753306  0.711574  1
  Mn  Mn7  1  0.994774  0.253306  0.288426  1
  P  P8  1  0.973155  0.245681  0.674430  1
  P  P9  1  0.026845  0.745681  0.325570  1
  C  C10  1  0.493870  0.739313  0.864461  1
  C  C11  1  0.506130  0.239313  0.135539  1
  O  O12  1  0.316573  0.721666  0.971532  1
  O  O13  1  0.735406  0.778016  0.909748  1
  O  O14  1  0.104090  0.071055  0.775287  1
  O  O15  1  0.994611  0.442427  0.772907  1
  O  O16  1  0.435081  0.723506  0.714656  1
  O  O17  1  0.681119  0.194917  0.634400  1
  O  O18  1  0.132035  0.273204  0.520725  1
  O  O19  1  0.867965  0.773204  0.479275  1
  O  O20  1  0.318881  0.694917  0.365600  1
  O  O21  1  0.564919  0.223506  0.285344  1
  O  O22  1  0.005389  0.942427  0.227093  1
  O  O23  1  0.895910  0.571055  0.224713  1
  O  O24  1  0.264594  0.278016  0.090252  1
  O  O25  1  0.683427  0.221666  0.028468  1
