# generated using pymatgen
data_Mn2CoO6
_symmetry_space_group_name_H-M   'P 1'
_cell_length_a   6.52351556
_cell_length_b   6.52351556
_cell_length_c   5.85914692
_cell_angle_alpha   76.10699452
_cell_angle_beta   103.89300548
_cell_angle_gamma   154.33308301
_symmetry_Int_Tables_number   1
_chemical_formula_structural   Mn2CoO6
_chemical_formula_sum   'Mn2 Co1 O6'
_cell_volume   104.67423148
_cell_formula_units_Z   1
loop_
 _symmetry_equiv_pos_site_id
 _symmetry_equiv_pos_as_xyz
  1  'x, y, z'
loop_
 _atom_site_type_symbol
 _atom_site_label
 _atom_site_symmetry_multiplicity
 _atom_site_fract_x
 _atom_site_fract_y
 _atom_site_fract_z
 _atom_site_occupancy
  Mn  Mn0  1  0.334011  0.665989  0.169924  1
  Mn  Mn1  1  0.665989  0.334011  0.830076  1
  Co  Co2  1  0.000000  1.000000  0.500000  1
  O  O3  1  0.847157  0.152843  0.393022  1
  O  O4  1  0.509786  0.490214  0.714253  1
  O  O5  1  0.176851  0.823149  0.055340  1
  O  O6  1  0.490214  0.509786  0.285747  1
  O  O7  1  0.152843  0.847157  0.606978  1
  O  O8  1  0.823149  0.176851  0.944660  1
