# generated using pymatgen
data_LiFeP2O7
_symmetry_space_group_name_H-M   'P 1'
_cell_length_a   7.85180791
_cell_length_b   7.85180791
_cell_length_c   10.64840789
_cell_angle_alpha   88.69368998
_cell_angle_beta   91.30631002
_cell_angle_gamma   62.88450377
_symmetry_Int_Tables_number   1
_chemical_formula_structural   LiFeP2O7
_chemical_formula_sum   'Li4 Fe4 P8 O28'
_cell_volume   583.77107698
_cell_formula_units_Z   4
loop_
 _symmetry_equiv_pos_site_id
 _symmetry_equiv_pos_as_xyz
  1  'x, y, z'
loop_
 _atom_site_type_symbol
 _atom_site_label
 _atom_site_symmetry_multiplicity
 _atom_site_fract_x
 _atom_site_fract_y
 _atom_site_fract_z
 _atom_site_occupancy
  Li  Li0  1  0.715714  0.719102  0.499825  1
  Li  Li1  1  0.719102  0.715714  0.000175  1
  Li  Li2  1  0.284286  0.280898  0.500175  1
  Li  Li3  1  0.280898  0.284286  0.999825  1
  Fe  Fe4  1  0.688044  0.311400  0.608774  1
  Fe  Fe5  1  0.311956  0.688600  0.391226  1
  Fe  Fe6  1  0.688600  0.311956  0.108774  1
  Fe  Fe7  1  0.311400  0.688044  0.891226  1
  P  P8  1  0.296930  0.910884  0.634377  1
  P  P9  1  0.099195  0.680442  0.635512  1
  P  P10  1  0.910884  0.296930  0.865623  1
  P  P11  1  0.703070  0.089116  0.365623  1
  P  P12  1  0.680442  0.099195  0.864488  1
  P  P13  1  0.900805  0.319558  0.364488  1
  P  P14  1  0.319558  0.900805  0.135512  1
  P  P15  1  0.089116  0.703070  0.134377  1
  O  O16  1  0.096693  0.891378  0.620649  1
  O  O17  1  0.099753  0.292157  0.377085  1
  O  O18  1  0.900247  0.707843  0.622915  1
  O  O19  1  0.707843  0.900247  0.877085  1
  O  O20  1  0.108622  0.903307  0.120649  1
  O  O21  1  0.200474  0.596828  0.765233  1
  O  O22  1  0.812545  0.385835  0.736029  1
  O  O23  1  0.403172  0.799526  0.265233  1
  O  O24  1  0.903307  0.108622  0.379351  1
  O  O25  1  0.563570  0.235200  0.971300  1
  O  O26  1  0.385835  0.812545  0.763971  1
  O  O27  1  0.799526  0.403172  0.234767  1
  O  O28  1  0.420771  0.784278  0.526535  1
  O  O29  1  0.596828  0.200474  0.734767  1
  O  O30  1  0.614165  0.187455  0.236029  1
  O  O31  1  0.215722  0.579229  0.026535  1
  O  O32  1  0.784278  0.420771  0.973465  1
  O  O33  1  0.764800  0.436430  0.471300  1
  O  O34  1  0.436430  0.764800  0.028700  1
  O  O35  1  0.579229  0.215722  0.473465  1
  O  O36  1  0.250179  0.115655  0.620231  1
  O  O37  1  0.115655  0.250179  0.879769  1
  O  O38  1  0.292157  0.099753  0.122915  1
  O  O39  1  0.187455  0.614165  0.263971  1
  O  O40  1  0.235200  0.563570  0.528700  1
  O  O41  1  0.884345  0.749821  0.120231  1
  O  O42  1  0.891378  0.096693  0.879351  1
  O  O43  1  0.749821  0.884345  0.379769  1
