# generated using pymatgen
data_K6BiH3(Cl2F)4
_symmetry_space_group_name_H-M   'P 1'
_cell_length_a   9.25259525
_cell_length_b   9.25259525
_cell_length_c   14.66797620
_cell_angle_alpha   90.00000000
_cell_angle_beta   90.00000000
_cell_angle_gamma   120.00000000
_symmetry_Int_Tables_number   1
_chemical_formula_structural   K6BiH3(Cl2F)4
_chemical_formula_sum   'K12 Bi2 H6 Cl16 F8'
_cell_volume   1087.49672433
_cell_formula_units_Z   2
loop_
 _symmetry_equiv_pos_site_id
 _symmetry_equiv_pos_as_xyz
  1  'x, y, z'
loop_
 _atom_site_type_symbol
 _atom_site_label
 _atom_site_symmetry_multiplicity
 _atom_site_fract_x
 _atom_site_fract_y
 _atom_site_fract_z
 _atom_site_occupancy
  K  K0  1  0.500000  0.500000  0.500000  1
  K  K1  1  0.500000  0.000000  0.500000  1
  K  K2  1  0.000000  0.500000  0.500000  1
  K  K3  1  0.500000  0.500000  0.000000  1
  K  K4  1  0.500000  0.000000  0.000000  1
  K  K5  1  0.000000  0.500000  0.000000  1
  K  K6  1  0.178904  0.357808  0.250000  1
  K  K7  1  0.642192  0.821096  0.250000  1
  K  K8  1  0.178904  0.821096  0.250000  1
  K  K9  1  0.821096  0.642192  0.750000  1
  K  K10  1  0.357808  0.178904  0.750000  1
  K  K11  1  0.821096  0.178904  0.750000  1
  Bi  Bi12  1  0.000000  0.000000  0.500000  1
  Bi  Bi13  1  0.000000  0.000000  0.000000  1
  H  H14  1  0.421695  0.843391  0.750000  1
  H  H15  1  0.156609  0.578305  0.750000  1
  H  H16  1  0.421695  0.578305  0.750000  1
  H  H17  1  0.578305  0.156609  0.250000  1
  H  H18  1  0.843391  0.421695  0.250000  1
  H  H19  1  0.578305  0.421695  0.250000  1
  Cl  Cl20  1  0.139892  0.860108  0.892645  1
  Cl  Cl21  1  0.139892  0.279783  0.892645  1
  Cl  Cl22  1  0.720217  0.860108  0.892645  1
  Cl  Cl23  1  0.860108  0.139892  0.107355  1
  Cl  Cl24  1  0.860108  0.720217  0.107355  1
  Cl  Cl25  1  0.279783  0.139892  0.107355  1
  Cl  Cl26  1  0.860108  0.139892  0.392645  1
  Cl  Cl27  1  0.860108  0.720217  0.392645  1
  Cl  Cl28  1  0.279783  0.139892  0.392645  1
  Cl  Cl29  1  0.139892  0.860108  0.607355  1
  Cl  Cl30  1  0.139892  0.279783  0.607355  1
  Cl  Cl31  1  0.720217  0.860108  0.607355  1
  Cl  Cl32  1  0.333333  0.666667  0.106510  1
  Cl  Cl33  1  0.666667  0.333333  0.893490  1
  Cl  Cl34  1  0.666667  0.333333  0.606510  1
  Cl  Cl35  1  0.333333  0.666667  0.393490  1
  F  F36  1  0.333333  0.666667  0.750000  1
  F  F37  1  0.666667  0.333333  0.250000  1
  F  F38  1  0.484392  0.968785  0.750000  1
  F  F39  1  0.031215  0.515608  0.750000  1
  F  F40  1  0.484392  0.515608  0.750000  1
  F  F41  1  0.515608  0.031215  0.250000  1
  F  F42  1  0.968785  0.484392  0.250000  1
  F  F43  1  0.515608  0.484392  0.250000  1
