# generated using pymatgen
data_MnOF
_symmetry_space_group_name_H-M   'P 1'
_cell_length_a   3.71169568
_cell_length_b   5.47033691
_cell_length_c   8.88260734
_cell_angle_alpha   90.00000000
_cell_angle_beta   90.00000000
_cell_angle_gamma   90.00000000
_symmetry_Int_Tables_number   1
_chemical_formula_structural   MnOF
_chemical_formula_sum   'Mn4 O4 F4'
_cell_volume   180.35446581
_cell_formula_units_Z   4
loop_
 _symmetry_equiv_pos_site_id
 _symmetry_equiv_pos_as_xyz
  1  'x, y, z'
loop_
 _atom_site_type_symbol
 _atom_site_label
 _atom_site_symmetry_multiplicity
 _atom_site_fract_x
 _atom_site_fract_y
 _atom_site_fract_z
 _atom_site_occupancy
  Mn  Mn0  1  0.750000  0.864743  0.904235  1
  Mn  Mn1  1  0.250000  0.635257  0.404235  1
  Mn  Mn2  1  0.750000  0.364743  0.595765  1
  Mn  Mn3  1  0.250000  0.135257  0.095765  1
  O  O4  1  0.250000  0.857175  0.959701  1
  O  O5  1  0.750000  0.642825  0.459701  1
  O  O6  1  0.250000  0.357175  0.540299  1
  O  O7  1  0.750000  0.142825  0.040299  1
  F  F8  1  0.250000  0.937710  0.297680  1
  F  F9  1  0.750000  0.562290  0.797680  1
  F  F10  1  0.250000  0.437710  0.202320  1
  F  F11  1  0.750000  0.062290  0.702320  1
