# generated using pymatgen
data_Li7Mn11O24
_symmetry_space_group_name_H-M   'P 1'
_cell_length_a   5.93543123
_cell_length_b   5.93543123
_cell_length_c   14.59125693
_cell_angle_alpha   89.04243681
_cell_angle_beta   90.95756319
_cell_angle_gamma   121.78850931
_symmetry_Int_Tables_number   1
_chemical_formula_structural   Li7Mn11O24
_chemical_formula_sum   'Li7 Mn11 O24'
_cell_volume   436.85356916
_cell_formula_units_Z   1
loop_
 _symmetry_equiv_pos_site_id
 _symmetry_equiv_pos_as_xyz
  1  'x, y, z'
loop_
 _atom_site_type_symbol
 _atom_site_label
 _atom_site_symmetry_multiplicity
 _atom_site_fract_x
 _atom_site_fract_y
 _atom_site_fract_z
 _atom_site_occupancy
  Li  Li0  1  0.520705  0.479295  0.643776  1
  Li  Li1  1  0.479295  0.520705  0.356224  1
  Li  Li2  1  0.500000  0.500000  0.500000  1
  Li  Li3  1  0.842222  0.157778  0.955626  1
  Li  Li4  1  0.828034  0.171966  0.698778  1
  Li  Li5  1  0.171966  0.828034  0.301222  1
  Li  Li6  1  0.157778  0.842222  0.044374  1
  Mn  Mn7  1  0.837056  0.162944  0.340500  1
  Mn  Mn8  1  0.500000  1.000000  0.500000  1
  Mn  Mn9  1  0.334596  0.665404  0.832140  1
  Mn  Mn10  1  0.162944  0.837056  0.659500  1
  Mn  Mn11  1  0.338456  0.161855  0.833126  1
  Mn  Mn12  1  0.000000  0.500000  0.500000  1
  Mn  Mn13  1  0.838145  0.661544  0.833126  1
  Mn  Mn14  1  0.665404  0.334596  0.167860  1
  Mn  Mn15  1  0.500000  0.500000  0.000000  1
  Mn  Mn16  1  0.661544  0.838145  0.166874  1
  Mn  Mn17  1  0.161855  0.338456  0.166874  1
  O  O18  1  0.646997  0.863423  0.414920  1
  O  O19  1  0.678188  0.321812  0.421038  1
  O  O20  1  0.321812  0.678188  0.578962  1
  O  O21  1  0.178211  0.821789  0.432772  1
  O  O22  1  0.353003  0.136577  0.585080  1
  O  O23  1  0.863423  0.646997  0.585080  1
  O  O24  1  0.207506  0.339018  0.908743  1
  O  O25  1  0.014583  0.538363  0.755916  1
  O  O26  1  0.136577  0.353003  0.414920  1
  O  O27  1  0.020528  0.979472  0.752186  1
  O  O28  1  0.821789  0.178211  0.567228  1
  O  O29  1  0.155400  0.844600  0.906503  1
  O  O30  1  0.514770  0.485230  0.765005  1
  O  O31  1  0.661301  0.338699  0.905403  1
  O  O32  1  0.844600  0.155400  0.093497  1
  O  O33  1  0.538363  0.014583  0.244084  1
  O  O34  1  0.660982  0.792494  0.908743  1
  O  O35  1  0.339018  0.207506  0.091257  1
  O  O36  1  0.792494  0.660982  0.091257  1
  O  O37  1  0.461637  0.985417  0.755916  1
  O  O38  1  0.338699  0.661301  0.094597  1
  O  O39  1  0.485230  0.514770  0.234995  1
  O  O40  1  0.979472  0.020528  0.247814  1
  O  O41  1  0.985417  0.461637  0.244084  1
