# generated using pymatgen
data_Cr2O5F2
_symmetry_space_group_name_H-M   'P 1'
_cell_length_a   8.27050038
_cell_length_b   8.27050038
_cell_length_c   9.67630905
_cell_angle_alpha   90.00000000
_cell_angle_beta   90.00000000
_cell_angle_gamma   90.00000000
_symmetry_Int_Tables_number   1
_chemical_formula_structural   Cr2O5F2
_chemical_formula_sum   'Cr8 O20 F8'
_cell_volume   661.87092354
_cell_formula_units_Z   4
loop_
 _symmetry_equiv_pos_site_id
 _symmetry_equiv_pos_as_xyz
  1  'x, y, z'
loop_
 _atom_site_type_symbol
 _atom_site_label
 _atom_site_symmetry_multiplicity
 _atom_site_fract_x
 _atom_site_fract_y
 _atom_site_fract_z
 _atom_site_occupancy
  Cr  Cr0  1  0.663513  0.090672  0.859942  1
  Cr  Cr1  1  0.590672  0.163513  0.359942  1
  Cr  Cr2  1  0.090672  0.336487  0.140058  1
  Cr  Cr3  1  0.163513  0.409328  0.640058  1
  Cr  Cr4  1  0.836487  0.590672  0.640058  1
  Cr  Cr5  1  0.909328  0.663513  0.140058  1
  Cr  Cr6  1  0.409328  0.836487  0.359942  1
  Cr  Cr7  1  0.336487  0.909328  0.859942  1
  O  O8  1  0.500000  0.000000  0.268971  1
  O  O9  1  0.500000  0.000000  0.768971  1
  O  O10  1  0.283906  0.024885  0.984052  1
  O  O11  1  0.809056  0.108490  0.754588  1
  O  O12  1  0.475115  0.216094  0.484052  1
  O  O13  1  0.108490  0.190944  0.245412  1
  O  O14  1  0.608490  0.309056  0.254588  1
  O  O15  1  0.975115  0.283906  0.015948  1
  O  O16  1  0.309056  0.391510  0.745412  1
  O  O17  1  0.783906  0.475115  0.515948  1
  O  O18  1  0.000000  0.500000  0.231029  1
  O  O19  1  0.000000  0.500000  0.731029  1
  O  O20  1  0.216094  0.524885  0.515948  1
  O  O21  1  0.690944  0.608490  0.745412  1
  O  O22  1  0.024885  0.716094  0.015948  1
  O  O23  1  0.391510  0.690944  0.254588  1
  O  O24  1  0.891510  0.809056  0.245412  1
  O  O25  1  0.524885  0.783906  0.484052  1
  O  O26  1  0.190944  0.891510  0.754588  1
  O  O27  1  0.716094  0.975115  0.984052  1
  F  F28  1  0.776006  0.099828  0.423056  1
  F  F29  1  0.099828  0.223994  0.576944  1
  F  F30  1  0.599828  0.276006  0.923056  1
  F  F31  1  0.276006  0.400172  0.076944  1
  F  F32  1  0.723994  0.599828  0.076944  1
  F  F33  1  0.400172  0.723994  0.923056  1
  F  F34  1  0.900172  0.776006  0.576944  1
  F  F35  1  0.223994  0.900172  0.423056  1
