# generated using pymatgen
data_Li2V2OF6
_symmetry_space_group_name_H-M   'P 1'
_cell_length_a   5.32080977
_cell_length_b   6.90243733
_cell_length_c   8.46602447
_cell_angle_alpha   109.60646753
_cell_angle_beta   102.66258686
_cell_angle_gamma   85.91097471
_symmetry_Int_Tables_number   1
_chemical_formula_structural   Li2V2OF6
_chemical_formula_sum   'Li4 V4 O2 F12'
_cell_volume   285.77538361
_cell_formula_units_Z   2
loop_
 _symmetry_equiv_pos_site_id
 _symmetry_equiv_pos_as_xyz
  1  'x, y, z'
loop_
 _atom_site_type_symbol
 _atom_site_label
 _atom_site_symmetry_multiplicity
 _atom_site_fract_x
 _atom_site_fract_y
 _atom_site_fract_z
 _atom_site_occupancy
  Li  Li0  1  0.669084  0.244576  0.898656  1
  Li  Li1  1  0.141092  0.010883  0.744550  1
  Li  Li2  1  0.866787  0.992042  0.266080  1
  Li  Li3  1  0.315617  0.745755  0.085611  1
  V  V4  1  0.730221  0.719056  0.823672  1
  V  V5  1  0.175517  0.477591  0.667816  1
  V  V6  1  0.835849  0.517144  0.331847  1
  V  V7  1  0.286742  0.286154  0.196615  1
  O  O8  1  0.062238  0.618192  0.877153  1
  O  O9  1  0.168861  0.420565  0.410738  1
  F  F10  1  0.365213  0.184439  0.963660  1
  F  F11  1  0.549677  0.440749  0.782697  1
  F  F12  1  0.082566  0.198085  0.623138  1
  F  F13  1  0.349452  0.758665  0.707719  1
  F  F14  1  0.825489  0.986231  0.817347  1
  F  F15  1  0.799219  0.586804  0.578558  1
  F  F16  1  0.171371  0.017864  0.182060  1
  F  F17  1  0.665114  0.243418  0.297786  1
  F  F18  1  0.920311  0.793316  0.371727  1
  F  F19  1  0.452997  0.554465  0.219946  1
  F  F20  1  0.926608  0.379525  0.096562  1
  F  F21  1  0.639974  0.824480  0.056062  1
