# generated using pymatgen
data_Li8FeS6
_symmetry_space_group_name_H-M   'P 1'
_cell_length_a   6.81141992
_cell_length_b   6.81141992
_cell_length_c   13.46200209
_cell_angle_alpha   90.00000000
_cell_angle_beta   90.00000000
_cell_angle_gamma   120.00000000
_symmetry_Int_Tables_number   1
_chemical_formula_structural   Li8FeS6
_chemical_formula_sum   'Li16 Fe2 S12'
_cell_volume   540.89827353
_cell_formula_units_Z   2
loop_
 _symmetry_equiv_pos_site_id
 _symmetry_equiv_pos_as_xyz
  1  'x, y, z'
loop_
 _atom_site_type_symbol
 _atom_site_label
 _atom_site_symmetry_multiplicity
 _atom_site_fract_x
 _atom_site_fract_y
 _atom_site_fract_z
 _atom_site_occupancy
  Li  Li0  1  0.000000  0.686559  0.766714  1
  Li  Li1  1  0.000000  0.628591  0.129992  1
  Li  Li2  1  0.000000  0.371409  0.629992  1
  Li  Li3  1  0.000000  0.313441  0.266714  1
  Li  Li4  1  0.333333  0.666667  0.400802  1
  Li  Li5  1  0.333333  0.666667  0.900802  1
  Li  Li6  1  0.313441  0.313441  0.766714  1
  Li  Li7  1  0.371409  0.371409  0.129992  1
  Li  Li8  1  0.628591  0.628591  0.629992  1
  Li  Li9  1  0.313441  0.000000  0.266714  1
  Li  Li10  1  0.686559  0.686559  0.266714  1
  Li  Li11  1  0.371409  0.000000  0.629992  1
  Li  Li12  1  0.666667  0.333333  0.900802  1
  Li  Li13  1  0.666667  0.333333  0.400802  1
  Li  Li14  1  0.628591  0.000000  0.129992  1
  Li  Li15  1  0.686559  0.000000  0.766714  1
  Fe  Fe16  1  0.000000  0.000000  0.000076  1
  Fe  Fe17  1  0.000000  0.000000  0.500076  1
  S  S18  1  0.000000  0.694838  0.950791  1
  S  S19  1  0.000000  0.305162  0.450791  1
  S  S20  1  0.333333  0.666667  0.217264  1
  S  S21  1  0.000000  0.000000  0.169616  1
  S  S22  1  0.000000  0.000000  0.669616  1
  S  S23  1  0.333333  0.666667  0.717264  1
  S  S24  1  0.305162  0.305162  0.950791  1
  S  S25  1  0.305162  0.000000  0.450791  1
  S  S26  1  0.694838  0.694838  0.450791  1
  S  S27  1  0.666667  0.333333  0.717264  1
  S  S28  1  0.666667  0.333333  0.217264  1
  S  S29  1  0.694838  0.000000  0.950791  1
