# generated using pymatgen
data_MnNb3(PO4)6
_symmetry_space_group_name_H-M   'P 1'
_cell_length_a   8.98471101
_cell_length_b   8.98471101
_cell_length_c   8.98471101
_cell_angle_alpha   58.54981944
_cell_angle_beta   58.54981944
_cell_angle_gamma   58.54981944
_symmetry_Int_Tables_number   1
_chemical_formula_structural   MnNb3(PO4)6
_chemical_formula_sum   'Mn1 Nb3 P6 O24'
_cell_volume   495.84938550
_cell_formula_units_Z   1
loop_
 _symmetry_equiv_pos_site_id
 _symmetry_equiv_pos_as_xyz
  1  'x, y, z'
loop_
 _atom_site_type_symbol
 _atom_site_label
 _atom_site_symmetry_multiplicity
 _atom_site_fract_x
 _atom_site_fract_y
 _atom_site_fract_z
 _atom_site_occupancy
  Mn  Mn0  1  0.143147  0.143147  0.143147  1
  Nb  Nb1  1  0.859439  0.859439  0.859439  1
  Nb  Nb2  1  0.641657  0.641657  0.641657  1
  Nb  Nb3  1  0.360432  0.360432  0.360432  1
  P  P4  1  0.249467  0.529198  0.967601  1
  P  P5  1  0.967601  0.249467  0.529198  1
  P  P6  1  0.529198  0.967601  0.249467  1
  P  P7  1  0.459956  0.034683  0.757490  1
  P  P8  1  0.034683  0.757490  0.459956  1
  P  P9  1  0.757490  0.459956  0.034683  1
  O  O10  1  0.715774  0.500234  0.867306  1
  O  O11  1  0.500234  0.867306  0.715774  1
  O  O12  1  0.079909  0.711300  0.937712  1
  O  O13  1  0.867306  0.715774  0.500234  1
  O  O14  1  0.419448  0.566813  0.789706  1
  O  O15  1  0.224113  0.366204  0.987714  1
  O  O16  1  0.937712  0.079909  0.711300  1
  O  O17  1  0.789706  0.419448  0.566813  1
  O  O18  1  0.566813  0.789706  0.419448  1
  O  O19  1  0.635241  0.003400  0.780104  1
  O  O20  1  0.284860  0.058618  0.921920  1
  O  O21  1  0.003400  0.780104  0.635241  1
  O  O22  1  0.987714  0.224113  0.366204  1
  O  O23  1  0.711300  0.937712  0.079909  1
  O  O24  1  0.366204  0.987714  0.224113  1
  O  O25  1  0.439534  0.209681  0.578818  1
  O  O26  1  0.209681  0.578818  0.439534  1
  O  O27  1  0.058618  0.921920  0.284860  1
  O  O28  1  0.780104  0.635241  0.003400  1
  O  O29  1  0.578818  0.439534  0.209681  1
  O  O30  1  0.134996  0.280531  0.502993  1
  O  O31  1  0.921920  0.284860  0.058618  1
  O  O32  1  0.502993  0.134996  0.280531  1
  O  O33  1  0.280531  0.502993  0.134996  1
