# generated using pymatgen
data_LiCoPO4
_symmetry_space_group_name_H-M   'P 1'
_cell_length_a   5.19344833
_cell_length_b   5.19344833
_cell_length_c   9.21112177
_cell_angle_alpha   90.00000000
_cell_angle_beta   90.00000000
_cell_angle_gamma   120.00000000
_symmetry_Int_Tables_number   1
_chemical_formula_structural   LiCoPO4
_chemical_formula_sum   'Li2 Co2 P2 O8'
_cell_volume   215.15665550
_cell_formula_units_Z   2
loop_
 _symmetry_equiv_pos_site_id
 _symmetry_equiv_pos_as_xyz
  1  'x, y, z'
loop_
 _atom_site_type_symbol
 _atom_site_label
 _atom_site_symmetry_multiplicity
 _atom_site_fract_x
 _atom_site_fract_y
 _atom_site_fract_z
 _atom_site_occupancy
  Li  Li0  1  0.000000  0.000000  0.192808  1
  Li  Li1  1  0.000000  0.000000  0.692808  1
  Co  Co2  1  0.333333  0.666667  0.137606  1
  Co  Co3  1  0.666667  0.333333  0.637606  1
  P  P4  1  0.333333  0.666667  0.766253  1
  P  P5  1  0.666667  0.333333  0.266253  1
  O  O6  1  0.053332  0.383384  0.707550  1
  O  O7  1  0.330052  0.946668  0.707550  1
  O  O8  1  0.333333  0.666667  0.931031  1
  O  O9  1  0.383384  0.330052  0.207550  1
  O  O10  1  0.616616  0.669948  0.707550  1
  O  O11  1  0.666667  0.333333  0.431031  1
  O  O12  1  0.669948  0.053332  0.207550  1
  O  O13  1  0.946668  0.616616  0.207550  1
