# generated using pymatgen
data_TiNi5(PO4)6
_symmetry_space_group_name_H-M   'P 1'
_cell_length_a   8.50543278
_cell_length_b   8.50543278
_cell_length_c   8.50543278
_cell_angle_alpha   60.91069057
_cell_angle_beta   60.91069057
_cell_angle_gamma   60.91069057
_symmetry_Int_Tables_number   1
_chemical_formula_structural   TiNi5(PO4)6
_chemical_formula_sum   'Ti1 Ni5 P6 O24'
_cell_volume   444.01550484
_cell_formula_units_Z   1
loop_
 _symmetry_equiv_pos_site_id
 _symmetry_equiv_pos_as_xyz
  1  'x, y, z'
loop_
 _atom_site_type_symbol
 _atom_site_label
 _atom_site_symmetry_multiplicity
 _atom_site_fract_x
 _atom_site_fract_y
 _atom_site_fract_z
 _atom_site_occupancy
  Ti  Ti0  1  0.145487  0.145487  0.145487  1
  Ni  Ni1  1  0.999131  0.999131  0.999131  1
  Ni  Ni2  1  0.640235  0.640235  0.640235  1
  Ni  Ni3  1  0.499012  0.499012  0.499012  1
  Ni  Ni4  1  0.857421  0.857421  0.857421  1
  Ni  Ni5  1  0.357728  0.357728  0.357728  1
  P  P6  1  0.952560  0.250928  0.547864  1
  P  P7  1  0.547864  0.952560  0.250928  1
  P  P8  1  0.250928  0.547864  0.952560  1
  P  P9  1  0.748274  0.453424  0.046601  1
  P  P10  1  0.453424  0.046601  0.748274  1
  P  P11  1  0.046601  0.748274  0.453424  1
  O  O12  1  0.507159  0.101754  0.328718  1
  O  O13  1  0.328718  0.507159  0.101754  1
  O  O14  1  0.101754  0.328718  0.507159  1
  O  O15  1  0.945185  0.089883  0.743214  1
  O  O16  1  0.012574  0.176003  0.385597  1
  O  O17  1  0.753445  0.401585  0.555449  1
  O  O18  1  0.743214  0.945185  0.089883  1
  O  O19  1  0.555449  0.753445  0.401585  1
  O  O20  1  0.815067  0.609558  0.007053  1
  O  O21  1  0.401585  0.555449  0.753445  1
  O  O22  1  0.911451  0.253602  0.063443  1
  O  O23  1  0.609558  0.007053  0.815067  1
  O  O24  1  0.385597  0.012574  0.176003  1
  O  O25  1  0.089883  0.743214  0.945185  1
  O  O26  1  0.594182  0.436443  0.247756  1
  O  O27  1  0.176003  0.385597  0.012574  1
  O  O28  1  0.436443  0.247756  0.594182  1
  O  O29  1  0.253602  0.063443  0.911451  1
  O  O30  1  0.247756  0.594182  0.436443  1
  O  O31  1  0.007053  0.815067  0.609558  1
  O  O32  1  0.063443  0.911451  0.253602  1
  O  O33  1  0.894438  0.678701  0.489076  1
  O  O34  1  0.678701  0.489076  0.894438  1
  O  O35  1  0.489076  0.894438  0.678701  1
