# generated using pymatgen
data_Hf2N2O
_symmetry_space_group_name_H-M   'P 1'
_cell_length_a   8.10978533
_cell_length_b   3.26584427
_cell_length_c   13.78789619
_cell_angle_alpha   90.00000000
_cell_angle_beta   98.60845135
_cell_angle_gamma   90.00000000
_symmetry_Int_Tables_number   1
_chemical_formula_structural   Hf2N2O
_chemical_formula_sum   'Hf12 N12 O6'
_cell_volume   361.06254685
_cell_formula_units_Z   6
loop_
 _symmetry_equiv_pos_site_id
 _symmetry_equiv_pos_as_xyz
  1  'x, y, z'
loop_
 _atom_site_type_symbol
 _atom_site_label
 _atom_site_symmetry_multiplicity
 _atom_site_fract_x
 _atom_site_fract_y
 _atom_site_fract_z
 _atom_site_occupancy
  Hf  Hf0  1  0.820757  0.500000  0.993396  1
  Hf  Hf1  1  0.455930  0.500000  0.881366  1
  Hf  Hf2  1  0.818919  0.000000  0.778173  1
  Hf  Hf3  1  0.180830  0.000000  0.716141  1
  Hf  Hf4  1  0.508677  0.500000  0.612025  1
  Hf  Hf5  1  0.866913  0.500000  0.566018  1
  Hf  Hf6  1  0.115035  0.000000  0.424953  1
  Hf  Hf7  1  0.483048  0.000000  0.383907  1
  Hf  Hf8  1  0.815386  0.500000  0.280115  1
  Hf  Hf9  1  0.177549  0.500000  0.218403  1
  Hf  Hf10  1  0.547103  0.000000  0.119808  1
  Hf  Hf11  1  0.190679  0.000000  0.017748  1
  N  N12  1  0.682189  0.500000  0.819440  1
  N  N13  1  0.348800  0.500000  0.717165  1
  N  N14  1  0.992920  0.500000  0.732781  1
  N  N15  1  0.708692  0.000000  0.626785  1
  N  N16  1  0.300829  0.500000  0.372374  1
  N  N17  1  0.955352  0.500000  0.430701  1
  N  N18  1  0.010577  0.000000  0.271097  1
  N  N19  1  0.648244  0.000000  0.285053  1
  N  N20  1  0.319196  0.000000  0.181812  1
  N  N21  1  0.058374  0.500000  0.070634  1
  N  N22  1  0.722065  0.500000  0.126761  1
  N  N23  1  0.383956  0.500000  0.024384  1
  O  O24  1  0.622973  0.000000  0.967161  1
  O  O25  1  0.284180  0.000000  0.868706  1
  O  O26  1  0.940033  0.000000  0.928352  1
  O  O27  1  0.043118  0.000000  0.575975  1
  O  O28  1  0.377882  0.000000  0.539749  1
  O  O29  1  0.619792  0.500000  0.469016  1
