# generated using pymatgen
data_Hf2N2O
_symmetry_space_group_name_H-M   'P 1'
_cell_length_a   8.69246439
_cell_length_b   8.73482932
_cell_length_c   8.74401584
_cell_angle_alpha   109.61262289
_cell_angle_beta   109.39131805
_cell_angle_gamma   109.22487922
_symmetry_Int_Tables_number   1
_chemical_formula_structural   Hf2N2O
_chemical_formula_sum   'Hf16 N16 O8'
_cell_volume   512.23517793
_cell_formula_units_Z   8
loop_
 _symmetry_equiv_pos_site_id
 _symmetry_equiv_pos_as_xyz
  1  'x, y, z'
loop_
 _atom_site_type_symbol
 _atom_site_label
 _atom_site_symmetry_multiplicity
 _atom_site_fract_x
 _atom_site_fract_y
 _atom_site_fract_z
 _atom_site_occupancy
  Hf  Hf0  1  0.999694  0.500342  0.997380  1
  Hf  Hf1  1  0.537926  0.751080  0.285592  1
  Hf  Hf2  1  0.247482  0.713559  0.463158  1
  Hf  Hf3  1  0.251815  0.216035  0.965834  1
  Hf  Hf4  1  0.956510  0.243261  0.215397  1
  Hf  Hf5  1  0.226333  0.965093  0.257658  1
  Hf  Hf6  1  0.499164  0.000721  0.000336  1
  Hf  Hf7  1  0.499756  0.489654  0.497057  1
  Hf  Hf8  1  0.780974  0.037067  0.749144  1
  Hf  Hf9  1  0.711486  0.472857  0.261603  1
  Hf  Hf10  1  0.998955  0.999230  0.510019  1
  Hf  Hf11  1  0.287364  0.528033  0.736536  1
  Hf  Hf12  1  0.044324  0.763047  0.785605  1
  Hf  Hf13  1  0.747206  0.283661  0.534051  1
  Hf  Hf14  1  0.745288  0.779997  0.029830  1
  Hf  Hf15  1  0.461120  0.247614  0.708345  1
  N  N16  1  0.270684  0.732673  0.222093  1
  N  N17  1  0.223007  0.449696  0.459543  1
  N  N18  1  0.262540  0.772146  0.728240  1
  N  N19  1  0.776037  0.726022  0.256507  1
  N  N20  1  0.274385  0.013029  0.047798  1
  N  N21  1  0.453786  0.465305  0.227539  1
  N  N22  1  0.987356  0.958875  0.731165  1
  N  N23  1  0.237190  0.964408  0.510799  1
  N  N24  1  0.225133  0.275343  0.740672  1
  N  N25  1  0.546871  0.538897  0.773739  1
  N  N26  1  0.467607  0.226888  0.455810  1
  N  N27  1  0.727727  0.985585  0.952924  1
  N  N28  1  0.741020  0.229404  0.271573  1
  N  N29  1  0.776489  0.549109  0.538231  1
  N  N30  1  0.756174  0.031167  0.486347  1
  N  N31  1  0.731881  0.268854  0.782725  1
  O  O32  1  0.954864  0.724834  0.990676  1
  O  O33  1  0.964288  0.506875  0.231135  1
  O  O34  1  0.491854  0.766117  0.037846  1
  O  O35  1  0.045593  0.277808  0.011555  1
  O  O36  1  0.013365  0.043159  0.266081  1
  O  O37  1  0.531132  0.775115  0.545150  1
  O  O38  1  0.038417  0.494085  0.771143  1
  O  O39  1  0.507201  0.233354  0.963161  1
