# generated using pymatgen
data_Na3GaP2H2O9
_symmetry_space_group_name_H-M   'P 1'
_cell_length_a   8.59792080
_cell_length_b   8.59792080
_cell_length_c   7.14522838
_cell_angle_alpha   84.03025905
_cell_angle_beta   95.96974095
_cell_angle_gamma   130.20340257
_symmetry_Int_Tables_number   1
_chemical_formula_structural   Na3GaP2H2O9
_chemical_formula_sum   'Na6 Ga2 P4 H4 O18'
_cell_volume   400.76043511
_cell_formula_units_Z   2
loop_
 _symmetry_equiv_pos_site_id
 _symmetry_equiv_pos_as_xyz
  1  'x, y, z'
loop_
 _atom_site_type_symbol
 _atom_site_label
 _atom_site_symmetry_multiplicity
 _atom_site_fract_x
 _atom_site_fract_y
 _atom_site_fract_z
 _atom_site_occupancy
  Na  Na0  1  0.764367  0.764367  0.000000  1
  Na  Na1  1  0.235633  0.235633  0.000000  1
  Na  Na2  1  0.389370  0.610630  0.293238  1
  Na  Na3  1  0.610630  0.389370  0.706762  1
  Na  Na4  1  0.500000  0.000000  0.500000  1
  Na  Na5  1  0.000000  0.500000  0.500000  1
  Ga  Ga6  1  0.500000  0.000000  0.000000  1
  Ga  Ga7  1  1.000000  0.500000  0.000000  1
  P  P8  1  0.621104  0.378896  0.227061  1
  P  P9  1  0.378896  0.621104  0.772939  1
  P  P10  1  0.881872  0.118128  0.296581  1
  P  P11  1  0.118128  0.881872  0.703419  1
  H  H12  1  0.941189  0.058811  0.603605  1
  H  H13  1  0.058811  0.941189  0.396395  1
  H  H14  1  0.811888  0.188112  0.823321  1
  H  H15  1  0.188112  0.811888  0.176679  1
  O  O16  1  0.522912  0.477088  0.218286  1
  O  O17  1  0.477088  0.522912  0.781714  1
  O  O18  1  0.667312  0.332688  0.428285  1
  O  O19  1  0.332688  0.667312  0.571715  1
  O  O20  1  0.470146  0.175064  0.117124  1
  O  O21  1  0.824936  0.529854  0.117124  1
  O  O22  1  0.529854  0.824936  0.882876  1
  O  O23  1  0.175064  0.470146  0.882876  1
  O  O24  1  0.653461  0.990974  0.233762  1
  O  O25  1  0.009026  0.346539  0.233762  1
  O  O26  1  0.346539  0.009026  0.766238  1
  O  O27  1  0.990974  0.653461  0.766238  1
  O  O28  1  0.973562  0.026438  0.239608  1
  O  O29  1  0.026438  0.973562  0.760392  1
  O  O30  1  0.883229  0.116771  0.522330  1
  O  O31  1  0.116770  0.883229  0.477670  1
  O  O32  1  0.758396  0.241604  0.881607  1
  O  O33  1  0.241604  0.758396  0.118393  1
