# generated using pymatgen
data_Ca3(PO4)2
_symmetry_space_group_name_H-M   'P 1'
_cell_length_a   5.27190977
_cell_length_b   5.27190977
_cell_length_c   7.23381360
_cell_angle_alpha   89.71337082
_cell_angle_beta   90.28662918
_cell_angle_gamma   64.44058162
_symmetry_Int_Tables_number   1
_chemical_formula_structural   Ca3(PO4)2
_chemical_formula_sum   'Ca3 P2 O8'
_cell_volume   181.36658423
_cell_formula_units_Z   1
loop_
 _symmetry_equiv_pos_site_id
 _symmetry_equiv_pos_as_xyz
  1  'x, y, z'
loop_
 _atom_site_type_symbol
 _atom_site_label
 _atom_site_symmetry_multiplicity
 _atom_site_fract_x
 _atom_site_fract_y
 _atom_site_fract_z
 _atom_site_occupancy
  Ca  Ca0  1  0.311757  0.311757  0.500000  1
  Ca  Ca1  1  0.986679  0.997060  0.227019  1
  Ca  Ca2  1  0.997060  0.986679  0.772981  1
  P  P3  1  0.348556  0.348556  0.000000  1
  P  P4  1  0.652717  0.652717  0.500000  1
  O  O5  1  0.674544  0.222102  0.994054  1
  O  O6  1  0.222102  0.674544  0.005946  1
  O  O7  1  0.264124  0.240504  0.180575  1
  O  O8  1  0.240504  0.264124  0.819425  1
  O  O9  1  0.731163  0.770220  0.671499  1
  O  O10  1  0.770220  0.731163  0.328501  1
  O  O11  1  0.769749  0.319375  0.508443  1
  O  O12  1  0.319375  0.769749  0.491557  1
