# generated using pymatgen
data_Li4Nb3V3(CoO8)2
_symmetry_space_group_name_H-M   'P 1'
_cell_length_a   6.06545211
_cell_length_b   6.06545211
_cell_length_c   9.78738764
_cell_angle_alpha   89.99066001
_cell_angle_beta   90.00933999
_cell_angle_gamma   120.39099535
_symmetry_Int_Tables_number   1
_chemical_formula_structural   Li4Nb3V3(CoO8)2
_chemical_formula_sum   'Li4 Nb3 V3 Co2 O16'
_cell_volume   310.59836219
_cell_formula_units_Z   1
loop_
 _symmetry_equiv_pos_site_id
 _symmetry_equiv_pos_as_xyz
  1  'x, y, z'
loop_
 _atom_site_type_symbol
 _atom_site_label
 _atom_site_symmetry_multiplicity
 _atom_site_fract_x
 _atom_site_fract_y
 _atom_site_fract_z
 _atom_site_occupancy
  Li  Li0  1  0.664375  0.335625  0.899716  1
  Li  Li1  1  0.007519  0.992481  0.000422  1
  Li  Li2  1  0.012314  0.987686  0.492267  1
  Li  Li3  1  0.332879  0.667121  0.384580  1
  Nb  Nb4  1  0.828857  0.171143  0.218187  1
  Nb  Nb5  1  0.164694  0.340925  0.715666  1
  Nb  Nb6  1  0.659075  0.835306  0.715666  1
  V  V7  1  0.342561  0.175708  0.214423  1
  V  V8  1  0.824292  0.657439  0.214423  1
  V  V9  1  0.169129  0.830871  0.711717  1
  Co  Co10  1  0.657233  0.342767  0.481121  1
  Co  Co11  1  0.330106  0.669894  0.018877  1
  O  O12  1  0.316493  0.159472  0.606562  1
  O  O13  1  0.516288  0.483712  0.330861  1
  O  O14  1  0.675962  0.324038  0.097146  1
  O  O15  1  0.995525  0.004475  0.312910  1
  O  O16  1  0.998579  0.001421  0.820688  1
  O  O17  1  0.840528  0.683507  0.606562  1
  O  O18  1  0.518677  0.033834  0.336173  1
  O  O19  1  0.966166  0.481323  0.336173  1
  O  O20  1  0.159018  0.840982  0.109677  1
  O  O21  1  0.842409  0.157591  0.598471  1
  O  O22  1  0.029733  0.511768  0.826980  1
  O  O23  1  0.488232  0.970267  0.826980  1
  O  O24  1  0.338817  0.661183  0.596151  1
  O  O25  1  0.158495  0.318665  0.102134  1
  O  O26  1  0.485659  0.514341  0.832543  1
  O  O27  1  0.681335  0.841505  0.102134  1
