# generated using pymatgen
data_Ba5Sc6O14
_symmetry_space_group_name_H-M   'P 1'
_cell_length_a   8.99220328
_cell_length_b   8.99220328
_cell_length_c   11.79697066
_cell_angle_alpha   90.00000000
_cell_angle_beta   90.00000000
_cell_angle_gamma   92.24618193
_symmetry_Int_Tables_number   1
_chemical_formula_structural   Ba5Sc6O14
_chemical_formula_sum   'Ba10 Sc12 O28'
_cell_volume   953.16681471
_cell_formula_units_Z   2
loop_
 _symmetry_equiv_pos_site_id
 _symmetry_equiv_pos_as_xyz
  1  'x, y, z'
loop_
 _atom_site_type_symbol
 _atom_site_label
 _atom_site_symmetry_multiplicity
 _atom_site_fract_x
 _atom_site_fract_y
 _atom_site_fract_z
 _atom_site_occupancy
  Ba  Ba0  1  0.953897  0.270275  0.253090  1
  Ba  Ba1  1  0.729725  0.046103  0.753090  1
  Ba  Ba2  1  0.961051  0.679767  0.197860  1
  Ba  Ba3  1  0.320233  0.038949  0.697860  1
  Ba  Ba4  1  0.521220  0.521220  0.239019  1
  Ba  Ba5  1  0.478780  0.478780  0.739019  1
  Ba  Ba6  1  0.679767  0.961051  0.197860  1
  Ba  Ba7  1  0.038949  0.320233  0.697860  1
  Ba  Ba8  1  0.046103  0.729725  0.753090  1
  Ba  Ba9  1  0.270275  0.953897  0.253090  1
  Sc  Sc10  1  0.841276  0.355550  0.974365  1
  Sc  Sc11  1  0.644450  0.158724  0.474365  1
  Sc  Sc12  1  0.789121  0.504488  0.508063  1
  Sc  Sc13  1  0.495512  0.210879  0.008063  1
  Sc  Sc14  1  0.701015  0.701015  0.938934  1
  Sc  Sc15  1  0.003595  0.003595  0.967157  1
  Sc  Sc16  1  0.298985  0.298985  0.438934  1
  Sc  Sc17  1  0.996405  0.996405  0.467157  1
  Sc  Sc18  1  0.504488  0.789121  0.508063  1
  Sc  Sc19  1  0.210879  0.495512  0.008063  1
  Sc  Sc20  1  0.355550  0.841276  0.974365  1
  Sc  Sc21  1  0.158724  0.644450  0.474365  1
  O  O22  1  0.809673  0.065316  0.389804  1
  O  O23  1  0.934684  0.190327  0.889804  1
  O  O24  1  0.748291  0.301246  0.581224  1
  O  O25  1  0.698754  0.251709  0.081224  1
  O  O26  1  0.440506  0.006281  0.072414  1
  O  O27  1  0.993719  0.559494  0.572414  1
  O  O28  1  0.804269  0.490456  0.342216  1
  O  O29  1  0.509544  0.195731  0.842216  1
  O  O30  1  0.491302  0.238599  0.370733  1
  O  O31  1  0.761401  0.508698  0.870733  1
  O  O32  1  0.857216  0.857216  0.894879  1
  O  O33  1  0.369241  0.369241  0.066997  1
  O  O34  1  0.696812  0.696812  0.104568  1
  O  O35  1  0.142784  0.142784  0.394879  1
  O  O36  1  0.009499  0.009499  0.633032  1
  O  O37  1  0.303188  0.303188  0.604568  1
  O  O38  1  0.990501  0.990501  0.133032  1
  O  O39  1  0.630759  0.630759  0.566997  1
  O  O40  1  0.238599  0.491302  0.370733  1
  O  O41  1  0.508698  0.761401  0.870733  1
  O  O42  1  0.195731  0.509544  0.842216  1
  O  O43  1  0.490456  0.804269  0.342216  1
  O  O44  1  0.559494  0.993719  0.572414  1
  O  O45  1  0.006281  0.440506  0.072414  1
  O  O46  1  0.251709  0.698754  0.081224  1
  O  O47  1  0.301246  0.748291  0.581224  1
  O  O48  1  0.065316  0.809673  0.389804  1
  O  O49  1  0.190327  0.934684  0.889804  1
