# generated using pymatgen
data_V3CoO8
_symmetry_space_group_name_H-M   'P 1'
_cell_length_a   5.58529047
_cell_length_b   5.59235213
_cell_length_c   7.34726828
_cell_angle_alpha   89.46935858
_cell_angle_beta   89.49956843
_cell_angle_gamma   89.93813741
_symmetry_Int_Tables_number   1
_chemical_formula_structural   V3CoO8
_chemical_formula_sum   'V3 Co1 O8'
_cell_volume   229.47256178
_cell_formula_units_Z   1
loop_
 _symmetry_equiv_pos_site_id
 _symmetry_equiv_pos_as_xyz
  1  'x, y, z'
loop_
 _atom_site_type_symbol
 _atom_site_label
 _atom_site_symmetry_multiplicity
 _atom_site_fract_x
 _atom_site_fract_y
 _atom_site_fract_z
 _atom_site_occupancy
  V  V0  1  0.990167  0.936117  0.121316  1
  V  V1  1  0.501824  0.567529  0.627305  1
  V  V2  1  0.002780  0.432799  0.374872  1
  Co  Co3  1  0.491990  0.067780  0.877264  1
  O  O4  1  0.695375  0.964904  0.074058  1
  O  O5  1  0.550220  0.860124  0.672616  1
  O  O6  1  0.063524  0.631112  0.184884  1
  O  O7  1  0.196495  0.520830  0.557826  1
  O  O8  1  0.693196  0.472373  0.443460  1
  O  O9  1  0.553117  0.399721  0.815997  1
  O  O10  1  0.056023  0.125090  0.311428  1
  O  O11  1  0.156888  0.021623  0.938975  1
