# generated using pymatgen
data_Li4VCo3O8
_symmetry_space_group_name_H-M   'P 1'
_cell_length_a   5.10608045
_cell_length_b   5.57716065
_cell_length_c   6.48596898
_cell_angle_alpha   90.23497741
_cell_angle_beta   90.24379727
_cell_angle_gamma   90.06735755
_symmetry_Int_Tables_number   1
_chemical_formula_structural   Li4VCo3O8
_chemical_formula_sum   'Li4 V1 Co3 O8'
_cell_volume   184.70037687
_cell_formula_units_Z   1
loop_
 _symmetry_equiv_pos_site_id
 _symmetry_equiv_pos_as_xyz
  1  'x, y, z'
loop_
 _atom_site_type_symbol
 _atom_site_label
 _atom_site_symmetry_multiplicity
 _atom_site_fract_x
 _atom_site_fract_y
 _atom_site_fract_z
 _atom_site_occupancy
  Li  Li0  1  0.010719  0.087752  0.383022  1
  Li  Li1  1  0.497377  0.425182  0.868950  1
  Li  Li2  1  0.011010  0.570818  0.125957  1
  Li  Li3  1  0.497134  0.902478  0.623802  1
  V  V4  1  0.498189  0.918912  0.125069  1
  Co  Co5  1  0.007927  0.086748  0.862601  1
  Co  Co6  1  0.495832  0.424273  0.382588  1
  Co  Co7  1  0.003904  0.582820  0.627613  1
  O  O8  1  0.614868  0.064294  0.903529  1
  O  O9  1  0.605915  0.075703  0.345505  1
  O  O10  1  0.111554  0.416077  0.866229  1
  O  O11  1  0.116784  0.422718  0.385836  1
  O  O12  1  0.633063  0.575037  0.624838  1
  O  O13  1  0.607441  0.619779  0.131260  1
  O  O14  1  0.107195  0.904948  0.623324  1
  O  O15  1  0.154689  0.922460  0.119876  1
