# generated using pymatgen
data_Li4Fe(PO3)6
_symmetry_space_group_name_H-M   'P 1'
_cell_length_a   7.32367159
_cell_length_b   7.55424606
_cell_length_c   7.61989223
_cell_angle_alpha   106.72439628
_cell_angle_beta   99.55489580
_cell_angle_gamma   113.39285289
_symmetry_Int_Tables_number   1
_chemical_formula_structural   Li4Fe(PO3)6
_chemical_formula_sum   'Li4 Fe1 P6 O18'
_cell_volume   351.21285920
_cell_formula_units_Z   1
loop_
 _symmetry_equiv_pos_site_id
 _symmetry_equiv_pos_as_xyz
  1  'x, y, z'
loop_
 _atom_site_type_symbol
 _atom_site_label
 _atom_site_symmetry_multiplicity
 _atom_site_fract_x
 _atom_site_fract_y
 _atom_site_fract_z
 _atom_site_occupancy
  Li  Li0  1  0.240214  0.081545  0.877089  1
  Li  Li1  1  0.622619  0.436359  0.844847  1
  Li  Li2  1  0.474889  0.004419  0.548339  1
  Li  Li3  1  0.369645  0.554509  0.140450  1
  Fe  Fe4  1  0.785914  0.933949  0.146629  1
  P  P5  1  0.986169  0.312545  0.778750  1
  P  P6  1  0.329783  0.678364  0.782071  1
  P  P7  1  0.208151  0.266912  0.499620  1
  P  P8  1  0.776323  0.724551  0.489783  1
  P  P9  1  0.675711  0.324395  0.206498  1
  P  P10  1  0.026944  0.694991  0.237935  1
  O  O11  1  0.119579  0.285384  0.930524  1
  O  O12  1  0.492744  0.676285  0.933687  1
  O  O13  1  0.102731  0.559018  0.806643  1
  O  O14  1  0.759269  0.249701  0.752250  1
  O  O15  1  0.368015  0.225122  0.607675  1
  O  O16  1  0.002647  0.201696  0.570312  1
  O  O17  1  0.355771  0.879355  0.768260  1
  O  O18  1  0.821385  0.813069  0.701175  1
  O  O19  1  0.300848  0.519805  0.570143  1
  O  O20  1  0.690127  0.469661  0.416302  1
  O  O21  1  0.120105  0.167736  0.283330  1
  O  O22  1  0.655567  0.121763  0.214467  1
  O  O23  1  0.999913  0.795628  0.443373  1
  O  O24  1  0.638191  0.765429  0.351491  1
  O  O25  1  0.254465  0.762687  0.268865  1
  O  O26  1  0.908573  0.447885  0.195468  1
  O  O27  1  0.515814  0.322845  0.053082  1
  O  O28  1  0.897892  0.724390  0.080940  1
