# generated using pymatgen
data_Li4Mn3Ni3(TeO8)2
_symmetry_space_group_name_H-M   'P 1'
_cell_length_a   5.95012862
_cell_length_b   5.95012862
_cell_length_c   9.71242737
_cell_angle_alpha   88.97000387
_cell_angle_beta   91.02999613
_cell_angle_gamma   119.92872753
_symmetry_Int_Tables_number   1
_chemical_formula_structural   Li4Mn3Ni3(TeO8)2
_chemical_formula_sum   'Li4 Mn3 Ni3 Te2 O16'
_cell_volume   297.94008541
_cell_formula_units_Z   1
loop_
 _symmetry_equiv_pos_site_id
 _symmetry_equiv_pos_as_xyz
  1  'x, y, z'
loop_
 _atom_site_type_symbol
 _atom_site_label
 _atom_site_symmetry_multiplicity
 _atom_site_fract_x
 _atom_site_fract_y
 _atom_site_fract_z
 _atom_site_occupancy
  Li  Li0  1  0.337913  0.662087  0.093122  1
  Li  Li1  1  0.000813  0.999187  0.017714  1
  Li  Li2  1  0.000709  0.999291  0.512110  1
  Li  Li3  1  0.670008  0.329992  0.585215  1
  Mn  Mn4  1  0.170035  0.338461  0.788445  1
  Mn  Mn5  1  0.661539  0.829965  0.788445  1
  Mn  Mn6  1  0.826603  0.173397  0.286524  1
  Ni  Ni7  1  0.172239  0.827761  0.785754  1
  Ni  Ni8  1  0.338996  0.170783  0.288247  1
  Ni  Ni9  1  0.829217  0.661004  0.288247  1
  Te  Te10  1  0.329778  0.670222  0.514255  1
  Te  Te11  1  0.663000  0.337000  0.018171  1
  O  O12  1  0.158512  0.342588  0.404770  1
  O  O13  1  0.484641  0.515359  0.636292  1
  O  O14  1  0.344853  0.655147  0.886750  1
  O  O15  1  0.992251  0.007749  0.702921  1
  O  O16  1  0.989854  0.010146  0.202798  1
  O  O17  1  0.657412  0.841488  0.404770  1
  O  O18  1  0.038947  0.514340  0.648951  1
  O  O19  1  0.485660  0.961053  0.648951  1
  O  O20  1  0.822820  0.177180  0.913242  1
  O  O21  1  0.166759  0.833241  0.414261  1
  O  O22  1  0.529575  0.036249  0.153139  1
  O  O23  1  0.963751  0.470425  0.153139  1
  O  O24  1  0.674979  0.325021  0.388524  1
  O  O25  1  0.337241  0.168107  0.911247  1
  O  O26  1  0.519707  0.480293  0.144918  1
  O  O27  1  0.831893  0.662759  0.911247  1
