# generated using pymatgen
data_Li5VO4F
_symmetry_space_group_name_H-M   'P 1'
_cell_length_a   5.35557956
_cell_length_b   5.35557956
_cell_length_c   8.95309121
_cell_angle_alpha   83.58151143
_cell_angle_beta   96.41848857
_cell_angle_gamma   65.47635589
_symmetry_Int_Tables_number   1
_chemical_formula_structural   Li5VO4F
_chemical_formula_sum   'Li10 V2 O8 F2'
_cell_volume   228.58329219
_cell_formula_units_Z   2
loop_
 _symmetry_equiv_pos_site_id
 _symmetry_equiv_pos_as_xyz
  1  'x, y, z'
loop_
 _atom_site_type_symbol
 _atom_site_label
 _atom_site_symmetry_multiplicity
 _atom_site_fract_x
 _atom_site_fract_y
 _atom_site_fract_z
 _atom_site_occupancy
  Li  Li0  1  0.709196  0.965858  0.438106  1
  Li  Li1  1  0.556333  0.207900  0.054692  1
  Li  Li2  1  0.677135  0.661362  0.252751  1
  Li  Li3  1  0.034142  0.290804  0.938106  1
  Li  Li4  1  0.792100  0.443667  0.554692  1
  Li  Li5  1  0.202113  0.561949  0.443316  1
  Li  Li6  1  0.968940  0.718321  0.066038  1
  Li  Li7  1  0.338638  0.322865  0.752751  1
  Li  Li8  1  0.438051  0.797887  0.943316  1
  Li  Li9  1  0.281679  0.031060  0.566038  1
  V  V10  1  0.135857  0.048710  0.270102  1
  V  V11  1  0.951290  0.864143  0.770102  1
  O  O12  1  0.306024  0.014357  0.106567  1
  O  O13  1  0.438082  0.784159  0.416606  1
  O  O14  1  0.985643  0.693976  0.606567  1
  O  O15  1  0.215841  0.561918  0.916606  1
  O  O16  1  0.878699  0.901261  0.246288  1
  O  O17  1  0.098739  0.121301  0.746288  1
  O  O18  1  0.011097  0.315283  0.386782  1
  O  O19  1  0.684717  0.988903  0.886782  1
  F  F20  1  0.764193  0.468507  0.068752  1
  F  F21  1  0.531493  0.235807  0.568752  1
