# generated using pymatgen
data_Na3FeAsCO7
_symmetry_space_group_name_H-M   'P 1'
_cell_length_a   5.29792791
_cell_length_b   6.85711732
_cell_length_c   9.27414904
_cell_angle_alpha   90.00000000
_cell_angle_beta   91.22016535
_cell_angle_gamma   90.00000000
_symmetry_Int_Tables_number   1
_chemical_formula_structural   Na3FeAsCO7
_chemical_formula_sum   'Na6 Fe2 As2 C2 O14'
_cell_volume   336.83965086
_cell_formula_units_Z   2
loop_
 _symmetry_equiv_pos_site_id
 _symmetry_equiv_pos_as_xyz
  1  'x, y, z'
loop_
 _atom_site_type_symbol
 _atom_site_label
 _atom_site_symmetry_multiplicity
 _atom_site_fract_x
 _atom_site_fract_y
 _atom_site_fract_z
 _atom_site_occupancy
  Na  Na0  1  0.239742  0.750000  0.080039  1
  Na  Na1  1  0.750867  0.998030  0.255795  1
  Na  Na2  1  0.750867  0.501970  0.255795  1
  Na  Na3  1  0.249133  0.498030  0.744205  1
  Na  Na4  1  0.249133  0.001970  0.744205  1
  Na  Na5  1  0.760258  0.250000  0.919961  1
  Fe  Fe6  1  0.216888  0.250000  0.345800  1
  Fe  Fe7  1  0.783112  0.750000  0.654200  1
  As  As8  1  0.300531  0.750000  0.415821  1
  As  As9  1  0.699469  0.250000  0.584179  1
  C  C10  1  0.271231  0.250000  0.057936  1
  C  C11  1  0.728769  0.750000  0.942064  1
  O  O12  1  0.711348  0.750000  0.081541  1
  O  O13  1  0.050270  0.250000  0.117396  1
  O  O14  1  0.473696  0.250000  0.140060  1
  O  O15  1  0.217654  0.947144  0.308057  1
  O  O16  1  0.217654  0.552856  0.308057  1
  O  O17  1  0.625292  0.750000  0.440020  1
  O  O18  1  0.838296  0.250000  0.419429  1
  O  O19  1  0.161704  0.750000  0.580571  1
  O  O20  1  0.374708  0.250000  0.559980  1
  O  O21  1  0.782346  0.447144  0.691943  1
  O  O22  1  0.782346  0.052856  0.691943  1
  O  O23  1  0.526304  0.750000  0.859940  1
  O  O24  1  0.949730  0.750000  0.882604  1
  O  O25  1  0.288652  0.250000  0.918459  1
