# generated using pymatgen
data_Li4Cr3FeO8
_symmetry_space_group_name_H-M   'P 1'
_cell_length_a   5.12331303
_cell_length_b   5.88650982
_cell_length_c   10.19457918
_cell_angle_alpha   90.05442899
_cell_angle_beta   99.54100317
_cell_angle_gamma   106.71097580
_symmetry_Int_Tables_number   1
_chemical_formula_structural   Li4Cr3FeO8
_chemical_formula_sum   'Li8 Cr6 Fe2 O16'
_cell_volume   290.00985193
_cell_formula_units_Z   2
loop_
 _symmetry_equiv_pos_site_id
 _symmetry_equiv_pos_as_xyz
  1  'x, y, z'
loop_
 _atom_site_type_symbol
 _atom_site_label
 _atom_site_symmetry_multiplicity
 _atom_site_fract_x
 _atom_site_fract_y
 _atom_site_fract_z
 _atom_site_occupancy
  Li  Li0  1  0.000331  0.749106  0.751450  1
  Li  Li1  1  0.998021  0.748528  0.250276  1
  Li  Li2  1  0.000000  0.500000  0.500000  1
  Li  Li3  1  0.000000  0.500000  0.000000  1
  Li  Li4  1  0.001979  0.251472  0.749724  1
  Li  Li5  1  0.999669  0.250894  0.248550  1
  Li  Li6  1  0.000000  0.000000  0.500000  1
  Li  Li7  1  0.000000  0.000000  0.000000  1
  Cr  Cr8  1  0.499949  0.624073  0.373407  1
  Cr  Cr9  1  0.500051  0.375927  0.626593  1
  Cr  Cr10  1  0.499978  0.125958  0.373282  1
  Cr  Cr11  1  0.499785  0.126440  0.876715  1
  Cr  Cr12  1  0.500022  0.874042  0.626718  1
  Cr  Cr13  1  0.500215  0.873560  0.123285  1
  Fe  Fe14  1  0.500129  0.624369  0.876226  1
  Fe  Fe15  1  0.499871  0.375631  0.123774  1
  O  O16  1  0.275974  0.568457  0.693355  1
  O  O17  1  0.276246  0.565552  0.187521  1
  O  O18  1  0.726361  0.681491  0.560545  1
  O  O19  1  0.721168  0.675964  0.058495  1
  O  O20  1  0.273639  0.318509  0.439455  1
  O  O21  1  0.724026  0.431543  0.306645  1
  O  O22  1  0.278832  0.324036  0.941505  1
  O  O23  1  0.723754  0.434448  0.812479  1
  O  O24  1  0.273445  0.068526  0.690489  1
  O  O25  1  0.726192  0.181868  0.560707  1
  O  O26  1  0.276089  0.072249  0.186859  1
  O  O27  1  0.723749  0.184617  0.061550  1
  O  O28  1  0.273808  0.818132  0.439293  1
  O  O29  1  0.726555  0.931474  0.309511  1
  O  O30  1  0.276251  0.815383  0.938450  1
  O  O31  1  0.723911  0.927751  0.813141  1
