# generated using pymatgen
data_Li3Mn(BO2)5
_symmetry_space_group_name_H-M   'P 1'
_cell_length_a   6.98763970
_cell_length_b   7.18951438
_cell_length_c   9.46578403
_cell_angle_alpha   80.59641769
_cell_angle_beta   110.73906506
_cell_angle_gamma   117.77258124
_symmetry_Int_Tables_number   1
_chemical_formula_structural   Li3Mn(BO2)5
_chemical_formula_sum   'Li6 Mn2 B10 O20'
_cell_volume   393.49456130
_cell_formula_units_Z   2
loop_
 _symmetry_equiv_pos_site_id
 _symmetry_equiv_pos_as_xyz
  1  'x, y, z'
loop_
 _atom_site_type_symbol
 _atom_site_label
 _atom_site_symmetry_multiplicity
 _atom_site_fract_x
 _atom_site_fract_y
 _atom_site_fract_z
 _atom_site_occupancy
  Li  Li0  1  0.221280  0.491679  0.755360  1
  Li  Li1  1  0.799129  0.987830  0.839751  1
  Li  Li2  1  0.025859  0.819212  0.533158  1
  Li  Li3  1  0.974141  0.180788  0.466842  1
  Li  Li4  1  0.200871  0.012170  0.160249  1
  Li  Li5  1  0.778720  0.508321  0.244640  1
  Mn  Mn6  1  0.223076  0.479379  0.120396  1
  Mn  Mn7  1  0.776924  0.520621  0.879604  1
  B  B8  1  0.304504  0.183944  0.924804  1
  B  B9  1  0.406623  0.134333  0.705473  1
  B  B10  1  0.362190  0.242393  0.430932  1
  B  B11  1  0.220059  0.828135  0.863212  1
  B  B12  1  0.739858  0.277127  0.600028  1
  B  B13  1  0.260142  0.722873  0.399972  1
  B  B14  1  0.779941  0.171865  0.136788  1
  B  B15  1  0.637810  0.757607  0.569068  1
  B  B16  1  0.593377  0.865667  0.294527  1
  B  B17  1  0.695496  0.816056  0.075196  1
  O  O18  1  0.267387  0.290194  0.004913  1
  O  O19  1  0.270390  0.155744  0.549767  1
  O  O20  1  0.405165  0.269648  0.810456  1
  O  O21  1  0.220775  0.246774  0.292336  1
  O  O22  1  0.135870  0.619632  0.894020  1
  O  O23  1  0.649616  0.206916  0.722282  1
  O  O24  1  0.052637  0.699094  0.381493  1
  O  O25  1  0.700156  0.091421  0.258482  1
  O  O26  1  0.596930  0.313583  0.460773  1
  O  O27  1  0.767392  0.032559  0.042452  1
  O  O28  1  0.232608  0.967441  0.957548  1
  O  O29  1  0.403070  0.686417  0.539227  1
  O  O30  1  0.299844  0.908579  0.741518  1
  O  O31  1  0.947363  0.300906  0.618507  1
  O  O32  1  0.350384  0.793084  0.277718  1
  O  O33  1  0.864130  0.380368  0.105980  1
  O  O34  1  0.779225  0.753226  0.707664  1
  O  O35  1  0.594835  0.730352  0.189544  1
  O  O36  1  0.729610  0.844256  0.450233  1
  O  O37  1  0.732613  0.709806  0.995087  1
