# generated using pymatgen
data_LiV2F9
_symmetry_space_group_name_H-M   'P 1'
_cell_length_a   5.03422352
_cell_length_b   8.48900315
_cell_length_c   8.91914971
_cell_angle_alpha   111.77246949
_cell_angle_beta   93.05925390
_cell_angle_gamma   100.24091299
_symmetry_Int_Tables_number   1
_chemical_formula_structural   LiV2F9
_chemical_formula_sum   'Li2 V4 F18'
_cell_volume   345.35322077
_cell_formula_units_Z   2
loop_
 _symmetry_equiv_pos_site_id
 _symmetry_equiv_pos_as_xyz
  1  'x, y, z'
loop_
 _atom_site_type_symbol
 _atom_site_label
 _atom_site_symmetry_multiplicity
 _atom_site_fract_x
 _atom_site_fract_y
 _atom_site_fract_z
 _atom_site_occupancy
  Li  Li0  1  0.959049  0.611540  0.865004  1
  Li  Li1  1  0.040951  0.388460  0.134996  1
  V  V2  1  0.314408  0.255981  0.755559  1
  V  V3  1  0.592935  0.212926  0.334890  1
  V  V4  1  0.407065  0.787074  0.665110  1
  V  V5  1  0.685592  0.744019  0.244441  1
  F  F6  1  0.336346  0.310002  0.283456  1
  F  F7  1  0.785821  0.729955  0.043967  1
  F  F8  1  0.790297  0.540230  0.224062  1
  F  F9  1  0.426092  0.221986  0.530257  1
  F  F10  1  0.668840  0.364839  0.836549  1
  F  F11  1  0.998833  0.885504  0.349856  1
  F  F12  1  0.100238  0.672427  0.536575  1
  F  F13  1  0.449608  0.026798  0.726281  1
  F  F14  1  0.756374  0.196881  0.150695  1
  F  F15  1  0.243626  0.803119  0.849305  1
  F  F16  1  0.550392  0.973202  0.273719  1
  F  F17  1  0.899762  0.327573  0.463425  1
  F  F18  1  0.001167  0.114496  0.650144  1
  F  F19  1  0.331160  0.635161  0.163451  1
  F  F20  1  0.573908  0.778014  0.469743  1
  F  F21  1  0.209703  0.459770  0.775938  1
  F  F22  1  0.214179  0.270045  0.956033  1
  F  F23  1  0.663654  0.689998  0.716544  1
