# generated using pymatgen
data_Mn6OF11
_symmetry_space_group_name_H-M   'P 1'
_cell_length_a   4.94820699
_cell_length_b   16.24889962
_cell_length_c   7.54458552
_cell_angle_alpha   90.00000000
_cell_angle_beta   129.12117347
_cell_angle_gamma   90.00000000
_symmetry_Int_Tables_number   1
_chemical_formula_structural   Mn6OF11
_chemical_formula_sum   'Mn12 O2 F22'
_cell_volume   470.61353627
_cell_formula_units_Z   2
loop_
 _symmetry_equiv_pos_site_id
 _symmetry_equiv_pos_as_xyz
  1  'x, y, z'
loop_
 _atom_site_type_symbol
 _atom_site_label
 _atom_site_symmetry_multiplicity
 _atom_site_fract_x
 _atom_site_fract_y
 _atom_site_fract_z
 _atom_site_occupancy
  Mn  Mn0  1  0.829186  0.831397  0.833949  1
  Mn  Mn1  1  0.141070  0.654630  0.164818  1
  Mn  Mn2  1  0.845757  0.498192  0.839767  1
  Mn  Mn3  1  0.814334  0.170298  0.825049  1
  Mn  Mn4  1  0.175172  0.000662  0.170433  1
  Mn  Mn5  1  0.176579  0.334931  0.169957  1
  Mn  Mn6  1  0.175172  0.999338  0.670433  1
  Mn  Mn7  1  0.141070  0.345370  0.664818  1
  Mn  Mn8  1  0.176579  0.665069  0.669957  1
  Mn  Mn9  1  0.845757  0.501808  0.339767  1
  Mn  Mn10  1  0.814334  0.829702  0.325049  1
  Mn  Mn11  1  0.829186  0.168603  0.333949  1
  O  O12  1  0.890413  0.546083  0.110408  1
  O  O13  1  0.890413  0.453917  0.610408  1
  F  F14  1  0.662085  0.721994  0.898835  1
  F  F15  1  0.666948  0.057958  0.895265  1
  F  F16  1  0.668963  0.389637  0.879254  1
  F  F17  1  0.870651  0.891537  0.105864  1
  F  F18  1  0.883455  0.226439  0.110057  1
  F  F19  1  0.356670  0.557388  0.606287  1
  F  F20  1  0.128006  0.722356  0.393043  1
  F  F21  1  0.333166  0.888422  0.603294  1
  F  F22  1  0.130559  0.060480  0.397729  1
  F  F23  1  0.324959  0.232369  0.612557  1
  F  F24  1  0.102028  0.393067  0.383436  1
  F  F25  1  0.668963  0.610363  0.379254  1
  F  F26  1  0.883455  0.773561  0.610057  1
  F  F27  1  0.666948  0.942042  0.395265  1
  F  F28  1  0.662085  0.278006  0.398835  1
  F  F29  1  0.870651  0.108463  0.605864  1
  F  F30  1  0.102028  0.606933  0.883436  1
  F  F31  1  0.130559  0.939520  0.897729  1
  F  F32  1  0.324959  0.767631  0.112557  1
  F  F33  1  0.356670  0.442612  0.106287  1
  F  F34  1  0.128006  0.277644  0.893043  1
  F  F35  1  0.333166  0.111578  0.103294  1
