# generated using pymatgen
data_LiVCuO4
_symmetry_space_group_name_H-M   'P 1'
_cell_length_a   6.09524361
_cell_length_b   6.09524361
_cell_length_c   7.79678444
_cell_angle_alpha   90.00000000
_cell_angle_beta   90.00000000
_cell_angle_gamma   90.00000000
_symmetry_Int_Tables_number   1
_chemical_formula_structural   LiVCuO4
_chemical_formula_sum   'Li4 V4 Cu4 O16'
_cell_volume   289.66609350
_cell_formula_units_Z   4
loop_
 _symmetry_equiv_pos_site_id
 _symmetry_equiv_pos_as_xyz
  1  'x, y, z'
loop_
 _atom_site_type_symbol
 _atom_site_label
 _atom_site_symmetry_multiplicity
 _atom_site_fract_x
 _atom_site_fract_y
 _atom_site_fract_z
 _atom_site_occupancy
  Li  Li0  1  0.500000  0.736781  0.000000  1
  Li  Li1  1  0.500000  0.263219  0.500000  1
  Li  Li2  1  0.736781  0.500000  0.250000  1
  Li  Li3  1  0.263219  0.500000  0.750000  1
  V  V4  1  0.716509  0.000000  0.250000  1
  V  V5  1  0.000000  0.716509  0.000000  1
  V  V6  1  0.000000  0.283491  0.500000  1
  V  V7  1  0.283491  0.000000  0.750000  1
  Cu  Cu8  1  0.759439  0.759439  0.625000  1
  Cu  Cu9  1  0.759439  0.240561  0.875000  1
  Cu  Cu10  1  0.240561  0.759439  0.375000  1
  Cu  Cu11  1  0.240561  0.240561  0.125000  1
  O  O12  1  0.533603  0.774944  0.267714  1
  O  O13  1  0.533603  0.225056  0.232286  1
  O  O14  1  0.774944  0.533603  0.982286  1
  O  O15  1  0.774944  0.466397  0.517714  1
  O  O16  1  0.769864  0.972690  0.010671  1
  O  O17  1  0.769864  0.027310  0.489329  1
  O  O18  1  0.972690  0.769864  0.239329  1
  O  O19  1  0.972690  0.230136  0.260671  1
  O  O20  1  0.027310  0.769864  0.760671  1
  O  O21  1  0.027310  0.230136  0.739329  1
  O  O22  1  0.230136  0.027310  0.510671  1
  O  O23  1  0.230136  0.972690  0.989329  1
  O  O24  1  0.225056  0.533603  0.017714  1
  O  O25  1  0.225056  0.466397  0.482286  1
  O  O26  1  0.466397  0.774944  0.732286  1
  O  O27  1  0.466397  0.225056  0.767714  1
