# generated using pymatgen
data_Li6Mn5SbO12
_symmetry_space_group_name_H-M   'P 1'
_cell_length_a   5.31810136
_cell_length_b   5.31810136
_cell_length_c   10.44754558
_cell_angle_alpha   86.67357863
_cell_angle_beta   93.32642137
_cell_angle_gamma   62.94054636
_symmetry_Int_Tables_number   1
_chemical_formula_structural   Li6Mn5SbO12
_chemical_formula_sum   'Li6 Mn5 Sb1 O12'
_cell_volume   261.50455032
_cell_formula_units_Z   1
loop_
 _symmetry_equiv_pos_site_id
 _symmetry_equiv_pos_as_xyz
  1  'x, y, z'
loop_
 _atom_site_type_symbol
 _atom_site_label
 _atom_site_symmetry_multiplicity
 _atom_site_fract_x
 _atom_site_fract_y
 _atom_site_fract_z
 _atom_site_occupancy
  Li  Li0  1  0.436940  0.902070  0.285471  1
  Li  Li1  1  0.235917  0.764083  0.714703  1
  Li  Li2  1  0.902070  0.436940  0.714529  1
  Li  Li3  1  0.097930  0.563060  0.285471  1
  Li  Li4  1  0.764083  0.235917  0.285297  1
  Li  Li5  1  0.563060  0.097930  0.714529  1
  Mn  Mn6  1  0.832329  0.832329  0.500000  1
  Mn  Mn7  1  0.500000  0.500000  0.500000  1
  Mn  Mn8  1  0.167671  0.167671  0.500000  1
  Mn  Mn9  1  0.666899  0.666899  0.000000  1
  Mn  Mn10  1  0.333101  0.333101  0.000000  1
  Sb  Sb11  1  0.000000  0.000000  0.000000  1
  O  O12  1  0.674355  0.002269  0.893922  1
  O  O13  1  0.002269  0.674355  0.106078  1
  O  O14  1  0.569025  0.786729  0.616509  1
  O  O15  1  0.103396  0.896604  0.391138  1
  O  O16  1  0.786729  0.569025  0.383491  1
  O  O17  1  0.298772  0.701228  0.900877  1
  O  O18  1  0.701228  0.298772  0.099123  1
  O  O19  1  0.213271  0.430975  0.616509  1
  O  O20  1  0.896604  0.103396  0.608862  1
  O  O21  1  0.430975  0.213271  0.383491  1
  O  O22  1  0.997731  0.325645  0.893922  1
  O  O23  1  0.325645  0.997731  0.106078  1
