# generated using pymatgen
data_Li2Ni(PO4)2
_symmetry_space_group_name_H-M   'P 1'
_cell_length_a   8.21160029
_cell_length_b   10.36919575
_cell_length_c   8.30770166
_cell_angle_alpha   90.00000000
_cell_angle_beta   103.83777795
_cell_angle_gamma   90.00000000
_symmetry_Int_Tables_number   1
_chemical_formula_structural   Li2Ni(PO4)2
_chemical_formula_sum   'Li8 Ni4 P8 O32'
_cell_volume   686.85112879
_cell_formula_units_Z   4
loop_
 _symmetry_equiv_pos_site_id
 _symmetry_equiv_pos_as_xyz
  1  'x, y, z'
loop_
 _atom_site_type_symbol
 _atom_site_label
 _atom_site_symmetry_multiplicity
 _atom_site_fract_x
 _atom_site_fract_y
 _atom_site_fract_z
 _atom_site_occupancy
  Li  Li0  1  0.605245  0.169939  0.835670  1
  Li  Li1  1  0.609898  0.330102  0.351149  1
  Li  Li2  1  0.390102  0.830102  0.648851  1
  Li  Li3  1  0.550127  0.431680  0.029092  1
  Li  Li4  1  0.394755  0.669939  0.164330  1
  Li  Li5  1  0.644827  0.850818  0.420014  1
  Li  Li6  1  0.355173  0.350818  0.579986  1
  Li  Li7  1  0.449873  0.931680  0.970908  1
  Ni  Ni8  1  0.089116  0.334431  0.836155  1
  Ni  Ni9  1  0.897463  0.656299  0.662373  1
  Ni  Ni10  1  0.910884  0.834431  0.163845  1
  Ni  Ni11  1  0.102537  0.156299  0.337627  1
  P  P12  1  0.276177  0.582806  0.784965  1
  P  P13  1  0.233534  0.099153  0.707429  1
  P  P14  1  0.764585  0.903180  0.795472  1
  P  P15  1  0.285300  0.911546  0.279306  1
  P  P16  1  0.235415  0.403180  0.204528  1
  P  P17  1  0.766466  0.599153  0.292571  1
  P  P18  1  0.714700  0.411546  0.720694  1
  P  P19  1  0.723823  0.082806  0.215035  1
  O  O20  1  0.911514  0.886742  0.950215  1
  O  O21  1  0.088569  0.103261  0.545582  1
  O  O22  1  0.759023  0.557658  0.755037  1
  O  O23  1  0.122299  0.841087  0.298314  1
  O  O24  1  0.280357  0.961412  0.762772  1
  O  O25  1  0.405193  0.589244  0.951372  1
  O  O26  1  0.262589  0.544327  0.256389  1
  O  O27  1  0.383278  0.176591  0.679933  1
  O  O28  1  0.651665  0.143700  0.350002  1
  O  O29  1  0.835733  0.667233  0.153807  1
  O  O30  1  0.652011  0.356835  0.865275  1
  O  O31  1  0.598817  0.854158  0.830067  1
  O  O32  1  0.806384  0.824702  0.649046  1
  O  O33  1  0.233688  0.436659  0.741069  1
  O  O34  1  0.766312  0.936659  0.258931  1
  O  O35  1  0.164267  0.167233  0.846193  1
  O  O36  1  0.418387  0.894740  0.440645  1
  O  O37  1  0.737411  0.044327  0.743611  1
  O  O38  1  0.348335  0.643700  0.649998  1
  O  O39  1  0.240977  0.057658  0.244963  1
  O  O40  1  0.114228  0.655655  0.796834  1
  O  O41  1  0.347989  0.856835  0.134725  1
  O  O42  1  0.616722  0.676591  0.320067  1
  O  O43  1  0.594807  0.089244  0.048628  1
  O  O44  1  0.719643  0.461412  0.237228  1
  O  O45  1  0.911431  0.603261  0.454418  1
  O  O46  1  0.193616  0.324702  0.350954  1
  O  O47  1  0.581613  0.394740  0.559355  1
  O  O48  1  0.088486  0.386742  0.049785  1
  O  O49  1  0.401183  0.354158  0.169933  1
  O  O50  1  0.877701  0.341087  0.701686  1
  O  O51  1  0.885772  0.155655  0.203166  1
