# generated using pymatgen
data_VBO4
_symmetry_space_group_name_H-M   'P 1'
_cell_length_a   5.03626957
_cell_length_b   5.04700532
_cell_length_c   11.39743564
_cell_angle_alpha   90.00000000
_cell_angle_beta   109.90993742
_cell_angle_gamma   90.00000000
_symmetry_Int_Tables_number   1
_chemical_formula_structural   VBO4
_chemical_formula_sum   'V4 B4 O16'
_cell_volume   272.38523140
_cell_formula_units_Z   4
loop_
 _symmetry_equiv_pos_site_id
 _symmetry_equiv_pos_as_xyz
  1  'x, y, z'
loop_
 _atom_site_type_symbol
 _atom_site_label
 _atom_site_symmetry_multiplicity
 _atom_site_fract_x
 _atom_site_fract_y
 _atom_site_fract_z
 _atom_site_occupancy
  V  V0  1  0.686550  0.242237  0.573238  1
  V  V1  1  0.686550  0.257763  0.073238  1
  V  V2  1  0.313450  0.742237  0.926762  1
  V  V3  1  0.313450  0.757763  0.426762  1
  B  B4  1  0.726757  0.028785  0.828433  1
  B  B5  1  0.273243  0.528785  0.671567  1
  B  B6  1  0.726757  0.471215  0.328433  1
  B  B7  1  0.273243  0.971215  0.171567  1
  O  O8  1  0.388562  0.845706  0.282751  1
  O  O9  1  0.598689  0.446088  0.419514  1
  O  O10  1  0.401311  0.946088  0.080486  1
  O  O11  1  0.758399  0.950316  0.526215  1
  O  O12  1  0.611438  0.345706  0.217249  1
  O  O13  1  0.978434  0.892195  0.855478  1
  O  O14  1  0.021566  0.392195  0.644522  1
  O  O15  1  0.241601  0.450316  0.973785  1
  O  O16  1  0.758399  0.549684  0.026215  1
  O  O17  1  0.978434  0.607805  0.355478  1
  O  O18  1  0.021566  0.107805  0.144522  1
  O  O19  1  0.388562  0.654294  0.782751  1
  O  O20  1  0.241601  0.049684  0.473785  1
  O  O21  1  0.598689  0.053912  0.919514  1
  O  O22  1  0.401311  0.553912  0.580486  1
  O  O23  1  0.611438  0.154294  0.717249  1
