# generated using pymatgen
data_Li4TiS4
_symmetry_space_group_name_H-M   'P 1'
_cell_length_a   7.23531779
_cell_length_b   7.22643351
_cell_length_c   13.04466713
_cell_angle_alpha   90.00000000
_cell_angle_beta   102.82088264
_cell_angle_gamma   90.00000000
_symmetry_Int_Tables_number   1
_chemical_formula_structural   Li4TiS4
_chemical_formula_sum   'Li16 Ti4 S16'
_cell_volume   665.04306403
_cell_formula_units_Z   4
loop_
 _symmetry_equiv_pos_site_id
 _symmetry_equiv_pos_as_xyz
  1  'x, y, z'
loop_
 _atom_site_type_symbol
 _atom_site_label
 _atom_site_symmetry_multiplicity
 _atom_site_fract_x
 _atom_site_fract_y
 _atom_site_fract_z
 _atom_site_occupancy
  Li  Li0  1  0.998879  0.481572  0.636146  1
  Li  Li1  1  0.176501  0.920320  0.611367  1
  Li  Li2  1  0.998879  0.018428  0.136146  1
  Li  Li3  1  0.398417  0.225286  0.858578  1
  Li  Li4  1  0.419135  0.316429  0.611897  1
  Li  Li5  1  0.176501  0.579680  0.111367  1
  Li  Li6  1  0.580865  0.816429  0.888103  1
  Li  Li7  1  0.398417  0.274714  0.358578  1
  Li  Li8  1  0.601583  0.725286  0.641422  1
  Li  Li9  1  0.419135  0.183571  0.111897  1
  Li  Li10  1  0.823499  0.420320  0.888633  1
  Li  Li11  1  0.580865  0.683571  0.388103  1
  Li  Li12  1  0.601583  0.774714  0.141422  1
  Li  Li13  1  0.001121  0.981572  0.863854  1
  Li  Li14  1  0.823499  0.079680  0.388633  1
  Li  Li15  1  0.001121  0.518428  0.363854  1
  Ti  Ti16  1  0.211205  0.599817  0.876259  1
  Ti  Ti17  1  0.211205  0.900183  0.376259  1
  Ti  Ti18  1  0.788795  0.099817  0.623741  1
  Ti  Ti19  1  0.788795  0.400183  0.123741  1
  S  S20  1  0.078004  0.166608  0.722676  1
  S  S21  1  0.184625  0.344381  0.971273  1
  S  S22  1  0.298954  0.846567  0.985460  1
  S  S23  1  0.078004  0.333392  0.222676  1
  S  S24  1  0.184625  0.155619  0.471273  1
  S  S25  1  0.423982  0.547477  0.772914  1
  S  S26  1  0.298954  0.653433  0.485460  1
  S  S27  1  0.423982  0.952523  0.272914  1
  S  S28  1  0.576018  0.047477  0.727086  1
  S  S29  1  0.701046  0.346567  0.514540  1
  S  S30  1  0.576018  0.452523  0.227086  1
  S  S31  1  0.815375  0.844381  0.528727  1
  S  S32  1  0.921996  0.666608  0.777324  1
  S  S33  1  0.701046  0.153433  0.014540  1
  S  S34  1  0.815375  0.655619  0.028727  1
  S  S35  1  0.921996  0.833392  0.277324  1
