# generated using pymatgen
data_Li5Fe4P4O16F
_symmetry_space_group_name_H-M   'P 1'
_cell_length_a   8.30638036
_cell_length_b   8.30638036
_cell_length_c   8.30638036
_cell_angle_alpha   95.93920697
_cell_angle_beta   95.93920697
_cell_angle_gamma   142.47180192
_symmetry_Int_Tables_number   1
_chemical_formula_structural   Li5Fe4P4O16F
_chemical_formula_sum   'Li5 Fe4 P4 O16 F1'
_cell_volume   330.55415444
_cell_formula_units_Z   1
loop_
 _symmetry_equiv_pos_site_id
 _symmetry_equiv_pos_as_xyz
  1  'x, y, z'
loop_
 _atom_site_type_symbol
 _atom_site_label
 _atom_site_symmetry_multiplicity
 _atom_site_fract_x
 _atom_site_fract_y
 _atom_site_fract_z
 _atom_site_occupancy
  Li  Li0  1  0.500000  0.500000  0.000000  1
  Li  Li1  1  0.996197  0.667369  0.552244  1
  Li  Li2  1  0.556047  0.003803  0.671172  1
  Li  Li3  1  0.332631  0.884875  0.328828  1
  Li  Li4  1  0.115125  0.443953  0.447756  1
  Fe  Fe5  1  0.084519  0.805355  0.957665  1
  Fe  Fe6  1  0.194645  0.152310  0.279163  1
  Fe  Fe7  1  0.873147  0.915481  0.720837  1
  Fe  Fe8  1  0.847690  0.126853  0.042335  1
  P  P9  1  0.440784  0.279229  0.651859  1
  P  P10  1  0.211075  0.559216  0.838445  1
  P  P11  1  0.720771  0.372630  0.161555  1
  P  P12  1  0.627370  0.788925  0.348141  1
  O  O13  1  0.301338  0.179979  0.795866  1
  O  O14  1  0.766167  0.574407  0.728853  1
  O  O15  1  0.683426  0.214526  0.008705  1
  O  O16  1  0.785474  0.794179  0.468900  1
  O  O17  1  0.388979  0.065078  0.556737  1
  O  O18  1  0.167757  0.611021  0.676099  1
  O  O19  1  0.494528  0.698662  0.878641  1
  O  O20  1  0.962686  0.233833  0.808240  1
  O  O21  1  0.425593  0.154446  0.191760  1
  O  O22  1  0.820021  0.615887  0.121359  1
  O  O23  1  0.934922  0.491659  0.323901  1
  O  O24  1  0.508341  0.832243  0.443263  1
  O  O25  1  0.325279  0.316574  0.531100  1
  O  O26  1  0.205821  0.674721  0.991295  1
  O  O27  1  0.845554  0.037314  0.271147  1
  O  O28  1  0.384113  0.505472  0.204134  1
  F  F29  1  0.000000  0.000000  0.000000  1
