# generated using pymatgen
data_Co3(O2F)2
_symmetry_space_group_name_H-M   'P 1'
_cell_length_a   5.44007014
_cell_length_b   5.45362832
_cell_length_c   6.81921150
_cell_angle_alpha   74.83508386
_cell_angle_beta   74.57289959
_cell_angle_gamma   77.30492253
_symmetry_Int_Tables_number   1
_chemical_formula_structural   Co3(O2F)2
_chemical_formula_sum   'Co6 O8 F4'
_cell_volume   185.76429685
_cell_formula_units_Z   2
loop_
 _symmetry_equiv_pos_site_id
 _symmetry_equiv_pos_as_xyz
  1  'x, y, z'
loop_
 _atom_site_type_symbol
 _atom_site_label
 _atom_site_symmetry_multiplicity
 _atom_site_fract_x
 _atom_site_fract_y
 _atom_site_fract_z
 _atom_site_occupancy
  Co  Co0  1  0.500000  0.500000  0.500000  1
  Co  Co1  1  0.500000  0.500000  0.000000  1
  Co  Co2  1  0.203123  0.126481  0.332220  1
  Co  Co3  1  0.177952  0.167758  0.827682  1
  Co  Co4  1  0.822048  0.832242  0.172318  1
  Co  Co5  1  0.796877  0.873519  0.667780  1
  O  O6  1  0.406913  0.386342  0.298189  1
  O  O7  1  0.718350  0.741807  0.963598  1
  O  O8  1  0.069409  0.065769  0.626935  1
  O  O9  1  0.281650  0.258193  0.036402  1
  O  O10  1  0.593087  0.613658  0.701811  1
  O  O11  1  0.930591  0.934231  0.373065  1
  O  O12  1  0.481425  0.839058  0.336849  1
  O  O13  1  0.518575  0.160942  0.663151  1
  F  F14  1  0.179303  0.799822  0.010229  1
  F  F15  1  0.870543  0.456292  0.334652  1
  F  F16  1  0.820697  0.200178  0.989771  1
  F  F17  1  0.129457  0.543708  0.665348  1
