# generated using pymatgen
data_Li5Fe2Cu3O10
_symmetry_space_group_name_H-M   'P 1'
_cell_length_a   5.07002592
_cell_length_b   5.53122993
_cell_length_c   7.65158833
_cell_angle_alpha   102.49188758
_cell_angle_beta   103.96234291
_cell_angle_gamma   105.70693213
_symmetry_Int_Tables_number   1
_chemical_formula_structural   Li5Fe2Cu3O10
_chemical_formula_sum   'Li5 Fe2 Cu3 O10'
_cell_volume   191.13640873
_cell_formula_units_Z   1
loop_
 _symmetry_equiv_pos_site_id
 _symmetry_equiv_pos_as_xyz
  1  'x, y, z'
loop_
 _atom_site_type_symbol
 _atom_site_label
 _atom_site_symmetry_multiplicity
 _atom_site_fract_x
 _atom_site_fract_y
 _atom_site_fract_z
 _atom_site_occupancy
  Li  Li0  1  0.204747  0.894502  0.393971  1
  Li  Li1  1  0.396214  0.295372  0.787937  1
  Li  Li2  1  0.500000  0.500000  0.500000  1
  Li  Li3  1  0.603786  0.704628  0.212063  1
  Li  Li4  1  0.795253  0.105498  0.606029  1
  Fe  Fe5  1  0.095762  0.684205  0.690408  1
  Fe  Fe6  1  0.904238  0.315795  0.309592  1
  Cu  Cu7  1  0.000000  0.500000  0.000000  1
  Cu  Cu8  1  0.701016  0.890565  0.900930  1
  Cu  Cu9  1  0.298984  0.109435  0.099070  1
  O  O10  1  0.053529  0.043048  0.848750  1
  O  O11  1  0.349598  0.668861  0.926822  1
  O  O12  1  0.134719  0.315423  0.540632  1
  O  O13  1  0.215478  0.529277  0.245497  1
  O  O14  1  0.454928  0.886728  0.670132  1
  O  O15  1  0.545072  0.113272  0.329868  1
  O  O16  1  0.784522  0.470723  0.754503  1
  O  O17  1  0.865281  0.684577  0.459368  1
  O  O18  1  0.650402  0.331139  0.073178  1
  O  O19  1  0.946471  0.956952  0.151250  1
