# generated using pymatgen
data_TaNbO5
_symmetry_space_group_name_H-M   'P 1'
_cell_length_a   14.37690380
_cell_length_b   5.70446818
_cell_length_c   14.38985306
_cell_angle_alpha   90.00000000
_cell_angle_beta   119.71529814
_cell_angle_gamma   90.00000000
_symmetry_Int_Tables_number   1
_chemical_formula_structural   TaNbO5
_chemical_formula_sum   'Ta8 Nb8 O40'
_cell_volume   1024.95856291
_cell_formula_units_Z   8
loop_
 _symmetry_equiv_pos_site_id
 _symmetry_equiv_pos_as_xyz
  1  'x, y, z'
loop_
 _atom_site_type_symbol
 _atom_site_label
 _atom_site_symmetry_multiplicity
 _atom_site_fract_x
 _atom_site_fract_y
 _atom_site_fract_z
 _atom_site_occupancy
  Ta  Ta0  1  0.154265  0.733680  0.592539  1
  Ta  Ta1  1  0.345597  0.239250  0.439041  1
  Ta  Ta2  1  0.154265  0.766320  0.092539  1
  Ta  Ta3  1  0.345597  0.260750  0.939041  1
  Ta  Ta4  1  0.654403  0.739250  0.060959  1
  Ta  Ta5  1  0.845735  0.233680  0.907461  1
  Ta  Ta6  1  0.654403  0.760750  0.560959  1
  Ta  Ta7  1  0.845735  0.266320  0.407461  1
  Nb  Nb8  1  0.056997  0.258011  0.203617  1
  Nb  Nb9  1  0.056997  0.241989  0.703617  1
  Nb  Nb10  1  0.442872  0.747110  0.646298  1
  Nb  Nb11  1  0.557128  0.247110  0.853702  1
  Nb  Nb12  1  0.442872  0.752890  0.146298  1
  Nb  Nb13  1  0.557128  0.252890  0.353702  1
  Nb  Nb14  1  0.943003  0.758011  0.296383  1
  Nb  Nb15  1  0.943003  0.741989  0.796383  1
  O  O16  1  0.007501  0.971508  0.241595  1
  O  O17  1  0.112700  0.535258  0.154164  1
  O  O18  1  0.073155  0.756665  0.443617  1
  O  O19  1  0.198707  0.251020  0.337445  1
  O  O20  1  0.007501  0.528492  0.741595  1
  O  O21  1  0.112700  0.964742  0.654164  1
  O  O22  1  0.128607  0.447323  0.635205  1
  O  O23  1  0.379791  0.953034  0.508544  1
  O  O24  1  0.377018  0.470709  0.539796  1
  O  O25  1  0.300964  0.771912  0.638352  1
  O  O26  1  0.073155  0.743335  0.943617  1
  O  O27  1  0.198707  0.248980  0.837445  1
  O  O28  1  0.572437  0.716717  0.627901  1
  O  O29  1  0.499051  0.024194  0.736583  1
  O  O30  1  0.500949  0.524194  0.763417  1
  O  O31  1  0.128607  0.052677  0.135205  1
  O  O32  1  0.427563  0.216717  0.872099  1
  O  O33  1  0.379791  0.546966  0.008544  1
  O  O34  1  0.377018  0.029291  0.039796  1
  O  O35  1  0.300964  0.728088  0.138352  1
  O  O36  1  0.699036  0.271912  0.861648  1
  O  O37  1  0.622982  0.970709  0.960204  1
  O  O38  1  0.620209  0.453034  0.991456  1
  O  O39  1  0.572437  0.783283  0.127901  1
  O  O40  1  0.871393  0.947323  0.864795  1
  O  O41  1  0.499051  0.475806  0.236583  1
  O  O42  1  0.500949  0.975806  0.263417  1
  O  O43  1  0.427563  0.283283  0.372099  1
  O  O44  1  0.801293  0.751020  0.162555  1
  O  O45  1  0.926845  0.256665  0.056383  1
  O  O46  1  0.699036  0.228088  0.361648  1
  O  O47  1  0.622982  0.529291  0.460204  1
  O  O48  1  0.620209  0.046966  0.491456  1
  O  O49  1  0.871393  0.552677  0.364795  1
  O  O50  1  0.887300  0.035258  0.345836  1
  O  O51  1  0.992499  0.471508  0.258405  1
  O  O52  1  0.801293  0.748980  0.662555  1
  O  O53  1  0.926845  0.243335  0.556383  1
  O  O54  1  0.887300  0.464742  0.845836  1
  O  O55  1  0.992499  0.028492  0.758405  1
