# generated using pymatgen
data_Na3FeBAsO7
_symmetry_space_group_name_H-M   'P 1'
_cell_length_a   5.29728572
_cell_length_b   6.86773638
_cell_length_c   9.11541434
_cell_angle_alpha   90.00000000
_cell_angle_beta   91.11438722
_cell_angle_gamma   90.00000000
_symmetry_Int_Tables_number   1
_chemical_formula_structural   Na3FeBAsO7
_chemical_formula_sum   'Na6 Fe2 B2 As2 O14'
_cell_volume   331.55934896
_cell_formula_units_Z   2
loop_
 _symmetry_equiv_pos_site_id
 _symmetry_equiv_pos_as_xyz
  1  'x, y, z'
loop_
 _atom_site_type_symbol
 _atom_site_label
 _atom_site_symmetry_multiplicity
 _atom_site_fract_x
 _atom_site_fract_y
 _atom_site_fract_z
 _atom_site_occupancy
  Na  Na0  1  0.244162  0.750000  0.072672  1
  Na  Na1  1  0.752139  0.000400  0.243239  1
  Na  Na2  1  0.752139  0.499600  0.243239  1
  Na  Na3  1  0.247861  0.500400  0.756761  1
  Na  Na4  1  0.247861  0.999600  0.756761  1
  Na  Na5  1  0.755838  0.250000  0.927328  1
  Fe  Fe6  1  0.221279  0.250000  0.330146  1
  Fe  Fe7  1  0.778721  0.750000  0.669854  1
  B  B8  1  0.265509  0.250000  0.062373  1
  B  B9  1  0.734491  0.750000  0.937627  1
  As  As10  1  0.292721  0.750000  0.423305  1
  As  As11  1  0.707279  0.250000  0.576695  1
  O  O12  1  0.702275  0.750000  0.084358  1
  O  O13  1  0.030081  0.250000  0.131033  1
  O  O14  1  0.467247  0.250000  0.166435  1
  O  O15  1  0.218279  0.945772  0.312453  1
  O  O16  1  0.218279  0.554228  0.312453  1
  O  O17  1  0.615272  0.750000  0.463209  1
  O  O18  1  0.860177  0.250000  0.412804  1
  O  O19  1  0.139823  0.750000  0.587196  1
  O  O20  1  0.384728  0.250000  0.536791  1
  O  O21  1  0.781721  0.445772  0.687547  1
  O  O22  1  0.781721  0.054228  0.687547  1
  O  O23  1  0.532753  0.750000  0.833565  1
  O  O24  1  0.969919  0.750000  0.868967  1
  O  O25  1  0.297725  0.250000  0.915642  1
