# generated using pymatgen
data_Li2Cr2O7
_symmetry_space_group_name_H-M   'P 1'
_cell_length_a   6.50883895
_cell_length_b   6.68787994
_cell_length_c   7.19147771
_cell_angle_alpha   83.52185953
_cell_angle_beta   67.03627796
_cell_angle_gamma   83.82650686
_symmetry_Int_Tables_number   1
_chemical_formula_structural   Li2Cr2O7
_chemical_formula_sum   'Li4 Cr4 O14'
_cell_volume   285.70748157
_cell_formula_units_Z   2
loop_
 _symmetry_equiv_pos_site_id
 _symmetry_equiv_pos_as_xyz
  1  'x, y, z'
loop_
 _atom_site_type_symbol
 _atom_site_label
 _atom_site_symmetry_multiplicity
 _atom_site_fract_x
 _atom_site_fract_y
 _atom_site_fract_z
 _atom_site_occupancy
  Li  Li0  1  0.090920  0.543177  0.368809  1
  Li  Li1  1  0.732402  0.829932  0.221613  1
  Li  Li2  1  0.598080  0.630349  0.880004  1
  Li  Li3  1  0.969855  0.216380  0.809275  1
  Cr  Cr4  1  0.197082  0.042371  0.199173  1
  Cr  Cr5  1  0.638128  0.385576  0.288061  1
  Cr  Cr6  1  0.107653  0.684080  0.780367  1
  Cr  Cr7  1  0.504807  0.121982  0.731943  1
  O  O8  1  0.443403  0.960314  0.189007  1
  O  O9  1  0.106150  0.233230  0.339124  1
  O  O10  1  0.475974  0.514342  0.186726  1
  O  O11  1  0.810979  0.232212  0.127747  1
  O  O12  1  0.236505  0.845093  0.593230  1
  O  O13  1  0.025314  0.495561  0.688841  1
  O  O14  1  0.474662  0.243338  0.515796  1
  O  O15  1  0.023971  0.861491  0.285033  1
  O  O16  1  0.776934  0.544131  0.344229  1
  O  O17  1  0.618618  0.897725  0.690251  1
  O  O18  1  0.242471  0.115629  0.928641  1
  O  O19  1  0.279108  0.598113  0.896436  1
  O  O20  1  0.665900  0.248106  0.791369  1
  O  O21  1  0.873631  0.802121  0.938973  1
