# generated using pymatgen
data_NaLi2FePCO7
_symmetry_space_group_name_H-M   'P 1'
_cell_length_a   5.09423215
_cell_length_b   6.49911347
_cell_length_c   8.72925634
_cell_angle_alpha   90.90634217
_cell_angle_beta   92.33418126
_cell_angle_gamma   90.42245461
_symmetry_Int_Tables_number   1
_chemical_formula_structural   NaLi2FePCO7
_chemical_formula_sum   'Na2 Li4 Fe2 P2 C2 O14'
_cell_volume   288.72293258
_cell_formula_units_Z   2
loop_
 _symmetry_equiv_pos_site_id
 _symmetry_equiv_pos_as_xyz
  1  'x, y, z'
loop_
 _atom_site_type_symbol
 _atom_site_label
 _atom_site_symmetry_multiplicity
 _atom_site_fract_x
 _atom_site_fract_y
 _atom_site_fract_z
 _atom_site_occupancy
  Na  Na0  1  0.757950  0.248940  0.915811  1
  Na  Na1  1  0.750534  0.501695  0.256786  1
  Li  Li2  1  0.235956  0.012534  0.729989  1
  Li  Li3  1  0.240095  0.487992  0.729689  1
  Li  Li4  1  0.758106  0.987254  0.270123  1
  Li  Li5  1  0.251296  0.764505  0.082769  1
  Fe  Fe6  1  0.786843  0.748270  0.651936  1
  Fe  Fe7  1  0.214205  0.244661  0.351307  1
  P  P8  1  0.707189  0.244044  0.586769  1
  P  P9  1  0.302013  0.754153  0.413666  1
  C  C10  1  0.717575  0.758249  0.954598  1
  C  C11  1  0.272047  0.245028  0.048236  1
  O  O12  1  0.279503  0.249574  0.898884  1
  O  O13  1  0.959230  0.752273  0.911867  1
  O  O14  1  0.523415  0.744512  0.851485  1
  O  O15  1  0.802618  0.059527  0.685730  1
  O  O16  1  0.818801  0.437778  0.676166  1
  O  O17  1  0.400361  0.250550  0.579121  1
  O  O18  1  0.188681  0.752307  0.575981  1
  O  O19  1  0.812146  0.231436  0.423331  1
  O  O20  1  0.606581  0.775192  0.429122  1
  O  O21  1  0.228384  0.555860  0.317662  1
  O  O22  1  0.187958  0.931353  0.312860  1
  O  O23  1  0.486911  0.236803  0.133229  1
  O  O24  1  0.048149  0.248555  0.114668  1
  O  O25  1  0.663456  0.776953  0.098216  1
