# generated using pymatgen
data_V(SO4)2
_symmetry_space_group_name_H-M   'P 1'
_cell_length_a   8.87202770
_cell_length_b   8.87202770
_cell_length_c   8.87202770
_cell_angle_alpha   56.02783113
_cell_angle_beta   56.02783113
_cell_angle_gamma   56.02783113
_symmetry_Int_Tables_number   1
_chemical_formula_structural   V(SO4)2
_chemical_formula_sum   'V3 S6 O24'
_cell_volume   448.36718666
_cell_formula_units_Z   3
loop_
 _symmetry_equiv_pos_site_id
 _symmetry_equiv_pos_as_xyz
  1  'x, y, z'
loop_
 _atom_site_type_symbol
 _atom_site_label
 _atom_site_symmetry_multiplicity
 _atom_site_fract_x
 _atom_site_fract_y
 _atom_site_fract_z
 _atom_site_occupancy
  V  V0  1  0.851519  0.851519  0.851519  1
  V  V1  1  0.352419  0.352419  0.352419  1
  V  V2  1  0.150004  0.150004  0.150004  1
  S  S3  1  0.247976  0.542242  0.957503  1
  S  S4  1  0.957503  0.247976  0.542242  1
  S  S5  1  0.542242  0.957503  0.247976  1
  S  S6  1  0.462140  0.040222  0.743389  1
  S  S7  1  0.040222  0.743389  0.462140  1
  S  S8  1  0.743389  0.462140  0.040222  1
  O  O9  1  0.727792  0.469034  0.885198  1
  O  O10  1  0.469034  0.885198  0.727792  1
  O  O11  1  0.036951  0.666672  0.002787  1
  O  O12  1  0.885198  0.727792  0.469034  1
  O  O13  1  0.268618  0.342442  0.991756  1
  O  O14  1  0.375081  0.614984  0.767755  1
  O  O15  1  0.767755  0.375081  0.614984  1
  O  O16  1  0.002787  0.036951  0.666672  1
  O  O17  1  0.614984  0.767755  0.375081  1
  O  O18  1  0.315338  0.049158  0.948618  1
  O  O19  1  0.649229  0.024908  0.720534  1
  O  O20  1  0.024908  0.720534  0.649229  1
  O  O21  1  0.991756  0.268618  0.342442  1
  O  O22  1  0.342442  0.991756  0.268618  1
  O  O23  1  0.666672  0.002787  0.036951  1
  O  O24  1  0.388263  0.238059  0.602404  1
  O  O25  1  0.049158  0.948618  0.315338  1
  O  O26  1  0.238059  0.602404  0.388263  1
  O  O27  1  0.602404  0.388263  0.238059  1
  O  O28  1  0.720534  0.649229  0.024908  1
  O  O29  1  0.116097  0.296288  0.509660  1
  O  O30  1  0.948618  0.315338  0.049158  1
  O  O31  1  0.509660  0.116097  0.296288  1
  O  O32  1  0.296288  0.509660  0.116097  1
