# generated using pymatgen
data_LiCr(SiO3)2
_symmetry_space_group_name_H-M   'P 1'
_cell_length_a   7.01913447
_cell_length_b   7.33771376
_cell_length_c   7.40705979
_cell_angle_alpha   80.92589682
_cell_angle_beta   61.83800263
_cell_angle_gamma   77.29038571
_symmetry_Int_Tables_number   1
_chemical_formula_structural   LiCr(SiO3)2
_chemical_formula_sum   'Li3 Cr3 Si6 O18'
_cell_volume   327.44803677
_cell_formula_units_Z   3
loop_
 _symmetry_equiv_pos_site_id
 _symmetry_equiv_pos_as_xyz
  1  'x, y, z'
loop_
 _atom_site_type_symbol
 _atom_site_label
 _atom_site_symmetry_multiplicity
 _atom_site_fract_x
 _atom_site_fract_y
 _atom_site_fract_z
 _atom_site_occupancy
  Li  Li0  1  0.589445  0.796912  0.744213  1
  Li  Li1  1  0.500000  0.500000  0.500000  1
  Li  Li2  1  0.410555  0.203088  0.255787  1
  Cr  Cr3  1  0.052847  0.771625  0.750001  1
  Cr  Cr4  1  0.000000  0.500000  0.500000  1
  Cr  Cr5  1  0.947153  0.228375  0.249999  1
  Si  Si6  1  0.756157  0.838771  0.283470  1
  Si  Si7  1  0.313726  0.835172  0.253545  1
  Si  Si8  1  0.795926  0.394232  0.975005  1
  Si  Si9  1  0.204074  0.605768  0.024995  1
  Si  Si10  1  0.686274  0.164828  0.746455  1
  Si  Si11  1  0.243843  0.161229  0.716530  1
  O  O12  1  0.796850  0.950928  0.758135  1
  O  O13  1  0.249980  0.947724  0.686590  1
  O  O14  1  0.548881  0.836425  0.242087  1
  O  O15  1  0.974870  0.763349  0.063471  1
  O  O16  1  0.757200  0.689021  0.470041  1
  O  O17  1  0.860960  0.565638  0.797963  1
  O  O18  1  0.173854  0.704425  0.457347  1
  O  O19  1  0.289528  0.571224  0.788263  1
  O  O20  1  0.368139  0.718204  0.052715  1
  O  O21  1  0.631861  0.281796  0.947285  1
  O  O22  1  0.710472  0.428776  0.211737  1
  O  O23  1  0.826146  0.295575  0.542653  1
  O  O24  1  0.139040  0.434362  0.202037  1
  O  O25  1  0.242800  0.310979  0.529959  1
  O  O26  1  0.025130  0.236651  0.936529  1
  O  O27  1  0.451119  0.163575  0.757913  1
  O  O28  1  0.750020  0.052276  0.313410  1
  O  O29  1  0.203150  0.049072  0.241865  1
