# generated using pymatgen
data_Li4Mn3Nb2Ni3O16
_symmetry_space_group_name_H-M   'P 1'
_cell_length_a   5.93241263
_cell_length_b   5.93241263
_cell_length_c   9.64334583
_cell_angle_alpha   89.40099942
_cell_angle_beta   90.59900058
_cell_angle_gamma   120.53056701
_symmetry_Int_Tables_number   1
_chemical_formula_structural   Li4Mn3Nb2Ni3O16
_chemical_formula_sum   'Li4 Mn3 Nb2 Ni3 O16'
_cell_volume   292.30940791
_cell_formula_units_Z   1
loop_
 _symmetry_equiv_pos_site_id
 _symmetry_equiv_pos_as_xyz
  1  'x, y, z'
loop_
 _atom_site_type_symbol
 _atom_site_label
 _atom_site_symmetry_multiplicity
 _atom_site_fract_x
 _atom_site_fract_y
 _atom_site_fract_z
 _atom_site_occupancy
  Li  Li0  1  0.663931  0.336069  0.898033  1
  Li  Li1  1  0.001840  0.998160  0.989292  1
  Li  Li2  1  0.003625  0.996375  0.495979  1
  Li  Li3  1  0.327286  0.672714  0.401819  1
  Mn  Mn4  1  0.339879  0.165649  0.215563  1
  Mn  Mn5  1  0.834351  0.660121  0.215563  1
  Mn  Mn6  1  0.172442  0.827558  0.719246  1
  Nb  Nb7  1  0.670264  0.329736  0.498301  1
  Nb  Nb8  1  0.348147  0.651853  0.985507  1
  Ni  Ni9  1  0.830766  0.169234  0.214193  1
  Ni  Ni10  1  0.168747  0.337580  0.712621  1
  Ni  Ni11  1  0.662420  0.831253  0.712621  1
  O  O12  1  0.336701  0.155466  0.594714  1
  O  O13  1  0.517420  0.482580  0.330153  1
  O  O14  1  0.657146  0.342854  0.110174  1
  O  O15  1  0.007557  0.992443  0.307684  1
  O  O16  1  0.007995  0.992005  0.804273  1
  O  O17  1  0.844534  0.663299  0.594714  1
  O  O18  1  0.501719  0.041509  0.338779  1
  O  O19  1  0.958491  0.498281  0.338779  1
  O  O20  1  0.161401  0.838599  0.105028  1
  O  O21  1  0.834228  0.165772  0.581216  1
  O  O22  1  0.034131  0.535163  0.844307  1
  O  O23  1  0.464837  0.965869  0.844307  1
  O  O24  1  0.324779  0.675221  0.609812  1
  O  O25  1  0.172691  0.329632  0.095665  1
  O  O26  1  0.482067  0.517933  0.853825  1
  O  O27  1  0.670368  0.827309  0.095665  1
