# generated using pymatgen
data_LiFe8(BO3)8
_symmetry_space_group_name_H-M   'P 1'
_cell_length_a   5.32351634
_cell_length_b   9.01880056
_cell_length_c   11.35671285
_cell_angle_alpha   112.88470159
_cell_angle_beta   103.37831430
_cell_angle_gamma   90.37610371
_symmetry_Int_Tables_number   1
_chemical_formula_structural   LiFe8(BO3)8
_chemical_formula_sum   'Li1 Fe8 B8 O24'
_cell_volume   485.86299609
_cell_formula_units_Z   1
loop_
 _symmetry_equiv_pos_site_id
 _symmetry_equiv_pos_as_xyz
  1  'x, y, z'
loop_
 _atom_site_type_symbol
 _atom_site_label
 _atom_site_symmetry_multiplicity
 _atom_site_fract_x
 _atom_site_fract_y
 _atom_site_fract_z
 _atom_site_occupancy
  Li  Li0  1  0.224886  0.583690  0.156686  1
  Fe  Fe1  1  0.716914  0.393905  0.124215  1
  Fe  Fe2  1  0.776589  0.104572  0.877475  1
  Fe  Fe3  1  0.541765  0.518735  0.376956  1
  Fe  Fe4  1  0.974231  0.979796  0.627934  1
  Fe  Fe5  1  0.027633  0.023141  0.376087  1
  Fe  Fe6  1  0.476710  0.479034  0.628913  1
  Fe  Fe7  1  0.225209  0.905511  0.126633  1
  Fe  Fe8  1  0.280509  0.604233  0.878297  1
  B  B9  1  0.984758  0.645072  0.629232  1
  B  B10  1  0.225355  0.235094  0.125482  1
  B  B11  1  0.481750  0.140451  0.626324  1
  B  B12  1  0.737562  0.735117  0.129031  1
  B  B13  1  0.522795  0.857272  0.370699  1
  B  B14  1  0.270584  0.268572  0.876617  1
  B  B15  1  0.027830  0.360232  0.379841  1
  B  B16  1  0.775196  0.768119  0.878477  1
  O  O17  1  0.966043  0.224414  0.066189  1
  O  O18  1  0.867264  0.456027  0.331997  1
  O  O19  1  0.678394  0.901517  0.871197  1
  O  O20  1  0.081333  0.784051  0.631119  1
  O  O21  1  0.718915  0.591172  0.575961  1
  O  O22  1  0.367712  0.389147  0.178359  1
  O  O23  1  0.855691  0.603033  0.127358  1
  O  O24  1  0.638726  0.041157  0.672706  1
  O  O25  1  0.104297  0.124845  0.823391  1
  O  O26  1  0.783850  0.913716  0.430573  1
  O  O27  1  0.427904  0.705850  0.349173  1
  O  O28  1  0.532372  0.263480  0.921539  1
  O  O29  1  0.461423  0.727705  0.085383  1
  O  O30  1  0.216525  0.086166  0.570597  1
  O  O31  1  0.886173  0.885655  0.174286  1
  O  O32  1  0.359676  0.956347  0.326341  1
  O  O33  1  0.176424  0.413234  0.888941  1
  O  O34  1  0.615449  0.621664  0.832515  1
  O  O35  1  0.293615  0.415718  0.434035  1
  O  O36  1  0.930759  0.219465  0.375714  1
  O  O37  1  0.577741  0.284354  0.634167  1
  O  O38  1  0.339857  0.104138  0.134301  1
  O  O39  1  0.143919  0.547632  0.679347  1
  O  O40  1  0.042459  0.768544  0.932759  1
