# generated using pymatgen
data_LiFeF3
_symmetry_space_group_name_H-M   'P 1'
_cell_length_a   4.04065640
_cell_length_b   5.80900390
_cell_length_c   5.56703930
_cell_angle_alpha   90.00000000
_cell_angle_beta   109.80519058
_cell_angle_gamma   90.00000000
_symmetry_Int_Tables_number   1
_chemical_formula_structural   LiFeF3
_chemical_formula_sum   'Li2 Fe2 F6'
_cell_volume   122.94144164
_cell_formula_units_Z   2
loop_
 _symmetry_equiv_pos_site_id
 _symmetry_equiv_pos_as_xyz
  1  'x, y, z'
loop_
 _atom_site_type_symbol
 _atom_site_label
 _atom_site_symmetry_multiplicity
 _atom_site_fract_x
 _atom_site_fract_y
 _atom_site_fract_z
 _atom_site_occupancy
  Li  Li0  1  0.810540  0.250000  0.436437  1
  Li  Li1  1  0.189460  0.750000  0.563563  1
  Fe  Fe2  1  0.981709  0.750000  0.997101  1
  Fe  Fe3  1  0.018291  0.250000  0.002899  1
  F  F4  1  0.459661  0.750000  0.936454  1
  F  F5  1  0.123144  0.992038  0.297944  1
  F  F6  1  0.123144  0.507962  0.297944  1
  F  F7  1  0.876856  0.492038  0.702056  1
  F  F8  1  0.876856  0.007962  0.702056  1
  F  F9  1  0.540339  0.250000  0.063546  1
