# generated using pymatgen
data_Li3Co3TeO8
_symmetry_space_group_name_H-M   'P 1'
_cell_length_a   6.05025826
_cell_length_b   6.05025826
_cell_length_c   6.04558134
_cell_angle_alpha   60.40168710
_cell_angle_beta   119.59831290
_cell_angle_gamma   119.47093282
_symmetry_Int_Tables_number   1
_chemical_formula_structural   Li3Co3TeO8
_chemical_formula_sum   'Li3 Co3 Te1 O8'
_cell_volume   158.05514207
_cell_formula_units_Z   1
loop_
 _symmetry_equiv_pos_site_id
 _symmetry_equiv_pos_as_xyz
  1  'x, y, z'
loop_
 _atom_site_type_symbol
 _atom_site_label
 _atom_site_symmetry_multiplicity
 _atom_site_fract_x
 _atom_site_fract_y
 _atom_site_fract_z
 _atom_site_occupancy
  Li  Li0  1  0.500000  0.000000  0.500000  1
  Li  Li1  1  0.000000  0.500000  0.500000  1
  Li  Li2  1  0.000000  0.000000  0.000000  1
  Co  Co3  1  0.000000  0.500000  0.000000  1
  Co  Co4  1  0.500000  0.000000  0.000000  1
  Co  Co5  1  0.500000  0.500000  0.500000  1
  Te  Te6  1  0.000000  0.000000  0.500000  1
  O  O7  1  0.276436  0.723564  0.261130  1
  O  O8  1  0.226945  0.230297  0.725876  1
  O  O9  1  0.769703  0.773055  0.725876  1
  O  O10  1  0.723564  0.276436  0.738870  1
  O  O11  1  0.773093  0.226907  0.268771  1
  O  O12  1  0.773055  0.769703  0.274124  1
  O  O13  1  0.230297  0.226945  0.274124  1
  O  O14  1  0.226907  0.773093  0.731229  1
