# generated using pymatgen
data_Hf3N2O3
_symmetry_space_group_name_H-M   'P 1'
_cell_length_a   5.62843796
_cell_length_b   5.62843796
_cell_length_c   10.57302350
_cell_angle_alpha   89.70653141
_cell_angle_beta   90.29346859
_cell_angle_gamma   137.83281294
_symmetry_Int_Tables_number   1
_chemical_formula_structural   Hf3N2O3
_chemical_formula_sum   'Hf6 N4 O6'
_cell_volume   224.84468509
_cell_formula_units_Z   2
loop_
 _symmetry_equiv_pos_site_id
 _symmetry_equiv_pos_as_xyz
  1  'x, y, z'
loop_
 _atom_site_type_symbol
 _atom_site_label
 _atom_site_symmetry_multiplicity
 _atom_site_fract_x
 _atom_site_fract_y
 _atom_site_fract_z
 _atom_site_occupancy
  Hf  Hf0  1  0.854538  0.145462  0.434564  1
  Hf  Hf1  1  0.853133  0.146867  0.062724  1
  Hf  Hf2  1  0.806896  0.193104  0.751913  1
  Hf  Hf3  1  0.192460  0.807540  0.243463  1
  Hf  Hf4  1  0.142069  0.857931  0.941469  1
  Hf  Hf5  1  0.138069  0.861931  0.562328  1
  N  N6  1  0.700367  0.299633  0.573371  1
  N  N7  1  0.696879  0.303121  0.919169  1
  N  N8  1  0.762359  0.237641  0.255504  1
  N  N9  1  0.299042  0.700958  0.074365  1
  O  O10  1  0.954594  0.045406  0.882953  1
  O  O11  1  0.956972  0.043028  0.618580  1
  O  O12  1  0.046720  0.953280  0.387379  1
  O  O13  1  0.044046  0.955954  0.115763  1
  O  O14  1  0.306895  0.693105  0.428801  1
  O  O15  1  0.244963  0.755037  0.747653  1
