# generated using pymatgen
data_Na2PH15O11
_symmetry_space_group_name_H-M   'P 1'
_cell_length_a   9.34749192
_cell_length_b   11.10670271
_cell_length_c   13.35047798
_cell_angle_alpha   90.00000000
_cell_angle_beta   128.43081788
_cell_angle_gamma   90.00000000
_symmetry_Int_Tables_number   1
_chemical_formula_structural   Na2PH15O11
_chemical_formula_sum   'Na8 P4 H60 O44'
_cell_volume   1085.77048967
_cell_formula_units_Z   4
loop_
 _symmetry_equiv_pos_site_id
 _symmetry_equiv_pos_as_xyz
  1  'x, y, z'
loop_
 _atom_site_type_symbol
 _atom_site_label
 _atom_site_symmetry_multiplicity
 _atom_site_fract_x
 _atom_site_fract_y
 _atom_site_fract_z
 _atom_site_occupancy
  Na  Na0  1  0.166010  0.105456  0.525012  1
  Na  Na1  1  0.166010  0.394544  0.025012  1
  Na  Na2  1  0.833990  0.894544  0.474988  1
  Na  Na3  1  0.833990  0.605456  0.974988  1
  Na  Na4  1  0.157372  0.394156  0.523951  1
  Na  Na5  1  0.157372  0.105844  0.023951  1
  Na  Na6  1  0.842628  0.605844  0.476049  1
  Na  Na7  1  0.842628  0.894156  0.976049  1
  P  P8  1  0.708349  0.262679  0.104726  1
  P  P9  1  0.708349  0.237321  0.604726  1
  P  P10  1  0.291651  0.737321  0.895274  1
  P  P11  1  0.291651  0.762679  0.395274  1
  H  H12  1  0.594714  0.429440  0.129807  1
  H  H13  1  0.594714  0.070560  0.629807  1
  H  H14  1  0.405286  0.570560  0.870193  1
  H  H15  1  0.405286  0.929440  0.370193  1
  H  H16  1  0.015959  0.083835  0.666691  1
  H  H17  1  0.015959  0.416165  0.166691  1
  H  H18  1  0.984041  0.916165  0.333309  1
  H  H19  1  0.984041  0.583835  0.833309  1
  H  H20  1  0.149299  0.969235  0.720909  1
  H  H21  1  0.149299  0.530765  0.220909  1
  H  H22  1  0.850701  0.030765  0.279091  1
  H  H23  1  0.850701  0.469235  0.779091  1
  H  H24  1  0.883001  0.244250  0.495896  1
  H  H25  1  0.883001  0.255750  0.995896  1
  H  H26  1  0.116999  0.755750  0.504104  1
  H  H27  1  0.116999  0.744250  0.004104  1
  H  H28  1  0.826310  0.228287  0.355372  1
  H  H29  1  0.826310  0.271713  0.855372  1
  H  H30  1  0.173690  0.771713  0.644628  1
  H  H31  1  0.173690  0.728287  0.144628  1
  H  H32  1  0.427832  0.241422  0.775601  1
  H  H33  1  0.427832  0.258578  0.275601  1
  H  H34  1  0.572168  0.758578  0.224399  1
  H  H35  1  0.572168  0.741422  0.724399  1
  H  H36  1  0.487970  0.266105  0.690471  1
  H  H37  1  0.487970  0.233895  0.190471  1
  H  H38  1  0.512030  0.733895  0.309529  1
  H  H39  1  0.512030  0.766105  0.809529  1
  H  H40  1  0.438404  0.909856  0.600024  1
  H  H41  1  0.438404  0.590144  0.100024  1
  H  H42  1  0.561596  0.090144  0.399976  1
  H  H43  1  0.561596  0.409856  0.899976  1
  H  H44  1  0.483446  0.989102  0.717316  1
  H  H45  1  0.483446  0.510898  0.217316  1
  H  H46  1  0.516554  0.010898  0.282684  1
  H  H47  1  0.516554  0.489102  0.782684  1
  H  H48  1  0.106520  0.251246  0.316766  1
  H  H49  1  0.106520  0.248754  0.816766  1
  H  H50  1  0.893480  0.748754  0.683234  1
  H  H51  1  0.893480  0.751246  0.183234  1
  H  H52  1  0.324957  0.249514  0.417997  1
  H  H53  1  0.324957  0.250486  0.917997  1
  H  H54  1  0.675043  0.750486  0.582003  1
  H  H55  1  0.675043  0.749514  0.082003  1
  H  H56  1  0.990993  0.392344  0.647684  1
  H  H57  1  0.990993  0.107656  0.147684  1
  H  H58  1  0.009007  0.607656  0.352316  1
  H  H59  1  0.009007  0.892344  0.852316  1
  H  H60  1  0.122495  0.507235  0.714991  1
  H  H61  1  0.122495  0.992765  0.214991  1
  H  H62  1  0.877505  0.492765  0.285009  1
  H  H63  1  0.877505  0.007235  0.785009  1
  H  H64  1  0.436555  0.580384  0.581172  1
  H  H65  1  0.436555  0.919616  0.081172  1
  H  H66  1  0.563445  0.419616  0.418828  1
  H  H67  1  0.563445  0.080384  0.918828  1
  H  H68  1  0.519327  0.445348  0.620805  1
  H  H69  1  0.519327  0.054652  0.120805  1
  H  H70  1  0.480673  0.554652  0.379195  1
  H  H71  1  0.480673  0.945348  0.879195  1
  O  O72  1  0.902616  0.248991  0.145642  1
  O  O73  1  0.902616  0.251009  0.645642  1
  O  O74  1  0.097384  0.751009  0.854358  1
  O  O75  1  0.097384  0.748991  0.354358  1
  O  O76  1  0.558198  0.247865  0.959162  1
  O  O77  1  0.558198  0.252135  0.459162  1
  O  O78  1  0.441802  0.752135  0.040838  1
  O  O79  1  0.441802  0.747865  0.540838  1
  O  O80  1  0.673845  0.181814  0.182026  1
  O  O81  1  0.673845  0.318186  0.682026  1
  O  O82  1  0.326155  0.818186  0.817974  1
  O  O83  1  0.326155  0.681814  0.317974  1
  O  O84  1  0.706538  0.401682  0.141115  1
  O  O85  1  0.706538  0.098318  0.641115  1
  O  O86  1  0.293462  0.598318  0.858885  1
  O  O87  1  0.293462  0.901682  0.358885  1
  O  O88  1  0.068643  0.021229  0.646159  1
  O  O89  1  0.068643  0.478771  0.146159  1
  O  O90  1  0.931357  0.978771  0.353841  1
  O  O91  1  0.931357  0.521229  0.853841  1
  O  O92  1  0.927485  0.246875  0.445540  1
  O  O93  1  0.927485  0.253125  0.945540  1
  O  O94  1  0.072515  0.753125  0.554460  1
  O  O95  1  0.072515  0.746875  0.054460  1
  O  O96  1  0.380270  0.250779  0.686595  1
  O  O97  1  0.380270  0.249221  0.186595  1
  O  O98  1  0.619730  0.749221  0.313405  1
  O  O99  1  0.619730  0.750779  0.813405  1
  O  O100  1  0.436302  0.992344  0.627110  1
  O  O101  1  0.436302  0.507656  0.127110  1
  O  O102  1  0.563698  0.007656  0.372890  1
  O  O103  1  0.563698  0.492344  0.872890  1
  O  O104  1  0.211648  0.250259  0.409065  1
  O  O105  1  0.211648  0.249741  0.909065  1
  O  O106  1  0.788352  0.749741  0.590935  1
  O  O107  1  0.788352  0.750259  0.090935  1
  O  O108  1  0.040888  0.463019  0.633402  1
  O  O109  1  0.040888  0.036981  0.133402  1
  O  O110  1  0.959112  0.536981  0.366598  1
  O  O111  1  0.959112  0.963019  0.866598  1
  O  O112  1  0.430611  0.501624  0.613143  1
  O  O113  1  0.430611  0.998376  0.113143  1
  O  O114  1  0.569389  0.498376  0.386857  1
  O  O115  1  0.569389  0.001624  0.886857  1
