# generated using pymatgen
data_Li5CrO5
_symmetry_space_group_name_H-M   'P 1'
_cell_length_a   5.13457794
_cell_length_b   5.13457794
_cell_length_c   5.66210644
_cell_angle_alpha   73.07849605
_cell_angle_beta   106.92150395
_cell_angle_gamma   133.33485610
_symmetry_Int_Tables_number   1
_chemical_formula_structural   Li5CrO5
_chemical_formula_sum   'Li5 Cr1 O5'
_cell_volume   102.97692549
_cell_formula_units_Z   1
loop_
 _symmetry_equiv_pos_site_id
 _symmetry_equiv_pos_as_xyz
  1  'x, y, z'
loop_
 _atom_site_type_symbol
 _atom_site_label
 _atom_site_symmetry_multiplicity
 _atom_site_fract_x
 _atom_site_fract_y
 _atom_site_fract_z
 _atom_site_occupancy
  Li  Li0  1  0.317026  0.697158  0.138951  1
  Li  Li1  1  0.294908  0.710087  0.663156  1
  Li  Li2  1  0.710087  0.294908  0.336844  1
  Li  Li3  1  0.697158  0.317026  0.861049  1
  Li  Li4  1  0.993081  0.993081  0.500000  1
  Cr  Cr5  1  0.076621  0.076621  0.000000  1
  O  O6  1  0.858418  0.139088  0.167755  1
  O  O7  1  0.489131  0.489131  0.000000  1
  O  O8  1  0.841863  0.145569  0.691473  1
  O  O9  1  0.145569  0.841863  0.308527  1
  O  O10  1  0.139088  0.858418  0.832245  1
