# generated using pymatgen
data_Li4Fe5Ni(PO4)6
_symmetry_space_group_name_H-M   'P 1'
_cell_length_a   8.35496334
_cell_length_b   8.44009390
_cell_length_c   8.46795325
_cell_angle_alpha   63.56930120
_cell_angle_beta   63.99442261
_cell_angle_gamma   64.12323141
_symmetry_Int_Tables_number   1
_chemical_formula_structural   Li4Fe5Ni(PO4)6
_chemical_formula_sum   'Li4 Fe5 Ni1 P6 O24'
_cell_volume   458.47265809
_cell_formula_units_Z   1
loop_
 _symmetry_equiv_pos_site_id
 _symmetry_equiv_pos_as_xyz
  1  'x, y, z'
loop_
 _atom_site_type_symbol
 _atom_site_label
 _atom_site_symmetry_multiplicity
 _atom_site_fract_x
 _atom_site_fract_y
 _atom_site_fract_z
 _atom_site_occupancy
  Li  Li0  1  0.251339  0.642508  0.854672  1
  Li  Li1  1  0.754705  0.342989  0.154171  1
  Li  Li2  1  0.345274  0.150025  0.757569  1
  Li  Li3  1  0.151026  0.757041  0.345239  1
  Fe  Fe4  1  0.991042  0.002953  0.000934  1
  Fe  Fe5  1  0.645860  0.645758  0.642532  1
  Fe  Fe6  1  0.506938  0.497991  0.495513  1
  Fe  Fe7  1  0.853783  0.858496  0.853673  1
  Fe  Fe8  1  0.350905  0.345136  0.348134  1
  Ni  Ni9  1  0.145967  0.148118  0.152009  1
  P  P10  1  0.941815  0.554587  0.252395  1
  P  P11  1  0.556037  0.249596  0.944723  1
  P  P12  1  0.250551  0.944688  0.554891  1
  P  P13  1  0.752849  0.042619  0.454721  1
  P  P14  1  0.447169  0.750370  0.042237  1
  P  P15  1  0.051858  0.456501  0.753177  1
  O  O16  1  0.534516  0.311829  0.099253  1
  O  O17  1  0.316998  0.098074  0.532249  1
  O  O18  1  0.097465  0.528808  0.319635  1
  O  O19  1  0.934588  0.744534  0.090342  1
  O  O20  1  0.971345  0.395746  0.190609  1
  O  O21  1  0.746779  0.574815  0.405055  1
  O  O22  1  0.750217  0.096670  0.921106  1
  O  O23  1  0.561194  0.412224  0.755739  1
  O  O24  1  0.829450  0.996409  0.608647  1
  O  O25  1  0.398116  0.745297  0.581362  1
  O  O26  1  0.905172  0.056940  0.259476  1
  O  O27  1  0.613973  0.816019  0.984328  1
  O  O28  1  0.394328  0.185885  0.977886  1
  O  O29  1  0.099998  0.919474  0.753141  1
  O  O30  1  0.607160  0.239580  0.433311  1
  O  O31  1  0.188888  0.975229  0.396070  1
  O  O32  1  0.434958  0.601674  0.237744  1
  O  O33  1  0.253299  0.905735  0.064793  1
  O  O34  1  0.246480  0.431892  0.601429  1
  O  O35  1  0.031515  0.606545  0.822687  1
  O  O36  1  0.060660  0.260238  0.904318  1
  O  O37  1  0.885001  0.512772  0.687614  1
  O  O38  1  0.675269  0.888952  0.497827  1
  O  O39  1  0.465522  0.682285  0.891786  1
