# generated using pymatgen
data_Li8Fe3Co7O20
_symmetry_space_group_name_H-M   'P 1'
_cell_length_a   5.92033159
_cell_length_b   2.87642119
_cell_length_c   20.50750118
_cell_angle_alpha   90.00000000
_cell_angle_beta   96.85104112
_cell_angle_gamma   90.00000000
_symmetry_Int_Tables_number   1
_chemical_formula_structural   Li8Fe3Co7O20
_chemical_formula_sum   'Li8 Fe3 Co7 O20'
_cell_volume   346.73614112
_cell_formula_units_Z   1
loop_
 _symmetry_equiv_pos_site_id
 _symmetry_equiv_pos_as_xyz
  1  'x, y, z'
loop_
 _atom_site_type_symbol
 _atom_site_label
 _atom_site_symmetry_multiplicity
 _atom_site_fract_x
 _atom_site_fract_y
 _atom_site_fract_z
 _atom_site_occupancy
  Li  Li0  1  0.759984  0.500000  0.106963  1
  Li  Li1  1  0.436911  0.500000  0.289084  1
  Li  Li2  1  0.204821  0.000000  0.398472  1
  Li  Li3  1  0.000502  0.500000  0.499732  1
  Li  Li4  1  0.789492  0.000000  0.603428  1
  Li  Li5  1  0.411091  0.000000  0.797188  1
  Li  Li6  1  0.205441  0.500000  0.902871  1
  Li  Li7  1  0.994011  0.000000  0.001716  1
  Fe  Fe8  1  0.701837  0.000000  0.398408  1
  Fe  Fe9  1  0.318783  0.000000  0.601585  1
  Fe  Fe10  1  0.882055  0.000000  0.800316  1
  Co  Co11  1  0.496445  0.000000  0.001556  1
  Co  Co12  1  0.298553  0.500000  0.100576  1
  Co  Co13  1  0.098318  0.000000  0.198477  1
  Co  Co14  1  0.902876  0.500000  0.296749  1
  Co  Co15  1  0.500834  0.500000  0.498438  1
  Co  Co16  1  0.100139  0.500000  0.700657  1
  Co  Co17  1  0.698232  0.500000  0.903731  1
  O  O18  1  0.274829  0.500000  0.005396  1
  O  O19  1  0.513762  0.000000  0.095129  1
  O  O20  1  0.077107  0.000000  0.105277  1
  O  O21  1  0.891144  0.500000  0.202728  1
  O  O22  1  0.306049  0.500000  0.194555  1
  O  O23  1  0.684137  0.000000  0.299844  1
  O  O24  1  0.121742  0.000000  0.291431  1
  O  O25  1  0.941497  0.500000  0.393879  1
  O  O26  1  0.463432  0.500000  0.401344  1
  O  O27  1  0.725695  0.000000  0.498141  1
  O  O28  1  0.275590  0.000000  0.501094  1
  O  O29  1  0.543737  0.500000  0.593470  1
  O  O30  1  0.072409  0.500000  0.606784  1
  O  O31  1  0.890759  0.000000  0.701221  1
  O  O32  1  0.310183  0.000000  0.700145  1
  O  O33  1  0.656888  0.500000  0.808316  1
  O  O34  1  0.128384  0.500000  0.794551  1
  O  O35  1  0.925577  0.000000  0.901158  1
  O  O36  1  0.478070  0.000000  0.906463  1
  O  O37  1  0.718658  0.500000  0.998850  1
