# generated using pymatgen
data_Ti3CrCu2(PO4)6
_symmetry_space_group_name_H-M   'P 1'
_cell_length_a   8.61383607
_cell_length_b   8.61383607
_cell_length_c   8.61383607
_cell_angle_alpha   60.02523485
_cell_angle_beta   60.02523485
_cell_angle_gamma   60.02523485
_symmetry_Int_Tables_number   1
_chemical_formula_structural   Ti3CrCu2(PO4)6
_chemical_formula_sum   'Ti3 Cr1 Cu2 P6 O24'
_cell_volume   452.19231234
_cell_formula_units_Z   1
loop_
 _symmetry_equiv_pos_site_id
 _symmetry_equiv_pos_as_xyz
  1  'x, y, z'
loop_
 _atom_site_type_symbol
 _atom_site_label
 _atom_site_symmetry_multiplicity
 _atom_site_fract_x
 _atom_site_fract_y
 _atom_site_fract_z
 _atom_site_occupancy
  Ti  Ti0  1  0.857555  0.857555  0.857555  1
  Ti  Ti1  1  0.643097  0.643097  0.643097  1
  Ti  Ti2  1  0.356477  0.356477  0.356477  1
  Cr  Cr3  1  0.141739  0.141739  0.141739  1
  Cu  Cu4  1  0.001043  0.001043  0.001043  1
  Cu  Cu5  1  0.500263  0.500263  0.500263  1
  P  P6  1  0.041882  0.751416  0.457325  1
  P  P7  1  0.751416  0.457325  0.041882  1
  P  P8  1  0.457325  0.041882  0.751416  1
  P  P9  1  0.539263  0.959144  0.249204  1
  P  P10  1  0.249204  0.539263  0.959144  1
  P  P11  1  0.959144  0.249204  0.539263  1
  O  O12  1  0.501286  0.877497  0.693387  1
  O  O13  1  0.877497  0.693387  0.501286  1
  O  O14  1  0.733646  0.942704  0.084390  1
  O  O15  1  0.693387  0.501286  0.877497  1
  O  O16  1  0.379378  0.991652  0.196838  1
  O  O17  1  0.561449  0.767077  0.416375  1
  O  O18  1  0.084390  0.733646  0.942704  1
  O  O19  1  0.416375  0.561449  0.767077  1
  O  O20  1  0.000156  0.805646  0.623736  1
  O  O21  1  0.767077  0.416375  0.561449  1
  O  O22  1  0.055433  0.915405  0.266087  1
  O  O23  1  0.805646  0.623736  0.000156  1
  O  O24  1  0.196838  0.379378  0.991652  1
  O  O25  1  0.942704  0.084390  0.733646  1
  O  O26  1  0.232833  0.583466  0.443899  1
  O  O27  1  0.991652  0.196838  0.379378  1
  O  O28  1  0.583466  0.443899  0.232833  1
  O  O29  1  0.915405  0.266087  0.055433  1
  O  O30  1  0.443899  0.232833  0.583466  1
  O  O31  1  0.623736  0.000156  0.805646  1
  O  O32  1  0.305050  0.500048  0.124149  1
  O  O33  1  0.266087  0.055433  0.915405  1
  O  O34  1  0.124149  0.305050  0.500048  1
  O  O35  1  0.500048  0.124149  0.305050  1
