# generated using pymatgen
data_Li2V(Si2O5)2
_symmetry_space_group_name_H-M   'P 1'
_cell_length_a   6.98277857
_cell_length_b   7.57544034
_cell_length_c   9.73171345
_cell_angle_alpha   99.39366448
_cell_angle_beta   102.49922338
_cell_angle_gamma   116.84958729
_symmetry_Int_Tables_number   1
_chemical_formula_structural   Li2V(Si2O5)2
_chemical_formula_sum   'Li4 V2 Si8 O20'
_cell_volume   427.80534741
_cell_formula_units_Z   2
loop_
 _symmetry_equiv_pos_site_id
 _symmetry_equiv_pos_as_xyz
  1  'x, y, z'
loop_
 _atom_site_type_symbol
 _atom_site_label
 _atom_site_symmetry_multiplicity
 _atom_site_fract_x
 _atom_site_fract_y
 _atom_site_fract_z
 _atom_site_occupancy
  Li  Li0  1  0.387849  0.254544  0.056199  1
  Li  Li1  1  0.218015  0.681683  0.571985  1
  Li  Li2  1  0.781985  0.318317  0.428015  1
  Li  Li3  1  0.612151  0.745456  0.943801  1
  V  V4  1  0.240911  0.300231  0.425734  1
  V  V5  1  0.759089  0.699769  0.574266  1
  Si  Si6  1  0.247471  0.949568  0.187211  1
  Si  Si7  1  0.388959  0.637994  0.257116  1
  Si  Si8  1  0.810956  0.614904  0.239357  1
  Si  Si9  1  0.895341  0.276246  0.141966  1
  Si  Si10  1  0.104659  0.723754  0.858034  1
  Si  Si11  1  0.189044  0.385096  0.760643  1
  Si  Si12  1  0.611041  0.362006  0.742884  1
  Si  Si13  1  0.752529  0.050432  0.812789  1
  O  O14  1  0.222624  0.922185  0.009101  1
  O  O15  1  0.143780  0.450254  0.137655  1
  O  O16  1  0.409577  0.862933  0.260528  1
  O  O17  1  0.574399  0.622588  0.181815  1
  O  O18  1  0.993100  0.807037  0.196416  1
  O  O19  1  0.736167  0.388131  0.123889  1
  O  O20  1  0.427993  0.615655  0.421600  1
  O  O21  1  0.353585  0.192326  0.257596  1
  O  O22  1  0.088431  0.788503  0.710322  1
  O  O23  1  0.106578  0.380547  0.592351  1
  O  O24  1  0.893422  0.619453  0.407649  1
  O  O25  1  0.911569  0.211497  0.289678  1
  O  O26  1  0.646415  0.807674  0.742404  1
  O  O27  1  0.572007  0.384345  0.578400  1
  O  O28  1  0.263833  0.611869  0.876111  1
  O  O29  1  0.006900  0.192963  0.803584  1
  O  O30  1  0.425601  0.377412  0.818185  1
  O  O31  1  0.590423  0.137067  0.739472  1
  O  O32  1  0.856220  0.549746  0.862345  1
  O  O33  1  0.777376  0.077815  0.990899  1
