# generated using pymatgen
data_Ba3(ClO)2
_symmetry_space_group_name_H-M   'P 1'
_cell_length_a   6.42754865
_cell_length_b   10.72777099
_cell_length_c   13.20991717
_cell_angle_alpha   90.00000000
_cell_angle_beta   90.00000000
_cell_angle_gamma   90.00000000
_symmetry_Int_Tables_number   1
_chemical_formula_structural   Ba3(ClO)2
_chemical_formula_sum   'Ba12 Cl8 O8'
_cell_volume   910.86698456
_cell_formula_units_Z   4
loop_
 _symmetry_equiv_pos_site_id
 _symmetry_equiv_pos_as_xyz
  1  'x, y, z'
loop_
 _atom_site_type_symbol
 _atom_site_label
 _atom_site_symmetry_multiplicity
 _atom_site_fract_x
 _atom_site_fract_y
 _atom_site_fract_z
 _atom_site_occupancy
  Ba  Ba0  1  0.750000  0.075740  0.067450  1
  Ba  Ba1  1  0.750000  0.116249  0.782860  1
  Ba  Ba2  1  0.250000  0.212828  0.453655  1
  Ba  Ba3  1  0.250000  0.287172  0.953655  1
  Ba  Ba4  1  0.750000  0.383751  0.282860  1
  Ba  Ba5  1  0.750000  0.424260  0.567450  1
  Ba  Ba6  1  0.250000  0.575740  0.432550  1
  Ba  Ba7  1  0.250000  0.616249  0.717140  1
  Ba  Ba8  1  0.750000  0.712828  0.046345  1
  Ba  Ba9  1  0.750000  0.787172  0.546345  1
  Ba  Ba10  1  0.250000  0.883751  0.217140  1
  Ba  Ba11  1  0.250000  0.924260  0.932550  1
  Cl  Cl12  1  0.750000  0.104167  0.535169  1
  Cl  Cl13  1  0.250000  0.183761  0.202338  1
  Cl  Cl14  1  0.250000  0.316239  0.702338  1
  Cl  Cl15  1  0.750000  0.395833  0.035169  1
  Cl  Cl16  1  0.250000  0.604167  0.964831  1
  Cl  Cl17  1  0.750000  0.683761  0.297662  1
  Cl  Cl18  1  0.750000  0.816239  0.797662  1
  Cl  Cl19  1  0.250000  0.895833  0.464831  1
  O  O20  1  0.002184  0.115752  0.917872  1
  O  O21  1  0.497816  0.115752  0.917872  1
  O  O22  1  0.002184  0.384248  0.417872  1
  O  O23  1  0.497816  0.384248  0.417872  1
  O  O24  1  0.997816  0.615752  0.582128  1
  O  O25  1  0.502184  0.615752  0.582128  1
  O  O26  1  0.997816  0.884248  0.082128  1
  O  O27  1  0.502184  0.884248  0.082128  1
