# generated using pymatgen
data_Ti3NbO8
_symmetry_space_group_name_H-M   'P 1'
_cell_length_a   4.72510783
_cell_length_b   6.00896268
_cell_length_c   9.91242871
_cell_angle_alpha   107.63999937
_cell_angle_beta   90.45051951
_cell_angle_gamma   89.96924208
_symmetry_Int_Tables_number   1
_chemical_formula_structural   Ti3NbO8
_chemical_formula_sum   'Ti6 Nb2 O16'
_cell_volume   268.20109984
_cell_formula_units_Z   2
loop_
 _symmetry_equiv_pos_site_id
 _symmetry_equiv_pos_as_xyz
  1  'x, y, z'
loop_
 _atom_site_type_symbol
 _atom_site_label
 _atom_site_symmetry_multiplicity
 _atom_site_fract_x
 _atom_site_fract_y
 _atom_site_fract_z
 _atom_site_occupancy
  Ti  Ti0  1  0.495522  0.376737  0.246725  1
  Ti  Ti1  1  0.504478  0.623263  0.753275  1
  Ti  Ti2  1  0.000000  0.500000  0.000000  1
  Ti  Ti3  1  0.998065  0.262183  0.502955  1
  Ti  Ti4  1  0.000000  0.000000  0.000000  1
  Ti  Ti5  1  0.001935  0.737817  0.497045  1
  Nb  Nb6  1  0.497473  0.120113  0.748117  1
  Nb  Nb7  1  0.502527  0.879887  0.251883  1
  O  O8  1  0.805524  0.954083  0.404415  1
  O  O9  1  0.804192  0.453893  0.403099  1
  O  O10  1  0.807599  0.203059  0.902596  1
  O  O11  1  0.802376  0.701135  0.902975  1
  O  O12  1  0.696860  0.079980  0.150461  1
  O  O13  1  0.696687  0.822512  0.650572  1
  O  O14  1  0.701043  0.574429  0.153165  1
  O  O15  1  0.694339  0.327934  0.650224  1
  O  O16  1  0.303313  0.177488  0.349428  1
  O  O17  1  0.298957  0.425571  0.846835  1
  O  O18  1  0.303140  0.920020  0.849539  1
  O  O19  1  0.305661  0.672066  0.349776  1
  O  O20  1  0.194476  0.045917  0.595585  1
  O  O21  1  0.195808  0.546107  0.596901  1
  O  O22  1  0.197624  0.298865  0.097025  1
  O  O23  1  0.192401  0.796941  0.097404  1
