# generated using pymatgen
data_Li3VF6
_symmetry_space_group_name_H-M   'P 1'
_cell_length_a   6.06769443
_cell_length_b   6.06769443
_cell_length_c   6.06769443
_cell_angle_alpha   91.38367323
_cell_angle_beta   91.38367323
_cell_angle_gamma   91.38367323
_symmetry_Int_Tables_number   1
_chemical_formula_structural   Li3VF6
_chemical_formula_sum   'Li6 V2 F12'
_cell_volume   223.19517223
_cell_formula_units_Z   2
loop_
 _symmetry_equiv_pos_site_id
 _symmetry_equiv_pos_as_xyz
  1  'x, y, z'
loop_
 _atom_site_type_symbol
 _atom_site_label
 _atom_site_symmetry_multiplicity
 _atom_site_fract_x
 _atom_site_fract_y
 _atom_site_fract_z
 _atom_site_occupancy
  Li  Li0  1  0.250554  0.552529  0.060650  1
  Li  Li1  1  0.939350  0.749446  0.447471  1
  Li  Li2  1  0.447471  0.939350  0.749446  1
  Li  Li3  1  0.552529  0.060650  0.250554  1
  Li  Li4  1  0.060650  0.250554  0.552529  1
  Li  Li5  1  0.749446  0.447471  0.939350  1
  V  V6  1  0.500000  0.500000  0.500000  1
  V  V7  1  0.000000  0.000000  0.000000  1
  F  F8  1  0.305897  0.925827  0.080098  1
  F  F9  1  0.919902  0.694103  0.074173  1
  F  F10  1  0.601246  0.806229  0.452928  1
  F  F11  1  0.074173  0.919902  0.694103  1
  F  F12  1  0.547072  0.398754  0.193771  1
  F  F13  1  0.193771  0.547072  0.398754  1
  F  F14  1  0.806229  0.452928  0.601246  1
  F  F15  1  0.452928  0.601246  0.806229  1
  F  F16  1  0.925827  0.080098  0.305897  1
  F  F17  1  0.398754  0.193771  0.547072  1
  F  F18  1  0.080098  0.305897  0.925827  1
  F  F19  1  0.694103  0.074173  0.919902  1
