# generated using pymatgen
data_Na3NdV2O8
_symmetry_space_group_name_H-M   'P 1'
_cell_length_a   15.05120890
_cell_length_b   15.05120890
_cell_length_c   14.38861649
_cell_angle_alpha   88.64735351
_cell_angle_beta   91.35264649
_cell_angle_gamma   158.37651850
_symmetry_Int_Tables_number   1
_chemical_formula_structural   Na3NdV2O8
_chemical_formula_sum   'Na18 Nd6 V12 O48'
_cell_volume   1200.82690507
_cell_formula_units_Z   6
loop_
 _symmetry_equiv_pos_site_id
 _symmetry_equiv_pos_as_xyz
  1  'x, y, z'
loop_
 _atom_site_type_symbol
 _atom_site_label
 _atom_site_symmetry_multiplicity
 _atom_site_fract_x
 _atom_site_fract_y
 _atom_site_fract_z
 _atom_site_occupancy
  Na  Na0  1  0.322044  0.659737  0.531180  1
  Na  Na1  1  0.898314  0.098929  0.086312  1
  Na  Na2  1  0.688003  0.328369  0.267323  1
  Na  Na3  1  0.287124  0.822997  0.190177  1
  Na  Na4  1  0.034892  0.986787  0.003068  1
  Na  Na5  1  0.440193  0.521905  0.440134  1
  Na  Na6  1  0.784109  0.184613  0.908811  1
  Na  Na7  1  0.340263  0.677956  0.031180  1
  Na  Na8  1  0.901071  0.101686  0.586312  1
  Na  Na9  1  0.478095  0.559807  0.940134  1
  Na  Na10  1  0.074083  0.826484  0.349083  1
  Na  Na11  1  0.173516  0.925917  0.849083  1
  Na  Na12  1  0.013213  0.965108  0.503068  1
  Na  Na13  1  0.671631  0.311997  0.767323  1
  Na  Na14  1  0.545606  0.423563  0.621609  1
  Na  Na15  1  0.576437  0.454394  0.121609  1
  Na  Na16  1  0.177003  0.712876  0.690177  1
  Na  Na17  1  0.815387  0.215891  0.408811  1
  Nd  Nd18  1  0.575533  0.217578  0.514095  1
  Nd  Nd19  1  0.389694  0.679943  0.281343  1
  Nd  Nd20  1  0.957690  0.956237  0.249009  1
  Nd  Nd21  1  0.320057  0.610306  0.781343  1
  Nd  Nd22  1  0.782422  0.424467  0.014095  1
  Nd  Nd23  1  0.043763  0.042310  0.749009  1
  V  V24  1  0.596443  0.462987  0.871119  1
  V  V25  1  0.171676  0.930456  0.116850  1
  V  V26  1  0.189622  0.717641  0.420720  1
  V  V27  1  0.282359  0.810378  0.920720  1
  V  V28  1  0.920307  0.106695  0.366403  1
  V  V29  1  0.537013  0.403557  0.371119  1
  V  V30  1  0.818205  0.239604  0.160690  1
  V  V31  1  0.454771  0.558854  0.660729  1
  V  V32  1  0.069544  0.828324  0.616850  1
  V  V33  1  0.760396  0.181795  0.660690  1
  V  V34  1  0.893305  0.079693  0.866403  1
  V  V35  1  0.441146  0.545229  0.160729  1
  O  O36  1  0.037314  0.726946  0.189014  1
  O  O37  1  0.029149  0.900689  0.647568  1
  O  O38  1  0.749311  0.286459  0.640577  1
  O  O39  1  0.220655  0.116155  0.351005  1
  O  O40  1  0.604310  0.528811  0.466536  1
  O  O41  1  0.381301  0.599585  0.129462  1
  O  O42  1  0.249555  0.296557  0.608214  1
  O  O43  1  0.487117  0.586417  0.278173  1
  O  O44  1  0.044155  0.795949  0.007957  1
  O  O45  1  0.099311  0.970851  0.147568  1
  O  O46  1  0.687942  0.587227  0.274531  1
  O  O47  1  0.265600  0.680647  0.389410  1
  O  O48  1  0.160073  0.394589  0.404100  1
  O  O49  1  0.199786  0.252119  0.128305  1
  O  O50  1  0.127203  0.526281  0.188186  1
  O  O51  1  0.763668  0.123547  0.066495  1
  O  O52  1  0.883845  0.779345  0.851005  1
  O  O53  1  0.400415  0.618699  0.629462  1
  O  O54  1  0.412773  0.312058  0.774531  1
  O  O55  1  0.966344  0.038324  0.398986  1
  O  O56  1  0.946619  0.337212  0.757890  1
  O  O57  1  0.961676  0.033656  0.898986  1
  O  O58  1  0.473719  0.872797  0.688186  1
  O  O59  1  0.336938  0.934776  0.354105  1
  O  O60  1  0.662788  0.053381  0.257890  1
  O  O61  1  0.273054  0.962686  0.689014  1
  O  O62  1  0.489033  0.215496  0.114920  1
  O  O63  1  0.633428  0.384087  0.389422  1
  O  O64  1  0.872376  0.431785  0.413999  1
  O  O65  1  0.605411  0.839927  0.904100  1
  O  O66  1  0.471189  0.395690  0.966536  1
  O  O67  1  0.747881  0.800214  0.628305  1
  O  O68  1  0.703443  0.750445  0.108214  1
  O  O69  1  0.615913  0.366572  0.889422  1
  O  O70  1  0.784504  0.510967  0.614920  1
  O  O71  1  0.876453  0.236332  0.566495  1
  O  O72  1  0.319353  0.734400  0.889410  1
  O  O73  1  0.162101  0.700296  0.032670  1
  O  O74  1  0.657804  0.904009  0.414775  1
  O  O75  1  0.204051  0.955845  0.507957  1
  O  O76  1  0.893151  0.083414  0.247479  1
  O  O77  1  0.299704  0.837899  0.532670  1
  O  O78  1  0.065224  0.663062  0.854105  1
  O  O79  1  0.095991  0.342196  0.914775  1
  O  O80  1  0.916586  0.106849  0.747479  1
  O  O81  1  0.713541  0.250689  0.140577  1
  O  O82  1  0.568215  0.127624  0.913999  1
  O  O83  1  0.413583  0.512883  0.778173  1
