# generated using pymatgen
data_ZnCr3(SO4)6
_symmetry_space_group_name_H-M   'P 1'
_cell_length_a   8.88010310
_cell_length_b   8.88010310
_cell_length_c   8.88010310
_cell_angle_alpha   55.85043181
_cell_angle_beta   55.85043181
_cell_angle_gamma   55.85043181
_symmetry_Int_Tables_number   1
_chemical_formula_structural   ZnCr3(SO4)6
_chemical_formula_sum   'Zn1 Cr3 S6 O24'
_cell_volume   447.51996277
_cell_formula_units_Z   1
loop_
 _symmetry_equiv_pos_site_id
 _symmetry_equiv_pos_as_xyz
  1  'x, y, z'
loop_
 _atom_site_type_symbol
 _atom_site_label
 _atom_site_symmetry_multiplicity
 _atom_site_fract_x
 _atom_site_fract_y
 _atom_site_fract_z
 _atom_site_occupancy
  Zn  Zn0  1  0.148746  0.148746  0.148746  1
  Cr  Cr1  1  0.355301  0.355301  0.355301  1
  Cr  Cr2  1  0.644490  0.644490  0.644490  1
  Cr  Cr3  1  0.849470  0.849470  0.849470  1
  S  S4  1  0.038859  0.465840  0.745820  1
  S  S5  1  0.538611  0.253773  0.956950  1
  S  S6  1  0.253773  0.956950  0.538611  1
  S  S7  1  0.745820  0.038859  0.465840  1
  S  S8  1  0.465840  0.745820  0.038859  1
  S  S9  1  0.956950  0.538611  0.253773  1
  O  O10  1  0.297971  0.108471  0.515756  1
  O  O11  1  0.108471  0.515756  0.297971  1
  O  O12  1  0.008399  0.332814  0.948687  1
  O  O13  1  0.023668  0.657537  0.713915  1
  O  O14  1  0.350847  0.288465  0.967844  1
  O  O15  1  0.048663  0.981657  0.675257  1
  O  O16  1  0.515756  0.297971  0.108471  1
  O  O17  1  0.235677  0.382781  0.613743  1
  O  O18  1  0.675257  0.048663  0.981657  1
  O  O19  1  0.382760  0.760449  0.629703  1
  O  O20  1  0.629703  0.382760  0.760449  1
  O  O21  1  0.288465  0.967844  0.350847  1
  O  O22  1  0.713915  0.023668  0.657537  1
  O  O23  1  0.382781  0.613743  0.235677  1
  O  O24  1  0.613743  0.235677  0.382781  1
  O  O25  1  0.332814  0.948687  0.008399  1
  O  O26  1  0.760449  0.629703  0.382760  1
  O  O27  1  0.494718  0.689714  0.892649  1
  O  O28  1  0.948687  0.008399  0.332814  1
  O  O29  1  0.657537  0.713915  0.023668  1
  O  O30  1  0.967844  0.350847  0.288465  1
  O  O31  1  0.981657  0.675257  0.048663  1
  O  O32  1  0.892649  0.494718  0.689714  1
  O  O33  1  0.689714  0.892649  0.494718  1
