# generated using pymatgen
data_Li7CoOF7
_symmetry_space_group_name_H-M   'P 1'
_cell_length_a   2.95251304
_cell_length_b   5.87235534
_cell_length_c   8.28295560
_cell_angle_alpha   90.00000000
_cell_angle_beta   90.00000000
_cell_angle_gamma   90.00000000
_symmetry_Int_Tables_number   1
_chemical_formula_structural   Li7CoOF7
_chemical_formula_sum   'Li7 Co1 O1 F7'
_cell_volume   143.61158791
_cell_formula_units_Z   1
loop_
 _symmetry_equiv_pos_site_id
 _symmetry_equiv_pos_as_xyz
  1  'x, y, z'
loop_
 _atom_site_type_symbol
 _atom_site_label
 _atom_site_symmetry_multiplicity
 _atom_site_fract_x
 _atom_site_fract_y
 _atom_site_fract_z
 _atom_site_occupancy
  Li  Li0  1  0.000000  0.490770  0.741510  1
  Li  Li1  1  0.000000  0.012765  0.752967  1
  Li  Li2  1  0.500000  0.231376  0.000000  1
  Li  Li3  1  0.000000  0.012765  0.247033  1
  Li  Li4  1  0.000000  0.490770  0.258490  1
  Li  Li5  1  0.500000  0.247856  0.500000  1
  Li  Li6  1  0.500000  0.750917  0.500000  1
  Co  Co7  1  0.500000  0.779168  0.000000  1
  O  O8  1  0.000000  0.999450  0.000000  1
  F  F9  1  0.500000  0.739498  0.743157  1
  F  F10  1  0.500000  0.254129  0.742490  1
  F  F11  1  0.000000  0.499773  0.000000  1
  F  F12  1  0.500000  0.739498  0.256843  1
  F  F13  1  0.500000  0.254129  0.257510  1
  F  F14  1  0.000000  0.998450  0.500000  1
  F  F15  1  0.000000  0.498689  0.500000  1
