# generated using pymatgen
data_Li3Ti(BO3)2
_symmetry_space_group_name_H-M   'P 1'
_cell_length_a   5.02278830
_cell_length_b   7.08746048
_cell_length_c   7.97560881
_cell_angle_alpha   112.27034897
_cell_angle_beta   89.39747185
_cell_angle_gamma   93.08908337
_symmetry_Int_Tables_number   1
_chemical_formula_structural   Li3Ti(BO3)2
_chemical_formula_sum   'Li6 Ti2 B4 O12'
_cell_volume   262.34645307
_cell_formula_units_Z   2
loop_
 _symmetry_equiv_pos_site_id
 _symmetry_equiv_pos_as_xyz
  1  'x, y, z'
loop_
 _atom_site_type_symbol
 _atom_site_label
 _atom_site_symmetry_multiplicity
 _atom_site_fract_x
 _atom_site_fract_y
 _atom_site_fract_z
 _atom_site_occupancy
  Li  Li0  1  0.842957  0.261179  0.852895  1
  Li  Li1  1  0.653080  0.389708  0.548832  1
  Li  Li2  1  0.861746  0.439959  0.262525  1
  Li  Li3  1  0.138254  0.560041  0.737475  1
  Li  Li4  1  0.346920  0.610292  0.451168  1
  Li  Li5  1  0.157043  0.738821  0.147105  1
  Ti  Ti6  1  0.595941  0.012584  0.159451  1
  Ti  Ti7  1  0.404059  0.987416  0.840549  1
  B  B8  1  0.135537  0.197403  0.388454  1
  B  B9  1  0.666055  0.656125  0.930269  1
  B  B10  1  0.333945  0.343875  0.069731  1
  B  B11  1  0.864463  0.802597  0.611546  1
  O  O12  1  0.719570  0.976324  0.716236  1
  O  O13  1  0.187069  0.223088  0.914765  1
  O  O14  1  0.868899  0.193068  0.339790  1
  O  O15  1  0.262794  0.358787  0.517606  1
  O  O16  1  0.761786  0.492691  0.799946  1
  O  O17  1  0.588937  0.261197  0.071468  1
  O  O18  1  0.411063  0.738803  0.928532  1
  O  O19  1  0.238214  0.507309  0.200054  1
  O  O20  1  0.737206  0.641213  0.482394  1
  O  O21  1  0.131101  0.806932  0.660210  1
  O  O22  1  0.812931  0.776912  0.085235  1
  O  O23  1  0.280430  0.023676  0.283764  1
