# generated using pymatgen
data_Ca5Ta4O15
_symmetry_space_group_name_H-M   'P 1'
_cell_length_a   5.63272367
_cell_length_b   5.63272367
_cell_length_c   11.50209347
_cell_angle_alpha   90.00000000
_cell_angle_beta   90.00000000
_cell_angle_gamma   120.00000000
_symmetry_Int_Tables_number   1
_chemical_formula_structural   Ca5Ta4O15
_chemical_formula_sum   'Ca5 Ta4 O15'
_cell_volume   316.04172026
_cell_formula_units_Z   1
loop_
 _symmetry_equiv_pos_site_id
 _symmetry_equiv_pos_as_xyz
  1  'x, y, z'
loop_
 _atom_site_type_symbol
 _atom_site_label
 _atom_site_symmetry_multiplicity
 _atom_site_fract_x
 _atom_site_fract_y
 _atom_site_fract_z
 _atom_site_occupancy
  Ca  Ca0  1  0.333333  0.666667  0.959659  1
  Ca  Ca1  1  0.333333  0.666667  0.261270  1
  Ca  Ca2  1  0.000000  0.000000  0.500000  1
  Ca  Ca3  1  0.666667  0.333333  0.738730  1
  Ca  Ca4  1  0.666667  0.333333  0.040341  1
  Ta  Ta5  1  0.333333  0.666667  0.603630  1
  Ta  Ta6  1  0.000000  0.000000  0.815094  1
  Ta  Ta7  1  0.000000  0.000000  0.184906  1
  Ta  Ta8  1  0.666667  0.333333  0.396370  1
  O  O9  1  0.171809  0.828191  0.107780  1
  O  O10  1  0.000000  0.500000  0.500000  1
  O  O11  1  0.162303  0.837697  0.692593  1
  O  O12  1  0.162303  0.324606  0.692593  1
  O  O13  1  0.171809  0.343617  0.107780  1
  O  O14  1  0.343617  0.171809  0.892220  1
  O  O15  1  0.675394  0.837697  0.692593  1
  O  O16  1  0.500000  0.500000  0.500000  1
  O  O17  1  0.324606  0.162303  0.307407  1
  O  O18  1  0.656383  0.828191  0.107780  1
  O  O19  1  0.500000  0.000000  0.500000  1
  O  O20  1  0.837697  0.675394  0.307407  1
  O  O21  1  0.828191  0.656383  0.892220  1
  O  O22  1  0.837697  0.162303  0.307407  1
  O  O23  1  0.828191  0.171809  0.892220  1
