# generated using pymatgen
data_Li3Mn2(CO3)4
_symmetry_space_group_name_H-M   'P 1'
_cell_length_a   7.16825374
_cell_length_b   9.97812264
_cell_length_c   8.63687803
_cell_angle_alpha   90.00000000
_cell_angle_beta   111.35383634
_cell_angle_gamma   90.00000000
_symmetry_Int_Tables_number   1
_chemical_formula_structural   Li3Mn2(CO3)4
_chemical_formula_sum   'Li6 Mn4 C8 O24'
_cell_volume   575.34941866
_cell_formula_units_Z   2
loop_
 _symmetry_equiv_pos_site_id
 _symmetry_equiv_pos_as_xyz
  1  'x, y, z'
loop_
 _atom_site_type_symbol
 _atom_site_label
 _atom_site_symmetry_multiplicity
 _atom_site_fract_x
 _atom_site_fract_y
 _atom_site_fract_z
 _atom_site_occupancy
  Li  Li0  1  0.320807  0.182193  0.186356  1
  Li  Li1  1  0.265796  0.081949  0.597046  1
  Li  Li2  1  0.761443  0.414062  0.096003  1
  Li  Li3  1  0.679193  0.682193  0.813644  1
  Li  Li4  1  0.734204  0.581949  0.402954  1
  Li  Li5  1  0.238557  0.914062  0.903997  1
  Mn  Mn6  1  0.287369  0.366232  0.808387  1
  Mn  Mn7  1  0.712631  0.866232  0.191613  1
  Mn  Mn8  1  0.795270  0.148889  0.328131  1
  Mn  Mn9  1  0.204730  0.648889  0.671869  1
  C  C10  1  0.485838  0.110291  0.968669  1
  C  C11  1  0.514162  0.610291  0.031331  1
  C  C12  1  0.523255  0.476405  0.610020  1
  C  C13  1  0.476745  0.976405  0.389980  1
  C  C14  1  0.022476  0.017724  0.116047  1
  C  C15  1  0.977524  0.517724  0.883953  1
  C  C16  1  0.991422  0.392820  0.467155  1
  C  C17  1  0.008578  0.892820  0.532845  1
  O  O18  1  0.358052  0.149535  0.827435  1
  O  O19  1  0.473218  0.482552  0.009997  1
  O  O20  1  0.440627  0.697509  0.913920  1
  O  O21  1  0.559373  0.197509  0.086080  1
  O  O22  1  0.526782  0.982552  0.990003  1
  O  O23  1  0.641948  0.649535  0.172565  1
  O  O24  1  0.368874  0.955175  0.473536  1
  O  O25  1  0.476328  0.376570  0.687960  1
  O  O26  1  0.461472  0.598979  0.623210  1
  O  O27  1  0.538528  0.098979  0.376790  1
  O  O28  1  0.523672  0.876570  0.312040  1
  O  O29  1  0.847406  0.531624  0.953102  1
  O  O30  1  0.631126  0.455175  0.526464  1
  O  O31  1  0.995892  0.116306  0.203096  1
  O  O32  1  0.924526  0.904158  0.097549  1
  O  O33  1  0.075474  0.404158  0.902451  1
  O  O34  1  0.004108  0.616306  0.796904  1
  O  O35  1  0.152594  0.031624  0.046898  1
  O  O36  1  0.859952  0.350947  0.328670  1
  O  O37  1  0.974546  0.019105  0.514992  1
  O  O38  1  0.920008  0.805165  0.417932  1
  O  O39  1  0.079992  0.305165  0.582068  1
  O  O40  1  0.025454  0.519105  0.485008  1
  O  O41  1  0.140048  0.850947  0.671330  1
