# generated using pymatgen
data_Na2CoP4(H4O5)4
_symmetry_space_group_name_H-M   'P 1'
_cell_length_a   7.25058862
_cell_length_b   10.84714584
_cell_length_c   12.17105465
_cell_angle_alpha   90.00000000
_cell_angle_beta   115.60508281
_cell_angle_gamma   90.00000000
_symmetry_Int_Tables_number   1
_chemical_formula_structural   Na2CoP4(H4O5)4
_chemical_formula_sum   'Na4 Co2 P8 H32 O40'
_cell_volume   863.22575761
_cell_formula_units_Z   2
loop_
 _symmetry_equiv_pos_site_id
 _symmetry_equiv_pos_as_xyz
  1  'x, y, z'
loop_
 _atom_site_type_symbol
 _atom_site_label
 _atom_site_symmetry_multiplicity
 _atom_site_fract_x
 _atom_site_fract_y
 _atom_site_fract_z
 _atom_site_occupancy
  Na  Na0  1  0.794074  0.330410  0.541730  1
  Na  Na1  1  0.205926  0.830410  0.958270  1
  Na  Na2  1  0.794074  0.169590  0.041730  1
  Na  Na3  1  0.205926  0.669590  0.458270  1
  Co  Co4  1  0.500000  0.000000  0.500000  1
  Co  Co5  1  0.500000  0.500000  0.000000  1
  P  P6  1  0.320022  0.243205  0.083511  1
  P  P7  1  0.679978  0.743205  0.416489  1
  P  P8  1  0.956487  0.045273  0.720288  1
  P  P9  1  0.043513  0.545273  0.779712  1
  P  P10  1  0.956487  0.454727  0.220288  1
  P  P11  1  0.043513  0.954727  0.279712  1
  P  P12  1  0.320022  0.256795  0.583511  1
  P  P13  1  0.679978  0.756795  0.916489  1
  H  H14  1  0.263041  0.590155  0.104671  1
  H  H15  1  0.340120  0.963501  0.197184  1
  H  H16  1  0.517205  0.570111  0.393934  1
  H  H17  1  0.489656  0.379961  0.306017  1
  H  H18  1  0.529912  0.164907  0.344784  1
  H  H19  1  0.863244  0.707139  0.788883  1
  H  H20  1  0.470088  0.664907  0.155216  1
  H  H21  1  0.510344  0.879961  0.193983  1
  H  H22  1  0.087504  0.415355  0.924142  1
  H  H23  1  0.101226  0.113197  0.944102  1
  H  H24  1  0.482795  0.070111  0.106066  1
  H  H25  1  0.659880  0.463501  0.302816  1
  H  H26  1  0.736959  0.090155  0.395329  1
  H  H27  1  0.898774  0.613197  0.555898  1
  H  H28  1  0.912496  0.915355  0.575858  1
  H  H29  1  0.136756  0.207139  0.711117  1
  H  H30  1  0.863244  0.792861  0.288883  1
  H  H31  1  0.087504  0.084645  0.424142  1
  H  H32  1  0.101226  0.386803  0.444102  1
  H  H33  1  0.263041  0.909845  0.604671  1
  H  H34  1  0.340120  0.536499  0.697184  1
  H  H35  1  0.517205  0.929889  0.893934  1
  H  H36  1  0.898774  0.886803  0.055898  1
  H  H37  1  0.912496  0.584645  0.075858  1
  H  H38  1  0.489656  0.120039  0.806017  1
  H  H39  1  0.529912  0.335093  0.844784  1
  H  H40  1  0.136756  0.292861  0.211117  1
  H  H41  1  0.470088  0.835093  0.655216  1
  H  H42  1  0.510344  0.620039  0.693983  1
  H  H43  1  0.482795  0.429889  0.606066  1
  H  H44  1  0.659880  0.036499  0.802816  1
  H  H45  1  0.736959  0.409845  0.895329  1
  O  O46  1  0.110009  0.172793  0.014233  1
  O  O47  1  0.352688  0.258993  0.216149  1
  O  O48  1  0.506036  0.657662  0.422462  1
  O  O49  1  0.727422  0.026763  0.677507  1
  O  O50  1  0.408215  0.942871  0.143861  1
  O  O51  1  0.359381  0.631734  0.079326  1
  O  O52  1  0.312833  0.363500  0.017522  1
  O  O53  1  0.687167  0.863500  0.482478  1
  O  O54  1  0.640619  0.131734  0.420674  1
  O  O55  1  0.591785  0.442871  0.356139  1
  O  O56  1  0.966586  0.461143  0.860197  1
  O  O57  1  0.010984  0.684816  0.807853  1
  O  O58  1  0.493964  0.157662  0.077538  1
  O  O59  1  0.910844  0.518719  0.645855  1
  O  O60  1  0.647312  0.758993  0.283851  1
  O  O61  1  0.089156  0.018719  0.854145  1
  O  O62  1  0.989016  0.184816  0.692147  1
  O  O63  1  0.889991  0.672793  0.485767  1
  O  O64  1  0.033414  0.961143  0.639803  1
  O  O65  1  0.727422  0.473237  0.177507  1
  O  O66  1  0.272578  0.526763  0.822493  1
  O  O67  1  0.966586  0.038857  0.360197  1
  O  O68  1  0.110009  0.327207  0.514233  1
  O  O69  1  0.010984  0.815184  0.307853  1
  O  O70  1  0.910844  0.981281  0.145855  1
  O  O71  1  0.352688  0.241007  0.716149  1
  O  O72  1  0.089156  0.481281  0.354145  1
  O  O73  1  0.506036  0.842338  0.922462  1
  O  O74  1  0.989016  0.315184  0.192147  1
  O  O75  1  0.033414  0.538857  0.139803  1
  O  O76  1  0.408215  0.557129  0.643861  1
  O  O77  1  0.359381  0.868266  0.579326  1
  O  O78  1  0.312833  0.136500  0.517522  1
  O  O79  1  0.687167  0.636500  0.982478  1
  O  O80  1  0.640619  0.368266  0.920674  1
  O  O81  1  0.591785  0.057129  0.856139  1
  O  O82  1  0.272578  0.973237  0.322493  1
  O  O83  1  0.493964  0.342338  0.577538  1
  O  O84  1  0.647312  0.741007  0.783851  1
  O  O85  1  0.889991  0.827207  0.985767  1
