# generated using pymatgen
data_FeSb3(PO4)6
_symmetry_space_group_name_H-M   'P 1'
_cell_length_a   8.90051597
_cell_length_b   8.90051597
_cell_length_c   8.90051597
_cell_angle_alpha   58.02513649
_cell_angle_beta   58.02513649
_cell_angle_gamma   58.02513649
_symmetry_Int_Tables_number   1
_chemical_formula_structural   FeSb3(PO4)6
_chemical_formula_sum   'Fe1 Sb3 P6 O24'
_cell_volume   475.99212236
_cell_formula_units_Z   1
loop_
 _symmetry_equiv_pos_site_id
 _symmetry_equiv_pos_as_xyz
  1  'x, y, z'
loop_
 _atom_site_type_symbol
 _atom_site_label
 _atom_site_symmetry_multiplicity
 _atom_site_fract_x
 _atom_site_fract_y
 _atom_site_fract_z
 _atom_site_occupancy
  Fe  Fe0  1  0.142343  0.142343  0.142343  1
  Sb  Sb1  1  0.856694  0.856694  0.856694  1
  Sb  Sb2  1  0.643488  0.643488  0.643488  1
  Sb  Sb3  1  0.356382  0.356382  0.356382  1
  P  P4  1  0.249069  0.534020  0.962523  1
  P  P5  1  0.962523  0.249069  0.534020  1
  P  P6  1  0.534020  0.962523  0.249069  1
  P  P7  1  0.458102  0.038504  0.753348  1
  P  P8  1  0.038504  0.753348  0.458102  1
  P  P9  1  0.753348  0.458102  0.038504  1
  O  O10  1  0.722333  0.488259  0.866518  1
  O  O11  1  0.488259  0.866518  0.722333  1
  O  O12  1  0.076111  0.720372  0.940287  1
  O  O13  1  0.866518  0.722333  0.488259  1
  O  O14  1  0.424428  0.561051  0.781029  1
  O  O15  1  0.223347  0.366816  0.989267  1
  O  O16  1  0.940287  0.076111  0.720372  1
  O  O17  1  0.781029  0.424428  0.561051  1
  O  O18  1  0.561051  0.781029  0.424428  1
  O  O19  1  0.635865  0.013579  0.771677  1
  O  O20  1  0.283792  0.059839  0.922778  1
  O  O21  1  0.013579  0.771677  0.635865  1
  O  O22  1  0.989267  0.223347  0.366816  1
  O  O23  1  0.720372  0.940287  0.076111  1
  O  O24  1  0.366816  0.989267  0.223347  1
  O  O25  1  0.443821  0.217655  0.572902  1
  O  O26  1  0.217655  0.572902  0.443821  1
  O  O27  1  0.059839  0.922778  0.283792  1
  O  O28  1  0.771677  0.635865  0.013579  1
  O  O29  1  0.572902  0.443821  0.217655  1
  O  O30  1  0.132335  0.275363  0.516102  1
  O  O31  1  0.922778  0.283792  0.059839  1
  O  O32  1  0.516102  0.132335  0.275363  1
  O  O33  1  0.275363  0.516102  0.132335  1
