# generated using pymatgen
data_Ba2CaI6
_symmetry_space_group_name_H-M   'P 1'
_cell_length_a   7.93930891
_cell_length_b   9.08331753
_cell_length_c   13.63796525
_cell_angle_alpha   90.00000000
_cell_angle_beta   124.41235777
_cell_angle_gamma   90.00000000
_symmetry_Int_Tables_number   1
_chemical_formula_structural   Ba2CaI6
_chemical_formula_sum   'Ba4 Ca2 I12'
_cell_volume   811.38376886
_cell_formula_units_Z   2
loop_
 _symmetry_equiv_pos_site_id
 _symmetry_equiv_pos_as_xyz
  1  'x, y, z'
loop_
 _atom_site_type_symbol
 _atom_site_label
 _atom_site_symmetry_multiplicity
 _atom_site_fract_x
 _atom_site_fract_y
 _atom_site_fract_z
 _atom_site_occupancy
  Ba  Ba0  1  0.780353  0.890730  0.246065  1
  Ba  Ba1  1  0.219647  0.109270  0.753935  1
  Ba  Ba2  1  0.780353  0.609270  0.746065  1
  Ba  Ba3  1  0.219647  0.390730  0.253935  1
  Ca  Ca4  1  0.500000  0.500000  0.000000  1
  Ca  Ca5  1  0.500000  0.000000  0.500000  1
  I  I6  1  0.636439  0.966538  0.761763  1
  I  I7  1  0.279596  0.691982  0.441152  1
  I  I8  1  0.889183  0.673164  0.062317  1
  I  I9  1  0.110817  0.173164  0.437683  1
  I  I10  1  0.720404  0.191982  0.058848  1
  I  I11  1  0.363561  0.466538  0.738237  1
  I  I12  1  0.636439  0.533462  0.261763  1
  I  I13  1  0.279596  0.808018  0.941152  1
  I  I14  1  0.889183  0.826836  0.562317  1
  I  I15  1  0.110817  0.326836  0.937683  1
  I  I16  1  0.720404  0.308018  0.558848  1
  I  I17  1  0.363561  0.033462  0.238237  1
