# generated using pymatgen
data_Sc6N2O5
_symmetry_space_group_name_H-M   'P 1'
_cell_length_a   5.46561549
_cell_length_b   5.46964116
_cell_length_c   5.47295985
_cell_angle_alpha   99.79910218
_cell_angle_beta   99.84097267
_cell_angle_gamma   99.69275968
_symmetry_Int_Tables_number   1
_chemical_formula_structural   Sc6N2O5
_chemical_formula_sum   'Sc6 N2 O5'
_cell_volume   155.53483182
_cell_formula_units_Z   1
loop_
 _symmetry_equiv_pos_site_id
 _symmetry_equiv_pos_as_xyz
  1  'x, y, z'
loop_
 _atom_site_type_symbol
 _atom_site_label
 _atom_site_symmetry_multiplicity
 _atom_site_fract_x
 _atom_site_fract_y
 _atom_site_fract_z
 _atom_site_occupancy
  Sc  Sc0  1  0.154224  0.574037  0.276231  1
  Sc  Sc1  1  0.718081  0.852460  0.431615  1
  Sc  Sc2  1  0.433826  0.726011  0.859932  1
  Sc  Sc3  1  0.563122  0.270587  0.148815  1
  Sc  Sc4  1  0.278484  0.141917  0.556251  1
  Sc  Sc5  1  0.852298  0.435690  0.723417  1
  N  N6  1  0.375150  0.922203  0.223597  1
  N  N7  1  0.501613  0.499424  0.500863  1
  O  O8  1  0.076072  0.772155  0.624097  1
  O  O9  1  0.776386  0.622129  0.075755  1
  O  O10  1  0.222292  0.377017  0.920545  1
  O  O11  1  0.921967  0.226012  0.380500  1
  O  O12  1  0.626483  0.080358  0.778384  1
