# generated using pymatgen
data_LiSn(PO3)4
_symmetry_space_group_name_H-M   'P 1'
_cell_length_a   7.75158722
_cell_length_b   7.75158722
_cell_length_c   17.76934841
_cell_angle_alpha   90.00000000
_cell_angle_beta   90.00000000
_cell_angle_gamma   98.95253795
_symmetry_Int_Tables_number   1
_chemical_formula_structural   LiSn(PO3)4
_chemical_formula_sum   'Li4 Sn4 P16 O48'
_cell_volume   1054.70142564
_cell_formula_units_Z   4
loop_
 _symmetry_equiv_pos_site_id
 _symmetry_equiv_pos_as_xyz
  1  'x, y, z'
loop_
 _atom_site_type_symbol
 _atom_site_label
 _atom_site_symmetry_multiplicity
 _atom_site_fract_x
 _atom_site_fract_y
 _atom_site_fract_z
 _atom_site_occupancy
  Li  Li0  1  0.099236  0.192602  0.354027  1
  Li  Li1  1  0.807398  0.900764  0.145973  1
  Li  Li2  1  0.900764  0.807398  0.854027  1
  Li  Li3  1  0.192602  0.099236  0.645973  1
  Sn  Sn4  1  0.978110  0.571147  0.130065  1
  Sn  Sn5  1  0.428853  0.021890  0.369935  1
  Sn  Sn6  1  0.021890  0.428853  0.630065  1
  Sn  Sn7  1  0.571147  0.978110  0.869935  1
  P  P8  1  0.752938  0.036336  0.654345  1
  P  P9  1  0.963664  0.247062  0.845655  1
  P  P10  1  0.782638  0.303176  0.989542  1
  P  P11  1  0.696824  0.217362  0.510458  1
  P  P12  1  0.638306  0.361694  0.250000  1
  P  P13  1  0.327919  0.274299  0.809734  1
  P  P14  1  0.725701  0.672081  0.690266  1
  P  P15  1  0.350850  0.350850  0.500000  1
  P  P16  1  0.649150  0.649150  0.000000  1
  P  P17  1  0.274299  0.327919  0.190266  1
  P  P18  1  0.672081  0.725701  0.309734  1
  P  P19  1  0.361694  0.638306  0.750000  1
  P  P20  1  0.303176  0.782638  0.010458  1
  P  P21  1  0.217362  0.696824  0.489542  1
  P  P22  1  0.036336  0.752938  0.345655  1
  P  P23  1  0.247062  0.963664  0.154345  1
  O  O24  1  0.877580  0.056846  0.853954  1
  O  O25  1  0.943154  0.122420  0.646046  1
  O  O26  1  0.648987  0.051830  0.722976  1
  O  O27  1  0.948170  0.351013  0.777024  1
  O  O28  1  0.678045  0.123359  0.981976  1
  O  O29  1  0.876641  0.321955  0.518024  1
  O  O30  1  0.644232  0.098761  0.583571  1
  O  O31  1  0.901239  0.355768  0.916429  1
  O  O32  1  0.664165  0.102797  0.441551  1
  O  O33  1  0.897203  0.335835  0.058449  1
  O  O34  1  0.806803  0.388749  0.206116  1
  O  O35  1  0.611251  0.193197  0.293884  1
  O  O36  1  0.480003  0.219373  0.852159  1
  O  O37  1  0.780627  0.519997  0.647841  1
  O  O38  1  0.648085  0.443892  0.987636  1
  O  O39  1  0.556108  0.351915  0.512364  1
  O  O40  1  0.833504  0.757969  0.368112  1
  O  O41  1  0.242031  0.166496  0.131888  1
  O  O42  1  0.625444  0.514637  0.309381  1
  O  O43  1  0.485363  0.374556  0.190619  1
  O  O44  1  0.745910  0.708864  0.071650  1
  O  O45  1  0.291136  0.254090  0.428350  1
  O  O46  1  0.798003  0.719831  0.765783  1
  O  O47  1  0.280169  0.201997  0.734217  1
  O  O48  1  0.201997  0.280169  0.265783  1
  O  O49  1  0.719831  0.798003  0.234217  1
  O  O50  1  0.254090  0.291136  0.571650  1
  O  O51  1  0.708864  0.745910  0.928350  1
  O  O52  1  0.514637  0.625444  0.690619  1
  O  O53  1  0.374556  0.485363  0.809381  1
  O  O54  1  0.166496  0.242031  0.868112  1
  O  O55  1  0.757969  0.833504  0.631888  1
  O  O56  1  0.443892  0.648085  0.012364  1
  O  O57  1  0.351915  0.556108  0.487636  1
  O  O58  1  0.519997  0.780627  0.352159  1
  O  O59  1  0.219373  0.480003  0.147841  1
  O  O60  1  0.388749  0.806803  0.793884  1
  O  O61  1  0.193197  0.611251  0.706116  1
  O  O62  1  0.102797  0.664165  0.558449  1
  O  O63  1  0.335835  0.897203  0.941551  1
  O  O64  1  0.098761  0.644232  0.416429  1
  O  O65  1  0.355768  0.901239  0.083571  1
  O  O66  1  0.321955  0.876641  0.481976  1
  O  O67  1  0.123359  0.678045  0.018024  1
  O  O68  1  0.051830  0.648987  0.277024  1
  O  O69  1  0.351013  0.948170  0.222976  1
  O  O70  1  0.122420  0.943154  0.353954  1
  O  O71  1  0.056846  0.877580  0.146046  1
