# generated using pymatgen
data_Tb2WO6
_symmetry_space_group_name_H-M   'P 1'
_cell_length_a   7.73357641
_cell_length_b   5.41927833
_cell_length_c   11.52649468
_cell_angle_alpha   90.00000000
_cell_angle_beta   104.46239694
_cell_angle_gamma   90.00000000
_symmetry_Int_Tables_number   1
_chemical_formula_structural   Tb2WO6
_chemical_formula_sum   'Tb8 W4 O24'
_cell_volume   467.77207974
_cell_formula_units_Z   4
loop_
 _symmetry_equiv_pos_site_id
 _symmetry_equiv_pos_as_xyz
  1  'x, y, z'
loop_
 _atom_site_type_symbol
 _atom_site_label
 _atom_site_symmetry_multiplicity
 _atom_site_fract_x
 _atom_site_fract_y
 _atom_site_fract_z
 _atom_site_occupancy
  Tb  Tb0  1  0.500000  0.737863  0.750000  1
  Tb  Tb1  1  0.500000  0.262137  0.250000  1
  Tb  Tb2  1  0.703155  0.188668  0.577626  1
  Tb  Tb3  1  0.703155  0.811332  0.077626  1
  Tb  Tb4  1  0.000000  0.683433  0.750000  1
  Tb  Tb5  1  0.000000  0.316567  0.250000  1
  Tb  Tb6  1  0.296845  0.188668  0.922374  1
  Tb  Tb7  1  0.296845  0.811332  0.422374  1
  W  W8  1  0.778579  0.254120  0.886300  1
  W  W9  1  0.778579  0.745880  0.386300  1
  W  W10  1  0.221421  0.254120  0.613700  1
  W  W11  1  0.221421  0.745880  0.113700  1
  O  O12  1  0.562347  0.039078  0.896045  1
  O  O13  1  0.648739  0.524372  0.930668  1
  O  O14  1  0.562347  0.960922  0.396045  1
  O  O15  1  0.714170  0.463178  0.728866  1
  O  O16  1  0.648739  0.475628  0.430668  1
  O  O17  1  0.790610  0.986409  0.771423  1
  O  O18  1  0.714170  0.536822  0.228866  1
  O  O19  1  0.865821  0.851749  0.547505  1
  O  O20  1  0.009809  0.363464  0.887847  1
  O  O21  1  0.790610  0.013591  0.271423  1
  O  O22  1  0.990191  0.363464  0.612153  1
  O  O23  1  0.134179  0.851749  0.952495  1
  O  O24  1  0.865821  0.148251  0.047505  1
  O  O25  1  0.009809  0.636536  0.387847  1
  O  O26  1  0.209390  0.986409  0.728577  1
  O  O27  1  0.990191  0.636536  0.112153  1
  O  O28  1  0.134179  0.148251  0.452495  1
  O  O29  1  0.285830  0.463178  0.771134  1
  O  O30  1  0.209390  0.013591  0.228577  1
  O  O31  1  0.351261  0.524372  0.569332  1
  O  O32  1  0.285830  0.536822  0.271134  1
  O  O33  1  0.437653  0.039078  0.603955  1
  O  O34  1  0.351261  0.475628  0.069332  1
  O  O35  1  0.437653  0.960922  0.103955  1
