# generated using pymatgen
data_LiCrP2O7
_symmetry_space_group_name_H-M   'P 1'
_cell_length_a   7.18109052
_cell_length_b   7.95038221
_cell_length_c   9.52197365
_cell_angle_alpha   90.00000000
_cell_angle_beta   110.84614037
_cell_angle_gamma   90.00000000
_symmetry_Int_Tables_number   1
_chemical_formula_structural   LiCrP2O7
_chemical_formula_sum   'Li4 Cr4 P8 O28'
_cell_volume   508.04596046
_cell_formula_units_Z   4
loop_
 _symmetry_equiv_pos_site_id
 _symmetry_equiv_pos_as_xyz
  1  'x, y, z'
loop_
 _atom_site_type_symbol
 _atom_site_label
 _atom_site_symmetry_multiplicity
 _atom_site_fract_x
 _atom_site_fract_y
 _atom_site_fract_z
 _atom_site_occupancy
  Li  Li0  1  0.302251  0.020210  0.779217  1
  Li  Li1  1  0.697749  0.520210  0.720783  1
  Li  Li2  1  0.302251  0.479790  0.279217  1
  Li  Li3  1  0.697749  0.979790  0.220783  1
  Cr  Cr4  1  0.740425  0.995494  0.752653  1
  Cr  Cr5  1  0.740425  0.504506  0.252653  1
  Cr  Cr6  1  0.259575  0.495494  0.747347  1
  Cr  Cr7  1  0.259575  0.004506  0.247347  1
  P  P8  1  0.669150  0.289756  0.952077  1
  P  P9  1  0.669150  0.210244  0.452077  1
  P  P10  1  0.330850  0.789756  0.547923  1
  P  P11  1  0.916067  0.740863  0.545347  1
  P  P12  1  0.330850  0.710244  0.047923  1
  P  P13  1  0.083933  0.240863  0.954653  1
  P  P14  1  0.916067  0.759137  0.045347  1
  P  P15  1  0.083933  0.259137  0.454653  1
  O  O16  1  0.378763  0.607552  0.604392  1
  O  O17  1  0.315644  0.799371  0.384352  1
  O  O18  1  0.879917  0.340735  0.936049  1
  O  O19  1  0.458516  0.921552  0.656583  1
  O  O20  1  0.120083  0.659265  0.063951  1
  O  O21  1  0.799759  0.865514  0.600445  1
  O  O22  1  0.806463  0.712680  0.377283  1
  O  O23  1  0.027015  0.079847  0.858372  1
  O  O24  1  0.684356  0.200629  0.615648  1
  O  O25  1  0.541484  0.078448  0.343417  1
  O  O26  1  0.806463  0.787320  0.877283  1
  O  O27  1  0.378763  0.892448  0.104392  1
  O  O28  1  0.799759  0.634486  0.100445  1
  O  O29  1  0.458516  0.578448  0.156583  1
  O  O30  1  0.200241  0.134486  0.399555  1
  O  O31  1  0.200241  0.365514  0.899555  1
  O  O32  1  0.027015  0.420153  0.358372  1
  O  O33  1  0.541484  0.421552  0.843417  1
  O  O34  1  0.684356  0.299371  0.115648  1
  O  O35  1  0.879917  0.159265  0.436049  1
  O  O36  1  0.193537  0.287320  0.622717  1
  O  O37  1  0.193537  0.212680  0.122717  1
  O  O38  1  0.972985  0.579847  0.641628  1
  O  O39  1  0.315644  0.700629  0.884352  1
  O  O40  1  0.972985  0.920153  0.141628  1
  O  O41  1  0.621237  0.392448  0.395608  1
  O  O42  1  0.621237  0.107552  0.895608  1
  O  O43  1  0.120083  0.840735  0.563951  1
