# generated using pymatgen
data_Li3Fe4(OF3)3
_symmetry_space_group_name_H-M   'P 1'
_cell_length_a   5.95410644
_cell_length_b   6.00913070
_cell_length_c   6.03792760
_cell_angle_alpha   99.87927527
_cell_angle_beta   99.27753525
_cell_angle_gamma   98.91735059
_symmetry_Int_Tables_number   1
_chemical_formula_structural   Li3Fe4(OF3)3
_chemical_formula_sum   'Li3 Fe4 O3 F9'
_cell_volume   206.30326773
_cell_formula_units_Z   1
loop_
 _symmetry_equiv_pos_site_id
 _symmetry_equiv_pos_as_xyz
  1  'x, y, z'
loop_
 _atom_site_type_symbol
 _atom_site_label
 _atom_site_symmetry_multiplicity
 _atom_site_fract_x
 _atom_site_fract_y
 _atom_site_fract_z
 _atom_site_occupancy
  Li  Li0  1  0.851525  0.659598  0.409308  1
  Li  Li1  1  0.694451  0.400099  0.869104  1
  Li  Li2  1  0.120959  0.329112  0.598920  1
  Fe  Fe3  1  0.595199  0.126652  0.319396  1
  Fe  Fe4  1  0.323923  0.635496  0.151103  1
  Fe  Fe5  1  0.998338  0.001807  0.994024  1
  Fe  Fe6  1  0.427919  0.882120  0.691324  1
  O  O7  1  0.317168  0.950713  0.102285  1
  O  O8  1  0.575295  0.823095  0.418529  1
  O  O9  1  0.694260  0.053808  0.893654  1
  F  F10  1  0.922072  0.682471  0.049311  1
  F  F11  1  0.933930  0.105632  0.308651  1
  F  F12  1  0.563392  0.408592  0.179282  1
  F  F13  1  0.793511  0.390865  0.573911  1
  F  F14  1  0.387269  0.174521  0.565179  1
  F  F15  1  0.174851  0.566013  0.403453  1
  F  F16  1  0.422233  0.601778  0.828752  1
  F  F17  1  0.078944  0.881717  0.686667  1
  F  F18  1  0.124758  0.325912  0.957148  1
