# generated using pymatgen
data_Li4Fe3Co2Sb3O16
_symmetry_space_group_name_H-M   'P 1'
_cell_length_a   5.99185730
_cell_length_b   5.99185730
_cell_length_c   9.82326220
_cell_angle_alpha   89.91025824
_cell_angle_beta   90.08974176
_cell_angle_gamma   119.31096275
_symmetry_Int_Tables_number   1
_chemical_formula_structural   Li4Fe3Co2Sb3O16
_chemical_formula_sum   'Li4 Fe3 Co2 Sb3 O16'
_cell_volume   307.52631713
_cell_formula_units_Z   1
loop_
 _symmetry_equiv_pos_site_id
 _symmetry_equiv_pos_as_xyz
  1  'x, y, z'
loop_
 _atom_site_type_symbol
 _atom_site_label
 _atom_site_symmetry_multiplicity
 _atom_site_fract_x
 _atom_site_fract_y
 _atom_site_fract_z
 _atom_site_occupancy
  Li  Li0  1  0.334729  0.665271  0.874721  1
  Li  Li1  1  0.015845  0.984155  0.989394  1
  Li  Li2  1  0.011251  0.988749  0.506361  1
  Li  Li3  1  0.670083  0.329917  0.401368  1
  Fe  Fe4  1  0.168278  0.831722  0.215397  1
  Fe  Fe5  1  0.828873  0.661292  0.715291  1
  Fe  Fe6  1  0.338708  0.171127  0.715291  1
  Co  Co7  1  0.326527  0.673473  0.519017  1
  Co  Co8  1  0.658112  0.341888  0.975667  1
  Sb  Sb9  1  0.661984  0.830848  0.215696  1
  Sb  Sb10  1  0.169152  0.338016  0.215696  1
  Sb  Sb11  1  0.829830  0.170170  0.715130  1
  O  O12  1  0.686575  0.842192  0.601367  1
  O  O13  1  0.488577  0.511423  0.332077  1
  O  O14  1  0.332767  0.667233  0.102019  1
  O  O15  1  0.001986  0.998014  0.319509  1
  O  O16  1  0.999900  0.000100  0.811693  1
  O  O17  1  0.157808  0.313425  0.601367  1
  O  O18  1  0.480297  0.966915  0.325862  1
  O  O19  1  0.033085  0.519703  0.325862  1
  O  O20  1  0.843802  0.156198  0.100096  1
  O  O21  1  0.158575  0.841425  0.612970  1
  O  O22  1  0.965418  0.485295  0.833473  1
  O  O23  1  0.514705  0.034582  0.833473  1
  O  O24  1  0.665248  0.334752  0.606151  1
  O  O25  1  0.845880  0.687132  0.108490  1
  O  O26  1  0.518259  0.481741  0.826004  1
  O  O27  1  0.312868  0.154120  0.108490  1
