# generated using pymatgen
data_La12Cu6O25
_symmetry_space_group_name_H-M   'P 1'
_cell_length_a   8.91079653
_cell_length_b   8.91079653
_cell_length_c   7.67581555
_cell_angle_alpha   77.53921634
_cell_angle_beta   102.46078366
_cell_angle_gamma   85.84409993
_symmetry_Int_Tables_number   1
_chemical_formula_structural   La12Cu6O25
_chemical_formula_sum   'La12 Cu6 O25'
_cell_volume   576.55574017
_cell_formula_units_Z   1
loop_
 _symmetry_equiv_pos_site_id
 _symmetry_equiv_pos_as_xyz
  1  'x, y, z'
loop_
 _atom_site_type_symbol
 _atom_site_label
 _atom_site_symmetry_multiplicity
 _atom_site_fract_x
 _atom_site_fract_y
 _atom_site_fract_z
 _atom_site_occupancy
  La  La0  1  0.357182  0.026638  0.082662  1
  La  La1  1  0.973771  0.969122  0.748273  1
  La  La2  1  0.689114  0.690178  0.752813  1
  La  La3  1  0.354843  0.031754  0.578694  1
  La  La4  1  0.026638  0.357182  0.917338  1
  La  La5  1  0.311147  0.637088  0.918202  1
  La  La6  1  0.969122  0.973771  0.251727  1
  La  La7  1  0.690178  0.689114  0.247187  1
  La  La8  1  0.647076  0.313868  0.582277  1
  La  La9  1  0.313868  0.647076  0.417723  1
  La  La10  1  0.637088  0.311147  0.081798  1
  La  La11  1  0.031754  0.354843  0.421306  1
  Cu  Cu12  1  0.000664  0.666428  0.084020  1
  Cu  Cu13  1  0.666428  0.000664  0.915979  1
  Cu  Cu14  1  0.337060  0.335757  0.750970  1
  Cu  Cu15  1  0.001011  0.663758  0.583867  1
  Cu  Cu16  1  0.663758  0.001011  0.416133  1
  Cu  Cu17  1  0.335757  0.337060  0.249030  1
  O  O18  1  0.839691  0.839691  0.000000  1
  O  O19  1  0.485620  0.826609  0.914393  1
  O  O20  1  0.849003  0.174787  0.924341  1
  O  O21  1  0.174787  0.849003  0.075659  1
  O  O22  1  0.993277  0.661145  0.831807  1
  O  O23  1  0.828455  0.828455  0.500000  1
  O  O24  1  0.315065  0.315065  0.000000  1
  O  O25  1  0.665868  0.994088  0.666761  1
  O  O26  1  0.504576  0.171999  0.830455  1
  O  O27  1  0.432394  0.875027  0.390451  1
  O  O28  1  0.152560  0.146802  0.739307  1
  O  O29  1  0.512143  0.509954  0.810371  1
  O  O30  1  0.174105  0.850216  0.586090  1
  O  O31  1  0.850216  0.174105  0.413910  1
  O  O32  1  0.875027  0.432394  0.609549  1
  O  O33  1  0.181448  0.510650  0.664484  1
  O  O34  1  0.994088  0.665868  0.333239  1
  O  O35  1  0.592145  0.592145  0.500000  1
  O  O36  1  0.510650  0.181448  0.335516  1
  O  O37  1  0.661145  0.993277  0.168193  1
  O  O38  1  0.343869  0.343869  0.500000  1
  O  O39  1  0.826609  0.485620  0.085607  1
  O  O40  1  0.146802  0.152560  0.260693  1
  O  O41  1  0.509954  0.512143  0.189629  1
  O  O42  1  0.171999  0.504576  0.169545  1
