# generated using pymatgen
data_Nb3Sb(PO4)6
_symmetry_space_group_name_H-M   'P 1'
_cell_length_a   9.12933733
_cell_length_b   9.12933733
_cell_length_c   9.12933733
_cell_angle_alpha   58.52819455
_cell_angle_beta   58.52819455
_cell_angle_gamma   58.52819455
_symmetry_Int_Tables_number   1
_chemical_formula_structural   Nb3Sb(PO4)6
_chemical_formula_sum   'Nb3 Sb1 P6 O24'
_cell_volume   519.91357736
_cell_formula_units_Z   1
loop_
 _symmetry_equiv_pos_site_id
 _symmetry_equiv_pos_as_xyz
  1  'x, y, z'
loop_
 _atom_site_type_symbol
 _atom_site_label
 _atom_site_symmetry_multiplicity
 _atom_site_fract_x
 _atom_site_fract_y
 _atom_site_fract_z
 _atom_site_occupancy
  Nb  Nb0  1  0.859442  0.859442  0.859442  1
  Nb  Nb1  1  0.642684  0.642684  0.642684  1
  Nb  Nb2  1  0.358658  0.358658  0.358658  1
  Sb  Sb3  1  0.140201  0.140201  0.140201  1
  P  P4  1  0.249451  0.541093  0.962508  1
  P  P5  1  0.962508  0.249451  0.541093  1
  P  P6  1  0.541093  0.962508  0.249451  1
  P  P7  1  0.470678  0.034403  0.743080  1
  P  P8  1  0.034403  0.743080  0.470678  1
  P  P9  1  0.743080  0.470678  0.034403  1
  O  O10  1  0.697788  0.516213  0.871318  1
  O  O11  1  0.516213  0.871318  0.697788  1
  O  O12  1  0.076618  0.716938  0.937677  1
  O  O13  1  0.871318  0.697788  0.516213  1
  O  O14  1  0.414620  0.587352  0.789539  1
  O  O15  1  0.233142  0.383399  0.967186  1
  O  O16  1  0.937677  0.076618  0.716938  1
  O  O17  1  0.789539  0.414620  0.587352  1
  O  O18  1  0.587352  0.789539  0.414620  1
  O  O19  1  0.636045  0.002806  0.779342  1
  O  O20  1  0.293302  0.052572  0.901252  1
  O  O21  1  0.002806  0.779342  0.636045  1
  O  O22  1  0.967186  0.233142  0.383399  1
  O  O23  1  0.716938  0.937677  0.076618  1
  O  O24  1  0.383399  0.967186  0.233142  1
  O  O25  1  0.449140  0.208406  0.567694  1
  O  O26  1  0.208406  0.567694  0.449140  1
  O  O27  1  0.052572  0.901252  0.293302  1
  O  O28  1  0.779342  0.636045  0.002806  1
  O  O29  1  0.567694  0.449140  0.208406  1
  O  O30  1  0.135569  0.276697  0.503191  1
  O  O31  1  0.901252  0.293302  0.052572  1
  O  O32  1  0.503191  0.135569  0.276697  1
  O  O33  1  0.276697  0.503191  0.135569  1
