# generated using pymatgen
data_LiFe3P3(HO6)2
_symmetry_space_group_name_H-M   'P 1'
_cell_length_a   8.66479090
_cell_length_b   8.66479090
_cell_length_c   6.56650972
_cell_angle_alpha   73.68775188
_cell_angle_beta   106.31224812
_cell_angle_gamma   86.59413402
_symmetry_Int_Tables_number   1
_chemical_formula_structural   LiFe3P3(HO6)2
_chemical_formula_sum   'Li2 Fe6 P6 H4 O24'
_cell_volume   448.96411788
_cell_formula_units_Z   2
loop_
 _symmetry_equiv_pos_site_id
 _symmetry_equiv_pos_as_xyz
  1  'x, y, z'
loop_
 _atom_site_type_symbol
 _atom_site_label
 _atom_site_symmetry_multiplicity
 _atom_site_fract_x
 _atom_site_fract_y
 _atom_site_fract_z
 _atom_site_occupancy
  Li  Li0  1  0.001301  0.001301  0.250000  1
  Li  Li1  1  0.998699  0.998699  0.750000  1
  Fe  Fe2  1  0.954674  0.371778  0.379968  1
  Fe  Fe3  1  0.628222  0.045326  0.879968  1
  Fe  Fe4  1  0.288107  0.288107  0.250000  1
  Fe  Fe5  1  0.711893  0.711893  0.750000  1
  Fe  Fe6  1  0.371778  0.954674  0.120032  1
  Fe  Fe7  1  0.045326  0.628222  0.620032  1
  P  P8  1  0.683928  0.099163  0.396449  1
  P  P9  1  0.900837  0.316072  0.896449  1
  P  P10  1  0.677346  0.677346  0.250000  1
  P  P11  1  0.322654  0.322654  0.750000  1
  P  P12  1  0.099163  0.683928  0.103551  1
  P  P13  1  0.316072  0.900837  0.603551  1
  H  H14  1  0.620270  0.370303  0.312768  1
  H  H15  1  0.629697  0.379730  0.812768  1
  H  H16  1  0.370303  0.620270  0.187232  1
  H  H17  1  0.379730  0.629697  0.687232  1
  O  O18  1  0.859609  0.134787  0.423906  1
  O  O19  1  0.616358  0.032614  0.201984  1
  O  O20  1  0.865213  0.140391  0.923906  1
  O  O21  1  0.967386  0.383642  0.701984  1
  O  O22  1  0.564402  0.263836  0.349465  1
  O  O23  1  0.322410  0.019981  0.380942  1
  O  O24  1  0.715684  0.495061  0.269100  1
  O  O25  1  0.736164  0.435598  0.849465  1
  O  O26  1  0.711679  0.781446  0.035876  1
  O  O27  1  0.980019  0.677590  0.880942  1
  O  O28  1  0.781446  0.711679  0.464124  1
  O  O29  1  0.504939  0.284316  0.769100  1
  O  O30  1  0.495061  0.715684  0.230900  1
  O  O31  1  0.218554  0.288321  0.535876  1
  O  O32  1  0.019981  0.322410  0.119058  1
  O  O33  1  0.288321  0.218554  0.964124  1
  O  O34  1  0.263836  0.564402  0.150535  1
  O  O35  1  0.284316  0.504939  0.730900  1
  O  O36  1  0.677590  0.980019  0.619058  1
  O  O37  1  0.435598  0.736164  0.650535  1
  O  O38  1  0.032614  0.616358  0.298016  1
  O  O39  1  0.134787  0.859609  0.076094  1
  O  O40  1  0.383642  0.967386  0.798016  1
  O  O41  1  0.140391  0.865213  0.576094  1
