# generated using pymatgen
data_Li6V3P8O29
_symmetry_space_group_name_H-M   'P 1'
_cell_length_a   9.82066207
_cell_length_b   9.82066207
_cell_length_c   13.88352940
_cell_angle_alpha   90.00000000
_cell_angle_beta   90.00000000
_cell_angle_gamma   120.00000000
_symmetry_Int_Tables_number   1
_chemical_formula_structural   Li6V3P8O29
_chemical_formula_sum   'Li12 V6 P16 O58'
_cell_volume   1159.61026322
_cell_formula_units_Z   2
loop_
 _symmetry_equiv_pos_site_id
 _symmetry_equiv_pos_as_xyz
  1  'x, y, z'
loop_
 _atom_site_type_symbol
 _atom_site_label
 _atom_site_symmetry_multiplicity
 _atom_site_fract_x
 _atom_site_fract_y
 _atom_site_fract_z
 _atom_site_occupancy
  Li  Li0  1  0.096061  0.771445  0.939086  1
  Li  Li1  1  0.228555  0.903939  0.439086  1
  Li  Li2  1  0.096061  0.324616  0.439086  1
  Li  Li3  1  0.228555  0.324616  0.939086  1
  Li  Li4  1  0.675384  0.903939  0.939086  1
  Li  Li5  1  0.324616  0.228555  0.560914  1
  Li  Li6  1  0.675384  0.771445  0.439086  1
  Li  Li7  1  0.324616  0.096061  0.060914  1
  Li  Li8  1  0.771445  0.675384  0.060914  1
  Li  Li9  1  0.903939  0.675384  0.560914  1
  Li  Li10  1  0.771445  0.096061  0.560914  1
  Li  Li11  1  0.903939  0.228555  0.060914  1
  V  V12  1  0.432431  0.432431  0.750000  1
  V  V13  1  0.567569  0.567569  0.250000  1
  V  V14  1  0.432431  0.000000  0.250000  1
  V  V15  1  0.567569  0.000000  0.750000  1
  V  V16  1  0.000000  0.567569  0.750000  1
  V  V17  1  0.000000  0.432431  0.250000  1
  P  P18  1  0.088002  0.767972  0.157977  1
  P  P19  1  0.232028  0.911998  0.657977  1
  P  P20  1  0.088002  0.320030  0.657977  1
  P  P21  1  0.333333  0.666667  0.873892  1
  P  P22  1  0.333333  0.666667  0.373892  1
  P  P23  1  0.232028  0.320030  0.157977  1
  P  P24  1  0.320030  0.232028  0.342023  1
  P  P25  1  0.679970  0.911998  0.157977  1
  P  P26  1  0.320030  0.088002  0.842023  1
  P  P27  1  0.679970  0.767972  0.657977  1
  P  P28  1  0.767972  0.679970  0.842023  1
  P  P29  1  0.666667  0.333333  0.626108  1
  P  P30  1  0.666667  0.333333  0.126108  1
  P  P31  1  0.911998  0.679970  0.342023  1
  P  P32  1  0.767972  0.088002  0.342023  1
  P  P33  1  0.911998  0.232028  0.842023  1
  O  O34  1  0.002419  0.759750  0.433110  1
  O  O35  1  0.082692  0.747292  0.658333  1
  O  O36  1  0.240250  0.997581  0.933110  1
  O  O37  1  0.252708  0.917308  0.158333  1
  O  O38  1  0.098820  0.619086  0.174772  1
  O  O39  1  0.186239  0.674075  0.832755  1
  O  O40  1  0.098820  0.479734  0.674772  1
  O  O41  1  0.002419  0.242669  0.933110  1
  O  O42  1  0.082692  0.335400  0.158333  1
  O  O43  1  0.325925  0.813761  0.332755  1
  O  O44  1  0.380914  0.901180  0.674772  1
  O  O45  1  0.186239  0.512163  0.332755  1
  O  O46  1  0.333333  0.666667  0.981501  1
  O  O47  1  0.333333  0.666667  0.481501  1
  O  O48  1  0.325925  0.512163  0.832755  1
  O  O49  1  0.520266  0.901180  0.174772  1
  O  O50  1  0.487837  0.813761  0.832755  1
  O  O51  1  0.252708  0.335400  0.658333  1
  O  O52  1  0.208036  0.208036  0.250000  1
  O  O53  1  0.240250  0.242669  0.433110  1
  O  O54  1  0.242669  0.240250  0.066890  1
  O  O55  1  0.380914  0.479734  0.174772  1
  O  O56  1  0.487837  0.674075  0.332755  1
  O  O57  1  0.335400  0.252708  0.841667  1
  O  O58  1  0.520266  0.619086  0.674772  1
  O  O59  1  0.664600  0.917308  0.658333  1
  O  O60  1  0.208036  0.000000  0.750000  1
  O  O61  1  0.242669  0.002419  0.566890  1
  O  O62  1  0.757331  0.997581  0.433110  1
  O  O63  1  0.335400  0.082692  0.341667  1
  O  O64  1  0.479734  0.380914  0.325228  1
  O  O65  1  0.664600  0.747292  0.158333  1
  O  O66  1  0.512163  0.325925  0.667245  1
  O  O67  1  0.619086  0.520266  0.825228  1
  O  O68  1  0.757331  0.759750  0.933110  1
  O  O69  1  0.759750  0.757331  0.566890  1
  O  O70  1  0.791964  0.791964  0.750000  1
  O  O71  1  0.747292  0.664600  0.341667  1
  O  O72  1  0.512163  0.186239  0.167245  1
  O  O73  1  0.479734  0.098820  0.825228  1
  O  O74  1  0.674075  0.487837  0.167245  1
  O  O75  1  0.666667  0.333333  0.018499  1
  O  O76  1  0.666667  0.333333  0.518499  1
  O  O77  1  0.813761  0.487837  0.667245  1
  O  O78  1  0.619086  0.098820  0.325228  1
  O  O79  1  0.674075  0.186239  0.667245  1
  O  O80  1  0.917308  0.664600  0.841667  1
  O  O81  1  0.000000  0.791964  0.250000  1
  O  O82  1  0.997581  0.757331  0.066890  1
  O  O83  1  0.901180  0.520266  0.325228  1
  O  O84  1  0.813761  0.325925  0.167245  1
  O  O85  1  0.901180  0.380914  0.825228  1
  O  O86  1  0.747292  0.082692  0.841667  1
  O  O87  1  0.759750  0.002419  0.066890  1
  O  O88  1  0.791964  0.000000  0.250000  1
  O  O89  1  0.917308  0.252708  0.341667  1
  O  O90  1  0.997581  0.240250  0.566890  1
  O  O91  1  0.000000  0.208036  0.750000  1
