# generated using pymatgen
data_Lu3TaO7
_symmetry_space_group_name_H-M   'P 1'
_cell_length_a   6.35127110
_cell_length_b   6.35127110
_cell_length_c   7.35539714
_cell_angle_alpha   90.00000000
_cell_angle_beta   90.00000000
_cell_angle_gamma   109.00690327
_symmetry_Int_Tables_number   1
_chemical_formula_structural   Lu3TaO7
_chemical_formula_sum   'Lu6 Ta2 O14'
_cell_volume   280.53010389
_cell_formula_units_Z   2
loop_
 _symmetry_equiv_pos_site_id
 _symmetry_equiv_pos_as_xyz
  1  'x, y, z'
loop_
 _atom_site_type_symbol
 _atom_site_label
 _atom_site_symmetry_multiplicity
 _atom_site_fract_x
 _atom_site_fract_y
 _atom_site_fract_z
 _atom_site_occupancy
  Lu  Lu0  1  0.465835  0.998166  0.252854  1
  Lu  Lu1  1  0.001834  0.534165  0.247146  1
  Lu  Lu2  1  0.473516  0.473516  0.000000  1
  Lu  Lu3  1  0.526484  0.526484  0.500000  1
  Lu  Lu4  1  0.534165  0.001834  0.752854  1
  Lu  Lu5  1  0.998166  0.465835  0.747146  1
  Ta  Ta6  1  0.003091  0.003091  0.500000  1
  Ta  Ta7  1  0.996909  0.996909  0.000000  1
  O  O8  1  0.926250  0.073750  0.750000  1
  O  O9  1  0.639703  0.360297  0.750000  1
  O  O10  1  0.319199  0.061345  0.539553  1
  O  O11  1  0.938655  0.680801  0.960447  1
  O  O12  1  0.629311  0.370689  0.250000  1
  O  O13  1  0.918028  0.669728  0.530692  1
  O  O14  1  0.330272  0.081972  0.969308  1
  O  O15  1  0.081972  0.330272  0.030692  1
  O  O16  1  0.669728  0.918028  0.469308  1
  O  O17  1  0.370689  0.629311  0.750000  1
  O  O18  1  0.680801  0.938655  0.039553  1
  O  O19  1  0.061345  0.319199  0.460447  1
  O  O20  1  0.360297  0.639703  0.250000  1
  O  O21  1  0.073750  0.926250  0.250000  1
