# generated using pymatgen
data_SbBrO
_symmetry_space_group_name_H-M   'P 1'
_cell_length_a   8.45548248
_cell_length_b   11.63302403
_cell_length_c   9.75269233
_cell_angle_alpha   90.00000000
_cell_angle_beta   102.38268756
_cell_angle_gamma   90.00000000
_symmetry_Int_Tables_number   1
_chemical_formula_structural   SbBrO
_chemical_formula_sum   'Sb12 Br12 O12'
_cell_volume   936.98628766
_cell_formula_units_Z   12
loop_
 _symmetry_equiv_pos_site_id
 _symmetry_equiv_pos_as_xyz
  1  'x, y, z'
loop_
 _atom_site_type_symbol
 _atom_site_label
 _atom_site_symmetry_multiplicity
 _atom_site_fract_x
 _atom_site_fract_y
 _atom_site_fract_z
 _atom_site_occupancy
  Sb  Sb0  1  0.292296  0.531370  0.934710  1
  Sb  Sb1  1  0.892141  0.247963  0.890759  1
  Sb  Sb2  1  0.475936  0.173583  0.758538  1
  Sb  Sb3  1  0.524064  0.673583  0.741462  1
  Sb  Sb4  1  0.107859  0.747963  0.609241  1
  Sb  Sb5  1  0.707704  0.031370  0.565290  1
  Sb  Sb6  1  0.292296  0.968630  0.434710  1
  Sb  Sb7  1  0.892141  0.252037  0.390759  1
  Sb  Sb8  1  0.475936  0.326417  0.258538  1
  Sb  Sb9  1  0.524064  0.826417  0.241462  1
  Sb  Sb10  1  0.107859  0.752037  0.109241  1
  Sb  Sb11  1  0.707704  0.468630  0.065290  1
  Br  Br12  1  0.124996  0.901286  0.912094  1
  Br  Br13  1  0.597527  0.865524  0.875992  1
  Br  Br14  1  0.896605  0.612430  0.852926  1
  Br  Br15  1  0.103395  0.112430  0.647074  1
  Br  Br16  1  0.402473  0.365524  0.624008  1
  Br  Br17  1  0.875004  0.401286  0.587906  1
  Br  Br18  1  0.124996  0.598714  0.412094  1
  Br  Br19  1  0.597527  0.634476  0.375992  1
  Br  Br20  1  0.896605  0.887570  0.352926  1
  Br  Br21  1  0.103395  0.387570  0.147074  1
  Br  Br22  1  0.402473  0.134476  0.124008  1
  Br  Br23  1  0.875004  0.098714  0.087906  1
  O  O24  1  0.528663  0.572199  0.913791  1
  O  O25  1  0.705375  0.339970  0.929998  1
  O  O26  1  0.284331  0.661643  0.750867  1
  O  O27  1  0.715669  0.161643  0.749133  1
  O  O28  1  0.294625  0.839970  0.570002  1
  O  O29  1  0.471337  0.072199  0.586209  1
  O  O30  1  0.528663  0.927801  0.413791  1
  O  O31  1  0.705375  0.160030  0.429998  1
  O  O32  1  0.284331  0.838357  0.250867  1
  O  O33  1  0.715669  0.338357  0.249133  1
  O  O34  1  0.294625  0.660030  0.070002  1
  O  O35  1  0.471337  0.427801  0.086209  1
