# generated using pymatgen
data_Li3V2(O2F)2
_symmetry_space_group_name_H-M   'P 1'
_cell_length_a   5.13998018
_cell_length_b   8.95202640
_cell_length_c   7.37529049
_cell_angle_alpha   90.00000000
_cell_angle_beta   91.50704752
_cell_angle_gamma   90.00000000
_symmetry_Int_Tables_number   1
_chemical_formula_structural   Li3V2(O2F)2
_chemical_formula_sum   'Li9 V6 O12 F6'
_cell_volume   339.24361269
_cell_formula_units_Z   3
loop_
 _symmetry_equiv_pos_site_id
 _symmetry_equiv_pos_as_xyz
  1  'x, y, z'
loop_
 _atom_site_type_symbol
 _atom_site_label
 _atom_site_symmetry_multiplicity
 _atom_site_fract_x
 _atom_site_fract_y
 _atom_site_fract_z
 _atom_site_occupancy
  Li  Li0  1  0.682665  0.166175  0.630830  1
  Li  Li1  1  0.310986  0.166666  0.375137  1
  Li  Li2  1  0.137527  0.000000  0.638632  1
  Li  Li3  1  0.682665  0.833825  0.630830  1
  Li  Li4  1  0.310986  0.833334  0.375137  1
  Li  Li5  1  0.850992  0.677788  0.354505  1
  Li  Li6  1  0.711282  0.500000  0.634872  1
  Li  Li7  1  0.316946  0.500000  0.400667  1
  Li  Li8  1  0.850992  0.322212  0.354505  1
  V  V9  1  0.003778  0.166463  0.998367  1
  V  V10  1  0.507929  0.000000  0.009251  1
  V  V11  1  0.003778  0.833537  0.998367  1
  V  V12  1  0.495028  0.667109  0.996725  1
  V  V13  1  0.997696  0.500000  0.990846  1
  V  V14  1  0.495028  0.332891  0.996725  1
  O  O15  1  0.687641  0.171609  0.138391  1
  O  O16  1  0.317826  0.160881  0.863181  1
  O  O17  1  0.167095  0.000000  0.145640  1
  O  O18  1  0.841211  0.000000  0.850840  1
  O  O19  1  0.687641  0.828391  0.138391  1
  O  O20  1  0.317826  0.839119  0.863181  1
  O  O21  1  0.156148  0.667980  0.145368  1
  O  O22  1  0.830388  0.667387  0.851878  1
  O  O23  1  0.682189  0.500000  0.134101  1
  O  O24  1  0.312112  0.500000  0.863698  1
  O  O25  1  0.156148  0.332020  0.145368  1
  O  O26  1  0.830388  0.332613  0.851878  1
  F  F27  1  0.997440  0.166247  0.501996  1
  F  F28  1  0.471849  0.000000  0.517603  1
  F  F29  1  0.997440  0.833753  0.501996  1
  F  F30  1  0.522237  0.668420  0.487081  1
  F  F31  1  0.977240  0.500000  0.467647  1
  F  F32  1  0.522237  0.331580  0.487081  1
