# generated using pymatgen
data_LiNb(PO3)4
_symmetry_space_group_name_H-M   'P 1'
_cell_length_a   7.78614879
_cell_length_b   7.78614879
_cell_length_c   17.11503345
_cell_angle_alpha   90.00000000
_cell_angle_beta   90.00000000
_cell_angle_gamma   100.28855918
_symmetry_Int_Tables_number   1
_chemical_formula_structural   LiNb(PO3)4
_chemical_formula_sum   'Li4 Nb4 P16 O48'
_cell_volume   1020.90012496
_cell_formula_units_Z   4
loop_
 _symmetry_equiv_pos_site_id
 _symmetry_equiv_pos_as_xyz
  1  'x, y, z'
loop_
 _atom_site_type_symbol
 _atom_site_label
 _atom_site_symmetry_multiplicity
 _atom_site_fract_x
 _atom_site_fract_y
 _atom_site_fract_z
 _atom_site_occupancy
  Li  Li0  1  0.086988  0.205741  0.360240  1
  Li  Li1  1  0.794259  0.913012  0.139760  1
  Li  Li2  1  0.913012  0.794259  0.860240  1
  Li  Li3  1  0.205741  0.086988  0.639760  1
  Nb  Nb4  1  0.981102  0.586000  0.133425  1
  Nb  Nb5  1  0.414000  0.018898  0.366575  1
  Nb  Nb6  1  0.018898  0.414000  0.633425  1
  Nb  Nb7  1  0.586000  0.981102  0.866575  1
  P  P8  1  0.748757  0.037324  0.659646  1
  P  P9  1  0.962676  0.251243  0.840354  1
  P  P10  1  0.781453  0.316279  0.985513  1
  P  P11  1  0.683721  0.218547  0.514487  1
  P  P12  1  0.632240  0.367760  0.250000  1
  P  P13  1  0.730774  0.670750  0.690653  1
  P  P14  1  0.329250  0.269226  0.809347  1
  P  P15  1  0.348337  0.348337  0.500000  1
  P  P16  1  0.651663  0.651663  1.000000  1
  P  P17  1  0.269226  0.329250  0.190653  1
  P  P18  1  0.670750  0.730774  0.309347  1
  P  P19  1  0.367760  0.632240  0.750000  1
  P  P20  1  0.316279  0.781453  0.014487  1
  P  P21  1  0.218547  0.683721  0.485513  1
  P  P22  1  0.037324  0.748757  0.340354  1
  P  P23  1  0.251243  0.962676  0.159646  1
  O  O24  1  0.937461  0.128953  0.647925  1
  O  O25  1  0.871047  0.062539  0.852075  1
  O  O26  1  0.952019  0.349415  0.766252  1
  O  O27  1  0.650585  0.047981  0.733748  1
  O  O28  1  0.867277  0.316679  0.521789  1
  O  O29  1  0.683321  0.132723  0.978211  1
  O  O30  1  0.899041  0.369729  0.908564  1
  O  O31  1  0.630271  0.100959  0.591436  1
  O  O32  1  0.636837  0.105102  0.443960  1
  O  O33  1  0.894898  0.363163  0.056040  1
  O  O34  1  0.799266  0.402304  0.204671  1
  O  O35  1  0.597696  0.200734  0.295329  1
  O  O36  1  0.792228  0.529195  0.645170  1
  O  O37  1  0.470805  0.207772  0.854830  1
  O  O38  1  0.549539  0.354782  0.520310  1
  O  O39  1  0.645218  0.450461  0.979690  1
  O  O40  1  0.839982  0.753882  0.366396  1
  O  O41  1  0.246118  0.160018  0.133604  1
  O  O42  1  0.617723  0.520918  0.310765  1
  O  O43  1  0.479082  0.382277  0.189235  1
  O  O44  1  0.296741  0.239346  0.427795  1
  O  O45  1  0.760654  0.703259  0.072205  1
  O  O46  1  0.281125  0.195935  0.730937  1
  O  O47  1  0.804065  0.718875  0.769063  1
  O  O48  1  0.195935  0.281125  0.269063  1
  O  O49  1  0.718875  0.804065  0.230937  1
  O  O50  1  0.239346  0.296741  0.572205  1
  O  O51  1  0.703259  0.760654  0.927795  1
  O  O52  1  0.520918  0.617723  0.689235  1
  O  O53  1  0.382277  0.479082  0.810765  1
  O  O54  1  0.160018  0.246118  0.866396  1
  O  O55  1  0.753882  0.839982  0.633604  1
  O  O56  1  0.450461  0.645218  0.020310  1
  O  O57  1  0.354782  0.549539  0.479690  1
  O  O58  1  0.529195  0.792228  0.354830  1
  O  O59  1  0.207772  0.470805  0.145170  1
  O  O60  1  0.402304  0.799266  0.795329  1
  O  O61  1  0.200734  0.597696  0.704671  1
  O  O62  1  0.105102  0.636837  0.556040  1
  O  O63  1  0.363163  0.894898  0.943960  1
  O  O64  1  0.100959  0.630271  0.408564  1
  O  O65  1  0.369729  0.899041  0.091436  1
  O  O66  1  0.316679  0.867277  0.478211  1
  O  O67  1  0.132723  0.683321  0.021789  1
  O  O68  1  0.047981  0.650585  0.266252  1
  O  O69  1  0.349415  0.952019  0.233748  1
  O  O70  1  0.128954  0.937461  0.352075  1
  O  O71  1  0.062539  0.871046  0.147925  1
