# generated using pymatgen
data_LiCr(PO3)3
_symmetry_space_group_name_H-M   'P 1'
_cell_length_a   8.41278000
_cell_length_b   8.75550129
_cell_length_c   9.06685599
_cell_angle_alpha   90.00000000
_cell_angle_beta   90.00000000
_cell_angle_gamma   90.00000000
_symmetry_Int_Tables_number   1
_chemical_formula_structural   LiCr(PO3)3
_chemical_formula_sum   'Li4 Cr4 P12 O36'
_cell_volume   667.84744089
_cell_formula_units_Z   4
loop_
 _symmetry_equiv_pos_site_id
 _symmetry_equiv_pos_as_xyz
  1  'x, y, z'
loop_
 _atom_site_type_symbol
 _atom_site_label
 _atom_site_symmetry_multiplicity
 _atom_site_fract_x
 _atom_site_fract_y
 _atom_site_fract_z
 _atom_site_occupancy
  Li  Li0  1  0.154685  0.133536  0.382228  1
  Li  Li1  1  0.345315  0.866464  0.882228  1
  Li  Li2  1  0.654685  0.366464  0.617772  1
  Li  Li3  1  0.845315  0.633536  0.117772  1
  Cr  Cr4  1  0.129424  0.854016  0.162077  1
  Cr  Cr5  1  0.370576  0.145984  0.662077  1
  Cr  Cr6  1  0.629424  0.645984  0.837923  1
  Cr  Cr7  1  0.870576  0.354016  0.337923  1
  P  P8  1  0.029164  0.321813  0.685431  1
  P  P9  1  0.186360  0.477967  0.188802  1
  P  P10  1  0.200823  0.807787  0.564875  1
  P  P11  1  0.299177  0.192213  0.064875  1
  P  P12  1  0.313640  0.522033  0.688802  1
  P  P13  1  0.470836  0.678187  0.185431  1
  P  P14  1  0.529164  0.178187  0.314569  1
  P  P15  1  0.686360  0.022033  0.811198  1
  P  P16  1  0.700823  0.692213  0.435125  1
  P  P17  1  0.799177  0.307787  0.935125  1
  P  P18  1  0.813640  0.977967  0.311198  1
  P  P19  1  0.970836  0.821813  0.814569  1
  O  O20  1  0.037440  0.773480  0.655538  1
  O  O21  1  0.088798  0.609261  0.132503  1
  O  O22  1  0.103571  0.872722  0.912347  1
  O  O23  1  0.118482  0.385522  0.315697  1
  O  O24  1  0.134302  0.195763  0.625296  1
  O  O25  1  0.140017  0.463903  0.736436  1
  O  O26  1  0.159186  0.858557  0.412784  1
  O  O27  1  0.189883  0.095279  0.158199  1
  O  O28  1  0.228068  0.364461  0.053960  1
  O  O29  1  0.271932  0.635539  0.553960  1
  O  O30  1  0.310117  0.904721  0.658199  1
  O  O31  1  0.340814  0.141443  0.912784  1
  O  O32  1  0.359983  0.536097  0.236436  1
  O  O33  1  0.365698  0.804237  0.125296  1
  O  O34  1  0.381518  0.614478  0.815697  1
  O  O35  1  0.396429  0.127278  0.412347  1
  O  O36  1  0.411202  0.390739  0.632503  1
  O  O37  1  0.462560  0.226520  0.155538  1
  O  O38  1  0.537440  0.726520  0.344462  1
  O  O39  1  0.588798  0.890739  0.867497  1
  O  O40  1  0.603571  0.627278  0.087653  1
  O  O41  1  0.618482  0.114478  0.684303  1
  O  O42  1  0.634302  0.304237  0.374704  1
  O  O43  1  0.640017  0.036097  0.263564  1
  O  O44  1  0.659186  0.641443  0.587216  1
  O  O45  1  0.689883  0.404721  0.841801  1
  O  O46  1  0.728068  0.135539  0.946040  1
  O  O47  1  0.771932  0.864461  0.446040  1
  O  O48  1  0.810117  0.595279  0.341801  1
  O  O49  1  0.840814  0.358557  0.087216  1
  O  O50  1  0.859983  0.963903  0.763564  1
  O  O51  1  0.865698  0.695763  0.874704  1
  O  O52  1  0.881518  0.885522  0.184303  1
  O  O53  1  0.896429  0.372722  0.587653  1
  O  O54  1  0.911202  0.109261  0.367497  1
  O  O55  1  0.962560  0.273480  0.844462  1
