# generated using pymatgen
data_Co3Sb(PO4)4
_symmetry_space_group_name_H-M   'P 1'
_cell_length_a   4.90420284
_cell_length_b   5.98397424
_cell_length_c   9.96937577
_cell_angle_alpha   90.00000000
_cell_angle_beta   90.16379479
_cell_angle_gamma   90.00000000
_symmetry_Int_Tables_number   1
_chemical_formula_structural   Co3Sb(PO4)4
_chemical_formula_sum   'Co3 Sb1 P4 O16'
_cell_volume   292.56632151
_cell_formula_units_Z   1
loop_
 _symmetry_equiv_pos_site_id
 _symmetry_equiv_pos_as_xyz
  1  'x, y, z'
loop_
 _atom_site_type_symbol
 _atom_site_label
 _atom_site_symmetry_multiplicity
 _atom_site_fract_x
 _atom_site_fract_y
 _atom_site_fract_z
 _atom_site_occupancy
  Co  Co0  1  0.030276  0.000000  0.732740  1
  Co  Co1  1  0.453536  0.000000  0.221210  1
  Co  Co2  1  0.548482  0.500000  0.765223  1
  Sb  Sb3  1  0.959291  0.500000  0.284228  1
  P  P4  1  0.095235  0.500000  0.602675  1
  P  P5  1  0.387337  0.500000  0.095194  1
  P  P6  1  0.597193  0.000000  0.897598  1
  P  P7  1  0.926660  0.000000  0.412416  1
  O  O8  1  0.188586  0.500000  0.443532  1
  O  O9  1  0.237115  0.294619  0.665613  1
  O  O10  1  0.237115  0.705381  0.665613  1
  O  O11  1  0.228465  0.000000  0.384484  1
  O  O12  1  0.287031  0.000000  0.871439  1
  O  O13  1  0.232659  0.303115  0.173373  1
  O  O14  1  0.232659  0.696885  0.173373  1
  O  O15  1  0.346694  0.500000  0.947426  1
  O  O16  1  0.642235  0.000000  0.049774  1
  O  O17  1  0.745770  0.798441  0.828871  1
  O  O18  1  0.745770  0.201559  0.828871  1
  O  O19  1  0.699935  0.500000  0.130456  1
  O  O20  1  0.787304  0.500000  0.601371  1
  O  O21  1  0.773291  0.796988  0.333126  1
  O  O22  1  0.773291  0.203012  0.333126  1
  O  O23  1  0.844069  0.000000  0.558270  1
