# generated using pymatgen
data_Na6Mn2B4AsO16
_symmetry_space_group_name_H-M   'P 1'
_cell_length_a   9.91663873
_cell_length_b   9.91663873
_cell_length_c   9.91663873
_cell_angle_alpha   60.00000000
_cell_angle_beta   60.00000000
_cell_angle_gamma   60.00000000
_symmetry_Int_Tables_number   1
_chemical_formula_structural   Na6Mn2B4AsO16
_chemical_formula_sum   'Na12 Mn4 B8 As2 O32'
_cell_volume   689.57018952
_cell_formula_units_Z   2
loop_
 _symmetry_equiv_pos_site_id
 _symmetry_equiv_pos_as_xyz
  1  'x, y, z'
loop_
 _atom_site_type_symbol
 _atom_site_label
 _atom_site_symmetry_multiplicity
 _atom_site_fract_x
 _atom_site_fract_y
 _atom_site_fract_z
 _atom_site_occupancy
  Na  Na0  1  0.717017  0.282983  0.717017  1
  Na  Na1  1  0.967017  0.532983  0.967017  1
  Na  Na2  1  0.717017  0.282983  0.282983  1
  Na  Na3  1  0.282983  0.282983  0.717017  1
  Na  Na4  1  0.967017  0.532983  0.532983  1
  Na  Na5  1  0.532983  0.532983  0.967017  1
  Na  Na6  1  0.282983  0.717017  0.717017  1
  Na  Na7  1  0.717017  0.717017  0.282983  1
  Na  Na8  1  0.967017  0.967017  0.532983  1
  Na  Na9  1  0.532983  0.967017  0.967017  1
  Na  Na10  1  0.282983  0.717017  0.282983  1
  Na  Na11  1  0.532983  0.967017  0.532983  1
  Mn  Mn12  1  0.125000  0.625000  0.125000  1
  Mn  Mn13  1  0.625000  0.125000  0.125000  1
  Mn  Mn14  1  0.125000  0.125000  0.625000  1
  Mn  Mn15  1  0.125000  0.125000  0.125000  1
  B  B16  1  0.334846  0.334846  0.995462  1
  B  B17  1  0.995462  0.334846  0.334846  1
  B  B18  1  0.334846  0.995462  0.334846  1
  B  B19  1  0.915154  0.915154  0.915154  1
  B  B20  1  0.915154  0.254538  0.915154  1
  B  B21  1  0.334846  0.334846  0.334846  1
  B  B22  1  0.254538  0.915154  0.915154  1
  B  B23  1  0.915154  0.915154  0.254538  1
  As  As24  1  0.500000  0.500000  0.500000  1
  As  As25  1  0.750000  0.750000  0.750000  1
  O  O26  1  0.304418  0.489987  0.988347  1
  O  O27  1  0.570773  0.570773  0.570773  1
  O  O28  1  0.988347  0.489987  0.217248  1
  O  O29  1  0.988347  0.304418  0.489987  1
  O  O30  1  0.570773  0.570773  0.287680  1
  O  O31  1  0.287680  0.570773  0.570773  1
  O  O32  1  0.489987  0.217248  0.988347  1
  O  O33  1  0.217248  0.304418  0.988347  1
  O  O34  1  0.570773  0.287680  0.570773  1
  O  O35  1  0.489987  0.988347  0.304418  1
  O  O36  1  0.945582  0.032752  0.760013  1
  O  O37  1  0.988347  0.217248  0.304418  1
  O  O38  1  0.217248  0.988347  0.489987  1
  O  O39  1  0.760013  0.945582  0.032752  1
  O  O40  1  0.217248  0.489987  0.304418  1
  O  O41  1  0.945582  0.261653  0.032752  1
  O  O42  1  0.032752  0.760013  0.945582  1
  O  O43  1  0.304418  0.988347  0.217248  1
  O  O44  1  0.489987  0.304418  0.217248  1
  O  O45  1  0.032752  0.261653  0.760013  1
  O  O46  1  0.261653  0.032752  0.945582  1
  O  O47  1  0.304418  0.217248  0.489987  1
  O  O48  1  0.760013  0.261653  0.945582  1
  O  O49  1  0.679227  0.962320  0.679227  1
  O  O50  1  0.032752  0.945582  0.261653  1
  O  O51  1  0.760013  0.032752  0.261653  1
  O  O52  1  0.962320  0.679227  0.679227  1
  O  O53  1  0.679227  0.679227  0.962320  1
  O  O54  1  0.261653  0.945582  0.760013  1
  O  O55  1  0.261653  0.760013  0.032752  1
  O  O56  1  0.679227  0.679227  0.679227  1
  O  O57  1  0.945582  0.760013  0.261653  1
