# generated using pymatgen
data_Li7CuAs4ClO14
_symmetry_space_group_name_H-M   'P 1'
_cell_length_a   6.65671660
_cell_length_b   6.65671660
_cell_length_c   15.15804100
_cell_angle_alpha   85.74469447
_cell_angle_beta   94.25530553
_cell_angle_gamma   100.71693398
_symmetry_Int_Tables_number   1
_chemical_formula_structural   Li7CuAs4ClO14
_chemical_formula_sum   'Li14 Cu2 As8 Cl2 O28'
_cell_volume   656.89467292
_cell_formula_units_Z   2
loop_
 _symmetry_equiv_pos_site_id
 _symmetry_equiv_pos_as_xyz
  1  'x, y, z'
loop_
 _atom_site_type_symbol
 _atom_site_label
 _atom_site_symmetry_multiplicity
 _atom_site_fract_x
 _atom_site_fract_y
 _atom_site_fract_z
 _atom_site_occupancy
  Li  Li0  1  0.993889  0.586236  0.180617  1
  Li  Li1  1  0.382658  0.199606  0.177439  1
  Li  Li2  1  0.413764  0.006111  0.680617  1
  Li  Li3  1  0.800394  0.617342  0.677439  1
  Li  Li4  1  0.110736  0.039436  0.504633  1
  Li  Li5  1  0.484180  0.634507  0.191359  1
  Li  Li6  1  0.960564  0.889264  0.004633  1
  Li  Li7  1  0.119801  0.418454  0.026461  1
  Li  Li8  1  0.365493  0.515820  0.691359  1
  Li  Li9  1  0.581546  0.880199  0.526461  1
  Li  Li10  1  0.504174  0.976504  0.995680  1
  Li  Li11  1  0.023496  0.495826  0.495680  1
  Li  Li12  1  0.310375  0.868414  0.341623  1
  Li  Li13  1  0.131586  0.689625  0.841623  1
  Cu  Cu14  1  0.712160  0.279177  0.340084  1
  Cu  Cu15  1  0.720823  0.287840  0.840084  1
  As  As16  1  0.870128  0.098352  0.170162  1
  As  As17  1  0.901648  0.129872  0.670162  1
  As  As18  1  0.627996  0.480548  0.017053  1
  As  As19  1  0.519452  0.372004  0.517053  1
  As  As20  1  0.830630  0.797218  0.344917  1
  As  As21  1  0.202782  0.169370  0.844917  1
  As  As22  1  0.237589  0.379217  0.342834  1
  As  As23  1  0.620783  0.762411  0.842834  1
  Cl  Cl24  1  0.275482  0.873409  0.115375  1
  Cl  Cl25  1  0.126591  0.724518  0.615375  1
  O  O26  1  0.687723  0.199564  0.217782  1
  O  O27  1  0.800436  0.312277  0.717782  1
  O  O28  1  0.879571  0.583221  0.040455  1
  O  O29  1  0.731120  0.392320  0.457482  1
  O  O30  1  0.416779  0.120429  0.540455  1
  O  O31  1  0.607680  0.268880  0.957482  1
  O  O32  1  0.387715  0.208340  0.318671  1
  O  O33  1  0.729635  0.599400  0.278759  1
  O  O34  1  0.458061  0.443740  0.096586  1
  O  O35  1  0.977580  0.952926  0.258908  1
  O  O36  1  0.791660  0.612285  0.818671  1
  O  O37  1  0.400600  0.270365  0.778759  1
  O  O38  1  0.556260  0.541939  0.596586  1
  O  O39  1  0.047074  0.022420  0.758908  1
  O  O40  1  0.074846  0.282860  0.144633  1
  O  O41  1  0.763849  0.950028  0.087092  1
  O  O42  1  0.342939  0.492018  0.444981  1
  O  O43  1  0.008390  0.258914  0.380659  1
  O  O44  1  0.717140  0.925154  0.644633  1
  O  O45  1  0.646257  0.900367  0.389701  1
  O  O46  1  0.049972  0.236151  0.587092  1
  O  O47  1  0.507982  0.657061  0.944981  1
  O  O48  1  0.244815  0.589931  0.271838  1
  O  O49  1  0.741086  0.991610  0.880659  1
  O  O50  1  0.099633  0.353743  0.889701  1
  O  O51  1  0.410069  0.755185  0.771838  1
  O  O52  1  0.038176  0.780701  0.416782  1
  O  O53  1  0.219299  0.961824  0.916782  1
