# generated using pymatgen
data_LiVSiO4
_symmetry_space_group_name_H-M   'P 1'
_cell_length_a   8.67607310
_cell_length_b   8.67607310
_cell_length_c   8.67607310
_cell_angle_alpha   107.41839190
_cell_angle_beta   107.41839190
_cell_angle_gamma   107.41839190
_symmetry_Int_Tables_number   1
_chemical_formula_structural   LiVSiO4
_chemical_formula_sum   'Li6 V6 Si6 O24'
_cell_volume   537.56689705
_cell_formula_units_Z   6
loop_
 _symmetry_equiv_pos_site_id
 _symmetry_equiv_pos_as_xyz
  1  'x, y, z'
loop_
 _atom_site_type_symbol
 _atom_site_label
 _atom_site_symmetry_multiplicity
 _atom_site_fract_x
 _atom_site_fract_y
 _atom_site_fract_z
 _atom_site_occupancy
  Li  Li0  1  0.234451  0.457589  0.059525  1
  Li  Li1  1  0.940475  0.765549  0.542411  1
  Li  Li2  1  0.542411  0.940475  0.765549  1
  Li  Li3  1  0.457589  0.059525  0.234451  1
  Li  Li4  1  0.059525  0.234451  0.457589  1
  Li  Li5  1  0.765549  0.542411  0.940475  1
  V  V6  1  0.711915  0.893175  0.130669  1
  V  V7  1  0.106825  0.869331  0.288085  1
  V  V8  1  0.869331  0.288085  0.106825  1
  V  V9  1  0.130669  0.711915  0.893175  1
  V  V10  1  0.893175  0.130669  0.711915  1
  V  V11  1  0.288085  0.106825  0.869331  1
  Si  Si12  1  0.557935  0.783081  0.390231  1
  Si  Si13  1  0.609769  0.442065  0.216919  1
  Si  Si14  1  0.216919  0.609769  0.442065  1
  Si  Si15  1  0.783081  0.390231  0.557935  1
  Si  Si16  1  0.390231  0.557935  0.783081  1
  Si  Si17  1  0.442065  0.216919  0.609769  1
  O  O18  1  0.952160  0.981164  0.294213  1
  O  O19  1  0.018836  0.705787  0.047840  1
  O  O20  1  0.558144  0.882312  0.257934  1
  O  O21  1  0.117688  0.742066  0.441856  1
  O  O22  1  0.655535  0.921748  0.599290  1
  O  O23  1  0.347783  0.647977  0.335323  1
  O  O24  1  0.742066  0.441856  0.117688  1
  O  O25  1  0.664677  0.652217  0.352023  1
  O  O26  1  0.400710  0.344465  0.078252  1
  O  O27  1  0.078252  0.400710  0.344465  1
  O  O28  1  0.352023  0.664677  0.652217  1
  O  O29  1  0.705787  0.047840  0.018836  1
  O  O30  1  0.294213  0.952160  0.981164  1
  O  O31  1  0.647977  0.335323  0.347783  1
  O  O32  1  0.921748  0.599290  0.655535  1
  O  O33  1  0.599290  0.655535  0.921748  1
  O  O34  1  0.335323  0.347783  0.647977  1
  O  O35  1  0.257934  0.558144  0.882312  1
  O  O36  1  0.652217  0.352023  0.664677  1
  O  O37  1  0.344465  0.078252  0.400710  1
  O  O38  1  0.882312  0.257934  0.558144  1
  O  O39  1  0.441856  0.117688  0.742066  1
  O  O40  1  0.981164  0.294213  0.952160  1
  O  O41  1  0.047840  0.018836  0.705787  1
