# generated using pymatgen
data_Li3Mn4O8
_symmetry_space_group_name_H-M   'P 1'
_cell_length_a   6.19005136
_cell_length_b   6.19005136
_cell_length_c   6.19005136
_cell_angle_alpha   56.68283261
_cell_angle_beta   56.68283261
_cell_angle_gamma   56.68283261
_symmetry_Int_Tables_number   1
_chemical_formula_structural   Li3Mn4O8
_chemical_formula_sum   'Li3 Mn4 O8'
_cell_volume   154.86576060
_cell_formula_units_Z   1
loop_
 _symmetry_equiv_pos_site_id
 _symmetry_equiv_pos_as_xyz
  1  'x, y, z'
loop_
 _atom_site_type_symbol
 _atom_site_label
 _atom_site_symmetry_multiplicity
 _atom_site_fract_x
 _atom_site_fract_y
 _atom_site_fract_z
 _atom_site_occupancy
  Li  Li0  1  0.357861  0.357861  0.357861  1
  Li  Li1  1  0.500000  0.500000  0.500000  1
  Li  Li2  1  0.642139  0.642139  0.642139  1
  Mn  Mn3  1  0.000000  1.000000  0.000000  1
  Mn  Mn4  1  0.500000  0.000000  0.000000  1
  Mn  Mn5  1  1.000000  0.500000  0.000000  1
  Mn  Mn6  1  0.000000  0.000000  0.500000  1
  O  O7  1  0.255008  0.781489  0.255008  1
  O  O8  1  0.255008  0.255008  0.781489  1
  O  O9  1  0.781489  0.255008  0.255008  1
  O  O10  1  0.234745  0.234745  0.234745  1
  O  O11  1  0.218511  0.744992  0.744992  1
  O  O12  1  0.765255  0.765255  0.765255  1
  O  O13  1  0.744992  0.744992  0.218511  1
  O  O14  1  0.744992  0.218511  0.744992  1
