# generated using pymatgen
data_KPH3O3F
_symmetry_space_group_name_H-M   'P 1'
_cell_length_a   6.53695963
_cell_length_b   10.94555050
_cell_length_c   7.92774059
_cell_angle_alpha   90.00000000
_cell_angle_beta   124.65916389
_cell_angle_gamma   90.00000000
_symmetry_Int_Tables_number   1
_chemical_formula_structural   KPH3O3F
_chemical_formula_sum   'K4 P4 H12 O12 F4'
_cell_volume   466.57871513
_cell_formula_units_Z   4
loop_
 _symmetry_equiv_pos_site_id
 _symmetry_equiv_pos_as_xyz
  1  'x, y, z'
loop_
 _atom_site_type_symbol
 _atom_site_label
 _atom_site_symmetry_multiplicity
 _atom_site_fract_x
 _atom_site_fract_y
 _atom_site_fract_z
 _atom_site_occupancy
  K  K0  1  0.934781  0.320713  0.550144  1
  K  K1  1  0.065219  0.820713  0.949856  1
  K  K2  1  0.065219  0.679287  0.449856  1
  K  K3  1  0.934781  0.179287  0.050144  1
  P  P4  1  0.595559  0.047493  0.293808  1
  P  P5  1  0.404441  0.547493  0.206192  1
  P  P6  1  0.404441  0.952507  0.706192  1
  P  P7  1  0.595559  0.452507  0.793808  1
  H  H8  1  0.715014  0.947478  0.272928  1
  H  H9  1  0.284986  0.447478  0.227072  1
  H  H10  1  0.284986  0.052522  0.727072  1
  H  H11  1  0.715014  0.552522  0.772928  1
  H  H12  1  0.716881  0.039650  0.620694  1
  H  H13  1  0.283119  0.539650  0.879306  1
  H  H14  1  0.283119  0.960350  0.379306  1
  H  H15  1  0.716881  0.460350  0.120694  1
  H  H16  1  0.410288  0.221385  0.050739  1
  H  H17  1  0.589712  0.721385  0.449261  1
  H  H18  1  0.589712  0.778615  0.949261  1
  H  H19  1  0.410288  0.278615  0.550739  1
  O  O20  1  0.333761  0.010481  0.222319  1
  O  O21  1  0.666239  0.510481  0.277681  1
  O  O22  1  0.666239  0.989519  0.777681  1
  O  O23  1  0.333761  0.489519  0.722319  1
  O  O24  1  0.765390  0.080379  0.531228  1
  O  O25  1  0.234610  0.580379  0.968772  1
  O  O26  1  0.234610  0.919621  0.468772  1
  O  O27  1  0.765390  0.419621  0.031228  1
  O  O28  1  0.615596  0.156213  0.181496  1
  O  O29  1  0.384404  0.656213  0.318504  1
  O  O30  1  0.384404  0.843787  0.818504  1
  O  O31  1  0.615596  0.343787  0.681496  1
  F  F32  1  0.249199  0.272864  0.951247  1
  F  F33  1  0.750801  0.772864  0.548753  1
  F  F34  1  0.750801  0.727136  0.048753  1
  F  F35  1  0.249199  0.227136  0.451247  1
