# generated using pymatgen
data_ZrTlCuS3
_symmetry_space_group_name_H-M   'P 1'
_cell_length_a   7.43763883
_cell_length_b   7.43763883
_cell_length_c   9.82592621
_cell_angle_alpha   90.00000000
_cell_angle_beta   90.00000000
_cell_angle_gamma   150.86797549
_symmetry_Int_Tables_number   1
_chemical_formula_structural   ZrTlCuS3
_chemical_formula_sum   'Zr2 Tl2 Cu2 S6'
_cell_volume   264.61555358
_cell_formula_units_Z   2
loop_
 _symmetry_equiv_pos_site_id
 _symmetry_equiv_pos_as_xyz
  1  'x, y, z'
loop_
 _atom_site_type_symbol
 _atom_site_label
 _atom_site_symmetry_multiplicity
 _atom_site_fract_x
 _atom_site_fract_y
 _atom_site_fract_z
 _atom_site_occupancy
  Zr  Zr0  1  0.000000  0.000000  0.500000  1
  Zr  Zr1  1  0.000000  0.000000  0.000000  1
  Tl  Tl2  1  0.745526  0.254474  0.250000  1
  Tl  Tl3  1  0.254474  0.745526  0.750000  1
  Cu  Cu4  1  0.535702  0.464298  0.750000  1
  Cu  Cu5  1  0.464298  0.535702  0.250000  1
  S  S6  1  0.620828  0.379172  0.552383  1
  S  S7  1  0.379172  0.620828  0.447617  1
  S  S8  1  0.379172  0.620828  0.052383  1
  S  S9  1  0.937487  0.062513  0.750000  1
  S  S10  1  0.062513  0.937487  0.250000  1
  S  S11  1  0.620828  0.379172  0.947617  1
