# generated using pymatgen
data_V6O7F5
_symmetry_space_group_name_H-M   'P 1'
_cell_length_a   5.75328950
_cell_length_b   6.07196244
_cell_length_c   6.14540767
_cell_angle_alpha   101.32418054
_cell_angle_beta   99.01099714
_cell_angle_gamma   100.03970668
_symmetry_Int_Tables_number   1
_chemical_formula_structural   V6O7F5
_chemical_formula_sum   'V6 O7 F5'
_cell_volume   203.18934702
_cell_formula_units_Z   1
loop_
 _symmetry_equiv_pos_site_id
 _symmetry_equiv_pos_as_xyz
  1  'x, y, z'
loop_
 _atom_site_type_symbol
 _atom_site_label
 _atom_site_symmetry_multiplicity
 _atom_site_fract_x
 _atom_site_fract_y
 _atom_site_fract_z
 _atom_site_occupancy
  V  V0  1  0.700775  0.864517  0.389951  1
  V  V1  1  0.158248  0.618491  0.350254  1
  V  V2  1  0.402131  0.672519  0.850618  1
  V  V3  1  0.599159  0.323702  0.140947  1
  V  V4  1  0.848215  0.399076  0.660963  1
  V  V5  1  0.315241  0.131686  0.593661  1
  O  O6  1  0.068271  0.902053  0.357693  1
  O  O7  1  0.436687  0.817807  0.584200  1
  O  O8  1  0.403394  0.581758  0.176049  1
  O  O9  1  0.813886  0.569548  0.418797  1
  O  O10  1  0.181339  0.419647  0.566661  1
  O  O11  1  0.579821  0.420260  0.826504  1
  O  O12  1  0.572289  0.171442  0.407437  1
  F  F13  1  0.674829  0.906500  0.062938  1
  F  F14  1  0.061787  0.676680  0.881987  1
  F  F15  1  0.946611  0.347990  0.102652  1
  F  F16  1  0.328439  0.091202  0.921751  1
  F  F17  1  0.901820  0.085432  0.685118  1
