# generated using pymatgen
data_Fe6O7F5
_symmetry_space_group_name_H-M   'P 1'
_cell_length_a   4.69450738
_cell_length_b   5.63354235
_cell_length_c   7.74748068
_cell_angle_alpha   85.86474034
_cell_angle_beta   89.56515550
_cell_angle_gamma   88.87379283
_symmetry_Int_Tables_number   1
_chemical_formula_structural   Fe6O7F5
_chemical_formula_sum   'Fe6 O7 F5'
_cell_volume   204.31852842
_cell_formula_units_Z   1
loop_
 _symmetry_equiv_pos_site_id
 _symmetry_equiv_pos_as_xyz
  1  'x, y, z'
loop_
 _atom_site_type_symbol
 _atom_site_label
 _atom_site_symmetry_multiplicity
 _atom_site_fract_x
 _atom_site_fract_y
 _atom_site_fract_z
 _atom_site_occupancy
  Fe  Fe0  1  0.523509  0.159998  0.335399  1
  Fe  Fe1  1  0.460603  0.479286  0.985549  1
  Fe  Fe2  1  0.526072  0.823715  0.663260  1
  Fe  Fe3  1  0.993819  0.673766  0.323955  1
  Fe  Fe4  1  0.966234  0.349395  0.677113  1
  Fe  Fe5  1  0.015643  0.013854  0.017091  1
  O  O6  1  0.807527  0.631108  0.552427  1
  O  O7  1  0.805481  0.962266  0.234633  1
  O  O8  1  0.803539  0.295749  0.906798  1
  O  O9  1  0.691596  0.129325  0.563767  1
  O  O10  1  0.305470  0.540150  0.759278  1
  O  O11  1  0.312048  0.201393  0.114005  1
  O  O12  1  0.192843  0.700448  0.100619  1
  F  F13  1  0.702436  0.796168  0.899154  1
  F  F14  1  0.692453  0.466344  0.229900  1
  F  F15  1  0.298625  0.871000  0.436716  1
  F  F16  1  0.202119  0.037490  0.769012  1
  F  F17  1  0.199983  0.368546  0.431324  1
