# generated using pymatgen
data_Li3Co(NO2)6
_symmetry_space_group_name_H-M   'P 1'
_cell_length_a   6.37175888
_cell_length_b   6.37175888
_cell_length_c   6.37175888
_cell_angle_alpha   74.72237470
_cell_angle_beta   74.72237470
_cell_angle_gamma   74.72237470
_symmetry_Int_Tables_number   1
_chemical_formula_structural   Li3Co(NO2)6
_chemical_formula_sum   'Li3 Co1 N6 O12'
_cell_volume   235.43519204
_cell_formula_units_Z   1
loop_
 _symmetry_equiv_pos_site_id
 _symmetry_equiv_pos_as_xyz
  1  'x, y, z'
loop_
 _atom_site_type_symbol
 _atom_site_label
 _atom_site_symmetry_multiplicity
 _atom_site_fract_x
 _atom_site_fract_y
 _atom_site_fract_z
 _atom_site_occupancy
  Li  Li0  1  0.744915  0.744915  0.744915  1
  Li  Li1  1  0.500000  0.500000  0.500000  1
  Li  Li2  1  0.255085  0.255085  0.255085  1
  Co  Co3  1  0.000000  0.000000  0.000000  1
  N  N4  1  0.172240  0.796502  0.796502  1
  N  N5  1  0.796502  0.796502  0.172240  1
  N  N6  1  0.203498  0.827760  0.203498  1
  N  N7  1  0.796502  0.172240  0.796502  1
  N  N8  1  0.203498  0.203498  0.827760  1
  N  N9  1  0.827760  0.203498  0.203498  1
  O  O10  1  0.379827  0.754071  0.754071  1
  O  O11  1  0.754071  0.754071  0.379827  1
  O  O12  1  0.291711  0.925051  0.291711  1
  O  O13  1  0.708289  0.708289  0.074949  1
  O  O14  1  0.074949  0.708289  0.708289  1
  O  O15  1  0.754071  0.379827  0.754071  1
  O  O16  1  0.245929  0.620173  0.245929  1
  O  O17  1  0.925051  0.291711  0.291711  1
  O  O18  1  0.291711  0.291711  0.925051  1
  O  O19  1  0.708289  0.074949  0.708289  1
  O  O20  1  0.620173  0.245929  0.245929  1
  O  O21  1  0.245929  0.245929  0.620173  1
