# generated using pymatgen
data_Li6FeO6
_symmetry_space_group_name_H-M   'P 1'
_cell_length_a   5.46019651
_cell_length_b   5.46019651
_cell_length_c   5.46019651
_cell_angle_alpha   63.90654825
_cell_angle_beta   63.90654825
_cell_angle_gamma   63.90654825
_symmetry_Int_Tables_number   1
_chemical_formula_structural   Li6FeO6
_chemical_formula_sum   'Li6 Fe1 O6'
_cell_volume   125.02036420
_cell_formula_units_Z   1
loop_
 _symmetry_equiv_pos_site_id
 _symmetry_equiv_pos_as_xyz
  1  'x, y, z'
loop_
 _atom_site_type_symbol
 _atom_site_label
 _atom_site_symmetry_multiplicity
 _atom_site_fract_x
 _atom_site_fract_y
 _atom_site_fract_z
 _atom_site_occupancy
  Li  Li0  1  0.925903  0.279114  0.503742  1
  Li  Li1  1  0.496258  0.074097  0.720886  1
  Li  Li2  1  0.720886  0.496258  0.074097  1
  Li  Li3  1  0.279114  0.503742  0.925903  1
  Li  Li4  1  0.503742  0.925903  0.279114  1
  Li  Li5  1  0.074097  0.720886  0.496258  1
  Fe  Fe6  1  0.000000  0.000000  0.000000  1
  O  O7  1  0.795618  0.092102  0.349670  1
  O  O8  1  0.650330  0.204382  0.907898  1
  O  O9  1  0.907898  0.650330  0.204382  1
  O  O10  1  0.092102  0.349670  0.795618  1
  O  O11  1  0.349670  0.795618  0.092102  1
  O  O12  1  0.204382  0.907898  0.650330  1
