# generated using pymatgen
data_GdTmO3
_symmetry_space_group_name_H-M   'P 1'
_cell_length_a   5.69140845
_cell_length_b   5.94978836
_cell_length_c   8.33352689
_cell_angle_alpha   90.00000000
_cell_angle_beta   90.00000000
_cell_angle_gamma   90.00000000
_symmetry_Int_Tables_number   1
_chemical_formula_structural   GdTmO3
_chemical_formula_sum   'Gd4 Tm4 O12'
_cell_volume   282.19551891
_cell_formula_units_Z   4
loop_
 _symmetry_equiv_pos_site_id
 _symmetry_equiv_pos_as_xyz
  1  'x, y, z'
loop_
 _atom_site_type_symbol
 _atom_site_label
 _atom_site_symmetry_multiplicity
 _atom_site_fract_x
 _atom_site_fract_y
 _atom_site_fract_z
 _atom_site_occupancy
  Gd  Gd0  1  0.986741  0.053146  0.250000  1
  Gd  Gd1  1  0.486741  0.446854  0.750000  1
  Gd  Gd2  1  0.513259  0.553146  0.250000  1
  Gd  Gd3  1  0.013259  0.946854  0.750000  1
  Tm  Tm4  1  0.500000  0.000000  0.000000  1
  Tm  Tm5  1  0.500000  0.000000  0.500000  1
  Tm  Tm6  1  0.000000  0.500000  0.000000  1
  Tm  Tm7  1  0.000000  0.500000  0.500000  1
  O  O8  1  0.637875  0.068851  0.750000  1
  O  O9  1  0.180148  0.183775  0.571331  1
  O  O10  1  0.180148  0.183775  0.928669  1
  O  O11  1  0.680148  0.316225  0.071331  1
  O  O12  1  0.680148  0.316225  0.428669  1
  O  O13  1  0.137875  0.431149  0.250000  1
  O  O14  1  0.862125  0.568851  0.750000  1
  O  O15  1  0.319852  0.683775  0.928669  1
  O  O16  1  0.319852  0.683775  0.571331  1
  O  O17  1  0.819852  0.816225  0.071331  1
  O  O18  1  0.819852  0.816225  0.428669  1
  O  O19  1  0.362125  0.931149  0.250000  1
