# generated using pymatgen
data_Sc2Ti2O7
_symmetry_space_group_name_H-M   'P 1'
_cell_length_a   7.36407918
_cell_length_b   5.09827230
_cell_length_c   25.93184663
_cell_angle_alpha   90.00000000
_cell_angle_beta   98.05344759
_cell_angle_gamma   90.00000000
_symmetry_Int_Tables_number   1
_chemical_formula_structural   Sc2Ti2O7
_chemical_formula_sum   'Sc16 Ti16 O56'
_cell_volume   963.98564638
_cell_formula_units_Z   8
loop_
 _symmetry_equiv_pos_site_id
 _symmetry_equiv_pos_as_xyz
  1  'x, y, z'
loop_
 _atom_site_type_symbol
 _atom_site_label
 _atom_site_symmetry_multiplicity
 _atom_site_fract_x
 _atom_site_fract_y
 _atom_site_fract_z
 _atom_site_occupancy
  Sc  Sc0  1  0.168464  0.751688  0.803042  1
  Sc  Sc1  1  0.217694  0.234924  0.931368  1
  Sc  Sc2  1  0.143493  0.832325  0.277784  1
  Sc  Sc3  1  0.322416  0.256405  0.701347  1
  Sc  Sc4  1  0.228273  0.282618  0.466587  1
  Sc  Sc5  1  0.283466  0.735641  0.569153  1
  Sc  Sc6  1  0.270146  0.779194  0.033857  1
  Sc  Sc7  1  0.361583  0.321037  0.221028  1
  Sc  Sc8  1  0.638417  0.821037  0.778972  1
  Sc  Sc9  1  0.729854  0.279194  0.966143  1
  Sc  Sc10  1  0.716534  0.235641  0.430847  1
  Sc  Sc11  1  0.771727  0.782618  0.533413  1
  Sc  Sc12  1  0.677584  0.756405  0.298653  1
  Sc  Sc13  1  0.856507  0.332325  0.722216  1
  Sc  Sc14  1  0.782306  0.734924  0.068632  1
  Sc  Sc15  1  0.831536  0.251688  0.196958  1
  Ti  Ti16  1  0.069747  0.778112  0.663901  1
  Ti  Ti17  1  0.030132  0.266883  0.563470  1
  Ti  Ti18  1  0.034869  0.259201  0.059603  1
  Ti  Ti19  1  0.470990  0.761739  0.937967  1
  Ti  Ti20  1  0.430430  0.270464  0.837239  1
  Ti  Ti21  1  0.084228  0.759586  0.160543  1
  Ti  Ti22  1  0.464794  0.761479  0.440053  1
  Ti  Ti23  1  0.585791  0.764688  0.661524  1
  Ti  Ti24  1  0.414209  0.264688  0.338476  1
  Ti  Ti25  1  0.535206  0.261479  0.559947  1
  Ti  Ti26  1  0.915772  0.259586  0.839457  1
  Ti  Ti27  1  0.569570  0.770464  0.162761  1
  Ti  Ti28  1  0.529010  0.261739  0.062033  1
  Ti  Ti29  1  0.965131  0.759201  0.940397  1
  Ti  Ti30  1  0.969868  0.766883  0.436530  1
  Ti  Ti31  1  0.930253  0.278112  0.336099  1
  O  O32  1  0.065148  0.050379  0.987942  1
  O  O33  1  0.019433  0.950433  0.884942  1
  O  O34  1  0.141843  0.459478  0.618931  1
  O  O35  1  0.994703  0.916979  0.587500  1
  O  O36  1  0.149150  0.578004  0.727365  1
  O  O37  1  0.175659  0.399203  0.850814  1
  O  O38  1  0.044497  0.104177  0.689732  1
  O  O39  1  0.228719  0.620261  0.957430  1
  O  O40  1  0.076446  0.546734  0.513971  1
  O  O41  1  0.359114  0.952233  0.882101  1
  O  O42  1  0.424101  0.046123  0.986817  1
  O  O43  1  0.346142  0.073339  0.774639  1
  O  O44  1  0.042801  0.549406  0.215559  1
  O  O45  1  0.326082  0.903707  0.652706  1
  O  O46  1  0.271723  0.121365  0.543319  1
  O  O47  1  0.167236  0.130611  0.334722  1
  O  O48  1  0.217746  0.886768  0.440277  1
  O  O49  1  0.139195  0.050989  0.207325  1
  O  O50  1  0.450155  0.596011  0.810747  1
  O  O51  1  0.097236  0.917497  0.088001  1
  O  O52  1  0.505771  0.412658  0.913217  1
  O  O53  1  0.433724  0.551479  0.511698  1
  O  O54  1  0.599859  0.922383  0.589258  1
  O  O55  1  0.481917  0.460384  0.614327  1
  O  O56  1  0.281795  0.384779  0.060078  1
  O  O57  1  0.446261  0.037768  0.283588  1
  O  O58  1  0.645122  0.041595  0.710536  1
  O  O59  1  0.331786  0.626572  0.165297  1
  O  O60  1  0.668214  0.126572  0.834703  1
  O  O61  1  0.354878  0.541595  0.289464  1
  O  O62  1  0.553739  0.537768  0.716412  1
  O  O63  1  0.718205  0.884779  0.939922  1
  O  O64  1  0.518083  0.960384  0.385673  1
  O  O65  1  0.400141  0.422383  0.410742  1
  O  O66  1  0.566276  0.051479  0.488302  1
  O  O67  1  0.494229  0.912658  0.086783  1
  O  O68  1  0.902764  0.417497  0.911999  1
  O  O69  1  0.549845  0.096011  0.189253  1
  O  O70  1  0.860805  0.550989  0.792675  1
  O  O71  1  0.782254  0.386768  0.559723  1
  O  O72  1  0.832764  0.630611  0.665278  1
  O  O73  1  0.728277  0.621365  0.456681  1
  O  O74  1  0.673918  0.403707  0.347294  1
  O  O75  1  0.957199  0.049406  0.784441  1
  O  O76  1  0.653858  0.573339  0.225361  1
  O  O77  1  0.575899  0.546123  0.013183  1
  O  O78  1  0.640886  0.452233  0.117899  1
  O  O79  1  0.923554  0.046734  0.486029  1
  O  O80  1  0.771281  0.120261  0.042570  1
  O  O81  1  0.955503  0.604177  0.310268  1
  O  O82  1  0.824341  0.899203  0.149186  1
  O  O83  1  0.850850  0.078004  0.272635  1
  O  O84  1  0.005297  0.416979  0.412500  1
  O  O85  1  0.858157  0.959478  0.381069  1
  O  O86  1  0.980567  0.450433  0.115058  1
  O  O87  1  0.934852  0.550379  0.012058  1
