# generated using pymatgen
data_Li3TiV2O6
_symmetry_space_group_name_H-M   'P 1'
_cell_length_a   6.74636319
_cell_length_b   6.74636319
_cell_length_c   6.03737314
_cell_angle_alpha   77.10911893
_cell_angle_beta   102.89088107
_cell_angle_gamma   154.72546978
_symmetry_Int_Tables_number   1
_chemical_formula_structural   Li3TiV2O6
_chemical_formula_sum   'Li3 Ti1 V2 O6'
_cell_volume   114.21208087
_cell_formula_units_Z   1
loop_
 _symmetry_equiv_pos_site_id
 _symmetry_equiv_pos_as_xyz
  1  'x, y, z'
loop_
 _atom_site_type_symbol
 _atom_site_label
 _atom_site_symmetry_multiplicity
 _atom_site_fract_x
 _atom_site_fract_y
 _atom_site_fract_z
 _atom_site_occupancy
  Li  Li0  1  0.500000  0.500000  0.500000  1
  Li  Li1  1  0.168679  0.831321  0.828093  1
  Li  Li2  1  0.831321  0.168679  0.171907  1
  Ti  Ti3  1  0.500000  0.500000  0.000000  1
  V  V4  1  0.835160  0.164840  0.669065  1
  V  V5  1  0.164840  0.835160  0.330935  1
  O  O6  1  0.656663  0.343336  0.084664  1
  O  O7  1  0.330143  0.669857  0.429524  1
  O  O8  1  0.343336  0.656663  0.915336  1
  O  O9  1  0.000801  0.999199  0.769463  1
  O  O10  1  0.669857  0.330143  0.570476  1
  O  O11  1  0.999199  0.000801  0.230537  1
