# generated using pymatgen
data_LiP2WO8
_symmetry_space_group_name_H-M   'P 1'
_cell_length_a   4.89561106
_cell_length_b   8.83625548
_cell_length_c   15.62125766
_cell_angle_alpha   90.00000000
_cell_angle_beta   91.93306217
_cell_angle_gamma   90.00000000
_symmetry_Int_Tables_number   1
_chemical_formula_structural   LiP2WO8
_chemical_formula_sum   'Li4 P8 W4 O32'
_cell_volume   675.37339399
_cell_formula_units_Z   4
loop_
 _symmetry_equiv_pos_site_id
 _symmetry_equiv_pos_as_xyz
  1  'x, y, z'
loop_
 _atom_site_type_symbol
 _atom_site_label
 _atom_site_symmetry_multiplicity
 _atom_site_fract_x
 _atom_site_fract_y
 _atom_site_fract_z
 _atom_site_occupancy
  Li  Li0  1  0.461538  0.805265  0.430249  1
  Li  Li1  1  0.538462  0.305265  0.069751  1
  Li  Li2  1  0.461538  0.694735  0.930249  1
  Li  Li3  1  0.538462  0.194735  0.569751  1
  P  P4  1  0.109377  0.215067  0.422153  1
  P  P5  1  0.148259  0.606522  0.233507  1
  P  P6  1  0.109377  0.284933  0.922153  1
  P  P7  1  0.148259  0.893478  0.733507  1
  P  P8  1  0.851741  0.106522  0.266493  1
  P  P9  1  0.890623  0.715067  0.077847  1
  P  P10  1  0.851741  0.393478  0.766493  1
  P  P11  1  0.890623  0.784933  0.577847  1
  W  W12  1  0.376672  0.940771  0.156282  1
  W  W13  1  0.376672  0.559229  0.656282  1
  W  W14  1  0.623328  0.440771  0.343718  1
  W  W15  1  0.623328  0.059229  0.843718  1
  O  O16  1  0.007747  0.579061  0.140165  1
  O  O17  1  0.051809  0.066442  0.197493  1
  O  O18  1  0.140359  0.821412  0.065994  1
  O  O19  1  0.007747  0.920939  0.640165  1
  O  O20  1  0.219805  0.143750  0.502777  1
  O  O21  1  0.229012  0.773674  0.241966  1
  O  O22  1  0.051809  0.433558  0.697493  1
  O  O23  1  0.140359  0.678588  0.565994  1
  O  O24  1  0.219805  0.356250  0.002777  1
  O  O25  1  0.229012  0.726326  0.741966  1
  O  O26  1  0.321504  0.292302  0.366546  1
  O  O27  1  0.398729  0.500590  0.233541  1
  O  O28  1  0.501959  0.594711  0.404189  1
  O  O29  1  0.321504  0.207698  0.866546  1
  O  O30  1  0.398729  0.999410  0.733541  1
  O  O31  1  0.498041  0.094711  0.095811  1
  O  O32  1  0.501959  0.905289  0.904189  1
  O  O33  1  0.601271  0.000590  0.266459  1
  O  O34  1  0.678496  0.792302  0.133454  1
  O  O35  1  0.498041  0.405289  0.595811  1
  O  O36  1  0.601271  0.499410  0.766459  1
  O  O37  1  0.678496  0.707698  0.633454  1
  O  O38  1  0.770988  0.273674  0.258034  1
  O  O39  1  0.780195  0.643750  0.997223  1
  O  O40  1  0.859641  0.321412  0.434006  1
  O  O41  1  0.948191  0.566442  0.302507  1
  O  O42  1  0.770988  0.226326  0.758034  1
  O  O43  1  0.780195  0.856250  0.497223  1
  O  O44  1  0.992253  0.079061  0.359835  1
  O  O45  1  0.859641  0.178588  0.934006  1
  O  O46  1  0.948191  0.933558  0.802507  1
  O  O47  1  0.992253  0.420939  0.859835  1
