# generated using pymatgen
data_V2(OF)3
_symmetry_space_group_name_H-M   'P 1'
_cell_length_a   5.41681933
_cell_length_b   5.28289989
_cell_length_c   7.37414899
_cell_angle_alpha   90.00000000
_cell_angle_beta   92.35772914
_cell_angle_gamma   90.00000000
_symmetry_Int_Tables_number   1
_chemical_formula_structural   V2(OF)3
_chemical_formula_sum   'V4 O6 F6'
_cell_volume   210.84379897
_cell_formula_units_Z   2
loop_
 _symmetry_equiv_pos_site_id
 _symmetry_equiv_pos_as_xyz
  1  'x, y, z'
loop_
 _atom_site_type_symbol
 _atom_site_label
 _atom_site_symmetry_multiplicity
 _atom_site_fract_x
 _atom_site_fract_y
 _atom_site_fract_z
 _atom_site_occupancy
  V  V0  1  0.533856  0.526508  0.731030  1
  V  V1  1  0.466144  0.526508  0.268970  1
  V  V2  1  0.044578  0.016517  0.767356  1
  V  V3  1  0.955422  0.016517  0.232644  1
  O  O4  1  0.291603  0.198905  0.788421  1
  O  O5  1  0.708397  0.198905  0.211579  1
  O  O6  1  0.500000  0.413343  0.500000  1
  O  O7  1  0.288823  0.778959  0.290062  1
  O  O8  1  0.711177  0.778959  0.709938  1
  O  O9  1  0.000000  0.934944  0.000000  1
  F  F10  1  0.000000  0.072728  0.500000  1
  F  F11  1  0.204959  0.284196  0.208560  1
  F  F12  1  0.795041  0.284196  0.791440  1
  F  F13  1  0.500000  0.562434  0.000000  1
  F  F14  1  0.214180  0.703191  0.708329  1
  F  F15  1  0.785820  0.703191  0.291671  1
