# generated using pymatgen
data_LuHO2
_symmetry_space_group_name_H-M   'P 1'
_cell_length_a   3.39047996
_cell_length_b   4.76234115
_cell_length_c   5.36498792
_cell_angle_alpha   90.00000000
_cell_angle_beta   90.00000000
_cell_angle_gamma   90.00000000
_symmetry_Int_Tables_number   1
_chemical_formula_structural   LuHO2
_chemical_formula_sum   'Lu2 H2 O4'
_cell_volume   86.62643322
_cell_formula_units_Z   2
loop_
 _symmetry_equiv_pos_site_id
 _symmetry_equiv_pos_as_xyz
  1  'x, y, z'
loop_
 _atom_site_type_symbol
 _atom_site_label
 _atom_site_symmetry_multiplicity
 _atom_site_fract_x
 _atom_site_fract_y
 _atom_site_fract_z
 _atom_site_occupancy
  Lu  Lu0  1  0.000000  0.723468  0.982797  1
  Lu  Lu1  1  0.500000  0.276532  0.482797  1
  H  H2  1  0.500000  0.194581  0.963191  1
  H  H3  1  0.000000  0.805419  0.463191  1
  O  O4  1  0.500000  0.018233  0.852706  1
  O  O5  1  0.000000  0.516023  0.624082  1
  O  O6  1  0.000000  0.981767  0.352706  1
  O  O7  1  0.500000  0.483977  0.124082  1
