# generated using pymatgen
data_Ba2YCl7
_symmetry_space_group_name_H-M   'P 1'
_cell_length_a   7.63610788
_cell_length_b   12.96505724
_cell_length_c   15.38446559
_cell_angle_alpha   90.00000000
_cell_angle_beta   90.00000000
_cell_angle_gamma   90.00000000
_symmetry_Int_Tables_number   1
_chemical_formula_structural   Ba2YCl7
_chemical_formula_sum   'Ba8 Y4 Cl28'
_cell_volume   1523.10172002
_cell_formula_units_Z   4
loop_
 _symmetry_equiv_pos_site_id
 _symmetry_equiv_pos_as_xyz
  1  'x, y, z'
loop_
 _atom_site_type_symbol
 _atom_site_label
 _atom_site_symmetry_multiplicity
 _atom_site_fract_x
 _atom_site_fract_y
 _atom_site_fract_z
 _atom_site_occupancy
  Ba  Ba0  1  0.750000  0.743265  0.455519  1
  Ba  Ba1  1  0.750000  0.740929  0.743688  1
  Ba  Ba2  1  0.250000  0.759071  0.243688  1
  Ba  Ba3  1  0.250000  0.756735  0.955519  1
  Ba  Ba4  1  0.750000  0.243265  0.044481  1
  Ba  Ba5  1  0.750000  0.240929  0.756312  1
  Ba  Ba6  1  0.250000  0.259071  0.256312  1
  Ba  Ba7  1  0.250000  0.256735  0.544481  1
  Y  Y8  1  0.750000  0.059061  0.306419  1
  Y  Y9  1  0.250000  0.440939  0.806419  1
  Y  Y10  1  0.750000  0.559061  0.193581  1
  Y  Y11  1  0.250000  0.940939  0.693581  1
  Cl  Cl12  1  0.250000  0.905810  0.098687  1
  Cl  Cl13  1  0.971898  0.903294  0.342470  1
  Cl  Cl14  1  0.528102  0.903294  0.342470  1
  Cl  Cl15  1  0.032067  0.890953  0.823479  1
  Cl  Cl16  1  0.467933  0.890953  0.823479  1
  Cl  Cl17  1  0.477681  0.830267  0.601765  1
  Cl  Cl18  1  0.022319  0.830267  0.601765  1
  Cl  Cl19  1  0.977681  0.669733  0.101765  1
  Cl  Cl20  1  0.522319  0.669733  0.101765  1
  Cl  Cl21  1  0.967933  0.609047  0.323479  1
  Cl  Cl22  1  0.532067  0.609047  0.323479  1
  Cl  Cl23  1  0.028102  0.596706  0.842470  1
  Cl  Cl24  1  0.471898  0.596706  0.842470  1
  Cl  Cl25  1  0.750000  0.594190  0.598687  1
  Cl  Cl26  1  0.250000  0.405810  0.401313  1
  Cl  Cl27  1  0.971898  0.403294  0.157530  1
  Cl  Cl28  1  0.528102  0.403294  0.157530  1
  Cl  Cl29  1  0.032067  0.390953  0.676521  1
  Cl  Cl30  1  0.467933  0.390953  0.676521  1
  Cl  Cl31  1  0.022319  0.330267  0.898235  1
  Cl  Cl32  1  0.477681  0.330267  0.898235  1
  Cl  Cl33  1  0.522319  0.169733  0.398235  1
  Cl  Cl34  1  0.977681  0.169733  0.398235  1
  Cl  Cl35  1  0.532067  0.109047  0.176521  1
  Cl  Cl36  1  0.967933  0.109047  0.176521  1
  Cl  Cl37  1  0.471898  0.096706  0.657530  1
  Cl  Cl38  1  0.028102  0.096706  0.657530  1
  Cl  Cl39  1  0.750000  0.094190  0.901313  1
