# generated using pymatgen
data_Li3FeSiCO7
_symmetry_space_group_name_H-M   'P 1'
_cell_length_a   5.02306335
_cell_length_b   6.44814587
_cell_length_c   8.41370954
_cell_angle_alpha   90.00000000
_cell_angle_beta   93.24610098
_cell_angle_gamma   90.00000000
_symmetry_Int_Tables_number   1
_chemical_formula_structural   Li3FeSiCO7
_chemical_formula_sum   'Li6 Fe2 Si2 C2 O14'
_cell_volume   272.07814039
_cell_formula_units_Z   2
loop_
 _symmetry_equiv_pos_site_id
 _symmetry_equiv_pos_as_xyz
  1  'x, y, z'
loop_
 _atom_site_type_symbol
 _atom_site_label
 _atom_site_symmetry_multiplicity
 _atom_site_fract_x
 _atom_site_fract_y
 _atom_site_fract_z
 _atom_site_occupancy
  Li  Li0  1  0.247149  0.750000  0.606234  1
  Li  Li1  1  0.768618  0.975684  0.773901  1
  Li  Li2  1  0.768618  0.524316  0.773901  1
  Li  Li3  1  0.231382  0.475684  0.226099  1
  Li  Li4  1  0.231382  0.024316  0.226099  1
  Li  Li5  1  0.752851  0.250000  0.393766  1
  Fe  Fe6  1  0.205151  0.250000  0.840831  1
  Fe  Fe7  1  0.794849  0.750000  0.159169  1
  Si  Si8  1  0.287752  0.750000  0.920621  1
  Si  Si9  1  0.712248  0.250000  0.079379  1
  C  C10  1  0.274145  0.250000  0.533984  1
  C  C11  1  0.725855  0.750000  0.466016  1
  O  O12  1  0.656409  0.750000  0.611953  1
  O  O13  1  0.027365  0.250000  0.570683  1
  O  O14  1  0.458485  0.250000  0.650021  1
  O  O15  1  0.185894  0.946095  0.808102  1
  O  O16  1  0.185894  0.553905  0.808102  1
  O  O17  1  0.618026  0.750000  0.944555  1
  O  O18  1  0.827363  0.250000  0.900912  1
  O  O19  1  0.172637  0.750000  0.099088  1
  O  O20  1  0.381974  0.250000  0.055445  1
  O  O21  1  0.814106  0.446095  0.191898  1
  O  O22  1  0.814106  0.053905  0.191898  1
  O  O23  1  0.541515  0.750000  0.349979  1
  O  O24  1  0.972635  0.750000  0.429317  1
  O  O25  1  0.343591  0.250000  0.388047  1
