# generated using pymatgen
data_Li3Mn2P2(CO7)2
_symmetry_space_group_name_H-M   'P 1'
_cell_length_a   9.43146719
_cell_length_b   6.46586333
_cell_length_c   10.05908936
_cell_angle_alpha   90.00000000
_cell_angle_beta   117.54034552
_cell_angle_gamma   90.00000000
_symmetry_Int_Tables_number   1
_chemical_formula_structural   Li3Mn2P2(CO7)2
_chemical_formula_sum   'Li6 Mn4 P4 C4 O28'
_cell_volume   543.91875724
_cell_formula_units_Z   2
loop_
 _symmetry_equiv_pos_site_id
 _symmetry_equiv_pos_as_xyz
  1  'x, y, z'
loop_
 _atom_site_type_symbol
 _atom_site_label
 _atom_site_symmetry_multiplicity
 _atom_site_fract_x
 _atom_site_fract_y
 _atom_site_fract_z
 _atom_site_occupancy
  Li  Li0  1  0.011966  0.960875  0.749692  1
  Li  Li1  1  0.501245  0.512538  0.247866  1
  Li  Li2  1  0.503334  0.986505  0.249944  1
  Li  Li3  1  0.498755  0.012538  0.752134  1
  Li  Li4  1  0.496666  0.486505  0.750056  1
  Li  Li5  1  0.988034  0.460875  0.250308  1
  Mn  Mn6  1  0.265383  0.253084  0.934697  1
  Mn  Mn7  1  0.777192  0.254170  0.441103  1
  Mn  Mn8  1  0.222808  0.754170  0.558897  1
  Mn  Mn9  1  0.734617  0.753084  0.065303  1
  P  P10  1  0.350440  0.750790  0.931021  1
  P  P11  1  0.844507  0.750640  0.422279  1
  P  P12  1  0.155493  0.250640  0.577721  1
  P  P13  1  0.649560  0.250790  0.068979  1
  C  C14  1  0.666789  0.242212  0.617571  1
  C  C15  1  0.171134  0.254848  0.122551  1
  C  C16  1  0.828866  0.754848  0.877449  1
  C  C17  1  0.333211  0.742212  0.382429  1
  O  O18  1  0.079282  0.247302  0.977643  1
  O  O19  1  0.580163  0.254500  0.470703  1
  O  O20  1  0.873222  0.770213  0.780156  1
  O  O21  1  0.819250  0.226797  0.657010  1
  O  O22  1  0.390583  0.746889  0.292109  1
  O  O23  1  0.326248  0.248232  0.153977  1
  O  O24  1  0.250302  0.938201  0.933912  1
  O  O25  1  0.260964  0.559368  0.941585  1
  O  O26  1  0.743474  0.941449  0.415460  1
  O  O27  1  0.747163  0.564604  0.431784  1
  O  O28  1  0.128469  0.229525  0.718097  1
  O  O29  1  0.014644  0.768453  0.560030  1
  O  O30  1  0.626469  0.255208  0.212628  1
  O  O31  1  0.522209  0.757411  0.070355  1
  O  O32  1  0.477791  0.257411  0.929645  1
  O  O33  1  0.373531  0.755208  0.787372  1
  O  O34  1  0.985356  0.268453  0.439970  1
  O  O35  1  0.871531  0.729525  0.281903  1
  O  O36  1  0.252837  0.064604  0.568216  1
  O  O37  1  0.256526  0.441449  0.584540  1
  O  O38  1  0.749698  0.438201  0.066088  1
  O  O39  1  0.739036  0.059368  0.058415  1
  O  O40  1  0.673752  0.748232  0.846023  1
  O  O41  1  0.609417  0.246889  0.707891  1
  O  O42  1  0.180750  0.726797  0.342990  1
  O  O43  1  0.126778  0.270213  0.219844  1
  O  O44  1  0.419837  0.754500  0.529297  1
  O  O45  1  0.920718  0.747302  0.022357  1
