# generated using pymatgen
data_LiFeBO3
_symmetry_space_group_name_H-M   'P 1'
_cell_length_a   8.23859777
_cell_length_b   8.23859777
_cell_length_c   3.12530414
_cell_angle_alpha   90.00000000
_cell_angle_beta   90.00000000
_cell_angle_gamma   120.00000000
_symmetry_Int_Tables_number   1
_chemical_formula_structural   LiFeBO3
_chemical_formula_sum   'Li3 Fe3 B3 O9'
_cell_volume   183.70861328
_cell_formula_units_Z   3
loop_
 _symmetry_equiv_pos_site_id
 _symmetry_equiv_pos_as_xyz
  1  'x, y, z'
loop_
 _atom_site_type_symbol
 _atom_site_label
 _atom_site_symmetry_multiplicity
 _atom_site_fract_x
 _atom_site_fract_y
 _atom_site_fract_z
 _atom_site_occupancy
  Li  Li0  1  0.619507  0.650796  0.500000  1
  Li  Li1  1  0.349204  0.968711  0.500000  1
  Li  Li2  1  0.031289  0.380493  0.500000  1
  Fe  Fe3  1  0.700659  0.026226  0.000000  1
  Fe  Fe4  1  0.973774  0.674433  0.000000  1
  Fe  Fe5  1  0.325567  0.299341  0.000000  1
  B  B6  1  0.666667  0.333333  0.500000  1
  B  B7  1  0.333333  0.666667  0.000000  1
  B  B8  1  0.000000  0.000000  0.500000  1
  O  O9  1  0.443126  0.582071  0.000000  1
  O  O10  1  0.472459  0.247265  0.500000  1
  O  O11  1  0.417929  0.861055  0.000000  1
  O  O12  1  0.774806  0.527541  0.500000  1
  O  O13  1  0.752735  0.225194  0.500000  1
  O  O14  1  0.805900  0.920606  0.500000  1
  O  O15  1  0.138945  0.556874  0.000000  1
  O  O16  1  0.114706  0.194100  0.500000  1
  O  O17  1  0.079394  0.885294  0.500000  1
