# generated using pymatgen
data_Sr(CdSb)2
_symmetry_space_group_name_H-M   'P 1'
_cell_length_a   4.79721429
_cell_length_b   4.79721429
_cell_length_c   7.90558592
_cell_angle_alpha   90.00000000
_cell_angle_beta   90.00000000
_cell_angle_gamma   120.00000000
_symmetry_Int_Tables_number   1
_chemical_formula_structural   Sr(CdSb)2
_chemical_formula_sum   'Sr1 Cd2 Sb2'
_cell_volume   157.55889695
_cell_formula_units_Z   1
loop_
 _symmetry_equiv_pos_site_id
 _symmetry_equiv_pos_as_xyz
  1  'x, y, z'
loop_
 _atom_site_type_symbol
 _atom_site_label
 _atom_site_symmetry_multiplicity
 _atom_site_fract_x
 _atom_site_fract_y
 _atom_site_fract_z
 _atom_site_occupancy
  Sr  Sr0  1  0.000000  0.000000  0.000000  1
  Cd  Cd1  1  0.333333  0.666667  0.632177  1
  Cd  Cd2  1  0.666667  0.333333  0.367823  1
  Sb  Sb3  1  0.333333  0.666667  0.249809  1
  Sb  Sb4  1  0.666667  0.333333  0.750191  1
