# generated using pymatgen
data_Ba3DyUFeO9
_symmetry_space_group_name_H-M   'P 1'
_cell_length_a   5.99836101
_cell_length_b   5.99836101
_cell_length_c   17.31818743
_cell_angle_alpha   90.00000000
_cell_angle_beta   90.00000000
_cell_angle_gamma   120.00000000
_symmetry_Int_Tables_number   1
_chemical_formula_structural   Ba3DyUFeO9
_chemical_formula_sum   'Ba6 Dy2 U2 Fe2 O18'
_cell_volume   539.63271090
_cell_formula_units_Z   2
loop_
 _symmetry_equiv_pos_site_id
 _symmetry_equiv_pos_as_xyz
  1  'x, y, z'
loop_
 _atom_site_type_symbol
 _atom_site_label
 _atom_site_symmetry_multiplicity
 _atom_site_fract_x
 _atom_site_fract_y
 _atom_site_fract_z
 _atom_site_occupancy
  Ba  Ba0  1  0.666667  0.333333  0.948040  1
  Ba  Ba1  1  0.333333  0.666667  0.818693  1
  Ba  Ba2  1  0.333333  0.666667  0.552741  1
  Ba  Ba3  1  0.000000  0.000000  0.696971  1
  Ba  Ba4  1  0.666667  0.333333  0.183702  1
  Ba  Ba5  1  0.333333  0.666667  0.055117  1
  Dy  Dy6  1  0.000000  0.000000  0.340422  1
  Dy  Dy7  1  0.666667  0.333333  0.384645  1
  U  U8  1  0.000000  0.000000  0.001086  1
  U  U9  1  0.666667  0.333333  0.638739  1
  Fe  Fe10  1  0.333333  0.666667  0.352728  1
  Fe  Fe11  1  0.000000  0.000000  0.502947  1
  O  O12  1  0.165157  0.834843  0.932499  1
  O  O13  1  0.505780  0.011560  0.706052  1
  O  O14  1  0.669687  0.834843  0.932499  1
  O  O15  1  0.988440  0.494220  0.706052  1
  O  O16  1  0.505780  0.494220  0.706052  1
  O  O17  1  0.165157  0.330313  0.932499  1
  O  O18  1  0.154417  0.308835  0.426316  1
  O  O19  1  0.839159  0.160841  0.570093  1
  O  O20  1  0.321681  0.160841  0.570093  1
  O  O21  1  0.691165  0.845583  0.426316  1
  O  O22  1  0.154417  0.845583  0.426316  1
  O  O23  1  0.839159  0.678319  0.570093  1
  O  O24  1  0.504406  0.495594  0.304096  1
  O  O25  1  0.834662  0.669324  0.069000  1
  O  O26  1  0.991187  0.495594  0.304096  1
  O  O27  1  0.330676  0.165338  0.069000  1
  O  O28  1  0.504406  0.008813  0.304096  1
  O  O29  1  0.834662  0.165338  0.069000  1
