# generated using pymatgen
data_Ce3Y4O12
_symmetry_space_group_name_H-M   'P 1'
_cell_length_a   13.94079908
_cell_length_b   13.94079908
_cell_length_c   5.49971262
_cell_angle_alpha   78.81214410
_cell_angle_beta   101.18785590
_cell_angle_gamma   164.50328304
_symmetry_Int_Tables_number   1
_chemical_formula_structural   Ce3Y4O12
_chemical_formula_sum   'Ce3 Y4 O12'
_cell_volume   280.04928127
_cell_formula_units_Z   1
loop_
 _symmetry_equiv_pos_site_id
 _symmetry_equiv_pos_as_xyz
  1  'x, y, z'
loop_
 _atom_site_type_symbol
 _atom_site_label
 _atom_site_symmetry_multiplicity
 _atom_site_fract_x
 _atom_site_fract_y
 _atom_site_fract_z
 _atom_site_occupancy
  Ce  Ce0  1  0.856755  0.143245  0.854680  1
  Ce  Ce1  1  0.280309  0.719691  0.278200  1
  Ce  Ce2  1  0.424941  0.575059  0.432166  1
  Y  Y3  1  0.004151  0.995849  0.949025  1
  Y  Y4  1  0.572522  0.427478  0.571844  1
  Y  Y5  1  0.718178  0.281822  0.707435  1
  Y  Y6  1  0.142315  0.857685  0.194987  1
  O  O7  1  0.202286  0.797714  0.960518  1
  O  O8  1  0.085720  0.914280  0.835057  1
  O  O9  1  0.926373  0.073627  0.671752  1
  O  O10  1  0.357200  0.642800  0.611031  1
  O  O11  1  0.501713  0.498287  0.733700  1
  O  O12  1  0.787735  0.212265  0.533627  1
  O  O13  1  0.054893  0.945107  0.313106  1
  O  O14  1  0.217031  0.782969  0.467898  1
  O  O15  1  0.640567  0.359433  0.408815  1
  O  O16  1  0.784638  0.215362  0.029795  1
  O  O17  1  0.359449  0.640551  0.112756  1
  O  O18  1  0.940377  0.059623  0.190753  1
