# generated using pymatgen
data_Sr3W2O9
_symmetry_space_group_name_H-M   'P 1'
_cell_length_a   7.34782097
_cell_length_b   7.34782097
_cell_length_c   7.34782097
_cell_angle_alpha   84.88825692
_cell_angle_beta   84.88825692
_cell_angle_gamma   84.88825692
_symmetry_Int_Tables_number   1
_chemical_formula_structural   Sr3W2O9
_chemical_formula_sum   'Sr6 W4 O18'
_cell_volume   392.24379120
_cell_formula_units_Z   2
loop_
 _symmetry_equiv_pos_site_id
 _symmetry_equiv_pos_as_xyz
  1  'x, y, z'
loop_
 _atom_site_type_symbol
 _atom_site_label
 _atom_site_symmetry_multiplicity
 _atom_site_fract_x
 _atom_site_fract_y
 _atom_site_fract_z
 _atom_site_occupancy
  Sr  Sr0  1  0.423372  0.750000  0.076628  1
  Sr  Sr1  1  0.250000  0.923372  0.576628  1
  Sr  Sr2  1  0.923372  0.576628  0.250000  1
  Sr  Sr3  1  0.076628  0.423372  0.750000  1
  Sr  Sr4  1  0.750000  0.076628  0.423372  1
  Sr  Sr5  1  0.576628  0.250000  0.923372  1
  W  W6  1  0.143460  0.143460  0.143460  1
  W  W7  1  0.643460  0.643460  0.643460  1
  W  W8  1  0.856540  0.856540  0.856540  1
  W  W9  1  0.356540  0.356540  0.356540  1
  O  O10  1  0.742794  0.915841  0.080416  1
  O  O11  1  0.084159  0.919584  0.257206  1
  O  O12  1  0.250000  0.401271  0.098729  1
  O  O13  1  0.584159  0.757206  0.419584  1
  O  O14  1  0.598729  0.901271  0.750000  1
  O  O15  1  0.901271  0.750000  0.598729  1
  O  O16  1  0.242794  0.580416  0.415841  1
  O  O17  1  0.580416  0.415841  0.242794  1
  O  O18  1  0.919584  0.257206  0.084159  1
  O  O19  1  0.080416  0.742794  0.915841  1
  O  O20  1  0.419584  0.584159  0.757206  1
  O  O21  1  0.401271  0.098729  0.250000  1
  O  O22  1  0.757206  0.419584  0.584159  1
  O  O23  1  0.098729  0.250000  0.401271  1
  O  O24  1  0.415841  0.242794  0.580416  1
  O  O25  1  0.750000  0.598729  0.901271  1
  O  O26  1  0.915841  0.080416  0.742794  1
  O  O27  1  0.257206  0.084159  0.919584  1
