# generated using pymatgen
data_InFe11O16
_symmetry_space_group_name_H-M   'P 1'
_cell_length_a   10.51338446
_cell_length_b   10.51338446
_cell_length_c   6.10916985
_cell_angle_alpha   90.00000000
_cell_angle_beta   90.00000000
_cell_angle_gamma   108.57815444
_symmetry_Int_Tables_number   1
_chemical_formula_structural   InFe11O16
_chemical_formula_sum   'In2 Fe22 O32'
_cell_volume   640.06666927
_cell_formula_units_Z   2
loop_
 _symmetry_equiv_pos_site_id
 _symmetry_equiv_pos_as_xyz
  1  'x, y, z'
loop_
 _atom_site_type_symbol
 _atom_site_label
 _atom_site_symmetry_multiplicity
 _atom_site_fract_x
 _atom_site_fract_y
 _atom_site_fract_z
 _atom_site_occupancy
  In  In0  1  0.813106  0.186894  0.750000  1
  In  In1  1  0.186894  0.813106  0.250000  1
  Fe  Fe2  1  0.000000  0.000000  0.500000  1
  Fe  Fe3  1  0.000000  0.000000  0.000000  1
  Fe  Fe4  1  0.312541  0.187372  0.250000  1
  Fe  Fe5  1  0.812628  0.687459  0.250000  1
  Fe  Fe6  1  0.251904  0.001454  0.750000  1
  Fe  Fe7  1  0.998546  0.748096  0.750000  1
  Fe  Fe8  1  0.500000  1.000000  0.500000  1
  Fe  Fe9  1  0.000000  0.500000  1.000000  1
  Fe  Fe10  1  0.500000  1.000000  0.000000  1
  Fe  Fe11  1  0.000000  0.500000  0.500000  1
  Fe  Fe12  1  0.314129  0.685871  0.750000  1
  Fe  Fe13  1  0.505453  0.747577  0.250000  1
  Fe  Fe14  1  0.252423  0.494547  0.250000  1
  Fe  Fe15  1  0.748096  0.998546  0.250000  1
  Fe  Fe16  1  0.001454  0.251904  0.250000  1
  Fe  Fe17  1  0.187372  0.312541  0.750000  1
  Fe  Fe18  1  0.687459  0.812628  0.750000  1
  Fe  Fe19  1  0.500000  0.500000  0.000000  1
  Fe  Fe20  1  0.500000  0.500000  0.500000  1
  Fe  Fe21  1  0.747577  0.505453  0.750000  1
  Fe  Fe22  1  0.494547  0.252423  0.750000  1
  Fe  Fe23  1  0.685871  0.314129  0.250000  1
  O  O24  1  0.884870  0.115130  0.482685  1
  O  O25  1  0.884870  0.115130  0.017315  1
  O  O26  1  0.118453  0.114858  0.250000  1
  O  O27  1  0.885142  0.881547  0.250000  1
  O  O28  1  0.114858  0.118453  0.750000  1
  O  O29  1  0.881547  0.885142  0.750000  1
  O  O30  1  0.115130  0.884870  0.517315  1
  O  O31  1  0.115130  0.884870  0.982685  1
  O  O32  1  0.381128  0.125945  0.508952  1
  O  O33  1  0.874055  0.618872  0.991048  1
  O  O34  1  0.874055  0.618872  0.508952  1
  O  O35  1  0.381128  0.125945  0.991048  1
  O  O36  1  0.603870  0.122982  0.750000  1
  O  O37  1  0.375989  0.879119  0.750000  1
  O  O38  1  0.120881  0.624011  0.750000  1
  O  O39  1  0.877018  0.396130  0.750000  1
  O  O40  1  0.396130  0.877018  0.250000  1
  O  O41  1  0.624011  0.120881  0.250000  1
  O  O42  1  0.122982  0.603870  0.250000  1
  O  O43  1  0.879119  0.375989  0.250000  1
  O  O44  1  0.618872  0.874055  0.008952  1
  O  O45  1  0.125945  0.381128  0.008952  1
  O  O46  1  0.618872  0.874055  0.491048  1
  O  O47  1  0.125945  0.381128  0.491048  1
  O  O48  1  0.378582  0.621418  0.479875  1
  O  O49  1  0.378582  0.621418  0.020125  1
  O  O50  1  0.371935  0.380347  0.250000  1
  O  O51  1  0.619653  0.628065  0.250000  1
  O  O52  1  0.628065  0.619653  0.750000  1
  O  O53  1  0.380347  0.371935  0.750000  1
  O  O54  1  0.621418  0.378582  0.520125  1
  O  O55  1  0.621418  0.378582  0.979875  1
