# generated using pymatgen
data_V6O7F5
_symmetry_space_group_name_H-M   'P 1'
_cell_length_a   4.67792358
_cell_length_b   5.61981486
_cell_length_c   7.79968981
_cell_angle_alpha   86.37055707
_cell_angle_beta   89.72425881
_cell_angle_gamma   89.96276395
_symmetry_Int_Tables_number   1
_chemical_formula_structural   V6O7F5
_chemical_formula_sum   'V6 O7 F5'
_cell_volume   204.63291054
_cell_formula_units_Z   1
loop_
 _symmetry_equiv_pos_site_id
 _symmetry_equiv_pos_as_xyz
  1  'x, y, z'
loop_
 _atom_site_type_symbol
 _atom_site_label
 _atom_site_symmetry_multiplicity
 _atom_site_fract_x
 _atom_site_fract_y
 _atom_site_fract_z
 _atom_site_occupancy
  V  V0  1  0.543041  0.173582  0.341450  1
  V  V1  1  0.487650  0.500075  0.999963  1
  V  V2  1  0.515728  0.821055  0.657897  1
  V  V3  1  0.977115  0.661819  0.316401  1
  V  V4  1  0.974994  0.353626  0.680698  1
  V  V5  1  0.990542  0.996712  0.014064  1
  O  O6  1  0.808802  0.626951  0.562242  1
  O  O7  1  0.808094  0.296904  0.898905  1
  O  O8  1  0.795389  0.969892  0.231153  1
  O  O9  1  0.693070  0.466557  0.225800  1
  O  O10  1  0.711993  0.133281  0.577056  1
  O  O11  1  0.295550  0.531414  0.757613  1
  O  O12  1  0.196791  0.707030  0.093357  1
  F  F13  1  0.697905  0.796200  0.895154  1
  F  F14  1  0.300631  0.869320  0.430099  1
  F  F15  1  0.300162  0.199575  0.112776  1
  F  F16  1  0.204655  0.033323  0.773039  1
  F  F17  1  0.197884  0.362683  0.432332  1
