# generated using pymatgen
data_VOF2
_symmetry_space_group_name_H-M   'P 1'
_cell_length_a   5.18583240
_cell_length_b   5.18740496
_cell_length_c   13.41250429
_cell_angle_alpha   88.68015662
_cell_angle_beta   89.13714875
_cell_angle_gamma   60.69916303
_symmetry_Int_Tables_number   1
_chemical_formula_structural   VOF2
_chemical_formula_sum   'V6 O6 F12'
_cell_volume   314.56224477
_cell_formula_units_Z   6
loop_
 _symmetry_equiv_pos_site_id
 _symmetry_equiv_pos_as_xyz
  1  'x, y, z'
loop_
 _atom_site_type_symbol
 _atom_site_label
 _atom_site_symmetry_multiplicity
 _atom_site_fract_x
 _atom_site_fract_y
 _atom_site_fract_z
 _atom_site_occupancy
  V  V0  1  0.969753  0.994766  0.506965  1
  V  V1  1  0.004858  0.977321  0.007528  1
  V  V2  1  0.699567  0.643858  0.173465  1
  V  V3  1  0.318811  0.309730  0.339215  1
  V  V4  1  0.659242  0.641934  0.674001  1
  V  V5  1  0.311854  0.326861  0.841086  1
  O  O6  1  0.989982  0.424791  0.247121  1
  O  O7  1  0.921903  0.757917  0.080720  1
  O  O8  1  0.248791  0.089404  0.414249  1
  O  O9  1  0.587038  0.421915  0.748840  1
  O  O10  1  0.751507  0.921348  0.581577  1
  O  O11  1  0.092700  0.252786  0.916473  1
  F  F12  1  0.593609  0.009640  0.246748  1
  F  F13  1  0.935143  0.334277  0.582511  1
  F  F14  1  0.683251  0.066721  0.911055  1
  F  F15  1  0.735098  0.340792  0.079927  1
  F  F16  1  0.664120  0.270975  0.413951  1
  F  F17  1  0.001375  0.606111  0.749446  1
  F  F18  1  0.399305  0.012369  0.744636  1
  F  F19  1  0.404653  0.593925  0.249483  1
  F  F20  1  0.341566  0.732850  0.577727  1
  F  F21  1  0.278116  0.666275  0.915974  1
  F  F22  1  0.342751  0.926321  0.085126  1
  F  F23  1  0.065007  0.677116  0.412177  1
