# generated using pymatgen
data_Li2CuH14C4(N3O4)2
_symmetry_space_group_name_H-M   'P 1'
_cell_length_a   3.51861088
_cell_length_b   12.96633414
_cell_length_c   13.51233582
_cell_angle_alpha   90.00000000
_cell_angle_beta   97.29494075
_cell_angle_gamma   90.00000000
_symmetry_Int_Tables_number   1
_chemical_formula_structural   Li2CuH14C4(N3O4)2
_chemical_formula_sum   'Li4 Cu2 H28 C8 N12 O16'
_cell_volume   611.48984430
_cell_formula_units_Z   2
loop_
 _symmetry_equiv_pos_site_id
 _symmetry_equiv_pos_as_xyz
  1  'x, y, z'
loop_
 _atom_site_type_symbol
 _atom_site_label
 _atom_site_symmetry_multiplicity
 _atom_site_fract_x
 _atom_site_fract_y
 _atom_site_fract_z
 _atom_site_occupancy
  Li  Li0  1  0.214452  0.094367  0.635723  1
  Li  Li1  1  0.214452  0.405633  0.135723  1
  Li  Li2  1  0.785548  0.594367  0.864277  1
  Li  Li3  1  0.785548  0.905633  0.364277  1
  Cu  Cu4  1  0.500000  0.000000  0.000000  1
  Cu  Cu5  1  0.500000  0.500000  0.500000  1
  H  H6  1  0.587414  0.586352  0.064515  1
  H  H7  1  0.761989  0.585285  0.177473  1
  H  H8  1  0.212009  0.787813  0.624210  1
  H  H9  1  0.890066  0.149070  0.166589  1
  H  H10  1  0.995318  0.241831  0.239978  1
  H  H11  1  0.004682  0.741831  0.260022  1
  H  H12  1  0.315216  0.487677  0.676241  1
  H  H13  1  0.109934  0.649070  0.333411  1
  H  H14  1  0.373610  0.337061  0.606714  1
  H  H15  1  0.626390  0.837061  0.893286  1
  H  H16  1  0.238011  0.085285  0.322527  1
  H  H17  1  0.684784  0.987677  0.823759  1
  H  H18  1  0.412586  0.086352  0.435485  1
  H  H19  1  0.787991  0.287813  0.875790  1
  H  H20  1  0.212009  0.712187  0.124210  1
  H  H21  1  0.587414  0.913648  0.564515  1
  H  H22  1  0.315216  0.012323  0.176241  1
  H  H23  1  0.761989  0.914715  0.677473  1
  H  H24  1  0.373610  0.162939  0.106714  1
  H  H25  1  0.626390  0.662939  0.393286  1
  H  H26  1  0.890066  0.350930  0.666589  1
  H  H27  1  0.684784  0.512323  0.323759  1
  H  H28  1  0.995318  0.258169  0.739978  1
  H  H29  1  0.004682  0.758169  0.760022  1
  H  H30  1  0.109934  0.850930  0.833411  1
  H  H31  1  0.787991  0.212187  0.375790  1
  H  H32  1  0.238011  0.414715  0.822527  1
  H  H33  1  0.412586  0.413648  0.935485  1
  C  C34  1  0.254467  0.633328  0.654778  1
  C  C35  1  0.583267  0.229035  0.998448  1
  C  C36  1  0.416733  0.729035  0.501552  1
  C  C37  1  0.745533  0.133328  0.845222  1
  C  C38  1  0.254467  0.866672  0.154778  1
  C  C39  1  0.583267  0.270965  0.498448  1
  C  C40  1  0.416733  0.770965  0.001552  1
  C  C41  1  0.745533  0.366672  0.345222  1
  N  N42  1  0.483371  0.855642  0.952621  1
  N  N43  1  0.278906  0.719894  0.593786  1
  N  N44  1  0.339289  0.542148  0.623072  1
  N  N45  1  0.660711  0.042148  0.876928  1
  N  N46  1  0.721094  0.219894  0.906214  1
  N  N47  1  0.516629  0.355642  0.547379  1
  N  N48  1  0.483371  0.644358  0.452621  1
  N  N49  1  0.278906  0.780106  0.093786  1
  N  N50  1  0.339289  0.957852  0.123072  1
  N  N51  1  0.660711  0.457852  0.376928  1
  N  N52  1  0.721094  0.280106  0.406214  1
  N  N53  1  0.516629  0.144358  0.047379  1
  O  O54  1  0.535147  0.321802  0.029718  1
  O  O55  1  0.667179  0.538231  0.121285  1
  O  O56  1  0.849218  0.350232  0.257930  1
  O  O57  1  0.914553  0.669633  0.277842  1
  O  O58  1  0.085447  0.169633  0.222158  1
  O  O59  1  0.150782  0.850232  0.242070  1
  O  O60  1  0.332821  0.038231  0.378715  1
  O  O61  1  0.464853  0.821802  0.470282  1
  O  O62  1  0.535147  0.178198  0.529718  1
  O  O63  1  0.667179  0.961769  0.621285  1
  O  O64  1  0.849218  0.149768  0.757930  1
  O  O65  1  0.914553  0.830367  0.777842  1
  O  O66  1  0.085447  0.330367  0.722158  1
  O  O67  1  0.150782  0.649768  0.742070  1
  O  O68  1  0.332821  0.461769  0.878715  1
  O  O69  1  0.464853  0.678198  0.970282  1
