# generated using pymatgen
data_Sr5Fe3F19
_symmetry_space_group_name_H-M   'P 1'
_cell_length_a   8.85572265
_cell_length_b   9.81258312
_cell_length_c   10.72573523
_cell_angle_alpha   83.79976684
_cell_angle_beta   112.80442565
_cell_angle_gamma   106.33104123
_symmetry_Int_Tables_number   1
_chemical_formula_structural   Sr5Fe3F19
_chemical_formula_sum   'Sr10 Fe6 F38'
_cell_volume   824.51921468
_cell_formula_units_Z   2
loop_
 _symmetry_equiv_pos_site_id
 _symmetry_equiv_pos_as_xyz
  1  'x, y, z'
loop_
 _atom_site_type_symbol
 _atom_site_label
 _atom_site_symmetry_multiplicity
 _atom_site_fract_x
 _atom_site_fract_y
 _atom_site_fract_z
 _atom_site_occupancy
  Sr  Sr0  1  0.949953  0.300703  0.870275  1
  Sr  Sr1  1  0.391246  0.729743  0.927928  1
  Sr  Sr2  1  0.330497  0.536606  0.530293  1
  Sr  Sr3  1  0.189852  0.144991  0.330787  1
  Sr  Sr4  1  0.360626  0.139648  0.724116  1
  Sr  Sr5  1  0.480173  0.831658  0.305384  1
  Sr  Sr6  1  0.845748  0.826185  0.679668  1
  Sr  Sr7  1  0.681568  0.431591  0.460576  1
  Sr  Sr8  1  0.640227  0.234736  0.134916  1
  Sr  Sr9  1  0.921881  0.641453  0.162132  1
  Fe  Fe10  1  0.228854  0.978428  0.013954  1
  Fe  Fe11  1  0.134776  0.782889  0.496714  1
  Fe  Fe12  1  0.782919  0.958800  0.942241  1
  Fe  Fe13  1  0.299876  0.467882  0.167234  1
  Fe  Fe14  1  0.659031  0.488305  0.839977  1
  Fe  Fe15  1  0.901378  0.164687  0.495521  1
  F  F16  1  0.931994  0.720728  0.536555  1
  F  F17  1  0.186460  0.901175  0.835158  1
  F  F18  1  0.067071  0.595347  0.419058  1
  F  F19  1  0.256167  0.699654  0.673731  1
  F  F20  1  0.219883  0.491987  0.967238  1
  F  F21  1  0.033282  0.086723  0.663228  1
  F  F22  1  0.293998  0.009383  0.211082  1
  F  F23  1  0.216801  0.781139  0.063595  1
  F  F24  1  0.089550  0.324429  0.135535  1
  F  F25  1  0.349122  0.808742  0.469743  1
  F  F26  1  0.345972  0.155911  0.949724  1
  F  F27  1  0.218074  0.595085  0.244073  1
  F  F28  1  0.415392  0.407845  0.740251  1
  F  F29  1  0.539363  0.943971  0.844072  1
  F  F30  1  0.619263  0.671626  0.770523  1
  F  F31  1  0.189844  0.980932  0.536727  1
  F  F32  1  0.753243  0.486642  0.701762  1
  F  F33  1  0.459722  0.228777  0.541939  1
  F  F34  1  0.589338  0.659801  0.487407  1
  F  F35  1  0.367561  0.409277  0.361161  1
  F  F36  1  0.753154  0.964294  0.476510  1
  F  F37  1  0.419657  0.330468  0.171864  1
  F  F38  1  0.488422  0.634579  0.179002  1
  F  F39  1  0.657119  0.284287  0.871106  1
  F  F40  1  0.485733  0.968868  0.094662  1
  F  F41  1  0.715422  0.805058  0.054079  1
  F  F42  1  0.676829  0.198829  0.385856  1
  F  F43  1  0.921842  0.837774  0.932111  1
  F  F44  1  0.898569  0.522853  0.959912  1
  F  F45  1  0.793096  0.046747  0.775023  1
  F  F46  1  0.031518  0.849654  0.309209  1
  F  F47  1  0.619778  0.499114  0.001209  1
  F  F48  1  0.776711  0.448537  0.268079  1
  F  F49  1  0.906779  0.311366  0.614061  1
  F  F50  1  0.063613  0.086107  0.998443  1
  F  F51  1  0.806953  0.112636  0.044075  1
  F  F52  1  0.894176  0.132948  0.315133  1
  F  F53  1  0.132426  0.280302  0.503688  1
