# generated using pymatgen
data_YScO2
_symmetry_space_group_name_H-M   'P 1'
_cell_length_a   6.47201042
_cell_length_b   6.47201042
_cell_length_c   6.47201042
_cell_angle_alpha   32.17218346
_cell_angle_beta   32.17218346
_cell_angle_gamma   32.17218346
_symmetry_Int_Tables_number   1
_chemical_formula_structural   YScO2
_chemical_formula_sum   'Y1 Sc1 O2'
_cell_volume   68.30819829
_cell_formula_units_Z   1
loop_
 _symmetry_equiv_pos_site_id
 _symmetry_equiv_pos_as_xyz
  1  'x, y, z'
loop_
 _atom_site_type_symbol
 _atom_site_label
 _atom_site_symmetry_multiplicity
 _atom_site_fract_x
 _atom_site_fract_y
 _atom_site_fract_z
 _atom_site_occupancy
  Y  Y0  1  0.500000  0.500000  0.500000  1
  Sc  Sc1  1  0.000000  0.000000  0.000000  1
  O  O2  1  0.890021  0.890021  0.890021  1
  O  O3  1  0.109979  0.109979  0.109979  1
