# generated using pymatgen
data_Mg2Cu2P2(H4O5)3
_symmetry_space_group_name_H-M   'P 1'
_cell_length_a   11.62864587
_cell_length_b   11.62864587
_cell_length_c   10.59216748
_cell_angle_alpha   79.99378136
_cell_angle_beta   100.00621864
_cell_angle_gamma   154.95352504
_symmetry_Int_Tables_number   1
_chemical_formula_structural   Mg2Cu2P2(H4O5)3
_chemical_formula_sum   'Mg4 Cu4 P4 H24 O30'
_cell_volume   596.69914359
_cell_formula_units_Z   2
loop_
 _symmetry_equiv_pos_site_id
 _symmetry_equiv_pos_as_xyz
  1  'x, y, z'
loop_
 _atom_site_type_symbol
 _atom_site_label
 _atom_site_symmetry_multiplicity
 _atom_site_fract_x
 _atom_site_fract_y
 _atom_site_fract_z
 _atom_site_occupancy
  Mg  Mg0  1  0.047712  0.282698  0.034215  1
  Mg  Mg1  1  0.717302  0.952288  0.534215  1
  Mg  Mg2  1  0.279666  0.036750  0.464833  1
  Mg  Mg3  1  0.963250  0.720334  0.964833  1
  Cu  Cu4  1  0.901994  0.389887  0.132024  1
  Cu  Cu5  1  0.392121  0.894535  0.367113  1
  Cu  Cu6  1  0.610113  0.098006  0.632024  1
  Cu  Cu7  1  0.105465  0.607879  0.867113  1
  P  P8  1  0.524105  0.826457  0.228272  1
  P  P9  1  0.173543  0.475895  0.728272  1
  P  P10  1  0.827671  0.515739  0.271515  1
  P  P11  1  0.484261  0.172329  0.771515  1
  H  H12  1  0.441966  0.475786  0.143356  1
  H  H13  1  0.773318  0.846146  0.232283  1
  H  H14  1  0.524214  0.558034  0.643356  1
  H  H15  1  0.965194  0.141603  0.332443  1
  H  H16  1  0.153854  0.226682  0.732283  1
  H  H17  1  0.858397  0.034806  0.832443  1
  H  H18  1  0.206409  0.402997  0.412345  1
  H  H19  1  0.597003  0.793591  0.912345  1
  H  H20  1  0.331878  0.871596  0.069865  1
  H  H21  1  0.867054  0.324385  0.429960  1
  H  H22  1  0.128404  0.668122  0.569865  1
  H  H23  1  0.675615  0.132946  0.929960  1
  H  H24  1  0.407567  0.202754  0.083876  1
  H  H25  1  0.797246  0.592433  0.583876  1
  H  H26  1  0.145520  0.959196  0.164807  1
  H  H27  1  0.851576  0.776881  0.269859  1
  H  H28  1  0.040804  0.854480  0.664807  1
  H  H29  1  0.481457  0.438650  0.358854  1
  H  H30  1  0.224820  0.214626  0.069849  1
  H  H31  1  0.223119  0.148424  0.769859  1
  H  H32  1  0.220817  0.221693  0.432964  1
  H  H33  1  0.561350  0.518543  0.858854  1
  H  H34  1  0.785374  0.775180  0.569849  1
  H  H35  1  0.778307  0.779183  0.932964  1
  O  O36  1  0.271668  0.334992  0.088995  1
  O  O37  1  0.665008  0.728332  0.588995  1
  O  O38  1  0.042624  0.201827  0.422492  1
  O  O39  1  0.785944  0.006378  0.189745  1
  O  O40  1  0.798173  0.957376  0.922492  1
  O  O41  1  0.464118  0.726003  0.370010  1
  O  O42  1  0.993622  0.214056  0.689745  1
  O  O43  1  0.280052  0.591589  0.138847  1
  O  O44  1  0.273997  0.535882  0.870010  1
  O  O45  1  0.408411  0.719948  0.638847  1
  O  O46  1  0.580592  0.016137  0.219596  1
  O  O47  1  0.729785  0.151216  0.478242  1
  O  O48  1  0.983863  0.419408  0.719596  1
  O  O49  1  0.156453  0.727310  0.022197  1
  O  O50  1  0.848784  0.270215  0.978242  1
  O  O51  1  0.018004  0.571983  0.282420  1
  O  O52  1  0.272690  0.843547  0.522197  1
  O  O53  1  0.428017  0.981996  0.782420  1
  O  O54  1  0.589492  0.269418  0.358503  1
  O  O55  1  0.732405  0.457909  0.129212  1
  O  O56  1  0.730582  0.410508  0.858503  1
  O  O57  1  0.005095  0.776619  0.309834  1
  O  O58  1  0.542091  0.267595  0.629212  1
  O  O59  1  0.206709  0.038520  0.075295  1
  O  O60  1  0.223381  0.994905  0.809834  1
  O  O61  1  0.961480  0.793291  0.575295  1
  O  O62  1  0.341910  0.269325  0.414410  1
  O  O63  1  0.702835  0.701100  0.253311  1
  O  O64  1  0.730675  0.658090  0.914410  1
  O  O65  1  0.298900  0.297165  0.753311  1
