# generated using pymatgen
data_Fe5Co(PO4)6
_symmetry_space_group_name_H-M   'P 1'
_cell_length_a   8.36496954
_cell_length_b   8.36496954
_cell_length_c   8.36496954
_cell_angle_alpha   61.88263338
_cell_angle_beta   61.88263338
_cell_angle_gamma   61.88263338
_symmetry_Int_Tables_number   1
_chemical_formula_structural   Fe5Co(PO4)6
_chemical_formula_sum   'Fe5 Co1 P6 O24'
_cell_volume   431.32686370
_cell_formula_units_Z   1
loop_
 _symmetry_equiv_pos_site_id
 _symmetry_equiv_pos_as_xyz
  1  'x, y, z'
loop_
 _atom_site_type_symbol
 _atom_site_label
 _atom_site_symmetry_multiplicity
 _atom_site_fract_x
 _atom_site_fract_y
 _atom_site_fract_z
 _atom_site_occupancy
  Fe  Fe0  1  0.998469  0.998469  0.998469  1
  Fe  Fe1  1  0.646767  0.646767  0.646767  1
  Fe  Fe2  1  0.500945  0.500945  0.500945  1
  Fe  Fe3  1  0.854738  0.854738  0.854738  1
  Fe  Fe4  1  0.354082  0.354082  0.354082  1
  Co  Co5  1  0.140007  0.140007  0.140007  1
  P  P6  1  0.956273  0.250138  0.538242  1
  P  P7  1  0.538242  0.956273  0.250138  1
  P  P8  1  0.250138  0.538242  0.956273  1
  P  P9  1  0.754407  0.451150  0.049930  1
  P  P10  1  0.451150  0.049930  0.754407  1
  P  P11  1  0.049930  0.754407  0.451150  1
  O  O12  1  0.501690  0.107281  0.326304  1
  O  O13  1  0.326304  0.501690  0.107281  1
  O  O14  1  0.107281  0.326304  0.501690  1
  O  O15  1  0.943423  0.094256  0.744086  1
  O  O16  1  0.992502  0.183461  0.380851  1
  O  O17  1  0.750589  0.404448  0.559843  1
  O  O18  1  0.744086  0.943423  0.094256  1
  O  O19  1  0.559843  0.750589  0.404448  1
  O  O20  1  0.825283  0.607864  0.007193  1
  O  O21  1  0.404448  0.559843  0.750589  1
  O  O22  1  0.913176  0.247480  0.062668  1
  O  O23  1  0.607864  0.007193  0.825283  1
  O  O24  1  0.380851  0.992502  0.183461  1
  O  O25  1  0.094256  0.744086  0.943423  1
  O  O26  1  0.598864  0.434779  0.252301  1
  O  O27  1  0.183461  0.380851  0.992502  1
  O  O28  1  0.434779  0.252301  0.598864  1
  O  O29  1  0.247480  0.062668  0.913176  1
  O  O30  1  0.252301  0.598864  0.434779  1
  O  O31  1  0.007193  0.825283  0.607864  1
  O  O32  1  0.062668  0.913176  0.247480  1
  O  O33  1  0.892403  0.685936  0.488174  1
  O  O34  1  0.685936  0.488174  0.892403  1
  O  O35  1  0.488174  0.892403  0.685936  1
