# generated using pymatgen
data_LiVSiO4
_symmetry_space_group_name_H-M   'P 1'
_cell_length_a   7.32134990
_cell_length_b   7.32134990
_cell_length_c   7.32134990
_cell_angle_alpha   90.00000000
_cell_angle_beta   90.00000000
_cell_angle_gamma   90.00000000
_symmetry_Int_Tables_number   1
_chemical_formula_structural   LiVSiO4
_chemical_formula_sum   'Li4 V4 Si4 O16'
_cell_volume   392.44020013
_cell_formula_units_Z   4
loop_
 _symmetry_equiv_pos_site_id
 _symmetry_equiv_pos_as_xyz
  1  'x, y, z'
loop_
 _atom_site_type_symbol
 _atom_site_label
 _atom_site_symmetry_multiplicity
 _atom_site_fract_x
 _atom_site_fract_y
 _atom_site_fract_z
 _atom_site_occupancy
  Li  Li0  1  0.247968  0.752032  0.252032  1
  Li  Li1  1  0.252032  0.247968  0.752032  1
  Li  Li2  1  0.747968  0.747968  0.747968  1
  Li  Li3  1  0.752032  0.252032  0.247968  1
  V  V4  1  0.194448  0.694448  0.805552  1
  V  V5  1  0.305552  0.305552  0.305552  1
  V  V6  1  0.694448  0.805552  0.194448  1
  V  V7  1  0.805552  0.194448  0.694448  1
  Si  Si8  1  0.030916  0.030916  0.030916  1
  Si  Si9  1  0.969084  0.530916  0.469084  1
  Si  Si10  1  0.469084  0.969084  0.530916  1
  Si  Si11  1  0.530916  0.469084  0.969084  1
  O  O12  1  0.974210  0.616064  0.678428  1
  O  O13  1  0.158043  0.158043  0.158043  1
  O  O14  1  0.178428  0.525790  0.383936  1
  O  O15  1  0.116064  0.821572  0.025790  1
  O  O16  1  0.383936  0.178428  0.525790  1
  O  O17  1  0.321572  0.474210  0.883936  1
  O  O18  1  0.341957  0.841957  0.658043  1
  O  O19  1  0.525790  0.383936  0.178428  1
  O  O20  1  0.474210  0.883936  0.321572  1
  O  O21  1  0.658043  0.341957  0.841957  1
  O  O22  1  0.678428  0.974210  0.616064  1
  O  O23  1  0.616064  0.678428  0.974210  1
  O  O24  1  0.883936  0.321572  0.474210  1
  O  O25  1  0.821572  0.025790  0.116064  1
  O  O26  1  0.841957  0.658043  0.341957  1
  O  O27  1  0.025790  0.116064  0.821572  1
