# generated using pymatgen
data_Y2TeO6
_symmetry_space_group_name_H-M   'P 1'
_cell_length_a   5.00482995
_cell_length_b   5.00482995
_cell_length_c   10.11392926
_cell_angle_alpha   90.00000000
_cell_angle_beta   90.00000000
_cell_angle_gamma   90.00000000
_symmetry_Int_Tables_number   1
_chemical_formula_structural   Y2TeO6
_chemical_formula_sum   'Y4 Te2 O12'
_cell_volume   253.33696466
_cell_formula_units_Z   2
loop_
 _symmetry_equiv_pos_site_id
 _symmetry_equiv_pos_as_xyz
  1  'x, y, z'
loop_
 _atom_site_type_symbol
 _atom_site_label
 _atom_site_symmetry_multiplicity
 _atom_site_fract_x
 _atom_site_fract_y
 _atom_site_fract_z
 _atom_site_occupancy
  Y  Y0  1  0.000000  0.000000  0.334589  1
  Y  Y1  1  0.000000  0.000000  0.665411  1
  Y  Y2  1  0.500000  0.500000  0.165411  1
  Y  Y3  1  0.500000  0.500000  0.834589  1
  Te  Te4  1  0.000000  0.000000  0.000000  1
  Te  Te5  1  0.500000  0.500000  0.500000  1
  O  O6  1  0.182635  0.182635  0.145593  1
  O  O7  1  0.182635  0.182635  0.854407  1
  O  O8  1  0.222815  0.222815  0.500000  1
  O  O9  1  0.277185  0.722815  0.000000  1
  O  O10  1  0.317365  0.682635  0.354407  1
  O  O11  1  0.317365  0.682635  0.645593  1
  O  O12  1  0.682635  0.317365  0.354407  1
  O  O13  1  0.682635  0.317365  0.645593  1
  O  O14  1  0.722815  0.277185  0.000000  1
  O  O15  1  0.777185  0.777185  0.500000  1
  O  O16  1  0.817365  0.817365  0.145593  1
  O  O17  1  0.817365  0.817365  0.854407  1
