# generated using pymatgen
data_Na2Ti3Fe(PO4)6
_symmetry_space_group_name_H-M   'P 1'
_cell_length_a   8.93107446
_cell_length_b   8.93107446
_cell_length_c   8.93107446
_cell_angle_alpha   56.97524373
_cell_angle_beta   56.97524373
_cell_angle_gamma   56.97524373
_symmetry_Int_Tables_number   1
_chemical_formula_structural   Na2Ti3Fe(PO4)6
_chemical_formula_sum   'Na2 Ti3 Fe1 P6 O24'
_cell_volume   468.59177090
_cell_formula_units_Z   1
loop_
 _symmetry_equiv_pos_site_id
 _symmetry_equiv_pos_as_xyz
  1  'x, y, z'
loop_
 _atom_site_type_symbol
 _atom_site_label
 _atom_site_symmetry_multiplicity
 _atom_site_fract_x
 _atom_site_fract_y
 _atom_site_fract_z
 _atom_site_occupancy
  Na  Na0  1  0.999833  0.999833  0.999833  1
  Na  Na1  1  0.502781  0.502781  0.502781  1
  Ti  Ti2  1  0.854951  0.854951  0.854951  1
  Ti  Ti3  1  0.353151  0.353151  0.353151  1
  Ti  Ti4  1  0.145542  0.145542  0.145542  1
  Fe  Fe5  1  0.647058  0.647058  0.647058  1
  P  P6  1  0.250576  0.536311  0.963360  1
  P  P7  1  0.033397  0.753131  0.462141  1
  P  P8  1  0.462141  0.033397  0.753131  1
  P  P9  1  0.536311  0.963360  0.250576  1
  P  P10  1  0.963360  0.250576  0.536311  1
  P  P11  1  0.753131  0.462141  0.033397  1
  O  O12  1  0.195821  0.376704  0.005214  1
  O  O13  1  0.095813  0.730993  0.905637  1
  O  O14  1  0.266645  0.100550  0.905228  1
  O  O15  1  0.998589  0.800190  0.624072  1
  O  O16  1  0.147418  0.255657  0.509876  1
  O  O17  1  0.446023  0.521573  0.801672  1
  O  O18  1  0.198419  0.558152  0.464866  1
  O  O19  1  0.477790  0.850851  0.760016  1
  O  O20  1  0.624072  0.998589  0.800190  1
  O  O21  1  0.100550  0.905228  0.266645  1
  O  O22  1  0.760016  0.477790  0.850851  1
  O  O23  1  0.464866  0.198419  0.558152  1
  O  O24  1  0.521573  0.801672  0.446023  1
  O  O25  1  0.255657  0.509876  0.147418  1
  O  O26  1  0.905637  0.095813  0.730993  1
  O  O27  1  0.376704  0.005214  0.195821  1
  O  O28  1  0.509876  0.147418  0.255657  1
  O  O29  1  0.801672  0.446023  0.521573  1
  O  O30  1  0.558152  0.464866  0.198419  1
  O  O31  1  0.850851  0.760016  0.477790  1
  O  O32  1  0.005214  0.195821  0.376704  1
  O  O33  1  0.730993  0.905637  0.095813  1
  O  O34  1  0.905228  0.266645  0.100550  1
  O  O35  1  0.800190  0.624072  0.998589  1
