# generated using pymatgen
data_Fe4OF7
_symmetry_space_group_name_H-M   'P 1'
_cell_length_a   5.80451357
_cell_length_b   4.80941002
_cell_length_c   10.84695182
_cell_angle_alpha   90.00000000
_cell_angle_beta   97.68652094
_cell_angle_gamma   90.00000000
_symmetry_Int_Tables_number   1
_chemical_formula_structural   Fe4OF7
_chemical_formula_sum   'Fe8 O2 F14'
_cell_volume   300.08579615
_cell_formula_units_Z   2
loop_
 _symmetry_equiv_pos_site_id
 _symmetry_equiv_pos_as_xyz
  1  'x, y, z'
loop_
 _atom_site_type_symbol
 _atom_site_label
 _atom_site_symmetry_multiplicity
 _atom_site_fract_x
 _atom_site_fract_y
 _atom_site_fract_z
 _atom_site_occupancy
  Fe  Fe0  1  0.248557  0.504999  0.497013  1
  Fe  Fe1  1  0.756654  0.492531  0.010557  1
  Fe  Fe2  1  0.521001  0.482055  0.243267  1
  Fe  Fe3  1  0.006513  0.511157  0.753391  1
  Fe  Fe4  1  0.478999  0.982055  0.756733  1
  Fe  Fe5  1  0.751443  0.004999  0.502987  1
  Fe  Fe6  1  0.993487  0.011157  0.246609  1
  Fe  Fe7  1  0.243346  0.992531  0.989443  1
  O  O8  1  0.237047  0.805990  0.816698  1
  O  O9  1  0.762953  0.305990  0.183302  1
  F  F10  1  0.718532  0.792813  0.328526  1
  F  F11  1  0.472045  0.805410  0.582072  1
  F  F12  1  0.979805  0.800252  0.074738  1
  F  F13  1  0.722853  0.710824  0.827776  1
  F  F14  1  0.964226  0.689875  0.569388  1
  F  F15  1  0.470791  0.707768  0.084368  1
  F  F16  1  0.241207  0.696323  0.318179  1
  F  F17  1  0.020195  0.300252  0.925262  1
  F  F18  1  0.527955  0.305410  0.417928  1
  F  F19  1  0.281468  0.292813  0.671474  1
  F  F20  1  0.277147  0.210824  0.172224  1
  F  F21  1  0.529209  0.207768  0.915632  1
  F  F22  1  0.758793  0.196323  0.681821  1
  F  F23  1  0.035774  0.189875  0.430612  1
