# generated using pymatgen
data_Na2LiCuPCO7
_symmetry_space_group_name_H-M   'P 1'
_cell_length_a   5.20636456
_cell_length_b   6.67556005
_cell_length_c   8.81355951
_cell_angle_alpha   90.00000000
_cell_angle_beta   92.74321174
_cell_angle_gamma   90.00000000
_symmetry_Int_Tables_number   1
_chemical_formula_structural   Na2LiCuPCO7
_chemical_formula_sum   'Na4 Li2 Cu2 P2 C2 O14'
_cell_volume   305.96775777
_cell_formula_units_Z   2
loop_
 _symmetry_equiv_pos_site_id
 _symmetry_equiv_pos_as_xyz
  1  'x, y, z'
loop_
 _atom_site_type_symbol
 _atom_site_label
 _atom_site_symmetry_multiplicity
 _atom_site_fract_x
 _atom_site_fract_y
 _atom_site_fract_z
 _atom_site_occupancy
  Na  Na0  1  0.736010  0.004419  0.260064  1
  Na  Na1  1  0.736010  0.495581  0.260064  1
  Na  Na2  1  0.263990  0.504419  0.739936  1
  Na  Na3  1  0.263990  0.995581  0.739936  1
  Li  Li4  1  0.160971  0.750000  0.121449  1
  Li  Li5  1  0.839029  0.250000  0.878551  1
  Cu  Cu6  1  0.220332  0.250000  0.352965  1
  Cu  Cu7  1  0.779668  0.750000  0.647035  1
  P  P8  1  0.306850  0.750000  0.414434  1
  P  P9  1  0.693150  0.250000  0.585566  1
  C  C10  1  0.267694  0.250000  0.054213  1
  C  C11  1  0.732306  0.750000  0.945787  1
  O  O12  1  0.784395  0.750000  0.091302  1
  O  O13  1  0.069491  0.250000  0.141717  1
  O  O14  1  0.498153  0.250000  0.111637  1
  O  O15  1  0.232745  0.933299  0.310554  1
  O  O16  1  0.232745  0.566701  0.310554  1
  O  O17  1  0.825290  0.250000  0.434101  1
  O  O18  1  0.607603  0.750000  0.445271  1
  O  O19  1  0.392397  0.250000  0.554729  1
  O  O20  1  0.174710  0.750000  0.565899  1
  O  O21  1  0.767255  0.433299  0.689446  1
  O  O22  1  0.767255  0.066701  0.689446  1
  O  O23  1  0.501847  0.750000  0.888363  1
  O  O24  1  0.930509  0.750000  0.858283  1
  O  O25  1  0.215605  0.250000  0.908698  1
