# generated using pymatgen
data_Ca2Al4Si8H14O31
_symmetry_space_group_name_H-M   'P 1'
_cell_length_a   8.98056853
_cell_length_b   9.29055919
_cell_length_c   9.84376908
_cell_angle_alpha   102.13491233
_cell_angle_beta   90.39377841
_cell_angle_gamma   98.02999942
_symmetry_Int_Tables_number   1
_chemical_formula_structural   Ca2Al4Si8H14O31
_chemical_formula_sum   'Ca2 Al4 Si8 H14 O31'
_cell_volume   794.52788319
_cell_formula_units_Z   1
loop_
 _symmetry_equiv_pos_site_id
 _symmetry_equiv_pos_as_xyz
  1  'x, y, z'
loop_
 _atom_site_type_symbol
 _atom_site_label
 _atom_site_symmetry_multiplicity
 _atom_site_fract_x
 _atom_site_fract_y
 _atom_site_fract_z
 _atom_site_occupancy
  Ca  Ca0  1  0.860650  0.936982  0.781622  1
  Ca  Ca1  1  0.133201  0.884916  0.142046  1
  Al  Al2  1  0.477680  0.728586  0.894730  1
  Al  Al3  1  0.801035  0.677808  0.501806  1
  Al  Al4  1  0.545359  0.269275  0.177837  1
  Al  Al5  1  0.388077  0.274977  0.523884  1
  Si  Si6  1  0.234323  0.035366  0.518578  1
  Si  Si7  1  0.609282  0.085539  0.329029  1
  Si  Si8  1  0.127385  0.438560  0.371227  1
  Si  Si9  1  0.341426  0.402406  0.125056  1
  Si  Si10  1  0.589874  0.424377  0.807475  1
  Si  Si11  1  0.868920  0.512202  0.655022  1
  Si  Si12  1  0.364202  0.927900  0.801635  1
  Si  Si13  1  0.776256  0.896190  0.391923  1
  H  H14  1  0.867135  0.906287  0.038060  1
  H  H15  1  0.520343  0.825084  0.234874  1
  H  H16  1  0.348745  0.835734  0.558242  1
  H  H17  1  0.209445  0.445885  0.580192  1
  H  H18  1  0.564904  0.299768  0.879461  1
  H  H19  1  0.076970  0.579677  0.436530  1
  H  H20  1  0.302406  0.446504  0.995494  1
  H  H21  1  0.900942  0.255988  0.131316  1
  H  H22  1  0.304571  0.135104  0.938999  1
  H  H23  1  0.911896  0.295580  0.397656  1
  H  H24  1  0.024129  0.346772  0.691439  1
  H  H25  1  0.766852  0.464977  0.105382  1
  H  H26  1  0.927867  0.060143  0.298980  1
  H  H27  1  0.151051  0.142325  0.776836  1
  O  O28  1  0.208013  0.456413  0.229960  1
  O  O29  1  0.328572  0.930618  0.615804  1
  O  O30  1  0.572763  0.893675  0.316056  1
  O  O31  1  0.756652  0.867666  0.554263  1
  O  O32  1  0.552265  0.997242  0.827513  1
  O  O33  1  0.560164  0.577784  0.909462  1
  O  O34  1  0.904536  0.694491  0.671044  1
  O  O35  1  0.361196  0.746051  0.755067  1
  O  O36  1  0.912169  0.950871  0.285752  1
  O  O37  1  0.316875  0.916290  0.982323  1
  O  O38  1  0.358124  0.785250  0.037942  1
  O  O39  1  0.795025  0.713687  0.333293  1
  O  O40  1  0.256602  0.409967  0.488755  1
  O  O41  1  0.507067  0.458944  0.204365  1
  O  O42  1  0.960256  0.916333  0.987458  1
  O  O43  1  0.483304  0.386250  0.667171  1
  O  O44  1  0.780059  0.481638  0.501429  1
  O  O45  1  0.028028  0.437493  0.653819  1
  O  O46  1  0.737486  0.357835  0.101126  1
  O  O47  1  0.866063  0.286237  0.047025  1
  O  O48  1  0.060940  0.031975  0.597851  1
  O  O49  1  0.497070  0.214501  0.375595  1
  O  O50  1  0.994538  0.293586  0.331586  1
  O  O51  1  0.352839  0.221883  0.098981  1
  O  O52  1  0.638849  0.113425  0.174780  1
  O  O53  1  0.217536  0.933349  0.366174  1
  O  O54  1  0.281509  0.083051  0.837948  1
  O  O55  1  0.743551  0.090208  0.440665  1
  O  O56  1  0.770599  0.446149  0.772078  1
  O  O57  1  0.625375  0.881326  0.878850  1
  O  O58  1  0.058250  0.156298  0.721332  1
