# generated using pymatgen
data_Li3MnV(PO4)3
_symmetry_space_group_name_H-M   'P 1'
_cell_length_a   8.65192486
_cell_length_b   8.65192486
_cell_length_c   6.33491541
_cell_angle_alpha   74.10233393
_cell_angle_beta   105.89766607
_cell_angle_gamma   84.80665319
_symmetry_Int_Tables_number   1
_chemical_formula_structural   Li3MnV(PO4)3
_chemical_formula_sum   'Li6 Mn2 V2 P6 O24'
_cell_volume   431.54207485
_cell_formula_units_Z   2
loop_
 _symmetry_equiv_pos_site_id
 _symmetry_equiv_pos_as_xyz
  1  'x, y, z'
loop_
 _atom_site_type_symbol
 _atom_site_label
 _atom_site_symmetry_multiplicity
 _atom_site_fract_x
 _atom_site_fract_y
 _atom_site_fract_z
 _atom_site_occupancy
  Li  Li0  1  0.998310  0.998310  0.500000  1
  Li  Li1  1  0.710668  0.710668  0.000000  1
  Li  Li2  1  0.500525  0.497982  0.752980  1
  Li  Li3  1  0.497982  0.500525  0.247020  1
  Li  Li4  1  0.288961  0.288961  0.500000  1
  Li  Li5  1  0.003915  0.003915  0.000000  1
  Mn  Mn6  1  0.625305  0.057707  0.119939  1
  Mn  Mn7  1  0.057707  0.625305  0.880061  1
  V  V8  1  0.943006  0.377708  0.608414  1
  V  V9  1  0.377708  0.943006  0.391586  1
  P  P10  1  0.712997  0.712997  0.500000  1
  P  P11  1  0.865645  0.334684  0.113903  1
  P  P12  1  0.660827  0.138591  0.614454  1
  P  P13  1  0.334684  0.865645  0.886097  1
  P  P14  1  0.138591  0.660827  0.385546  1
  P  P15  1  0.286113  0.286113  0.000000  1
  O  O16  1  0.989638  0.344344  0.339001  1
  O  O17  1  0.947636  0.390091  0.920236  1
  O  O18  1  0.736886  0.828052  0.278109  1
  O  O19  1  0.828052  0.736886  0.721891  1
  O  O20  1  0.842574  0.158043  0.637894  1
  O  O21  1  0.736568  0.538982  0.477226  1
  O  O22  1  0.854532  0.149670  0.156036  1
  O  O23  1  0.704335  0.451304  0.045235  1
  O  O24  1  0.599271  0.047707  0.427087  1
  O  O25  1  0.663537  0.014976  0.846880  1
  O  O26  1  0.538982  0.736568  0.522774  1
  O  O27  1  0.542609  0.298455  0.542586  1
  O  O28  1  0.451304  0.704335  0.954765  1
  O  O29  1  0.463022  0.261481  0.982576  1
  O  O30  1  0.344344  0.989638  0.660999  1
  O  O31  1  0.390091  0.947636  0.079764  1
  O  O32  1  0.298455  0.542609  0.457414  1
  O  O33  1  0.158043  0.842574  0.362106  1
  O  O34  1  0.261481  0.463022  0.017424  1
  O  O35  1  0.149670  0.854532  0.843964  1
  O  O36  1  0.174018  0.259326  0.780881  1
  O  O37  1  0.259326  0.174018  0.219119  1
  O  O38  1  0.047707  0.599271  0.572913  1
  O  O39  1  0.014976  0.663537  0.153120  1
