# generated using pymatgen
data_Li3V4NiO12
_symmetry_space_group_name_H-M   'P 1'
_cell_length_a   5.01575758
_cell_length_b   5.38967322
_cell_length_c   7.35469339
_cell_angle_alpha   95.39233902
_cell_angle_beta   90.10613413
_cell_angle_gamma   90.27842038
_symmetry_Int_Tables_number   1
_chemical_formula_structural   Li3V4NiO12
_chemical_formula_sum   'Li3 V4 Ni1 O12'
_cell_volume   197.93884439
_cell_formula_units_Z   1
loop_
 _symmetry_equiv_pos_site_id
 _symmetry_equiv_pos_as_xyz
  1  'x, y, z'
loop_
 _atom_site_type_symbol
 _atom_site_label
 _atom_site_symmetry_multiplicity
 _atom_site_fract_x
 _atom_site_fract_y
 _atom_site_fract_z
 _atom_site_occupancy
  Li  Li0  1  0.499087  0.073407  0.213677  1
  Li  Li1  1  0.001909  0.573043  0.218155  1
  Li  Li2  1  0.496371  0.069498  0.711872  1
  V  V3  1  0.001071  0.018671  0.998990  1
  V  V4  1  0.491496  0.498711  0.491377  1
  V  V5  1  0.993596  0.003573  0.487292  1
  V  V6  1  0.502479  0.513738  0.999045  1
  Ni  Ni7  1  0.002467  0.588327  0.703383  1
  O  O8  1  0.304633  0.773635  0.586856  1
  O  O9  1  0.117375  0.961450  0.264404  1
  O  O10  1  0.309075  0.149568  0.959955  1
  O  O11  1  0.181451  0.270370  0.584272  1
  O  O12  1  0.810397  0.271540  0.079133  1
  O  O13  1  0.385673  0.454217  0.260462  1
  O  O14  1  0.631399  0.457141  0.774586  1
  O  O15  1  0.189319  0.642638  0.955153  1
  O  O16  1  0.824838  0.662754  0.466633  1
  O  O17  1  0.689821  0.770861  0.080901  1
  O  O18  1  0.876978  0.954507  0.775223  1
  O  O19  1  0.690567  0.151549  0.459034  1
