# generated using pymatgen
data_Li4V3Cr3(SbO8)2
_symmetry_space_group_name_H-M   'P 1'
_cell_length_a   5.99843122
_cell_length_b   5.99843122
_cell_length_c   9.69718897
_cell_angle_alpha   89.51568607
_cell_angle_beta   90.48431393
_cell_angle_gamma   120.09198515
_symmetry_Int_Tables_number   1
_chemical_formula_structural   Li4V3Cr3(SbO8)2
_chemical_formula_sum   'Li4 V3 Cr3 Sb2 O16'
_cell_volume   301.87551796
_cell_formula_units_Z   1
loop_
 _symmetry_equiv_pos_site_id
 _symmetry_equiv_pos_as_xyz
  1  'x, y, z'
loop_
 _atom_site_type_symbol
 _atom_site_label
 _atom_site_symmetry_multiplicity
 _atom_site_fract_x
 _atom_site_fract_y
 _atom_site_fract_z
 _atom_site_occupancy
  Li  Li0  1  0.332843  0.667157  0.096507  1
  Li  Li1  1  0.999412  0.000588  0.009582  1
  Li  Li2  1  0.999307  0.000693  0.509307  1
  Li  Li3  1  0.666933  0.333067  0.599687  1
  V  V4  1  0.170128  0.829872  0.783425  1
  V  V5  1  0.342877  0.175966  0.284729  1
  V  V6  1  0.824034  0.657123  0.284729  1
  Cr  Cr7  1  0.169694  0.341021  0.786395  1
  Cr  Cr8  1  0.658979  0.830306  0.786395  1
  Cr  Cr9  1  0.830394  0.169606  0.286619  1
  Sb  Sb10  1  0.333115  0.666885  0.512275  1
  Sb  Sb11  1  0.666803  0.333197  0.010824  1
  O  O12  1  0.163624  0.334641  0.406181  1
  O  O13  1  0.480794  0.519206  0.657879  1
  O  O14  1  0.332562  0.667438  0.890974  1
  O  O15  1  0.999160  0.000840  0.695749  1
  O  O16  1  0.000185  0.999815  0.196190  1
  O  O17  1  0.665359  0.836376  0.406181  1
  O  O18  1  0.037531  0.516581  0.654703  1
  O  O19  1  0.483419  0.962469  0.654703  1
  O  O20  1  0.833847  0.166153  0.903906  1
  O  O21  1  0.165373  0.834627  0.408307  1
  O  O22  1  0.525478  0.037749  0.154895  1
  O  O23  1  0.962251  0.474522  0.154895  1
  O  O24  1  0.667821  0.332179  0.392901  1
  O  O25  1  0.330613  0.166490  0.905663  1
  O  O26  1  0.518211  0.481789  0.151690  1
  O  O27  1  0.833510  0.669387  0.905663  1
