# generated using pymatgen
data_H7C3N3O5
_symmetry_space_group_name_H-M   'P 1'
_cell_length_a   7.17913635
_cell_length_b   7.17913635
_cell_length_c   8.90995536
_cell_angle_alpha   67.48390987
_cell_angle_beta   112.51609013
_cell_angle_gamma   123.54876363
_symmetry_Int_Tables_number   1
_chemical_formula_structural   H7C3N3O5
_chemical_formula_sum   'H14 C6 N6 O10'
_cell_volume   344.68280200
_cell_formula_units_Z   2
loop_
 _symmetry_equiv_pos_site_id
 _symmetry_equiv_pos_as_xyz
  1  'x, y, z'
loop_
 _atom_site_type_symbol
 _atom_site_label
 _atom_site_symmetry_multiplicity
 _atom_site_fract_x
 _atom_site_fract_y
 _atom_site_fract_z
 _atom_site_occupancy
  H  H0  1  0.942632  0.942632  0.250000  1
  H  H1  1  0.057368  0.057368  0.750000  1
  H  H2  1  0.598134  0.348065  0.491563  1
  H  H3  1  0.348065  0.598134  0.008437  1
  H  H4  1  0.401866  0.651935  0.508437  1
  H  H5  1  0.651935  0.401866  0.991563  1
  H  H6  1  0.615329  0.985697  0.910115  1
  H  H7  1  0.985697  0.615329  0.589885  1
  H  H8  1  0.384671  0.014303  0.089885  1
  H  H9  1  0.014303  0.384671  0.410115  1
  H  H10  1  0.407176  0.930015  0.753019  1
  H  H11  1  0.930015  0.407176  0.746981  1
  H  H12  1  0.592824  0.069985  0.246981  1
  H  H13  1  0.069985  0.592824  0.253019  1
  C  C14  1  0.261638  0.115237  0.395501  1
  C  C15  1  0.115237  0.261638  0.104499  1
  C  C16  1  0.738362  0.884763  0.604499  1
  C  C17  1  0.884763  0.738362  0.895501  1
  C  C18  1  0.497012  0.497012  0.250000  1
  C  C19  1  0.502988  0.502988  0.750000  1
  N  N20  1  0.094319  0.094319  0.250000  1
  N  N21  1  0.905681  0.905681  0.750000  1
  N  N22  1  0.460373  0.319749  0.388636  1
  N  N23  1  0.319749  0.460373  0.111364  1
  N  N24  1  0.539627  0.680251  0.611364  1
  N  N25  1  0.680251  0.539627  0.888636  1
  O  O26  1  0.233525  0.958917  0.523111  1
  O  O27  1  0.958917  0.233525  0.976889  1
  O  O28  1  0.766475  0.041083  0.476889  1
  O  O29  1  0.041083  0.766475  0.023111  1
  O  O30  1  0.678871  0.678871  0.250000  1
  O  O31  1  0.321129  0.321129  0.750000  1
  O  O32  1  0.471100  0.862147  0.864824  1
  O  O33  1  0.862147  0.471100  0.635176  1
  O  O34  1  0.528900  0.137853  0.135176  1
  O  O35  1  0.137853  0.528900  0.364824  1
