# generated using pymatgen
data_Li9Mn12Cu3O32
_symmetry_space_group_name_H-M   'P 1'
_cell_length_a   8.29038341
_cell_length_b   8.29038341
_cell_length_c   8.29038341
_cell_angle_alpha   90.22472634
_cell_angle_beta   90.22472634
_cell_angle_gamma   90.22472634
_symmetry_Int_Tables_number   1
_chemical_formula_structural   Li9Mn12Cu3O32
_chemical_formula_sum   'Li9 Mn12 Cu3 O32'
_cell_volume   569.78865740
_cell_formula_units_Z   1
loop_
 _symmetry_equiv_pos_site_id
 _symmetry_equiv_pos_as_xyz
  1  'x, y, z'
loop_
 _atom_site_type_symbol
 _atom_site_label
 _atom_site_symmetry_multiplicity
 _atom_site_fract_x
 _atom_site_fract_y
 _atom_site_fract_z
 _atom_site_occupancy
  Li  Li0  1  0.995963  0.995963  0.995963  1
  Li  Li1  1  0.622895  0.877287  0.121818  1
  Li  Li2  1  0.753783  0.753783  0.753783  1
  Li  Li3  1  0.249061  0.747572  0.246328  1
  Li  Li4  1  0.121818  0.622895  0.877287  1
  Li  Li5  1  0.375167  0.375167  0.375167  1
  Li  Li6  1  0.246328  0.249061  0.747572  1
  Li  Li7  1  0.747572  0.246328  0.249061  1
  Li  Li8  1  0.877287  0.121818  0.622895  1
  Mn  Mn9  1  0.370851  0.878693  0.874152  1
  Mn  Mn10  1  0.122171  0.876579  0.623006  1
  Mn  Mn11  1  0.878693  0.874152  0.370851  1
  Mn  Mn12  1  0.375393  0.623892  0.621795  1
  Mn  Mn13  1  0.623892  0.621795  0.375393  1
  Mn  Mn14  1  0.876579  0.623006  0.122171  1
  Mn  Mn15  1  0.621794  0.375393  0.623892  1
  Mn  Mn16  1  0.874152  0.370851  0.878693  1
  Mn  Mn17  1  0.117967  0.375212  0.122753  1
  Mn  Mn18  1  0.623006  0.122171  0.876579  1
  Mn  Mn19  1  0.375212  0.122753  0.117967  1
  Mn  Mn20  1  0.122753  0.117967  0.375212  1
  Cu  Cu21  1  0.487313  0.508757  0.006543  1
  Cu  Cu22  1  0.006543  0.487313  0.508757  1
  Cu  Cu23  1  0.508757  0.006543  0.487313  1
  O  O24  1  0.601960  0.898746  0.871692  1
  O  O25  1  0.368779  0.894385  0.101720  1
  O  O26  1  0.111100  0.886706  0.384177  1
  O  O27  1  0.898746  0.871692  0.601960  1
  O  O28  1  0.140796  0.876543  0.849328  1
  O  O29  1  0.361626  0.863048  0.633665  1
  O  O30  1  0.646145  0.857948  0.383255  1
  O  O31  1  0.876543  0.849328  0.140796  1
  O  O32  1  0.383255  0.646145  0.857948  1
  O  O33  1  0.146361  0.637447  0.618032  1
  O  O34  1  0.863048  0.633665  0.361626  1
  O  O35  1  0.637447  0.618032  0.146361  1
  O  O36  1  0.397043  0.628255  0.393121  1
  O  O37  1  0.613442  0.613442  0.613442  1
  O  O38  1  0.871692  0.601960  0.898746  1
  O  O39  1  0.102254  0.601548  0.128209  1
  O  O40  1  0.393121  0.397043  0.628255  1
  O  O41  1  0.628255  0.393121  0.397043  1
  O  O42  1  0.886706  0.384177  0.111100  1
  O  O43  1  0.101720  0.368779  0.894385  1
  O  O44  1  0.857948  0.383255  0.646145  1
  O  O45  1  0.633665  0.361626  0.863048  1
  O  O46  1  0.349736  0.361429  0.123348  1
  O  O47  1  0.123348  0.349736  0.361429  1
  O  O48  1  0.618032  0.146361  0.637447  1
  O  O49  1  0.849328  0.140796  0.876543  1
  O  O50  1  0.137082  0.137082  0.137082  1
  O  O51  1  0.361429  0.123348  0.349736  1
  O  O52  1  0.601548  0.128209  0.102254  1
  O  O53  1  0.384177  0.111100  0.886706  1
  O  O54  1  0.128209  0.102254  0.601548  1
  O  O55  1  0.894385  0.101720  0.368779  1
