# generated using pymatgen
data_VOF2
_symmetry_space_group_name_H-M   'P 1'
_cell_length_a   5.17174510
_cell_length_b   5.19499855
_cell_length_c   9.35071735
_cell_angle_alpha   89.21604506
_cell_angle_beta   106.00113417
_cell_angle_gamma   119.18428859
_symmetry_Int_Tables_number   1
_chemical_formula_structural   VOF2
_chemical_formula_sum   'V4 O4 F8'
_cell_volume   208.64469699
_cell_formula_units_Z   4
loop_
 _symmetry_equiv_pos_site_id
 _symmetry_equiv_pos_as_xyz
  1  'x, y, z'
loop_
 _atom_site_type_symbol
 _atom_site_label
 _atom_site_symmetry_multiplicity
 _atom_site_fract_x
 _atom_site_fract_y
 _atom_site_fract_z
 _atom_site_occupancy
  V  V0  1  0.000000  0.000000  0.000000  1
  V  V1  1  0.554072  0.266059  0.750308  1
  V  V2  1  0.000000  0.500000  0.500000  1
  V  V3  1  0.445928  0.733941  0.249692  1
  O  O4  1  0.826550  0.208931  0.870775  1
  O  O5  1  0.255519  0.548595  0.372276  1
  O  O6  1  0.744481  0.451405  0.627724  1
  O  O7  1  0.173450  0.791069  0.129225  1
  F  F8  1  0.165746  0.277345  0.627464  1
  F  F9  1  0.358464  0.390601  0.128767  1
  F  F10  1  0.645077  0.116500  0.369763  1
  F  F11  1  0.249348  0.032679  0.870053  1
  F  F12  1  0.750652  0.967321  0.129947  1
  F  F13  1  0.354923  0.883500  0.630237  1
  F  F14  1  0.641536  0.609399  0.871233  1
  F  F15  1  0.834254  0.722655  0.372536  1
