# generated using pymatgen
data_DyLuO3
_symmetry_space_group_name_H-M   'P 1'
_cell_length_a   5.61251046
_cell_length_b   5.87614260
_cell_length_c   8.23374995
_cell_angle_alpha   90.00000000
_cell_angle_beta   90.00000000
_cell_angle_gamma   90.00000000
_symmetry_Int_Tables_number   1
_chemical_formula_structural   DyLuO3
_chemical_formula_sum   'Dy4 Lu4 O12'
_cell_volume   271.54834719
_cell_formula_units_Z   4
loop_
 _symmetry_equiv_pos_site_id
 _symmetry_equiv_pos_as_xyz
  1  'x, y, z'
loop_
 _atom_site_type_symbol
 _atom_site_label
 _atom_site_symmetry_multiplicity
 _atom_site_fract_x
 _atom_site_fract_y
 _atom_site_fract_z
 _atom_site_occupancy
  Dy  Dy0  1  0.986952  0.053138  0.250000  1
  Dy  Dy1  1  0.486952  0.446862  0.750000  1
  Dy  Dy2  1  0.513048  0.553138  0.250000  1
  Dy  Dy3  1  0.013048  0.946862  0.750000  1
  Lu  Lu4  1  0.500000  0.000000  0.000000  1
  Lu  Lu5  1  0.500000  0.000000  0.500000  1
  Lu  Lu6  1  0.000000  0.500000  0.000000  1
  Lu  Lu7  1  0.000000  0.500000  0.500000  1
  O  O8  1  0.639294  0.071400  0.750000  1
  O  O9  1  0.179952  0.183686  0.572288  1
  O  O10  1  0.179952  0.183686  0.927712  1
  O  O11  1  0.679952  0.316314  0.427712  1
  O  O12  1  0.679952  0.316314  0.072288  1
  O  O13  1  0.139294  0.428600  0.250000  1
  O  O14  1  0.860706  0.571400  0.750000  1
  O  O15  1  0.320048  0.683686  0.572288  1
  O  O16  1  0.320048  0.683686  0.927712  1
  O  O17  1  0.820048  0.816314  0.072288  1
  O  O18  1  0.820048  0.816314  0.427712  1
  O  O19  1  0.360706  0.928600  0.250000  1
