# generated using pymatgen
data_Cr2Bi28O47
_symmetry_space_group_name_H-M   'P 1'
_cell_length_a   8.86324877
_cell_length_b   8.87671658
_cell_length_c   17.12937186
_cell_angle_alpha   90.10120221
_cell_angle_beta   90.43196660
_cell_angle_gamma   90.31671252
_symmetry_Int_Tables_number   1
_chemical_formula_structural   Cr2Bi28O47
_chemical_formula_sum   'Cr2 Bi28 O47'
_cell_volume   1347.61874398
_cell_formula_units_Z   1
loop_
 _symmetry_equiv_pos_site_id
 _symmetry_equiv_pos_as_xyz
  1  'x, y, z'
loop_
 _atom_site_type_symbol
 _atom_site_label
 _atom_site_symmetry_multiplicity
 _atom_site_fract_x
 _atom_site_fract_y
 _atom_site_fract_z
 _atom_site_occupancy
  Cr  Cr0  1  0.001971  0.952748  0.978519  1
  Cr  Cr1  1  0.538478  0.450916  0.478566  1
  Bi  Bi2  1  0.703769  0.107057  0.833332  1
  Bi  Bi3  1  0.611342  0.796395  0.667258  1
  Bi  Bi4  1  0.498072  0.490619  0.839997  1
  Bi  Bi5  1  0.393173  0.197808  0.666146  1
  Bi  Bi6  1  0.283350  0.947603  0.499547  1
  Bi  Bi7  1  0.301743  0.887025  0.828897  1
  Bi  Bi8  1  0.206459  0.610589  0.330529  1
  Bi  Bi9  1  0.109939  0.295513  0.167123  1
  Bi  Bi10  1  0.202781  0.608788  0.667692  1
  Bi  Bi11  1  0.056644  0.284689  0.498212  1
  Bi  Bi12  1  0.111265  0.292472  0.828616  1
  Bi  Bi13  1  0.999563  0.994564  0.339268  1
  Bi  Bi14  1  0.002615  0.000352  0.660158  1
  Bi  Bi15  1  0.892384  0.700146  0.166228  1
  Bi  Bi16  1  0.939607  0.709522  0.500555  1
  Bi  Bi17  1  0.784587  0.445871  0.000418  1
  Bi  Bi18  1  0.802820  0.391156  0.330233  1
  Bi  Bi19  1  0.891348  0.692454  0.829770  1
  Bi  Bi20  1  0.799076  0.387703  0.664263  1
  Bi  Bi21  1  0.701542  0.108064  0.167117  1
  Bi  Bi22  1  0.714161  0.054790  0.498420  1
  Bi  Bi23  1  0.556413  0.784467  0.998867  1
  Bi  Bi24  1  0.608466  0.794825  0.329029  1
  Bi  Bi25  1  0.497818  0.497133  0.159943  1
  Bi  Bi26  1  0.442671  0.210665  0.001212  1
  Bi  Bi27  1  0.391526  0.199555  0.330245  1
  Bi  Bi28  1  0.295864  0.889642  0.164930  1
  Bi  Bi29  1  0.212204  0.553666  0.998130  1
  O  O30  1  0.835714  0.012043  0.010787  1
  O  O31  1  0.746392  0.578056  0.746335  1
  O  O32  1  0.682102  0.620676  0.919819  1
  O  O33  1  0.622555  0.316723  0.920579  1
  O  O34  1  0.578998  0.247841  0.754135  1
  O  O35  1  0.499934  0.996740  0.616211  1
  O  O36  1  0.505490  0.994830  0.884400  1
  O  O37  1  0.418776  0.745825  0.747604  1
  O  O38  1  0.376138  0.679432  0.919362  1
  O  O39  1  0.246528  0.079225  0.248393  1
  O  O40  1  0.321505  0.372663  0.918847  1
  O  O41  1  0.249002  0.077164  0.745540  1
  O  O42  1  0.252904  0.419933  0.751380  1
  O  O43  1  0.179248  0.120842  0.419864  1
  O  O44  1  0.179433  0.118410  0.580282  1
  O  O45  1  0.122923  0.818676  0.419796  1
  O  O46  1  0.079166  0.753964  0.250722  1
  O  O47  1  0.124848  0.815964  0.580935  1
  O  O48  1  0.998442  0.496484  0.116696  1
  O  O49  1  0.084964  0.744856  0.748005  1
  O  O50  1  0.006788  0.495751  0.385412  1
  O  O51  1  0.999847  0.500454  0.616475  1
  O  O52  1  0.921134  0.247036  0.250607  1
  O  O53  1  0.007020  0.982889  0.881684  1
  O  O54  1  0.999166  0.489832  0.880558  1
  O  O55  1  0.877698  0.182385  0.419787  1
  O  O56  1  0.923593  0.246320  0.743754  1
  O  O57  1  0.881600  0.179128  0.578137  1
  O  O58  1  0.818377  0.877987  0.420284  1
  O  O59  1  0.816244  0.876558  0.579374  1
  O  O60  1  0.754131  0.581508  0.247253  1
  O  O61  1  0.752331  0.918711  0.249558  1
  O  O62  1  0.680062  0.619573  0.079189  1
  O  O63  1  0.746645  0.917087  0.748712  1
  O  O64  1  0.622367  0.318429  0.079861  1
  O  O65  1  0.709745  0.516836  0.512137  1
  O  O66  1  0.581150  0.247724  0.247489  1
  O  O67  1  0.497660  0.999648  0.114924  1
  O  O68  1  0.485222  0.516486  0.384924  1
  O  O69  1  0.500529  0.997047  0.382765  1
  O  O70  1  0.443998  0.297733  0.511028  1
  O  O71  1  0.417982  0.750149  0.245191  1
  O  O72  1  0.377347  0.678952  0.078458  1
  O  O73  1  0.319841  0.372391  0.081406  1
  O  O74  1  0.249198  0.418560  0.246954  1
  O  O75  1  0.146837  0.042184  0.021929  1
  O  O76  1  0.014771  0.766496  0.993040  1
