# generated using pymatgen
data_Ba3LaI9
_symmetry_space_group_name_H-M   'P 1'
_cell_length_a   8.69131711
_cell_length_b   8.08942939
_cell_length_c   33.89918305
_cell_angle_alpha   90.00000000
_cell_angle_beta   92.08353497
_cell_angle_gamma   90.00000000
_symmetry_Int_Tables_number   1
_chemical_formula_structural   Ba3LaI9
_chemical_formula_sum   'Ba12 La4 I36'
_cell_volume   2381.80115614
_cell_formula_units_Z   4
loop_
 _symmetry_equiv_pos_site_id
 _symmetry_equiv_pos_as_xyz
  1  'x, y, z'
loop_
 _atom_site_type_symbol
 _atom_site_label
 _atom_site_symmetry_multiplicity
 _atom_site_fract_x
 _atom_site_fract_y
 _atom_site_fract_z
 _atom_site_occupancy
  Ba  Ba0  1  0.678894  0.969801  0.066998  1
  Ba  Ba1  1  0.706318  0.002595  0.307941  1
  Ba  Ba2  1  0.678894  0.030199  0.566998  1
  Ba  Ba3  1  0.706318  0.997405  0.807941  1
  Ba  Ba4  1  0.316717  0.985549  0.429845  1
  Ba  Ba5  1  0.284339  0.982199  0.191613  1
  Ba  Ba6  1  0.316717  0.014451  0.929845  1
  Ba  Ba7  1  0.284339  0.017801  0.691613  1
  Ba  Ba8  1  0.215463  0.526526  0.307844  1
  Ba  Ba9  1  0.178487  0.517478  0.069260  1
  Ba  Ba10  1  0.215463  0.473474  0.807844  1
  Ba  Ba11  1  0.178487  0.482522  0.569260  1
  La  La12  1  0.797837  0.520166  0.193480  1
  La  La13  1  0.821474  0.546150  0.432819  1
  La  La14  1  0.797837  0.479834  0.693480  1
  La  La15  1  0.821474  0.453850  0.932819  1
  I  I16  1  0.978326  0.797068  0.131509  1
  I  I17  1  0.983788  0.816018  0.247443  1
  I  I18  1  0.992794  0.812218  0.372593  1
  I  I19  1  0.978326  0.202932  0.631509  1
  I  I20  1  0.983788  0.183982  0.747443  1
  I  I21  1  0.890562  0.702475  0.006318  1
  I  I22  1  0.992794  0.187782  0.872593  1
  I  I23  1  0.846409  0.333305  0.107580  1
  I  I24  1  0.890562  0.297525  0.506318  1
  I  I25  1  0.841463  0.399275  0.292326  1
  I  I26  1  0.846409  0.666695  0.607580  1
  I  I27  1  0.841463  0.600725  0.792326  1
  I  I28  1  0.646033  0.162298  0.204020  1
  I  I29  1  0.650591  0.210998  0.400758  1
  I  I30  1  0.646033  0.837702  0.704020  1
  I  I31  1  0.650591  0.789002  0.900758  1
  I  I32  1  0.588137  0.743030  0.488894  1
  I  I33  1  0.508366  0.677022  0.133100  1
  I  I34  1  0.514473  0.690520  0.247826  1
  I  I35  1  0.527318  0.697088  0.372142  1
  I  I36  1  0.588137  0.256970  0.988894  1
  I  I37  1  0.508366  0.322978  0.633100  1
  I  I38  1  0.514473  0.309480  0.747826  1
  I  I39  1  0.527318  0.302912  0.872142  1
  I  I40  1  0.397919  0.762132  0.009756  1
  I  I41  1  0.397919  0.237868  0.509756  1
  I  I42  1  0.343734  0.150760  0.099233  1
  I  I43  1  0.322152  0.111440  0.301279  1
  I  I44  1  0.343734  0.849240  0.599233  1
  I  I45  1  0.322152  0.888560  0.801279  1
  I  I46  1  0.147657  0.392801  0.202497  1
  I  I47  1  0.124201  0.355919  0.401433  1
  I  I48  1  0.147657  0.607199  0.702497  1
  I  I49  1  0.124201  0.644081  0.901433  1
  I  I50  1  0.065817  0.755334  0.489682  1
  I  I51  1  0.065817  0.244666  0.989682  1
