# generated using pymatgen
data_La5Cu5O13
_symmetry_space_group_name_H-M   'P 1'
_cell_length_a   8.55194144
_cell_length_b   3.88753511
_cell_length_c   8.56540916
_cell_angle_alpha   90.00000000
_cell_angle_beta   90.21723144
_cell_angle_gamma   90.00000000
_symmetry_Int_Tables_number   1
_chemical_formula_structural   La5Cu5O13
_chemical_formula_sum   'La5 Cu5 O13'
_cell_volume   284.76331163
_cell_formula_units_Z   1
loop_
 _symmetry_equiv_pos_site_id
 _symmetry_equiv_pos_as_xyz
  1  'x, y, z'
loop_
 _atom_site_type_symbol
 _atom_site_label
 _atom_site_symmetry_multiplicity
 _atom_site_fract_x
 _atom_site_fract_y
 _atom_site_fract_z
 _atom_site_occupancy
  La  La0  1  0.726194  0.500000  0.860046  1
  La  La1  1  0.138729  0.500000  0.725924  1
  La  La2  1  0.500000  0.500000  0.500000  1
  La  La3  1  0.861271  0.500000  0.274076  1
  La  La4  1  0.273806  0.500000  0.139954  1
  Cu  Cu5  1  0.000000  0.000000  0.000000  1
  Cu  Cu6  1  0.426566  0.000000  0.831478  1
  Cu  Cu7  1  0.834045  0.000000  0.574858  1
  Cu  Cu8  1  0.165955  0.000000  0.425142  1
  Cu  Cu9  1  0.573434  0.000000  0.168522  1
  O  O10  1  0.000000  0.500000  0.000000  1
  O  O11  1  0.242748  0.000000  0.957490  1
  O  O12  1  0.429077  0.500000  0.819826  1
  O  O13  1  0.953279  0.000000  0.764265  1
  O  O14  1  0.606077  0.000000  0.700384  1
  O  O15  1  0.288731  0.000000  0.610574  1
  O  O16  1  0.823254  0.500000  0.573355  1
  O  O17  1  0.176746  0.500000  0.426645  1
  O  O18  1  0.711269  0.000000  0.389426  1
  O  O19  1  0.393923  0.000000  0.299616  1
  O  O20  1  0.046721  0.000000  0.235735  1
  O  O21  1  0.570923  0.500000  0.180174  1
  O  O22  1  0.757252  0.000000  0.042510  1
