# generated using pymatgen
data_LiVCr(P2O7)2
_symmetry_space_group_name_H-M   'P 1'
_cell_length_a   4.86725372
_cell_length_b   7.00036455
_cell_length_c   8.05686610
_cell_angle_alpha   89.82241229
_cell_angle_beta   89.87107230
_cell_angle_gamma   71.62329484
_symmetry_Int_Tables_number   1
_chemical_formula_structural   LiVCr(P2O7)2
_chemical_formula_sum   'Li1 V1 Cr1 P4 O14'
_cell_volume   260.51724488
_cell_formula_units_Z   1
loop_
 _symmetry_equiv_pos_site_id
 _symmetry_equiv_pos_as_xyz
  1  'x, y, z'
loop_
 _atom_site_type_symbol
 _atom_site_label
 _atom_site_symmetry_multiplicity
 _atom_site_fract_x
 _atom_site_fract_y
 _atom_site_fract_z
 _atom_site_occupancy
  Li  Li0  1  0.175320  0.324610  0.864304  1
  V  V1  1  0.206741  0.277276  0.494481  1
  Cr  Cr2  1  0.784016  0.727998  0.005315  1
  P  P3  1  0.403146  0.479449  0.180038  1
  P  P4  1  0.216741  0.911705  0.782660  1
  P  P5  1  0.780146  0.083508  0.281638  1
  P  P6  1  0.601673  0.522593  0.678608  1
  O  O7  1  0.046199  0.146056  0.333101  1
  O  O8  1  0.139882  0.114985  0.688979  1
  O  O9  1  0.177873  0.515208  0.041477  1
  O  O10  1  0.263087  0.480342  0.352352  1
  O  O11  1  0.394606  0.393989  0.676511  1
  O  O12  1  0.587503  0.094212  0.435938  1
  O  O13  1  0.601238  0.247292  0.147075  1
  O  O14  1  0.409357  0.751752  0.647688  1
  O  O15  1  0.400666  0.919519  0.934429  1
  O  O16  1  0.594523  0.611053  0.179281  1
  O  O17  1  0.747727  0.509228  0.848441  1
  O  O18  1  0.822052  0.468920  0.537661  1
  O  O19  1  0.875314  0.887738  0.189958  1
  O  O20  1  0.948094  0.855771  0.822744  1
