# generated using pymatgen
data_Li4Mn5(FeO6)2
_symmetry_space_group_name_H-M   'P 1'
_cell_length_a   5.15396224
_cell_length_b   9.21855791
_cell_length_c   10.04089036
_cell_angle_alpha   90.00000000
_cell_angle_beta   102.65510915
_cell_angle_gamma   90.00000000
_symmetry_Int_Tables_number   1
_chemical_formula_structural   Li4Mn5(FeO6)2
_chemical_formula_sum   'Li8 Mn10 Fe4 O24'
_cell_volume   465.47422770
_cell_formula_units_Z   2
loop_
 _symmetry_equiv_pos_site_id
 _symmetry_equiv_pos_as_xyz
  1  'x, y, z'
loop_
 _atom_site_type_symbol
 _atom_site_label
 _atom_site_symmetry_multiplicity
 _atom_site_fract_x
 _atom_site_fract_y
 _atom_site_fract_z
 _atom_site_occupancy
  Li  Li0  1  0.003112  0.914137  0.261664  1
  Li  Li1  1  0.495441  0.931029  0.741895  1
  Li  Li2  1  0.761188  0.580387  0.492680  1
  Li  Li3  1  0.504437  0.580681  0.736183  1
  Li  Li4  1  0.996888  0.414137  0.738336  1
  Li  Li5  1  0.504559  0.431029  0.258105  1
  Li  Li6  1  0.238812  0.080387  0.507320  1
  Li  Li7  1  0.495563  0.080681  0.263817  1
  Mn  Mn8  1  0.257574  0.915734  0.006896  1
  Mn  Mn9  1  0.745656  0.923430  0.510206  1
  Mn  Mn10  1  0.000145  0.746724  0.741474  1
  Mn  Mn11  1  0.240559  0.580294  0.990508  1
  Mn  Mn12  1  0.512729  0.748138  0.257140  1
  Mn  Mn13  1  0.254344  0.423430  0.489794  1
  Mn  Mn14  1  0.742426  0.415734  0.993104  1
  Mn  Mn15  1  0.999855  0.246724  0.258526  1
  Mn  Mn16  1  0.487271  0.248138  0.742860  1
  Mn  Mn17  1  0.759441  0.080294  0.009492  1
  Fe  Fe18  1  0.234707  0.744979  0.484809  1
  Fe  Fe19  1  0.755526  0.745365  0.005297  1
  Fe  Fe20  1  0.244474  0.245365  0.994703  1
  Fe  Fe21  1  0.765293  0.244979  0.515191  1
  O  O22  1  0.114315  0.887566  0.620696  1
  O  O23  1  0.881668  0.921399  0.905556  1
  O  O24  1  0.161203  0.764722  0.121849  1
  O  O25  1  0.869283  0.760119  0.374896  1
  O  O26  1  0.608754  0.903952  0.132118  1
  O  O27  1  0.382832  0.912351  0.393527  1
  O  O28  1  0.148391  0.581109  0.600532  1
  O  O29  1  0.643365  0.769667  0.627643  1
  O  O30  1  0.891852  0.595693  0.863134  1
  O  O31  1  0.347708  0.734567  0.872638  1
  O  O32  1  0.604882  0.569859  0.098422  1
  O  O33  1  0.118332  0.421399  0.094444  1
  O  O34  1  0.398214  0.602463  0.374099  1
  O  O35  1  0.885685  0.387566  0.379304  1
  O  O36  1  0.130717  0.260119  0.625104  1
  O  O37  1  0.617168  0.412351  0.606473  1
  O  O38  1  0.838797  0.264722  0.878151  1
  O  O39  1  0.391246  0.403952  0.867882  1
  O  O40  1  0.108148  0.095693  0.136866  1
  O  O41  1  0.652292  0.234567  0.127362  1
  O  O42  1  0.356635  0.269667  0.372357  1
  O  O43  1  0.851609  0.081109  0.399468  1
  O  O44  1  0.601786  0.102463  0.625901  1
  O  O45  1  0.395118  0.069859  0.901578  1
