# generated using pymatgen
data_Li5(NiO2)4
_symmetry_space_group_name_H-M   'P 1'
_cell_length_a   5.97968493
_cell_length_b   5.97968493
_cell_length_c   9.62678333
_cell_angle_alpha   89.98794123
_cell_angle_beta   90.01205877
_cell_angle_gamma   57.41312364
_symmetry_Int_Tables_number   1
_chemical_formula_structural   Li5(NiO2)4
_chemical_formula_sum   'Li10 Ni8 O16'
_cell_volume   290.03254249
_cell_formula_units_Z   2
loop_
 _symmetry_equiv_pos_site_id
 _symmetry_equiv_pos_as_xyz
  1  'x, y, z'
loop_
 _atom_site_type_symbol
 _atom_site_label
 _atom_site_symmetry_multiplicity
 _atom_site_fract_x
 _atom_site_fract_y
 _atom_site_fract_z
 _atom_site_occupancy
  Li  Li0  1  0.984095  0.990255  0.485308  1
  Li  Li1  1  0.009745  0.015905  0.985308  1
  Li  Li2  1  0.383102  0.816600  0.558439  1
  Li  Li3  1  0.676754  0.678169  0.782307  1
  Li  Li4  1  0.798026  0.797699  0.545060  1
  Li  Li5  1  0.822449  0.382576  0.559144  1
  Li  Li6  1  0.183400  0.616898  0.058439  1
  Li  Li7  1  0.321831  0.323246  0.282307  1
  Li  Li8  1  0.202301  0.201974  0.045060  1
  Li  Li9  1  0.617424  0.177551  0.059144  1
  Ni  Ni10  1  0.666165  0.665935  0.033503  1
  Ni  Ni11  1  0.334065  0.333835  0.533503  1
  Ni  Ni12  1  0.328365  0.824683  0.286268  1
  Ni  Ni13  1  0.821618  0.822774  0.286763  1
  Ni  Ni14  1  0.822968  0.330769  0.286412  1
  Ni  Ni15  1  0.175317  0.671635  0.786268  1
  Ni  Ni16  1  0.177226  0.178382  0.786763  1
  Ni  Ni17  1  0.669231  0.177032  0.786412  1
  O  O18  1  0.997985  0.014169  0.680707  1
  O  O19  1  0.985831  0.002015  0.180707  1
  O  O20  1  0.350551  0.837678  0.914259  1
  O  O21  1  0.504822  0.973165  0.157928  1
  O  O22  1  0.847721  0.856056  0.902124  1
  O  O23  1  0.515196  0.500265  0.167774  1
  O  O24  1  0.661801  0.651273  0.399242  1
  O  O25  1  0.976103  0.507147  0.156315  1
  O  O26  1  0.162322  0.649449  0.414259  1
  O  O27  1  0.838515  0.355244  0.913839  1
  O  O28  1  0.026835  0.495178  0.657928  1
  O  O29  1  0.499735  0.484804  0.667774  1
  O  O30  1  0.348727  0.338199  0.899242  1
  O  O31  1  0.143944  0.152279  0.402124  1
  O  O32  1  0.492853  0.023897  0.656315  1
  O  O33  1  0.644756  0.161485  0.413839  1
