# generated using pymatgen
data_Ge11N11O5
_symmetry_space_group_name_H-M   'P 1'
_cell_length_a   5.91496876
_cell_length_b   5.91496876
_cell_length_c   10.18740857
_cell_angle_alpha   73.36425581
_cell_angle_beta   106.63574419
_cell_angle_gamma   119.98145046
_symmetry_Int_Tables_number   1
_chemical_formula_structural   Ge11N11O5
_chemical_formula_sum   'Ge11 N11 O5'
_cell_volume   291.37085580
_cell_formula_units_Z   1
loop_
 _symmetry_equiv_pos_site_id
 _symmetry_equiv_pos_as_xyz
  1  'x, y, z'
loop_
 _atom_site_type_symbol
 _atom_site_label
 _atom_site_symmetry_multiplicity
 _atom_site_fract_x
 _atom_site_fract_y
 _atom_site_fract_z
 _atom_site_occupancy
  Ge  Ge0  1  0.936797  0.063203  0.311347  1
  Ge  Ge1  1  0.687060  0.312940  0.059993  1
  Ge  Ge2  1  0.998638  0.001362  0.994324  1
  Ge  Ge3  1  0.941542  0.562842  0.814855  1
  Ge  Ge4  1  0.435161  0.072856  0.305878  1
  Ge  Ge5  1  0.927144  0.564839  0.305878  1
  Ge  Ge6  1  0.372929  0.627071  0.126137  1
  Ge  Ge7  1  0.436440  0.563560  0.812929  1
  Ge  Ge8  1  0.184621  0.815379  0.568678  1
  Ge  Ge9  1  0.510089  0.489911  0.505213  1
  Ge  Ge10  1  0.437158  0.058458  0.814855  1
  N  N11  1  0.844120  0.698044  0.436703  1
  N  N12  1  0.572532  0.956128  0.192748  1
  N  N13  1  0.571099  0.428901  0.189441  1
  N  N14  1  0.066379  0.933621  0.197888  1
  N  N15  1  0.800609  0.199391  0.930696  1
  N  N16  1  0.569889  0.430111  0.703332  1
  N  N17  1  0.799645  0.669170  0.930376  1
  N  N18  1  0.301956  0.155880  0.436703  1
  N  N19  1  0.330830  0.200355  0.930376  1
  N  N20  1  0.043872  0.427468  0.192748  1
  N  N21  1  0.309251  0.690749  0.928654  1
  O  O22  1  0.801217  0.198783  0.408162  1
  O  O23  1  0.301353  0.698647  0.437574  1
  O  O24  1  0.087870  0.478641  0.695625  1
  O  O25  1  0.521359  0.912130  0.695625  1
  O  O26  1  0.085440  0.914560  0.698263  1
