# generated using pymatgen
data_Li3Mn3(BO3)4
_symmetry_space_group_name_H-M   'P 1'
_cell_length_a   5.34652560
_cell_length_b   9.07771887
_cell_length_c   10.79984048
_cell_angle_alpha   90.00000000
_cell_angle_beta   117.16169294
_cell_angle_gamma   90.00000000
_symmetry_Int_Tables_number   1
_chemical_formula_structural   Li3Mn3(BO3)4
_chemical_formula_sum   'Li6 Mn6 B8 O24'
_cell_volume   466.35855024
_cell_formula_units_Z   2
loop_
 _symmetry_equiv_pos_site_id
 _symmetry_equiv_pos_as_xyz
  1  'x, y, z'
loop_
 _atom_site_type_symbol
 _atom_site_label
 _atom_site_symmetry_multiplicity
 _atom_site_fract_x
 _atom_site_fract_y
 _atom_site_fract_z
 _atom_site_occupancy
  Li  Li0  1  0.514552  0.235126  0.661702  1
  Li  Li1  1  0.445008  0.906191  0.628827  1
  Li  Li2  1  0.539470  0.428608  0.875817  1
  Li  Li3  1  0.514552  0.764874  0.161702  1
  Li  Li4  1  0.445008  0.093809  0.128827  1
  Li  Li5  1  0.539470  0.571392  0.375817  1
  Mn  Mn6  1  0.987814  0.577872  0.124841  1
  Mn  Mn7  1  0.943567  0.243363  0.117462  1
  Mn  Mn8  1  0.013975  0.052247  0.377300  1
  Mn  Mn9  1  0.987814  0.422128  0.624841  1
  Mn  Mn10  1  0.943567  0.756637  0.617462  1
  Mn  Mn11  1  0.013975  0.947753  0.877300  1
  B  B12  1  0.446491  0.573659  0.620151  1
  B  B13  1  0.961390  0.903816  0.126869  1
  B  B14  1  0.560488  0.066654  0.893350  1
  B  B15  1  0.019343  0.413036  0.355874  1
  B  B16  1  0.961390  0.096184  0.626869  1
  B  B17  1  0.446491  0.426341  0.120151  1
  B  B18  1  0.019343  0.586964  0.855874  1
  B  B19  1  0.560488  0.933346  0.393350  1
  O  O20  1  0.866434  0.571973  0.928915  1
  O  O21  1  0.332695  0.931305  0.417882  1
  O  O22  1  0.729470  0.193135  0.920190  1
  O  O23  1  0.122769  0.535727  0.318569  1
  O  O24  1  0.062992  0.272481  0.315517  1
  O  O25  1  0.627324  0.942799  0.840482  1
  O  O26  1  0.384982  0.435233  0.655949  1
  O  O27  1  0.303129  0.698714  0.616260  1
  O  O28  1  0.840681  0.778355  0.137447  1
  O  O29  1  0.877293  0.036151  0.169181  1
  O  O30  1  0.166499  0.085082  0.580715  1
  O  O31  1  0.674311  0.421075  0.087517  1
  O  O32  1  0.332695  0.068695  0.917882  1
  O  O33  1  0.866434  0.428027  0.428915  1
  O  O34  1  0.729470  0.806865  0.420190  1
  O  O35  1  0.122769  0.464273  0.818569  1
  O  O36  1  0.062992  0.727519  0.815517  1
  O  O37  1  0.627324  0.057201  0.340482  1
  O  O38  1  0.384982  0.564767  0.155949  1
  O  O39  1  0.840681  0.221645  0.637447  1
  O  O40  1  0.877293  0.963849  0.669181  1
  O  O41  1  0.303129  0.301286  0.116260  1
  O  O42  1  0.674311  0.578925  0.587517  1
  O  O43  1  0.166499  0.914918  0.080715  1
