# generated using pymatgen
data_Hg(TeO3)2
_symmetry_space_group_name_H-M   'P 1'
_cell_length_a   6.57290672
_cell_length_b   12.80491662
_cell_length_c   8.67069536
_cell_angle_alpha   90.00000000
_cell_angle_beta   119.54332448
_cell_angle_gamma   90.00000000
_symmetry_Int_Tables_number   1
_chemical_formula_structural   Hg(TeO3)2
_chemical_formula_sum   'Hg4 Te8 O24'
_cell_volume   634.89070284
_cell_formula_units_Z   4
loop_
 _symmetry_equiv_pos_site_id
 _symmetry_equiv_pos_as_xyz
  1  'x, y, z'
loop_
 _atom_site_type_symbol
 _atom_site_label
 _atom_site_symmetry_multiplicity
 _atom_site_fract_x
 _atom_site_fract_y
 _atom_site_fract_z
 _atom_site_occupancy
  Hg  Hg0  1  0.674609  0.407528  0.253717  1
  Hg  Hg1  1  0.325391  0.907528  0.246283  1
  Hg  Hg2  1  0.674609  0.092472  0.753717  1
  Hg  Hg3  1  0.325391  0.592472  0.746283  1
  Te  Te4  1  0.339434  0.620220  0.164288  1
  Te  Te5  1  0.660566  0.120220  0.335712  1
  Te  Te6  1  0.873775  0.705979  0.281005  1
  Te  Te7  1  0.126225  0.205979  0.218995  1
  Te  Te8  1  0.873775  0.794021  0.781005  1
  Te  Te9  1  0.126225  0.294021  0.718995  1
  Te  Te10  1  0.339434  0.879780  0.664288  1
  Te  Te11  1  0.660566  0.379780  0.835712  1
  O  O12  1  0.631245  0.594913  0.141609  1
  O  O13  1  0.636314  0.983908  0.251661  1
  O  O14  1  0.827343  0.350081  0.080329  1
  O  O15  1  0.487027  0.233021  0.190185  1
  O  O16  1  0.512973  0.733021  0.309815  1
  O  O17  1  0.000745  0.127400  0.013309  1
  O  O18  1  0.363686  0.483908  0.248339  1
  O  O19  1  0.054204  0.648177  0.172776  1
  O  O20  1  0.945796  0.148177  0.327224  1
  O  O21  1  0.631245  0.905087  0.641609  1
  O  O22  1  0.999255  0.627400  0.486691  1
  O  O23  1  0.827343  0.149919  0.580329  1
  O  O24  1  0.172657  0.850081  0.419671  1
  O  O25  1  0.000745  0.372600  0.513309  1
  O  O26  1  0.368755  0.094913  0.358391  1
  O  O27  1  0.054204  0.851823  0.672776  1
  O  O28  1  0.945796  0.351823  0.827224  1
  O  O29  1  0.636314  0.516092  0.751661  1
  O  O30  1  0.999255  0.872600  0.986691  1
  O  O31  1  0.487027  0.266979  0.690185  1
  O  O32  1  0.512973  0.766979  0.809815  1
  O  O33  1  0.172657  0.649919  0.919671  1
  O  O34  1  0.363686  0.016092  0.748339  1
  O  O35  1  0.368755  0.405087  0.858391  1
