# generated using pymatgen
data_Co(IO3)2
_symmetry_space_group_name_H-M   'P 1'
_cell_length_a   5.23791952
_cell_length_b   7.07798121
_cell_length_c   14.77395424
_cell_angle_alpha   90.00000000
_cell_angle_beta   90.00000000
_cell_angle_gamma   90.00000000
_symmetry_Int_Tables_number   1
_chemical_formula_structural   Co(IO3)2
_chemical_formula_sum   'Co4 I8 O24'
_cell_volume   547.72804176
_cell_formula_units_Z   4
loop_
 _symmetry_equiv_pos_site_id
 _symmetry_equiv_pos_as_xyz
  1  'x, y, z'
loop_
 _atom_site_type_symbol
 _atom_site_label
 _atom_site_symmetry_multiplicity
 _atom_site_fract_x
 _atom_site_fract_y
 _atom_site_fract_z
 _atom_site_occupancy
  Co  Co0  1  0.750000  0.876415  0.500000  1
  Co  Co1  1  0.250000  0.123585  0.500000  1
  Co  Co2  1  0.250000  0.623585  0.000000  1
  Co  Co3  1  0.750000  0.376415  0.000000  1
  I  I4  1  0.269744  0.719033  0.647596  1
  I  I5  1  0.769744  0.280967  0.647596  1
  I  I6  1  0.769744  0.780967  0.852404  1
  I  I7  1  0.269744  0.219033  0.852404  1
  I  I8  1  0.730256  0.780967  0.147596  1
  I  I9  1  0.230256  0.219033  0.147596  1
  I  I10  1  0.230256  0.719033  0.352404  1
  I  I11  1  0.730256  0.280967  0.352404  1
  O  O12  1  0.591487  0.100338  0.579006  1
  O  O13  1  0.091487  0.899662  0.579006  1
  O  O14  1  0.562568  0.679006  0.579668  1
  O  O15  1  0.062568  0.320994  0.579668  1
  O  O16  1  0.392288  0.367480  0.762127  1
  O  O17  1  0.892288  0.632520  0.762127  1
  O  O18  1  0.392288  0.867480  0.737873  1
  O  O19  1  0.892288  0.132520  0.737873  1
  O  O20  1  0.062568  0.820994  0.920332  1
  O  O21  1  0.562568  0.179006  0.920332  1
  O  O22  1  0.591487  0.600338  0.920994  1
  O  O23  1  0.091487  0.399662  0.920994  1
  O  O24  1  0.908513  0.600338  0.079006  1
  O  O25  1  0.408513  0.399662  0.079006  1
  O  O26  1  0.437432  0.820994  0.079668  1
  O  O27  1  0.937432  0.179006  0.079668  1
  O  O28  1  0.107712  0.867480  0.262127  1
  O  O29  1  0.607712  0.132520  0.262127  1
  O  O30  1  0.607712  0.632520  0.237873  1
  O  O31  1  0.107712  0.367480  0.237873  1
  O  O32  1  0.937432  0.679006  0.420332  1
  O  O33  1  0.437432  0.320994  0.420332  1
  O  O34  1  0.408513  0.899662  0.420994  1
  O  O35  1  0.908513  0.100338  0.420994  1
