# generated using pymatgen
data_Li4V4(OF3)3
_symmetry_space_group_name_H-M   'P 1'
_cell_length_a   5.14935099
_cell_length_b   5.57850534
_cell_length_c   9.09508449
_cell_angle_alpha   106.38296708
_cell_angle_beta   90.43385207
_cell_angle_gamma   117.14984763
_symmetry_Int_Tables_number   1
_chemical_formula_structural   Li4V4(OF3)3
_chemical_formula_sum   'Li4 V4 O3 F9'
_cell_volume   220.17633553
_cell_formula_units_Z   1
loop_
 _symmetry_equiv_pos_site_id
 _symmetry_equiv_pos_as_xyz
  1  'x, y, z'
loop_
 _atom_site_type_symbol
 _atom_site_label
 _atom_site_symmetry_multiplicity
 _atom_site_fract_x
 _atom_site_fract_y
 _atom_site_fract_z
 _atom_site_occupancy
  Li  Li0  1  0.321988  0.770514  0.147428  1
  Li  Li1  1  0.768571  0.994820  0.401229  1
  Li  Li2  1  0.298027  0.201783  0.631920  1
  Li  Li3  1  0.779371  0.485149  0.908307  1
  V  V4  1  0.984330  0.512404  0.501163  1
  V  V5  1  0.058610  0.027119  0.997572  1
  V  V6  1  0.511406  0.271739  0.254623  1
  V  V7  1  0.490321  0.779025  0.760647  1
  O  O8  1  0.240190  0.943565  0.809509  1
  O  O9  1  0.393468  0.187526  0.067991  1
  O  O10  1  0.612829  0.289486  0.436467  1
  F  F11  1  0.099764  0.897363  0.371074  1
  F  F12  1  0.262124  0.470416  0.298847  1
  F  F13  1  0.396645  0.698725  0.562141  1
  F  F14  1  0.121963  0.392107  0.872061  1
  F  F15  1  0.918691  0.630335  0.115356  1
  F  F16  1  0.628278  0.807623  0.952259  1
  F  F17  1  0.717762  0.558105  0.708555  1
  F  F18  1  0.735762  0.038020  0.192498  1
  F  F19  1  0.890342  0.120274  0.625572  1
