# generated using pymatgen
data_LiLa3Ti2O9
_symmetry_space_group_name_H-M   'P 1'
_cell_length_a   7.90302740
_cell_length_b   5.64916774
_cell_length_c   18.50987071
_cell_angle_alpha   90.00000000
_cell_angle_beta   115.17857510
_cell_angle_gamma   90.00000000
_symmetry_Int_Tables_number   1
_chemical_formula_structural   LiLa3Ti2O9
_chemical_formula_sum   'Li4 La12 Ti8 O36'
_cell_volume   747.86515920
_cell_formula_units_Z   4
loop_
 _symmetry_equiv_pos_site_id
 _symmetry_equiv_pos_as_xyz
  1  'x, y, z'
loop_
 _atom_site_type_symbol
 _atom_site_label
 _atom_site_symmetry_multiplicity
 _atom_site_fract_x
 _atom_site_fract_y
 _atom_site_fract_z
 _atom_site_occupancy
  Li  Li0  1  0.333272  0.498929  0.334442  1
  Li  Li1  1  0.666728  0.501071  0.665558  1
  Li  Li2  1  0.333272  0.001071  0.834442  1
  Li  Li3  1  0.666728  0.998929  0.165558  1
  La  La4  1  0.091668  0.958045  0.332239  1
  La  La5  1  0.258438  0.468019  0.497032  1
  La  La6  1  0.741562  0.531981  0.502968  1
  La  La7  1  0.908332  0.041955  0.667761  1
  La  La8  1  0.426586  0.949506  0.672177  1
  La  La9  1  0.573414  0.449506  0.827823  1
  La  La10  1  0.091668  0.541955  0.832239  1
  La  La11  1  0.258438  0.031981  0.997032  1
  La  La12  1  0.741562  0.968019  0.002968  1
  La  La13  1  0.908332  0.458045  0.167761  1
  La  La14  1  0.426586  0.550494  0.172177  1
  La  La15  1  0.573414  0.050494  0.327823  1
  Ti  Ti16  1  0.827085  0.508428  0.330978  1
  Ti  Ti17  1  0.500000  0.000000  0.500000  1
  Ti  Ti18  1  0.000000  0.000000  0.500000  1
  Ti  Ti19  1  0.172915  0.491572  0.669022  1
  Ti  Ti20  1  0.827085  0.991572  0.830978  1
  Ti  Ti21  1  0.000000  0.500000  0.000000  1
  Ti  Ti22  1  0.500000  0.500000  0.000000  1
  Ti  Ti23  1  0.172915  0.008428  0.169022  1
  O  O24  1  0.625797  0.473937  0.364050  1
  O  O25  1  0.363863  0.196226  0.407108  1
  O  O26  1  0.953435  0.205180  0.407298  1
  O  O27  1  0.394667  0.720431  0.434186  1
  O  O28  1  0.975503  0.717319  0.432364  1
  O  O29  1  0.725327  0.985471  0.472109  1
  O  O30  1  0.274673  0.014529  0.527891  1
  O  O31  1  0.024497  0.282681  0.567636  1
  O  O32  1  0.605333  0.279569  0.565814  1
  O  O33  1  0.046565  0.794820  0.592702  1
  O  O34  1  0.636137  0.803774  0.592892  1
  O  O35  1  0.374203  0.526063  0.635950  1
  O  O36  1  0.953076  0.478704  0.690801  1
  O  O37  1  0.700398  0.198278  0.743007  1
  O  O38  1  0.277724  0.218076  0.730892  1
  O  O39  1  0.722276  0.718076  0.769108  1
  O  O40  1  0.299602  0.698278  0.756993  1
  O  O41  1  0.046924  0.978704  0.809199  1
  O  O42  1  0.625797  0.026063  0.864050  1
  O  O43  1  0.363863  0.303774  0.907108  1
  O  O44  1  0.953435  0.294820  0.907298  1
  O  O45  1  0.394667  0.779569  0.934186  1
  O  O46  1  0.975503  0.782681  0.932364  1
  O  O47  1  0.725327  0.514529  0.972109  1
  O  O48  1  0.274673  0.485471  0.027891  1
  O  O49  1  0.024497  0.217319  0.067636  1
  O  O50  1  0.605333  0.220431  0.065814  1
  O  O51  1  0.046565  0.705180  0.092702  1
  O  O52  1  0.636137  0.696226  0.092892  1
  O  O53  1  0.374203  0.973937  0.135950  1
  O  O54  1  0.953076  0.021296  0.190801  1
  O  O55  1  0.700398  0.301722  0.243007  1
  O  O56  1  0.277724  0.281924  0.230892  1
  O  O57  1  0.722276  0.781924  0.269108  1
  O  O58  1  0.299602  0.801722  0.256993  1
  O  O59  1  0.046924  0.521296  0.309199  1
