# generated using pymatgen
data_Na2VCSO7
_symmetry_space_group_name_H-M   'P 1'
_cell_length_a   5.34554339
_cell_length_b   6.77182619
_cell_length_c   9.11351778
_cell_angle_alpha   90.00000000
_cell_angle_beta   90.97003531
_cell_angle_gamma   90.00000000
_symmetry_Int_Tables_number   1
_chemical_formula_structural   Na2VCSO7
_chemical_formula_sum   'Na4 V2 C2 S2 O14'
_cell_volume   329.85377725
_cell_formula_units_Z   2
loop_
 _symmetry_equiv_pos_site_id
 _symmetry_equiv_pos_as_xyz
  1  'x, y, z'
loop_
 _atom_site_type_symbol
 _atom_site_label
 _atom_site_symmetry_multiplicity
 _atom_site_fract_x
 _atom_site_fract_y
 _atom_site_fract_z
 _atom_site_occupancy
  Na  Na0  1  0.764977  0.004433  0.216386  1
  Na  Na1  1  0.764977  0.495567  0.216386  1
  Na  Na2  1  0.235023  0.504433  0.783614  1
  Na  Na3  1  0.235023  0.995567  0.783614  1
  V  V4  1  0.221312  0.250000  0.354805  1
  V  V5  1  0.778688  0.750000  0.645195  1
  C  C6  1  0.274668  0.250000  0.077435  1
  C  C7  1  0.725332  0.750000  0.922565  1
  S  S8  1  0.282695  0.750000  0.418434  1
  S  S9  1  0.717305  0.250000  0.581566  1
  O  O10  1  0.699420  0.750000  0.059846  1
  O  O11  1  0.054559  0.250000  0.140862  1
  O  O12  1  0.466852  0.250000  0.171204  1
  O  O13  1  0.199611  0.927367  0.335582  1
  O  O14  1  0.199611  0.572633  0.335582  1
  O  O15  1  0.829291  0.250000  0.431614  1
  O  O16  1  0.563298  0.750000  0.435270  1
  O  O17  1  0.436702  0.250000  0.564730  1
  O  O18  1  0.170709  0.750000  0.568386  1
  O  O19  1  0.800389  0.427367  0.664418  1
  O  O20  1  0.800389  0.072633  0.664418  1
  O  O21  1  0.533148  0.750000  0.828796  1
  O  O22  1  0.945441  0.750000  0.859138  1
  O  O23  1  0.300580  0.250000  0.940154  1
