# generated using pymatgen
data_LiSiBiO4
_symmetry_space_group_name_H-M   'P 1'
_cell_length_a   8.96321206
_cell_length_b   8.96321206
_cell_length_c   8.96321206
_cell_angle_alpha   107.34999218
_cell_angle_beta   107.34999218
_cell_angle_gamma   107.34999218
_symmetry_Int_Tables_number   1
_chemical_formula_structural   LiSiBiO4
_chemical_formula_sum   'Li6 Si6 Bi6 O24'
_cell_volume   593.88506311
_cell_formula_units_Z   6
loop_
 _symmetry_equiv_pos_site_id
 _symmetry_equiv_pos_as_xyz
  1  'x, y, z'
loop_
 _atom_site_type_symbol
 _atom_site_label
 _atom_site_symmetry_multiplicity
 _atom_site_fract_x
 _atom_site_fract_y
 _atom_site_fract_z
 _atom_site_occupancy
  Li  Li0  1  0.790051  0.954541  0.527213  1
  Li  Li1  1  0.058878  0.450615  0.232421  1
  Li  Li2  1  0.450615  0.232421  0.058878  1
  Li  Li3  1  0.527213  0.790051  0.954541  1
  Li  Li4  1  0.954541  0.527213  0.790051  1
  Li  Li5  1  0.232421  0.058878  0.450615  1
  Si  Si6  1  0.281748  0.880773  0.090277  1
  Si  Si7  1  0.386491  0.813417  0.551326  1
  Si  Si8  1  0.813417  0.551326  0.386491  1
  Si  Si9  1  0.880773  0.090277  0.281748  1
  Si  Si10  1  0.551326  0.386491  0.813417  1
  Si  Si11  1  0.090277  0.281748  0.880773  1
  Bi  Bi12  1  0.878735  0.717100  0.110174  1
  Bi  Bi13  1  0.460382  0.604529  0.216509  1
  Bi  Bi14  1  0.110174  0.878735  0.717100  1
  Bi  Bi15  1  0.216509  0.460382  0.604529  1
  Bi  Bi16  1  0.604529  0.216509  0.460382  1
  Bi  Bi17  1  0.717100  0.110174  0.878735  1
  O  O18  1  0.072400  0.756540  0.987153  1
  O  O19  1  0.989920  0.980773  0.330822  1
  O  O20  1  0.387352  0.758163  0.085414  1
  O  O21  1  0.890407  0.539986  0.238808  1
  O  O22  1  0.287709  0.337632  0.016805  1
  O  O23  1  0.777910  0.725253  0.427967  1
  O  O24  1  0.238808  0.890407  0.539986  1
  O  O25  1  0.307029  0.626841  0.378503  1
  O  O26  1  0.568612  0.954056  0.568763  1
  O  O27  1  0.954056  0.568763  0.568612  1
  O  O28  1  0.626841  0.378503  0.307029  1
  O  O29  1  0.330822  0.989920  0.980773  1
  O  O30  1  0.756540  0.987153  0.072400  1
  O  O31  1  0.427967  0.777910  0.725253  1
  O  O32  1  0.016805  0.287709  0.337632  1
  O  O33  1  0.337632  0.016805  0.287709  1
  O  O34  1  0.725253  0.427967  0.777910  1
  O  O35  1  0.758163  0.085414  0.387352  1
  O  O36  1  0.378503  0.307029  0.626841  1
  O  O37  1  0.568763  0.568612  0.954056  1
  O  O38  1  0.085414  0.387352  0.758163  1
  O  O39  1  0.539986  0.238808  0.890407  1
  O  O40  1  0.987153  0.072400  0.756540  1
  O  O41  1  0.980773  0.330822  0.989920  1
