# generated using pymatgen
data_Li24Ti11CrO36
_symmetry_space_group_name_H-M   'P 1'
_cell_length_a   8.84540123
_cell_length_b   8.84540123
_cell_length_c   9.82405443
_cell_angle_alpha   81.70565822
_cell_angle_beta   98.29434178
_cell_angle_gamma   120.21484341
_symmetry_Int_Tables_number   1
_chemical_formula_structural   Li24Ti11CrO36
_chemical_formula_sum   'Li24 Ti11 Cr1 O36'
_cell_volume   654.96052374
_cell_formula_units_Z   1
loop_
 _symmetry_equiv_pos_site_id
 _symmetry_equiv_pos_as_xyz
  1  'x, y, z'
loop_
 _atom_site_type_symbol
 _atom_site_label
 _atom_site_symmetry_multiplicity
 _atom_site_fract_x
 _atom_site_fract_y
 _atom_site_fract_z
 _atom_site_occupancy
  Li  Li0  1  0.994972  0.828818  0.248934  1
  Li  Li1  1  0.749972  0.749972  0.000000  1
  Li  Li2  1  0.831839  0.665319  0.748709  1
  Li  Li3  1  0.915614  0.583148  0.500483  1
  Li  Li4  1  0.672175  0.505495  0.251078  1
  Li  Li5  1  0.999829  0.499843  0.249911  1
  Li  Li6  1  0.839050  0.339447  0.750092  1
  Li  Li7  1  0.496127  0.329117  0.749502  1
  Li  Li8  1  0.250169  0.250169  0.500000  1
  Li  Li9  1  0.660869  0.162009  0.249975  1
  Li  Li10  1  0.332382  0.165386  0.249068  1
  Li  Li11  1  0.416658  0.083338  0.999875  1
  Li  Li12  1  0.171063  0.005636  0.749326  1
  Li  Li13  1  0.499843  0.999829  0.750089  1
  Li  Li14  1  0.828818  0.994972  0.751066  1
  Li  Li15  1  0.583148  0.915614  0.499517  1
  Li  Li16  1  0.339447  0.839050  0.249908  1
  Li  Li17  1  0.665319  0.831839  0.251291  1
  Li  Li18  1  0.505495  0.672175  0.748922  1
  Li  Li19  1  0.162009  0.660869  0.750025  1
  Li  Li20  1  0.329117  0.496127  0.250498  1
  Li  Li21  1  0.083338  0.416658  0.000125  1
  Li  Li22  1  0.165386  0.332382  0.750932  1
  Li  Li23  1  0.005636  0.171063  0.250674  1
  Ti  Ti24  1  0.914269  0.914269  0.500000  1
  Ti  Ti25  1  0.417719  0.417719  0.000000  1
  Ti  Ti26  1  0.749134  0.415953  0.000077  1
  Ti  Ti27  1  0.587176  0.252618  0.502600  1
  Ti  Ti28  1  0.917206  0.249494  0.499820  1
  Ti  Ti29  1  0.082626  0.082626  0.000000  1
  Ti  Ti30  1  0.750979  0.084331  0.000347  1
  Ti  Ti31  1  0.249494  0.917206  0.500180  1
  Ti  Ti32  1  0.084331  0.750979  0.999653  1
  Ti  Ti33  1  0.415953  0.749134  0.999923  1
  Ti  Ti34  1  0.252618  0.587176  0.497400  1
  Cr  Cr35  1  0.579690  0.579690  0.500000  1
  O  O36  1  0.975182  0.881146  0.886778  1
  O  O37  1  0.782023  0.711863  0.386401  1
  O  O38  1  0.881910  0.618422  0.115541  1
  O  O39  1  0.951483  0.548553  0.884601  1
  O  O40  1  0.619067  0.524648  0.887152  1
  O  O41  1  0.692501  0.452264  0.612936  1
  O  O42  1  0.547621  0.308629  0.113478  1
  O  O43  1  0.476548  0.386362  0.388331  1
  O  O44  1  0.858066  0.285760  0.113090  1
  O  O45  1  0.785746  0.358097  0.386900  1
  O  O46  1  0.284798  0.215320  0.884426  1
  O  O47  1  0.642123  0.214510  0.886906  1
  O  O48  1  0.952465  0.191524  0.886975  1
  O  O49  1  0.713999  0.142745  0.613474  1
  O  O50  1  0.381155  0.118433  0.615396  1
  O  O51  1  0.881146  0.975182  0.113222  1
  O  O52  1  0.450789  0.050227  0.384325  1
  O  O53  1  0.808562  0.047568  0.386926  1
  O  O54  1  0.191524  0.952465  0.113025  1
  O  O55  1  0.548553  0.951483  0.115399  1
  O  O56  1  0.117265  0.023158  0.386541  1
  O  O57  1  0.618422  0.881910  0.884459  1
  O  O58  1  0.285760  0.858066  0.886910  1
  O  O59  1  0.047568  0.808562  0.613074  1
  O  O60  1  0.358097  0.785746  0.613100  1
  O  O61  1  0.711863  0.782023  0.613599  1
  O  O62  1  0.214510  0.642123  0.113094  1
  O  O63  1  0.142745  0.713999  0.386526  1
  O  O64  1  0.524648  0.619067  0.112848  1
  O  O65  1  0.452264  0.692501  0.387064  1
  O  O66  1  0.308629  0.547621  0.886522  1
  O  O67  1  0.386362  0.476548  0.611669  1
  O  O68  1  0.050227  0.450789  0.615675  1
  O  O69  1  0.118433  0.381155  0.384604  1
  O  O70  1  0.215320  0.284798  0.115574  1
  O  O71  1  0.023158  0.117265  0.613459  1
