# generated using pymatgen
data_DyHO2
_symmetry_space_group_name_H-M   'P 1'
_cell_length_a   3.51131464
_cell_length_b   4.87658702
_cell_length_c   5.49722475
_cell_angle_alpha   90.00000000
_cell_angle_beta   90.00000000
_cell_angle_gamma   90.00000000
_symmetry_Int_Tables_number   1
_chemical_formula_structural   DyHO2
_chemical_formula_sum   'Dy2 H2 O4'
_cell_volume   94.13025143
_cell_formula_units_Z   2
loop_
 _symmetry_equiv_pos_site_id
 _symmetry_equiv_pos_as_xyz
  1  'x, y, z'
loop_
 _atom_site_type_symbol
 _atom_site_label
 _atom_site_symmetry_multiplicity
 _atom_site_fract_x
 _atom_site_fract_y
 _atom_site_fract_z
 _atom_site_occupancy
  Dy  Dy0  1  0.500000  0.722943  0.982499  1
  Dy  Dy1  1  0.000000  0.277057  0.482499  1
  H  H2  1  0.000000  0.193419  0.962655  1
  H  H3  1  0.500000  0.806581  0.462655  1
  O  O4  1  0.000000  0.021442  0.856900  1
  O  O5  1  0.500000  0.517979  0.620722  1
  O  O6  1  0.500000  0.978558  0.356900  1
  O  O7  1  0.000000  0.482021  0.120722  1
