# generated using pymatgen
data_NiH18(I5N3)2
_symmetry_space_group_name_H-M   'P 1'
_cell_length_a   9.32398735
_cell_length_b   17.02501524
_cell_length_c   10.73805840
_cell_angle_alpha   90.00000000
_cell_angle_beta   122.74878572
_cell_angle_gamma   90.00000000
_symmetry_Int_Tables_number   1
_chemical_formula_structural   NiH18(I5N3)2
_chemical_formula_sum   'Ni2 H36 I20 N12'
_cell_volume   1433.62976223
_cell_formula_units_Z   2
loop_
 _symmetry_equiv_pos_site_id
 _symmetry_equiv_pos_as_xyz
  1  'x, y, z'
loop_
 _atom_site_type_symbol
 _atom_site_label
 _atom_site_symmetry_multiplicity
 _atom_site_fract_x
 _atom_site_fract_y
 _atom_site_fract_z
 _atom_site_occupancy
  Ni  Ni0  1  0.500000  0.000000  0.500000  1
  Ni  Ni1  1  0.500000  0.500000  0.000000  1
  H  H2  1  0.275689  0.914927  0.257845  1
  H  H3  1  0.283708  0.507914  0.097799  1
  H  H4  1  0.622458  0.145674  0.604144  1
  H  H5  1  0.651309  0.859191  0.610229  1
  H  H6  1  0.754553  0.923927  0.740555  1
  H  H7  1  0.453563  0.460500  0.222068  1
  H  H8  1  0.455648  0.556291  0.215014  1
  H  H9  1  0.544352  0.056291  0.284986  1
  H  H10  1  0.546437  0.960500  0.277932  1
  H  H11  1  0.780050  0.094329  0.622580  1
  H  H12  1  0.792300  0.915514  0.609123  1
  H  H13  1  0.716292  0.007914  0.402201  1
  H  H14  1  0.622458  0.354326  0.104144  1
  H  H15  1  0.724311  0.414927  0.242155  1
  H  H16  1  0.651309  0.640809  0.110229  1
  H  H17  1  0.754553  0.576073  0.240555  1
  H  H18  1  0.207700  0.415514  0.890877  1
  H  H19  1  0.219950  0.594329  0.877420  1
  H  H20  1  0.780050  0.405671  0.122580  1
  H  H21  1  0.792300  0.584486  0.109123  1
  H  H22  1  0.245447  0.423927  0.759445  1
  H  H23  1  0.348691  0.359191  0.889771  1
  H  H24  1  0.275689  0.585073  0.757845  1
  H  H25  1  0.377542  0.645674  0.895856  1
  H  H26  1  0.283708  0.992086  0.597799  1
  H  H27  1  0.207700  0.084486  0.390877  1
  H  H28  1  0.219950  0.905671  0.377420  1
  H  H29  1  0.453563  0.039500  0.722068  1
  H  H30  1  0.455648  0.943709  0.715014  1
  H  H31  1  0.544352  0.443709  0.784986  1
  H  H32  1  0.546437  0.539500  0.777932  1
  H  H33  1  0.245447  0.076073  0.259445  1
  H  H34  1  0.348691  0.140809  0.389771  1
  H  H35  1  0.377542  0.854326  0.395856  1
  H  H36  1  0.716292  0.492086  0.902201  1
  H  H37  1  0.724311  0.085073  0.742155  1
  I  I38  1  0.007633  0.642440  0.010485  1
  I  I39  1  0.498272  0.293193  0.350940  1
  I  I40  1  0.737812  0.332527  0.656257  1
  I  I41  1  0.501728  0.793193  0.149060  1
  I  I42  1  0.809526  0.526993  0.569604  1
  I  I43  1  0.112376  0.180547  0.974924  1
  I  I44  1  0.887624  0.680547  0.525076  1
  I  I45  1  0.190474  0.026993  0.930396  1
  I  I46  1  0.737812  0.167473  0.156257  1
  I  I47  1  0.992367  0.142440  0.489515  1
  I  I48  1  0.007633  0.857560  0.510485  1
  I  I49  1  0.262188  0.832527  0.843743  1
  I  I50  1  0.809526  0.973007  0.069604  1
  I  I51  1  0.112376  0.319453  0.474924  1
  I  I52  1  0.887624  0.819453  0.025076  1
  I  I53  1  0.190474  0.473007  0.430396  1
  I  I54  1  0.498272  0.206807  0.850940  1
  I  I55  1  0.262188  0.667473  0.343743  1
  I  I56  1  0.501728  0.706807  0.649060  1
  I  I57  1  0.992367  0.357560  0.989515  1
  N  N58  1  0.676468  0.091070  0.631784  1
  N  N59  1  0.696414  0.915705  0.628900  1
  N  N60  1  0.413592  0.507013  0.150327  1
  N  N61  1  0.586408  0.007013  0.349673  1
  N  N62  1  0.676468  0.408930  0.131784  1
  N  N63  1  0.696414  0.584295  0.128900  1
  N  N64  1  0.303586  0.415705  0.871100  1
  N  N65  1  0.323532  0.591070  0.868216  1
  N  N66  1  0.413592  0.992987  0.650327  1
  N  N67  1  0.586408  0.492987  0.849673  1
  N  N68  1  0.303586  0.084295  0.371100  1
  N  N69  1  0.323532  0.908930  0.368216  1
