# generated using pymatgen
data_LiMn(SiO3)2
_symmetry_space_group_name_H-M   'P 1'
_cell_length_a   6.70739916
_cell_length_b   6.70739916
_cell_length_c   5.32450292
_cell_angle_alpha   73.29860508
_cell_angle_beta   106.70139492
_cell_angle_gamma   96.92090923
_symmetry_Int_Tables_number   1
_chemical_formula_structural   LiMn(SiO3)2
_chemical_formula_sum   'Li2 Mn2 Si4 O12'
_cell_volume   219.57353206
_cell_formula_units_Z   2
loop_
 _symmetry_equiv_pos_site_id
 _symmetry_equiv_pos_as_xyz
  1  'x, y, z'
loop_
 _atom_site_type_symbol
 _atom_site_label
 _atom_site_symmetry_multiplicity
 _atom_site_fract_x
 _atom_site_fract_y
 _atom_site_fract_z
 _atom_site_occupancy
  Li  Li0  1  0.746217  0.746217  0.750000  1
  Li  Li1  1  0.253783  0.253783  0.250000  1
  Mn  Mn2  1  0.895364  0.895364  0.250000  1
  Mn  Mn3  1  0.104636  0.104636  0.750000  1
  Si  Si4  1  0.386359  0.796961  0.263080  1
  Si  Si5  1  0.203039  0.613641  0.763080  1
  Si  Si6  1  0.796961  0.386359  0.236920  1
  Si  Si7  1  0.613641  0.203039  0.736920  1
  O  O8  1  0.205197  0.976052  0.136790  1
  O  O9  1  0.623246  0.887354  0.336993  1
  O  O10  1  0.023948  0.794803  0.636790  1
  O  O11  1  0.349574  0.651949  0.052045  1
  O  O12  1  0.887354  0.623246  0.163007  1
  O  O13  1  0.348051  0.650426  0.552045  1
  O  O14  1  0.651949  0.349574  0.447955  1
  O  O15  1  0.112646  0.376754  0.836993  1
  O  O16  1  0.650426  0.348051  0.947955  1
  O  O17  1  0.976052  0.205197  0.363210  1
  O  O18  1  0.376754  0.112646  0.663007  1
  O  O19  1  0.794803  0.023948  0.863210  1
