# generated using pymatgen
data_Ti3Mn2Nb(PO4)6
_symmetry_space_group_name_H-M   'P 1'
_cell_length_a   8.69164548
_cell_length_b   8.69164548
_cell_length_c   8.69164548
_cell_angle_alpha   60.58613366
_cell_angle_beta   60.58613366
_cell_angle_gamma   60.58613366
_symmetry_Int_Tables_number   1
_chemical_formula_structural   Ti3Mn2Nb(PO4)6
_chemical_formula_sum   'Ti3 Mn2 Nb1 P6 O24'
_cell_volume   470.43859731
_cell_formula_units_Z   1
loop_
 _symmetry_equiv_pos_site_id
 _symmetry_equiv_pos_as_xyz
  1  'x, y, z'
loop_
 _atom_site_type_symbol
 _atom_site_label
 _atom_site_symmetry_multiplicity
 _atom_site_fract_x
 _atom_site_fract_y
 _atom_site_fract_z
 _atom_site_occupancy
  Ti  Ti0  1  0.854590  0.854590  0.854590  1
  Ti  Ti1  1  0.644789  0.644789  0.644789  1
  Ti  Ti2  1  0.354847  0.354847  0.354847  1
  Mn  Mn3  1  0.999040  0.999040  0.999040  1
  Mn  Mn4  1  0.500730  0.500730  0.500730  1
  Nb  Nb5  1  0.143277  0.143277  0.143277  1
  P  P6  1  0.954892  0.250937  0.547925  1
  P  P7  1  0.547925  0.954892  0.250937  1
  P  P8  1  0.744332  0.461608  0.043000  1
  P  P9  1  0.461608  0.043000  0.744332  1
  P  P10  1  0.043000  0.744332  0.461608  1
  P  P11  1  0.250937  0.547925  0.954892  1
  O  O12  1  0.884481  0.685970  0.499599  1
  O  O13  1  0.685970  0.499599  0.884481  1
  O  O14  1  0.939765  0.088144  0.737711  1
  O  O15  1  0.499599  0.884481  0.685970  1
  O  O16  1  0.992669  0.188234  0.389762  1
  O  O17  1  0.763767  0.411797  0.560816  1
  O  O18  1  0.737711  0.939765  0.088144  1
  O  O19  1  0.560816  0.763767  0.411797  1
  O  O20  1  0.809812  0.616697  0.003277  1
  O  O21  1  0.411797  0.560816  0.763767  1
  O  O22  1  0.906725  0.267843  0.058557  1
  O  O23  1  0.616697  0.003277  0.809812  1
  O  O24  1  0.389762  0.992669  0.188234  1
  O  O25  1  0.088144  0.737711  0.939765  1
  O  O26  1  0.585791  0.442998  0.235956  1
  O  O27  1  0.188234  0.389762  0.992669  1
  O  O28  1  0.442998  0.235956  0.585791  1
  O  O29  1  0.267843  0.058557  0.906725  1
  O  O30  1  0.235956  0.585791  0.442998  1
  O  O31  1  0.003277  0.809812  0.616697  1
  O  O32  1  0.503819  0.114933  0.310915  1
  O  O33  1  0.058557  0.906725  0.267843  1
  O  O34  1  0.310915  0.503819  0.114933  1
  O  O35  1  0.114933  0.310915  0.503819  1
