# generated using pymatgen
data_Li4Fe5Sb(PO4)6
_symmetry_space_group_name_H-M   'P 1'
_cell_length_a   8.37422032
_cell_length_b   8.50433926
_cell_length_c   8.53251019
_cell_angle_alpha   64.71817251
_cell_angle_beta   65.19396981
_cell_angle_gamma   65.24905166
_symmetry_Int_Tables_number   1
_chemical_formula_structural   Li4Fe5Sb(PO4)6
_chemical_formula_sum   'Li4 Fe5 Sb1 P6 O24'
_cell_volume   477.05691218
_cell_formula_units_Z   1
loop_
 _symmetry_equiv_pos_site_id
 _symmetry_equiv_pos_as_xyz
  1  'x, y, z'
loop_
 _atom_site_type_symbol
 _atom_site_label
 _atom_site_symmetry_multiplicity
 _atom_site_fract_x
 _atom_site_fract_y
 _atom_site_fract_z
 _atom_site_occupancy
  Li  Li0  1  0.748743  0.138934  0.352633  1
  Li  Li1  1  0.279727  0.838632  0.645781  1
  Li  Li2  1  0.639231  0.278722  0.840975  1
  Li  Li3  1  0.840918  0.640895  0.284505  1
  Fe  Fe4  1  0.010560  0.001403  0.997776  1
  Fe  Fe5  1  0.349264  0.353233  0.348416  1
  Fe  Fe6  1  0.491989  0.504062  0.500762  1
  Fe  Fe7  1  0.144131  0.149656  0.148480  1
  Fe  Fe8  1  0.655736  0.658031  0.660268  1
  Sb  Sb9  1  0.842890  0.835686  0.842123  1
  P  P10  1  0.075972  0.747541  0.431662  1
  P  P11  1  0.428963  0.074831  0.748866  1
  P  P12  1  0.746884  0.433040  0.072782  1
  P  P13  1  0.248557  0.543799  0.946988  1
  P  P14  1  0.553992  0.949340  0.249881  1
  P  P15  1  0.938209  0.244879  0.545375  1
  O  O16  1  0.484674  0.906541  0.689127  1
  O  O17  1  0.686267  0.484640  0.907061  1
  O  O18  1  0.906267  0.684341  0.488271  1
  O  O19  1  0.070480  0.901340  0.250175  1
  O  O20  1  0.079987  0.810099  0.576416  1
  O  O21  1  0.258895  0.588354  0.411922  1
  O  O22  1  0.239214  0.083503  0.891774  1
  O  O23  1  0.424130  0.252223  0.581840  1
  O  O24  1  0.172039  0.399290  0.975431  1
  O  O25  1  0.591550  0.411671  0.259967  1
  O  O26  1  0.102078  0.745358  0.922418  1
  O  O27  1  0.396267  0.995188  0.182584  1
  O  O28  1  0.574395  0.072840  0.818220  1
  O  O29  1  0.886340  0.239282  0.090721  1
  O  O30  1  0.405327  0.567848  0.759603  1
  O  O31  1  0.816658  0.576110  0.071583  1
  O  O32  1  0.568695  0.761036  0.404916  1
  O  O33  1  0.754586  0.917953  0.100175  1
  O  O34  1  0.754023  0.405698  0.570016  1
  O  O35  1  0.942867  0.172519  0.408028  1
  O  O36  1  0.924611  0.099770  0.743821  1
  O  O37  1  0.110165  0.304678  0.482843  1
  O  O38  1  0.316599  0.501470  0.106115  1
  O  O39  1  0.538120  0.102565  0.312700  1
