# generated using pymatgen
data_Mn6OF11
_symmetry_space_group_name_H-M   'P 1'
_cell_length_a   5.26070387
_cell_length_b   5.28476477
_cell_length_c   15.76515737
_cell_angle_alpha   90.00000000
_cell_angle_beta   92.81483542
_cell_angle_gamma   90.00000000
_symmetry_Int_Tables_number   1
_chemical_formula_structural   Mn6OF11
_chemical_formula_sum   'Mn12 O2 F22'
_cell_volume   437.76749845
_cell_formula_units_Z   2
loop_
 _symmetry_equiv_pos_site_id
 _symmetry_equiv_pos_as_xyz
  1  'x, y, z'
loop_
 _atom_site_type_symbol
 _atom_site_label
 _atom_site_symmetry_multiplicity
 _atom_site_fract_x
 _atom_site_fract_y
 _atom_site_fract_z
 _atom_site_occupancy
  Mn  Mn0  1  0.000000  0.046139  0.000000  1
  Mn  Mn1  1  0.484951  0.984127  0.167360  1
  Mn  Mn2  1  0.995205  0.982855  0.332239  1
  Mn  Mn3  1  0.500000  0.992915  0.500000  1
  Mn  Mn4  1  0.004795  0.982855  0.667761  1
  Mn  Mn5  1  0.515049  0.984127  0.832640  1
  Mn  Mn6  1  0.975205  0.490061  0.159534  1
  Mn  Mn7  1  0.500000  0.457884  0.000000  1
  Mn  Mn8  1  0.505654  0.472339  0.667693  1
  Mn  Mn9  1  0.000000  0.496861  0.500000  1
  Mn  Mn10  1  0.494346  0.472339  0.332307  1
  Mn  Mn11  1  0.024795  0.490061  0.840466  1
  O  O12  1  0.783914  0.258235  0.060572  1
  O  O13  1  0.216086  0.258235  0.939428  1
  F  F14  1  0.222261  0.218611  0.260494  1
  F  F15  1  0.231714  0.222946  0.592059  1
  F  F16  1  0.768286  0.222946  0.407941  1
  F  F17  1  0.777739  0.218611  0.739506  1
  F  F18  1  0.303781  0.314026  0.106420  1
  F  F19  1  0.718528  0.264783  0.237749  1
  F  F20  1  0.726460  0.274544  0.572461  1
  F  F21  1  0.696219  0.314026  0.893580  1
  F  F22  1  0.281472  0.264783  0.762251  1
  F  F23  1  0.273540  0.274544  0.427539  1
  F  F24  1  0.345042  0.730750  0.927131  1
  F  F25  1  0.268529  0.723007  0.589056  1
  F  F26  1  0.282653  0.718919  0.249343  1
  F  F27  1  0.654958  0.730750  0.072869  1
  F  F28  1  0.731471  0.723007  0.410944  1
  F  F29  1  0.717347  0.718919  0.750657  1
  F  F30  1  0.229992  0.769612  0.420870  1
  F  F31  1  0.154061  0.813660  0.090897  1
  F  F32  1  0.216014  0.764626  0.761457  1
  F  F33  1  0.770008  0.769612  0.579130  1
  F  F34  1  0.845939  0.813660  0.909103  1
  F  F35  1  0.783986  0.764626  0.238543  1
