# generated using pymatgen
data_Li2Mn3(BO3)3
_symmetry_space_group_name_H-M   'P 1'
_cell_length_a   8.25148943
_cell_length_b   8.25148943
_cell_length_c   9.46723059
_cell_angle_alpha   90.00000000
_cell_angle_beta   90.00000000
_cell_angle_gamma   120.00000000
_symmetry_Int_Tables_number   1
_chemical_formula_structural   Li2Mn3(BO3)3
_chemical_formula_sum   'Li6 Mn9 B9 O27'
_cell_volume   558.23656880
_cell_formula_units_Z   3
loop_
 _symmetry_equiv_pos_site_id
 _symmetry_equiv_pos_as_xyz
  1  'x, y, z'
loop_
 _atom_site_type_symbol
 _atom_site_label
 _atom_site_symmetry_multiplicity
 _atom_site_fract_x
 _atom_site_fract_y
 _atom_site_fract_z
 _atom_site_occupancy
  Li  Li0  1  0.630732  0.954257  0.834059  1
  Li  Li1  1  0.627152  0.934555  0.166069  1
  Li  Li2  1  0.307403  0.372848  0.499403  1
  Li  Li3  1  0.323525  0.369268  0.167393  1
  Li  Li4  1  0.065445  0.692597  0.832736  1
  Li  Li5  1  0.045743  0.676475  0.500726  1
  Mn  Mn6  1  0.339048  0.037542  0.002180  1
  Mn  Mn7  1  0.349446  0.062835  0.668395  1
  Mn  Mn8  1  0.336873  0.012919  0.336819  1
  Mn  Mn9  1  0.676046  0.663127  0.670153  1
  Mn  Mn10  1  0.698494  0.660952  0.335514  1
  Mn  Mn11  1  0.713389  0.650554  0.001728  1
  Mn  Mn12  1  0.937165  0.286611  0.335062  1
  Mn  Mn13  1  0.962458  0.301506  0.668847  1
  Mn  Mn14  1  0.987081  0.323954  0.003486  1
  B  B15  1  0.356756  0.672470  0.994170  1
  B  B16  1  0.994767  0.000347  0.165618  1
  B  B17  1  0.999653  0.994420  0.832285  1
  B  B18  1  0.315714  0.643244  0.327503  1
  B  B19  1  0.005580  0.005233  0.498951  1
  B  B20  1  0.327530  0.684286  0.660836  1
  B  B21  1  0.654755  0.330531  0.504494  1
  B  B22  1  0.669469  0.324224  0.171161  1
  B  B23  1  0.675776  0.345245  0.837827  1
  O  O24  1  0.517662  0.784604  0.681026  1
  O  O25  1  0.506185  0.742593  0.307364  1
  O  O26  1  0.553738  0.778542  0.995511  1
  O  O27  1  0.910702  0.110558  0.176107  1
  O  O28  1  0.921144  0.107388  0.835769  1
  O  O29  1  0.931553  0.123930  0.487498  1
  O  O30  1  0.876070  0.807623  0.154165  1
  O  O31  1  0.889442  0.800144  0.842773  1
  O  O32  1  0.892612  0.813756  0.502435  1
  O  O33  1  0.236408  0.493815  0.640697  1
  O  O34  1  0.266941  0.482338  0.014360  1
  O  O35  1  0.224803  0.446262  0.328845  1
  O  O36  1  0.186244  0.078856  0.169102  1
  O  O37  1  0.192377  0.068447  0.820831  1
  O  O38  1  0.199856  0.089298  0.509440  1
  O  O39  1  0.221458  0.775197  0.662178  1
  O  O40  1  0.215396  0.733059  0.347693  1
  O  O41  1  0.257407  0.763592  0.974030  1
  O  O42  1  0.583531  0.450764  0.506619  1
  O  O43  1  0.599766  0.446994  0.155115  1
  O  O44  1  0.600680  0.462100  0.852378  1
  O  O45  1  0.537900  0.138580  0.519044  1
  O  O46  1  0.549236  0.132767  0.173286  1
  O  O47  1  0.553006  0.152772  0.821782  1
  O  O48  1  0.847228  0.400234  0.488449  1
  O  O49  1  0.861420  0.399320  0.185711  1
  O  O50  1  0.867233  0.416469  0.839952  1
