# generated using pymatgen
data_Sb2OF8
_symmetry_space_group_name_H-M   'P 1'
_cell_length_a   9.24858123
_cell_length_b   5.54724038
_cell_length_c   15.62123820
_cell_angle_alpha   90.00000000
_cell_angle_beta   104.28440639
_cell_angle_gamma   90.00000000
_symmetry_Int_Tables_number   1
_chemical_formula_structural   Sb2OF8
_chemical_formula_sum   'Sb8 O4 F32'
_cell_volume   776.65562967
_cell_formula_units_Z   4
loop_
 _symmetry_equiv_pos_site_id
 _symmetry_equiv_pos_as_xyz
  1  'x, y, z'
loop_
 _atom_site_type_symbol
 _atom_site_label
 _atom_site_symmetry_multiplicity
 _atom_site_fract_x
 _atom_site_fract_y
 _atom_site_fract_z
 _atom_site_occupancy
  Sb  Sb0  1  0.099372  0.804759  0.874828  1
  Sb  Sb1  1  0.099372  0.195241  0.374828  1
  Sb  Sb2  1  0.465353  0.068707  0.843388  1
  Sb  Sb3  1  0.534647  0.068707  0.656612  1
  Sb  Sb4  1  0.465353  0.931293  0.343388  1
  Sb  Sb5  1  0.534647  0.931293  0.156612  1
  Sb  Sb6  1  0.900628  0.804759  0.625172  1
  Sb  Sb7  1  0.900628  0.195241  0.125172  1
  O  O8  1  0.286092  0.946121  0.854184  1
  O  O9  1  0.286092  0.053879  0.354184  1
  O  O10  1  0.713908  0.946121  0.645816  1
  O  O11  1  0.713908  0.053879  0.145816  1
  F  F12  1  0.000000  0.947704  0.750000  1
  F  F13  1  0.061918  0.111871  0.917188  1
  F  F14  1  0.201580  0.678947  0.985664  1
  F  F15  1  0.140902  0.532931  0.811539  1
  F  F16  1  0.093506  0.696463  0.623102  1
  F  F17  1  0.000000  0.052296  0.250000  1
  F  F18  1  0.061918  0.888129  0.417188  1
  F  F19  1  0.201580  0.321053  0.485664  1
  F  F20  1  0.140902  0.467069  0.311539  1
  F  F21  1  0.093506  0.303537  0.123102  1
  F  F22  1  0.367326  0.193168  0.715916  1
  F  F23  1  0.480021  0.377163  0.893527  1
  F  F24  1  0.392402  0.905876  0.569562  1
  F  F25  1  0.500000  0.814078  0.750000  1
  F  F26  1  0.367326  0.806832  0.215916  1
  F  F27  1  0.607598  0.905876  0.930438  1
  F  F28  1  0.480021  0.622837  0.393527  1
  F  F29  1  0.519979  0.377163  0.606473  1
  F  F30  1  0.392402  0.094124  0.069562  1
  F  F31  1  0.632674  0.193168  0.784084  1
  F  F32  1  0.500000  0.185922  0.250000  1
  F  F33  1  0.607598  0.094124  0.430438  1
  F  F34  1  0.519979  0.622837  0.106473  1
  F  F35  1  0.632674  0.806832  0.284084  1
  F  F36  1  0.906494  0.696463  0.876898  1
  F  F37  1  0.859098  0.532931  0.688461  1
  F  F38  1  0.798420  0.678947  0.514336  1
  F  F39  1  0.938082  0.111871  0.582812  1
  F  F40  1  0.906494  0.303537  0.376898  1
  F  F41  1  0.859098  0.467069  0.188461  1
  F  F42  1  0.798420  0.321053  0.014336  1
  F  F43  1  0.938082  0.888129  0.082812  1
