# generated using pymatgen
data_Li3Fe2(CO3)4
_symmetry_space_group_name_H-M   'P 1'
_cell_length_a   5.54726444
_cell_length_b   6.17499120
_cell_length_c   8.49120389
_cell_angle_alpha   84.71701226
_cell_angle_beta   107.01509788
_cell_angle_gamma   116.46651962
_symmetry_Int_Tables_number   1
_chemical_formula_structural   Li3Fe2(CO3)4
_chemical_formula_sum   'Li3 Fe2 C4 O12'
_cell_volume   248.72953634
_cell_formula_units_Z   1
loop_
 _symmetry_equiv_pos_site_id
 _symmetry_equiv_pos_as_xyz
  1  'x, y, z'
loop_
 _atom_site_type_symbol
 _atom_site_label
 _atom_site_symmetry_multiplicity
 _atom_site_fract_x
 _atom_site_fract_y
 _atom_site_fract_z
 _atom_site_occupancy
  Li  Li0  1  0.464147  0.918027  0.334586  1
  Li  Li1  1  0.210582  0.074889  0.652174  1
  Li  Li2  1  0.296100  0.560257  0.859027  1
  Fe  Fe3  1  0.673430  0.494733  0.496079  1
  Fe  Fe4  1  0.906507  0.019457  0.004855  1
  C  C5  1  0.366407  0.420659  0.208906  1
  C  C6  1  0.914941  0.917199  0.295128  1
  C  C7  1  0.696087  0.078170  0.705089  1
  C  C8  1  0.736013  0.588818  0.796490  1
  O  O9  1  0.194338  0.356102  0.056402  1
  O  O10  1  0.589688  0.388728  0.251224  1
  O  O11  1  0.111614  0.934578  0.234976  1
  O  O12  1  0.709209  0.949908  0.189055  1
  O  O13  1  0.917495  0.874627  0.446576  1
  O  O14  1  0.308490  0.513204  0.315267  1
  O  O15  1  0.586478  0.113332  0.555940  1
  O  O16  1  0.945639  0.598125  0.751639  1
  O  O17  1  0.554963  0.022315  0.814901  1
  O  O18  1  0.951008  0.098471  0.760821  1
  O  O19  1  0.486878  0.492993  0.693025  1
  O  O20  1  0.765707  0.675092  0.938087  1
