# generated using pymatgen
data_Mn3Co5O16
_symmetry_space_group_name_H-M   'P 1'
_cell_length_a   5.66840419
_cell_length_b   5.66840419
_cell_length_c   8.61146680
_cell_angle_alpha   89.34997501
_cell_angle_beta   90.65002499
_cell_angle_gamma   119.68012985
_symmetry_Int_Tables_number   1
_chemical_formula_structural   Mn3Co5O16
_chemical_formula_sum   'Mn3 Co5 O16'
_cell_volume   240.37141504
_cell_formula_units_Z   1
loop_
 _symmetry_equiv_pos_site_id
 _symmetry_equiv_pos_as_xyz
  1  'x, y, z'
loop_
 _atom_site_type_symbol
 _atom_site_label
 _atom_site_symmetry_multiplicity
 _atom_site_fract_x
 _atom_site_fract_y
 _atom_site_fract_z
 _atom_site_occupancy
  Mn  Mn0  1  0.167467  0.832533  0.789114  1
  Mn  Mn1  1  0.335344  0.168037  0.289408  1
  Mn  Mn2  1  0.831963  0.664656  0.289408  1
  Co  Co3  1  0.168582  0.336094  0.793181  1
  Co  Co4  1  0.332108  0.667892  0.516409  1
  Co  Co5  1  0.663906  0.831418  0.793181  1
  Co  Co6  1  0.832615  0.167385  0.294344  1
  Co  Co7  1  0.666726  0.333274  0.013844  1
  O  O8  1  0.162741  0.335253  0.398655  1
  O  O9  1  0.477064  0.522936  0.662549  1
  O  O10  1  0.335699  0.664301  0.903209  1
  O  O11  1  0.996507  0.003493  0.681432  1
  O  O12  1  0.997982  0.002018  0.179900  1
  O  O13  1  0.664747  0.837259  0.398655  1
  O  O14  1  0.041764  0.515769  0.657697  1
  O  O15  1  0.484231  0.958236  0.657697  1
  O  O16  1  0.833174  0.166826  0.895666  1
  O  O17  1  0.171449  0.828551  0.401211  1
  O  O18  1  0.527552  0.043195  0.157768  1
  O  O19  1  0.956805  0.472448  0.157768  1
  O  O20  1  0.667068  0.332932  0.404121  1
  O  O21  1  0.336953  0.172808  0.897784  1
  O  O22  1  0.520312  0.479688  0.153532  1
  O  O23  1  0.827192  0.663047  0.897784  1
