# generated using pymatgen
data_LiV3O5F
_symmetry_space_group_name_H-M   'P 1'
_cell_length_a   5.11223654
_cell_length_b   5.11955927
_cell_length_c   5.48923230
_cell_angle_alpha   117.36853372
_cell_angle_beta   89.70058658
_cell_angle_gamma   119.46378859
_symmetry_Int_Tables_number   1
_chemical_formula_structural   LiV3O5F
_chemical_formula_sum   'Li1 V3 O5 F1'
_cell_volume   106.45487185
_cell_formula_units_Z   1
loop_
 _symmetry_equiv_pos_site_id
 _symmetry_equiv_pos_as_xyz
  1  'x, y, z'
loop_
 _atom_site_type_symbol
 _atom_site_label
 _atom_site_symmetry_multiplicity
 _atom_site_fract_x
 _atom_site_fract_y
 _atom_site_fract_z
 _atom_site_occupancy
  Li  Li0  1  0.110440  0.863119  0.400787  1
  V  V1  1  0.876116  0.171932  0.560290  1
  V  V2  1  0.673390  0.365905  0.943692  1
  V  V3  1  0.344806  0.639093  0.033564  1
  O  O4  1  0.578580  0.069578  0.789832  1
  O  O5  1  0.716186  0.515701  0.241100  1
  O  O6  1  0.048454  0.271913  0.237635  1
  O  O7  1  0.939118  0.751262  0.761554  1
  O  O8  1  0.261601  0.424093  0.761302  1
  F  F9  1  0.451311  0.927401  0.270244  1
