# generated using pymatgen
data_Li4Mn2V3Sn3O16
_symmetry_space_group_name_H-M   'P 1'
_cell_length_a   6.12509119
_cell_length_b   6.13301738
_cell_length_c   10.00356439
_cell_angle_alpha   89.92085330
_cell_angle_beta   89.85950008
_cell_angle_gamma   60.38835830
_symmetry_Int_Tables_number   1
_chemical_formula_structural   Li4Mn2V3Sn3O16
_chemical_formula_sum   'Li4 Mn2 V3 Sn3 O16'
_cell_volume   326.70601136
_cell_formula_units_Z   1
loop_
 _symmetry_equiv_pos_site_id
 _symmetry_equiv_pos_as_xyz
  1  'x, y, z'
loop_
 _atom_site_type_symbol
 _atom_site_label
 _atom_site_symmetry_multiplicity
 _atom_site_fract_x
 _atom_site_fract_y
 _atom_site_fract_z
 _atom_site_occupancy
  Li  Li0  1  0.673094  0.650280  0.888149  1
  Li  Li1  1  0.989739  0.027373  0.995051  1
  Li  Li2  1  0.988821  0.016251  0.500791  1
  Li  Li3  1  0.338483  0.326944  0.393462  1
  Mn  Mn4  1  0.665022  0.663802  0.501094  1
  Mn  Mn5  1  0.335834  0.333358  0.996997  1
  V  V6  1  0.832343  0.338978  0.216985  1
  V  V7  1  0.177850  0.160414  0.717365  1
  V  V8  1  0.666041  0.166872  0.713217  1
  Sn  Sn9  1  0.831560  0.832967  0.214772  1
  Sn  Sn10  1  0.337030  0.832165  0.215156  1
  Sn  Sn11  1  0.168315  0.658418  0.714979  1
  O  O12  1  0.840390  0.847941  0.603822  1
  O  O13  1  0.519416  0.969342  0.335494  1
  O  O14  1  0.671169  0.658652  0.100167  1
  O  O15  1  0.994968  0.010904  0.319544  1
  O  O16  1  0.996100  0.004973  0.814674  1
  O  O17  1  0.303010  0.866241  0.604105  1
  O  O18  1  0.967625  0.497232  0.327536  1
  O  O19  1  0.522707  0.507586  0.329874  1
  O  O20  1  0.148448  0.697284  0.096253  1
  O  O21  1  0.832946  0.308679  0.613300  1
  O  O22  1  0.489016  0.473620  0.829762  1
  O  O23  1  0.037379  0.454121  0.828246  1
  O  O24  1  0.342054  0.318721  0.604569  1
  O  O25  1  0.689508  0.176551  0.107260  1
  O  O26  1  0.492580  0.032628  0.819499  1
  O  O27  1  0.148852  0.167703  0.105716  1
