# generated using pymatgen
data_Li4Mn5Cu3O16
_symmetry_space_group_name_H-M   'P 1'
_cell_length_a   5.85506720
_cell_length_b   5.85506720
_cell_length_c   9.43787700
_cell_angle_alpha   87.79840219
_cell_angle_beta   92.20159781
_cell_angle_gamma   120.96118180
_symmetry_Int_Tables_number   1
_chemical_formula_structural   Li4Mn5Cu3O16
_chemical_formula_sum   'Li4 Mn5 Cu3 O16'
_cell_volume   277.17670295
_cell_formula_units_Z   1
loop_
 _symmetry_equiv_pos_site_id
 _symmetry_equiv_pos_as_xyz
  1  'x, y, z'
loop_
 _atom_site_type_symbol
 _atom_site_label
 _atom_site_symmetry_multiplicity
 _atom_site_fract_x
 _atom_site_fract_y
 _atom_site_fract_z
 _atom_site_occupancy
  Li  Li0  1  0.667798  0.332202  0.100344  1
  Li  Li1  1  0.001092  0.998908  0.003318  1
  Li  Li2  1  0.003394  0.996606  0.510512  1
  Li  Li3  1  0.336997  0.663003  0.601420  1
  Mn  Mn4  1  0.664468  0.335532  0.515189  1
  Mn  Mn5  1  0.827723  0.172277  0.784876  1
  Mn  Mn6  1  0.329542  0.670458  0.013636  1
  Mn  Mn7  1  0.661787  0.830716  0.286362  1
  Mn  Mn8  1  0.169284  0.338213  0.286362  1
  Cu  Cu9  1  0.827149  0.660136  0.789839  1
  Cu  Cu10  1  0.339864  0.172851  0.789839  1
  Cu  Cu11  1  0.170027  0.829973  0.287955  1
  O  O12  1  0.825757  0.669919  0.404922  1
  O  O13  1  0.524689  0.475311  0.648980  1
  O  O14  1  0.669301  0.330699  0.888934  1
  O  O15  1  0.997930  0.002070  0.703516  1
  O  O16  1  0.997098  0.002902  0.193576  1
  O  O17  1  0.330081  0.174243  0.404922  1
  O  O18  1  0.966224  0.463642  0.649793  1
  O  O19  1  0.536358  0.033776  0.649793  1
  O  O20  1  0.164447  0.835553  0.907062  1
  O  O21  1  0.838176  0.161824  0.394846  1
  O  O22  1  0.492064  0.959510  0.154603  1
  O  O23  1  0.040490  0.507936  0.154603  1
  O  O24  1  0.340147  0.659853  0.391622  1
  O  O25  1  0.658146  0.846389  0.905069  1
  O  O26  1  0.482979  0.517021  0.165328  1
  O  O27  1  0.153611  0.341854  0.905069  1
