# generated using pymatgen
data_LiBi3(IO2)2
_symmetry_space_group_name_H-M   'P 1'
_cell_length_a   7.36508195
_cell_length_b   7.36508195
_cell_length_c   11.26355844
_cell_angle_alpha   90.00000000
_cell_angle_beta   90.00000000
_cell_angle_gamma   134.97182611
_symmetry_Int_Tables_number   1
_chemical_formula_structural   LiBi3(IO2)2
_chemical_formula_sum   'Li2 Bi6 I4 O8'
_cell_volume   432.24426058
_cell_formula_units_Z   2
loop_
 _symmetry_equiv_pos_site_id
 _symmetry_equiv_pos_as_xyz
  1  'x, y, z'
loop_
 _atom_site_type_symbol
 _atom_site_label
 _atom_site_symmetry_multiplicity
 _atom_site_fract_x
 _atom_site_fract_y
 _atom_site_fract_z
 _atom_site_occupancy
  Li  Li0  1  0.209483  0.790517  0.750000  1
  Li  Li1  1  0.790517  0.209483  0.250000  1
  Bi  Bi2  1  0.838180  0.161820  0.750000  1
  Bi  Bi3  1  0.332868  0.667132  0.002626  1
  Bi  Bi4  1  0.667132  0.332868  0.997374  1
  Bi  Bi5  1  0.161820  0.838180  0.250000  1
  Bi  Bi6  1  0.332868  0.667132  0.497374  1
  Bi  Bi7  1  0.667132  0.332868  0.502626  1
  I  I8  1  0.492284  0.507716  0.750000  1
  I  I9  1  0.000000  0.000000  0.000000  1
  I  I10  1  0.507716  0.492284  0.250000  1
  I  I11  1  0.000000  0.000000  0.500000  1
  O  O12  1  0.000558  0.492708  0.876518  1
  O  O13  1  0.507292  0.999442  0.876518  1
  O  O14  1  0.999442  0.507292  0.123482  1
  O  O15  1  0.492708  0.000558  0.123482  1
  O  O16  1  0.999442  0.507292  0.376518  1
  O  O17  1  0.000558  0.492708  0.623482  1
  O  O18  1  0.492708  0.000558  0.376518  1
  O  O19  1  0.507292  0.999442  0.623482  1
