# generated using pymatgen
data_LiMgCr3(SO4)6
_symmetry_space_group_name_H-M   'P 1'
_cell_length_a   8.31506428
_cell_length_b   8.32632132
_cell_length_c   8.87946842
_cell_angle_alpha   62.17905721
_cell_angle_beta   62.34175194
_cell_angle_gamma   60.40044112
_symmetry_Int_Tables_number   1
_chemical_formula_structural   LiMgCr3(SO4)6
_chemical_formula_sum   'Li1 Mg1 Cr3 S6 O24'
_cell_volume   450.39258546
_cell_formula_units_Z   1
loop_
 _symmetry_equiv_pos_site_id
 _symmetry_equiv_pos_as_xyz
  1  'x, y, z'
loop_
 _atom_site_type_symbol
 _atom_site_label
 _atom_site_symmetry_multiplicity
 _atom_site_fract_x
 _atom_site_fract_y
 _atom_site_fract_z
 _atom_site_occupancy
  Li  Li0  1  0.762874  0.423807  0.628665  1
  Mg  Mg1  1  0.161614  0.142322  0.549902  1
  Cr  Cr2  1  0.352662  0.350127  0.939381  1
  Cr  Cr3  1  0.642994  0.644815  0.069045  1
  Cr  Cr4  1  0.851167  0.853016  0.448845  1
  S  S5  1  0.036492  0.468597  0.749397  1
  S  S6  1  0.539771  0.253579  0.250301  1
  S  S7  1  0.254304  0.954943  0.250766  1
  S  S8  1  0.748217  0.037544  0.749243  1
  S  S9  1  0.464014  0.743696  0.753132  1
  S  S10  1  0.956202  0.542865  0.250363  1
  O  O11  1  0.301525  0.104210  0.076099  1
  O  O12  1  0.107752  0.507702  0.083459  1
  O  O13  1  0.004352  0.339454  0.702688  1
  O  O14  1  0.024324  0.658725  0.604421  1
  O  O15  1  0.352347  0.282712  0.389936  1
  O  O16  1  0.048919  0.982525  0.290902  1
  O  O17  1  0.517465  0.299923  0.075348  1
  O  O18  1  0.232813  0.378716  0.768977  1
  O  O19  1  0.676463  0.049236  0.293034  1
  O  O20  1  0.381568  0.759614  0.228837  1
  O  O21  1  0.630071  0.382359  0.227971  1
  O  O22  1  0.282976  0.973287  0.391536  1
  O  O23  1  0.713886  0.024130  0.605577  1
  O  O24  1  0.386094  0.607801  0.768854  1
  O  O25  1  0.617233  0.239186  0.765283  1
  O  O26  1  0.336905  0.944228  0.704871  1
  O  O27  1  0.761089  0.631046  0.227648  1
  O  O28  1  0.492952  0.690944  0.923671  1
  O  O29  1  0.947662  0.019367  0.704512  1
  O  O30  1  0.659535  0.706816  0.607868  1
  O  O31  1  0.963302  0.360195  0.402620  1
  O  O32  1  0.983108  0.681454  0.289260  1
  O  O33  1  0.890662  0.495890  0.921027  1
  O  O34  1  0.690883  0.896167  0.922157  1
