# generated using pymatgen
data_Mn2AlB2
_symmetry_space_group_name_H-M   'P 1'
_cell_length_a   5.72715217
_cell_length_b   5.72715217
_cell_length_c   2.83371301
_cell_angle_alpha   90.00000000
_cell_angle_beta   90.00000000
_cell_angle_gamma   150.70477120
_symmetry_Int_Tables_number   1
_chemical_formula_structural   Mn2AlB2
_chemical_formula_sum   'Mn2 Al1 B2'
_cell_volume   45.47966421
_cell_formula_units_Z   1
loop_
 _symmetry_equiv_pos_site_id
 _symmetry_equiv_pos_as_xyz
  1  'x, y, z'
loop_
 _atom_site_type_symbol
 _atom_site_label
 _atom_site_symmetry_multiplicity
 _atom_site_fract_x
 _atom_site_fract_y
 _atom_site_fract_z
 _atom_site_occupancy
  Mn  Mn0  1  0.645104  0.354896  0.500000  1
  Mn  Mn1  1  0.354896  0.645104  0.500000  1
  Al  Al2  1  0.000000  0.000000  0.000000  1
  B  B3  1  0.206073  0.793927  1.000000  1
  B  B4  1  0.793927  0.206073  0.000000  1
