# generated using pymatgen
data_Li2Mn2Si2O7
_symmetry_space_group_name_H-M   'P 1'
_cell_length_a   5.44137696
_cell_length_b   5.44137696
_cell_length_c   13.45136678
_cell_angle_alpha   90.00000000
_cell_angle_beta   90.00000000
_cell_angle_gamma   124.23039503
_symmetry_Int_Tables_number   1
_chemical_formula_structural   Li2Mn2Si2O7
_chemical_formula_sum   'Li4 Mn4 Si4 O14'
_cell_volume   329.28746603
_cell_formula_units_Z   2
loop_
 _symmetry_equiv_pos_site_id
 _symmetry_equiv_pos_as_xyz
  1  'x, y, z'
loop_
 _atom_site_type_symbol
 _atom_site_label
 _atom_site_symmetry_multiplicity
 _atom_site_fract_x
 _atom_site_fract_y
 _atom_site_fract_z
 _atom_site_occupancy
  Li  Li0  1  0.016405  0.016405  0.000000  1
  Li  Li1  1  0.016405  0.016405  0.500000  1
  Li  Li2  1  0.006798  0.983861  0.250000  1
  Li  Li3  1  0.983861  0.006798  0.750000  1
  Mn  Mn4  1  0.343072  0.783084  0.587946  1
  Mn  Mn5  1  0.343072  0.783084  0.912054  1
  Mn  Mn6  1  0.783084  0.343072  0.412054  1
  Mn  Mn7  1  0.783084  0.343072  0.087946  1
  Si  Si8  1  0.441333  0.668393  0.137851  1
  Si  Si9  1  0.441333  0.668393  0.362149  1
  Si  Si10  1  0.668393  0.441333  0.637851  1
  Si  Si11  1  0.668393  0.441333  0.862149  1
  O  O12  1  0.146983  0.329894  0.122769  1
  O  O13  1  0.146983  0.329894  0.377231  1
  O  O14  1  0.434836  0.803363  0.250000  1
  O  O15  1  0.685320  0.753200  0.866936  1
  O  O16  1  0.685320  0.753200  0.633064  1
  O  O17  1  0.444335  0.904861  0.060671  1
  O  O18  1  0.444335  0.904861  0.439329  1
  O  O19  1  0.329894  0.146983  0.877231  1
  O  O20  1  0.329894  0.146983  0.622769  1
  O  O21  1  0.803363  0.434836  0.750000  1
  O  O22  1  0.753200  0.685320  0.366936  1
  O  O23  1  0.753200  0.685320  0.133064  1
  O  O24  1  0.904861  0.444335  0.560671  1
  O  O25  1  0.904861  0.444335  0.939329  1
