# generated using pymatgen
data_Tb2Ti2O7
_symmetry_space_group_name_H-M   'P 1'
_cell_length_a   7.54996121
_cell_length_b   5.38084200
_cell_length_c   13.24859231
_cell_angle_alpha   90.00000000
_cell_angle_beta   98.36306732
_cell_angle_gamma   90.00000000
_symmetry_Int_Tables_number   1
_chemical_formula_structural   Tb2Ti2O7
_chemical_formula_sum   'Tb8 Ti8 O28'
_cell_volume   532.50269008
_cell_formula_units_Z   4
loop_
 _symmetry_equiv_pos_site_id
 _symmetry_equiv_pos_as_xyz
  1  'x, y, z'
loop_
 _atom_site_type_symbol
 _atom_site_label
 _atom_site_symmetry_multiplicity
 _atom_site_fract_x
 _atom_site_fract_y
 _atom_site_fract_z
 _atom_site_occupancy
  Tb  Tb0  1  0.352490  0.224716  0.884377  1
  Tb  Tb1  1  0.284002  0.763695  0.631951  1
  Tb  Tb2  1  0.856365  0.145418  0.936474  1
  Tb  Tb3  1  0.647510  0.724716  0.115623  1
  Tb  Tb4  1  0.764284  0.743033  0.574747  1
  Tb  Tb5  1  0.715998  0.263695  0.368049  1
  Tb  Tb6  1  0.235716  0.243033  0.425253  1
  Tb  Tb7  1  0.143635  0.645418  0.063526  1
  Ti  Ti8  1  0.411365  0.209203  0.170764  1
  Ti  Ti9  1  0.470014  0.744384  0.371597  1
  Ti  Ti10  1  0.969541  0.743139  0.376743  1
  Ti  Ti11  1  0.529986  0.244384  0.628403  1
  Ti  Ti12  1  0.588635  0.709203  0.829236  1
  Ti  Ti13  1  0.931334  0.220514  0.178574  1
  Ti  Ti14  1  0.030459  0.243139  0.623257  1
  Ti  Ti15  1  0.068666  0.720514  0.821426  1
  O  O16  1  0.057302  0.976315  0.524438  1
  O  O17  1  0.126939  0.057093  0.732083  1
  O  O18  1  0.513243  0.559716  0.262272  1
  O  O19  1  0.423084  0.080389  0.321142  1
  O  O20  1  0.411972  0.415704  0.052732  1
  O  O21  1  0.326147  0.630484  0.804972  1
  O  O22  1  0.366411  0.910824  0.115366  1
  O  O23  1  0.272666  0.356928  0.590858  1
  O  O24  1  0.545066  0.481397  0.470787  1
  O  O25  1  0.486757  0.059716  0.737728  1
  O  O26  1  0.454934  0.981397  0.529213  1
  O  O27  1  0.588028  0.915704  0.947268  1
  O  O28  1  0.861942  0.438084  0.068921  1
  O  O29  1  0.673853  0.130484  0.195028  1
  O  O30  1  0.727334  0.856928  0.409142  1
  O  O31  1  0.826663  0.828513  0.815474  1
  O  O32  1  0.778392  0.168085  0.616659  1
  O  O33  1  0.926705  0.943439  0.092619  1
  O  O34  1  0.633589  0.410824  0.884634  1
  O  O35  1  0.990465  0.077877  0.319749  1
  O  O36  1  0.576916  0.580389  0.678858  1
  O  O37  1  0.942698  0.476315  0.475562  1
  O  O38  1  0.873061  0.557093  0.267917  1
  O  O39  1  0.221608  0.668085  0.383341  1
  O  O40  1  0.138058  0.938084  0.931079  1
  O  O41  1  0.173337  0.328513  0.184526  1
  O  O42  1  0.073295  0.443439  0.907381  1
  O  O43  1  0.009535  0.577877  0.680251  1
