# generated using pymatgen
data_Ca(AgGe)2
_symmetry_space_group_name_H-M   'P 1'
_cell_length_a   6.31329233
_cell_length_b   6.31329233
_cell_length_c   6.31329233
_cell_angle_alpha   139.43322345
_cell_angle_beta   139.43322345
_cell_angle_gamma   58.71488762
_symmetry_Int_Tables_number   1
_chemical_formula_structural   Ca(AgGe)2
_chemical_formula_sum   'Ca1 Ag2 Ge2'
_cell_volume   105.42674934
_cell_formula_units_Z   1
loop_
 _symmetry_equiv_pos_site_id
 _symmetry_equiv_pos_as_xyz
  1  'x, y, z'
loop_
 _atom_site_type_symbol
 _atom_site_label
 _atom_site_symmetry_multiplicity
 _atom_site_fract_x
 _atom_site_fract_y
 _atom_site_fract_z
 _atom_site_occupancy
  Ca  Ca0  1  0.000000  0.000000  0.000000  1
  Ag  Ag1  1  0.250000  0.750000  0.500000  1
  Ag  Ag2  1  0.750000  0.250000  0.500000  1
  Ge  Ge3  1  0.389492  0.389492  0.000000  1
  Ge  Ge4  1  0.610508  0.610508  0.000000  1
