# generated using pymatgen
data_LiFe2(CO3)3
_symmetry_space_group_name_H-M   'P 1'
_cell_length_a   5.87377571
_cell_length_b   4.98359998
_cell_length_c   6.08272046
_cell_angle_alpha   90.00000000
_cell_angle_beta   108.41708122
_cell_angle_gamma   90.00000000
_symmetry_Int_Tables_number   1
_chemical_formula_structural   LiFe2(CO3)3
_chemical_formula_sum   'Li1 Fe2 C3 O9'
_cell_volume   168.93699661
_cell_formula_units_Z   1
loop_
 _symmetry_equiv_pos_site_id
 _symmetry_equiv_pos_as_xyz
  1  'x, y, z'
loop_
 _atom_site_type_symbol
 _atom_site_label
 _atom_site_symmetry_multiplicity
 _atom_site_fract_x
 _atom_site_fract_y
 _atom_site_fract_z
 _atom_site_occupancy
  Li  Li0  1  0.225604  0.500000  0.810366  1
  Fe  Fe1  1  0.077420  0.000000  0.089413  1
  Fe  Fe2  1  0.408517  0.500000  0.396953  1
  C  C3  1  0.539863  0.000000  0.135882  1
  C  C4  1  0.149852  0.000000  0.550830  1
  C  C5  1  0.757189  0.500000  0.757455  1
  O  O6  1  0.737029  0.000000  0.099374  1
  O  O7  1  0.110950  0.000000  0.744097  1
  O  O8  1  0.420816  0.222444  0.147403  1
  O  O9  1  0.163541  0.223340  0.441784  1
  O  O10  1  0.764843  0.500000  0.543472  1
  O  O11  1  0.945792  0.500000  0.931736  1
  O  O12  1  0.536811  0.500000  0.763625  1
  O  O13  1  0.420816  0.777556  0.147403  1
  O  O14  1  0.163541  0.776660  0.441784  1
