# generated using pymatgen
data_Tm(ClO4)3
_symmetry_space_group_name_H-M   'P 1'
_cell_length_a   9.39222950
_cell_length_b   9.39222950
_cell_length_c   9.39222950
_cell_angle_alpha   51.78829147
_cell_angle_beta   51.78829147
_cell_angle_gamma   51.78829147
_symmetry_Int_Tables_number   1
_chemical_formula_structural   Tm(ClO4)3
_chemical_formula_sum   'Tm2 Cl6 O24'
_cell_volume   472.68137072
_cell_formula_units_Z   2
loop_
 _symmetry_equiv_pos_site_id
 _symmetry_equiv_pos_as_xyz
  1  'x, y, z'
loop_
 _atom_site_type_symbol
 _atom_site_label
 _atom_site_symmetry_multiplicity
 _atom_site_fract_x
 _atom_site_fract_y
 _atom_site_fract_z
 _atom_site_occupancy
  Tm  Tm0  1  0.058794  0.058794  0.058794  1
  Tm  Tm1  1  0.558794  0.558794  0.558794  1
  Cl  Cl2  1  0.465644  0.189968  0.845113  1
  Cl  Cl3  1  0.189968  0.845113  0.465644  1
  Cl  Cl4  1  0.345113  0.689968  0.965644  1
  Cl  Cl5  1  0.845113  0.465644  0.189968  1
  Cl  Cl6  1  0.965644  0.345113  0.689968  1
  Cl  Cl7  1  0.689968  0.965644  0.345113  1
  O  O8  1  0.075519  0.129829  0.754737  1
  O  O9  1  0.129829  0.754737  0.075519  1
  O  O10  1  0.280238  0.201482  0.886693  1
  O  O11  1  0.998360  0.948755  0.574972  1
  O  O12  1  0.417397  0.341632  0.893364  1
  O  O13  1  0.074972  0.448755  0.498360  1
  O  O14  1  0.386693  0.701482  0.780238  1
  O  O15  1  0.754737  0.075519  0.129829  1
  O  O16  1  0.574972  0.998360  0.948755  1
  O  O17  1  0.254737  0.629829  0.575519  1
  O  O18  1  0.201482  0.886693  0.280238  1
  O  O19  1  0.341632  0.893364  0.417397  1
  O  O20  1  0.575519  0.254737  0.629829  1
  O  O21  1  0.498360  0.074972  0.448755  1
  O  O22  1  0.780238  0.386693  0.701482  1
  O  O23  1  0.701482  0.780238  0.386693  1
  O  O24  1  0.448755  0.498360  0.074972  1
  O  O25  1  0.629829  0.575519  0.254737  1
  O  O26  1  0.393364  0.841632  0.917397  1
  O  O27  1  0.893364  0.417397  0.341632  1
  O  O28  1  0.886693  0.280238  0.201482  1
  O  O29  1  0.948755  0.574972  0.998360  1
  O  O30  1  0.917397  0.393364  0.841632  1
  O  O31  1  0.841632  0.917397  0.393364  1
