# generated using pymatgen
data_Li4NbFe3Cu2(PO4)6
_symmetry_space_group_name_H-M   'P 1'
_cell_length_a   8.73691769
_cell_length_b   8.77083751
_cell_length_c   8.77675074
_cell_angle_alpha   61.25785242
_cell_angle_beta   60.90277671
_cell_angle_gamma   61.51481867
_symmetry_Int_Tables_number   1
_chemical_formula_structural   Li4NbFe3Cu2(PO4)6
_chemical_formula_sum   'Li4 Nb1 Fe3 Cu2 P6 O24'
_cell_volume   488.65084090
_cell_formula_units_Z   1
loop_
 _symmetry_equiv_pos_site_id
 _symmetry_equiv_pos_as_xyz
  1  'x, y, z'
loop_
 _atom_site_type_symbol
 _atom_site_label
 _atom_site_symmetry_multiplicity
 _atom_site_fract_x
 _atom_site_fract_y
 _atom_site_fract_z
 _atom_site_occupancy
  Li  Li0  1  0.734160  0.159470  0.356451  1
  Li  Li1  1  0.311797  0.829346  0.645061  1
  Li  Li2  1  0.643062  0.309146  0.834882  1
  Li  Li3  1  0.829002  0.641523  0.313668  1
  Nb  Nb4  1  0.854177  0.848599  0.854292  1
  Fe  Fe5  1  0.145939  0.148068  0.143486  1
  Fe  Fe6  1  0.354236  0.358314  0.354230  1
  Fe  Fe7  1  0.651692  0.649657  0.658229  1
  Cu  Cu8  1  0.035742  0.997489  0.989869  1
  Cu  Cu9  1  0.464783  0.519110  0.502256  1
  P  P10  1  0.051340  0.749493  0.439666  1
  P  P11  1  0.445976  0.044843  0.749737  1
  P  P12  1  0.751938  0.438742  0.048589  1
  P  P13  1  0.248963  0.540466  0.961166  1
  P  P14  1  0.545357  0.961162  0.253312  1
  P  P15  1  0.951837  0.248787  0.536756  1
  O  O16  1  0.126229  0.267967  0.510007  1
  O  O17  1  0.286206  0.530243  0.116301  1
  O  O18  1  0.066562  0.918035  0.262489  1
  O  O19  1  0.556614  0.111482  0.285012  1
  O  O20  1  0.985542  0.812916  0.611617  1
  O  O21  1  0.233559  0.593932  0.443540  1
  O  O22  1  0.260962  0.082368  0.906487  1
  O  O23  1  0.475148  0.214313  0.580756  1
  O  O24  1  0.168877  0.395027  0.010182  1
  O  O25  1  0.600461  0.436974  0.236754  1
  O  O26  1  0.101592  0.743460  0.902875  1
  O  O27  1  0.383960  0.025629  0.188853  1
  O  O28  1  0.611743  0.973915  0.822583  1
  O  O29  1  0.909348  0.252878  0.076080  1
  O  O30  1  0.416855  0.541135  0.776756  1
  O  O31  1  0.820238  0.606406  0.981959  1
  O  O32  1  0.542472  0.779763  0.420299  1
  O  O33  1  0.739688  0.896870  0.100675  1
  O  O34  1  0.774675  0.419990  0.551323  1
  O  O35  1  0.967384  0.187343  0.390564  1
  O  O36  1  0.462258  0.887909  0.704491  1
  O  O37  1  0.899632  0.098006  0.738506  1
  O  O38  1  0.692455  0.462528  0.899589  1
  O  O39  1  0.897538  0.693698  0.463654  1
