# generated using pymatgen
data_Li4CrFe3O8
_symmetry_space_group_name_H-M   'P 1'
_cell_length_a   5.18540979
_cell_length_b   5.96264350
_cell_length_c   10.75287244
_cell_angle_alpha   106.08938588
_cell_angle_beta   94.55218377
_cell_angle_gamma   106.71082380
_symmetry_Int_Tables_number   1
_chemical_formula_structural   Li4CrFe3O8
_chemical_formula_sum   'Li8 Cr2 Fe6 O16'
_cell_volume   301.34768874
_cell_formula_units_Z   2
loop_
 _symmetry_equiv_pos_site_id
 _symmetry_equiv_pos_as_xyz
  1  'x, y, z'
loop_
 _atom_site_type_symbol
 _atom_site_label
 _atom_site_symmetry_multiplicity
 _atom_site_fract_x
 _atom_site_fract_y
 _atom_site_fract_z
 _atom_site_occupancy
  Li  Li0  1  0.001417  0.563207  0.125273  1
  Li  Li1  1  0.999753  0.938222  0.874259  1
  Li  Li2  1  0.998293  0.186603  0.374491  1
  Li  Li3  1  0.001707  0.813397  0.625509  1
  Li  Li4  1  0.000247  0.061778  0.125741  1
  Li  Li5  1  0.998583  0.436793  0.874727  1
  Li  Li6  1  0.999957  0.688622  0.374203  1
  Li  Li7  1  0.000043  0.311378  0.625797  1
  Cr  Cr8  1  0.500229  0.875019  0.250162  1
  Cr  Cr9  1  0.499771  0.124981  0.749838  1
  Fe  Fe10  1  0.499819  0.750056  0.000019  1
  Fe  Fe11  1  0.499920  0.375057  0.249822  1
  Fe  Fe12  1  0.500000  0.000000  0.500000  1
  Fe  Fe13  1  0.500181  0.249944  0.999981  1
  Fe  Fe14  1  0.500080  0.624943  0.750178  1
  Fe  Fe15  1  0.500000  0.500000  0.500000  1
  O  O16  1  0.271504  0.160259  0.565243  1
  O  O17  1  0.729496  0.339387  0.435785  1
  O  O18  1  0.269212  0.410364  0.063450  1
  O  O19  1  0.730788  0.589636  0.936550  1
  O  O20  1  0.727758  0.964902  0.686104  1
  O  O21  1  0.271271  0.787617  0.813737  1
  O  O22  1  0.272242  0.035098  0.313896  1
  O  O23  1  0.728729  0.212383  0.186263  1
  O  O24  1  0.270504  0.660613  0.564215  1
  O  O25  1  0.728496  0.839741  0.434757  1
  O  O26  1  0.272555  0.910425  0.065891  1
  O  O27  1  0.727445  0.089575  0.934109  1
  O  O28  1  0.272324  0.284524  0.814005  1
  O  O29  1  0.271281  0.537115  0.313711  1
  O  O30  1  0.728719  0.462885  0.686289  1
  O  O31  1  0.727676  0.715476  0.185995  1
