# generated using pymatgen
data_LiTi2(PO4)3
_symmetry_space_group_name_H-M   'P 1'
_cell_length_a   8.64861030
_cell_length_b   8.70920450
_cell_length_c   12.00716347
_cell_angle_alpha   90.00000000
_cell_angle_beta   90.00000000
_cell_angle_gamma   90.00000000
_symmetry_Int_Tables_number   1
_chemical_formula_structural   LiTi2(PO4)3
_chemical_formula_sum   'Li4 Ti8 P12 O48'
_cell_volume   904.40975950
_cell_formula_units_Z   4
loop_
 _symmetry_equiv_pos_site_id
 _symmetry_equiv_pos_as_xyz
  1  'x, y, z'
loop_
 _atom_site_type_symbol
 _atom_site_label
 _atom_site_symmetry_multiplicity
 _atom_site_fract_x
 _atom_site_fract_y
 _atom_site_fract_z
 _atom_site_occupancy
  Li  Li0  1  0.534079  0.271202  0.817106  1
  Li  Li1  1  0.465921  0.728798  0.317106  1
  Li  Li2  1  0.034079  0.228798  0.317106  1
  Li  Li3  1  0.965921  0.771202  0.817106  1
  Ti  Ti4  1  0.505110  0.048386  0.379446  1
  Ti  Ti5  1  0.498469  0.471696  0.616208  1
  Ti  Ti6  1  0.501531  0.528304  0.116208  1
  Ti  Ti7  1  0.494890  0.951614  0.879446  1
  Ti  Ti8  1  0.998469  0.028304  0.116208  1
  Ti  Ti9  1  0.005110  0.451614  0.879446  1
  Ti  Ti10  1  0.994890  0.548386  0.379446  1
  Ti  Ti11  1  0.001531  0.971696  0.616208  1
  P  P12  1  0.712088  0.753487  0.501686  1
  P  P13  1  0.646876  0.604663  0.855561  1
  P  P14  1  0.641326  0.894308  0.144214  1
  P  P15  1  0.353124  0.395337  0.355561  1
  P  P16  1  0.358674  0.105692  0.644214  1
  P  P17  1  0.287912  0.246513  0.001686  1
  P  P18  1  0.212088  0.746513  0.001686  1
  P  P19  1  0.146876  0.895337  0.355561  1
  P  P20  1  0.141326  0.605692  0.644214  1
  P  P21  1  0.853124  0.104663  0.855561  1
  P  P22  1  0.858674  0.394308  0.144214  1
  P  P23  1  0.787912  0.253487  0.501686  1
  O  O24  1  0.686872  0.353966  0.575697  1
  O  O25  1  0.687736  0.150186  0.424390  1
  O  O26  1  0.681243  0.408903  0.154218  1
  O  O27  1  0.675862  0.098391  0.844433  1
  O  O28  1  0.588546  0.931613  0.025050  1
  O  O29  1  0.593273  0.564527  0.974464  1
  O  O30  1  0.589524  0.729419  0.176158  1
  O  O31  1  0.596408  0.770044  0.826664  1
  O  O32  1  0.603069  0.844503  0.423863  1
  O  O33  1  0.609543  0.650663  0.576564  1
  O  O34  1  0.567500  0.007898  0.227847  1
  O  O35  1  0.571831  0.484736  0.777038  1
  O  O36  1  0.428169  0.515264  0.277038  1
  O  O37  1  0.432500  0.992102  0.727847  1
  O  O38  1  0.390457  0.349337  0.076564  1
  O  O39  1  0.396931  0.155497  0.923863  1
  O  O40  1  0.410476  0.270581  0.676158  1
  O  O41  1  0.403592  0.229956  0.326664  1
  O  O42  1  0.406727  0.435473  0.474464  1
  O  O43  1  0.411454  0.068387  0.525050  1
  O  O44  1  0.318757  0.591097  0.654218  1
  O  O45  1  0.324138  0.901609  0.344433  1
  O  O46  1  0.313128  0.646034  0.075697  1
  O  O47  1  0.312264  0.849814  0.924390  1
  O  O48  1  0.187736  0.349814  0.924390  1
  O  O49  1  0.186872  0.146034  0.075697  1
  O  O50  1  0.175862  0.401609  0.344433  1
  O  O51  1  0.181243  0.091097  0.654218  1
  O  O52  1  0.093273  0.935473  0.474464  1
  O  O53  1  0.088546  0.568387  0.525050  1
  O  O54  1  0.096408  0.729956  0.326664  1
  O  O55  1  0.089524  0.770581  0.676158  1
  O  O56  1  0.109543  0.849337  0.076564  1
  O  O57  1  0.103069  0.655497  0.923863  1
  O  O58  1  0.071831  0.015264  0.277038  1
  O  O59  1  0.067500  0.492102  0.727847  1
  O  O60  1  0.932500  0.507898  0.227847  1
  O  O61  1  0.928169  0.984736  0.777038  1
  O  O62  1  0.896931  0.344503  0.423863  1
  O  O63  1  0.890457  0.150663  0.576564  1
  O  O64  1  0.910476  0.229419  0.176158  1
  O  O65  1  0.903592  0.270044  0.826664  1
  O  O66  1  0.911454  0.431613  0.025050  1
  O  O67  1  0.906727  0.064527  0.974464  1
  O  O68  1  0.824138  0.598391  0.844433  1
  O  O69  1  0.818757  0.908903  0.154218  1
  O  O70  1  0.812264  0.650186  0.424390  1
  O  O71  1  0.813128  0.853966  0.575697  1
