# generated using pymatgen
data_Li3Cu3(PO4)2
_symmetry_space_group_name_H-M   'P 1'
_cell_length_a   5.44901774
_cell_length_b   6.22257636
_cell_length_c   10.19925373
_cell_angle_alpha   89.95372639
_cell_angle_beta   89.90314132
_cell_angle_gamma   89.49314084
_symmetry_Int_Tables_number   1
_chemical_formula_structural   Li3Cu3(PO4)2
_chemical_formula_sum   'Li6 Cu6 P4 O16'
_cell_volume   345.81123737
_cell_formula_units_Z   2
loop_
 _symmetry_equiv_pos_site_id
 _symmetry_equiv_pos_as_xyz
  1  'x, y, z'
loop_
 _atom_site_type_symbol
 _atom_site_label
 _atom_site_symmetry_multiplicity
 _atom_site_fract_x
 _atom_site_fract_y
 _atom_site_fract_z
 _atom_site_occupancy
  Li  Li0  1  0.154330  0.998854  0.253973  1
  Li  Li1  1  0.153142  0.999514  0.752910  1
  Li  Li2  1  0.327498  0.250276  0.003098  1
  Li  Li3  1  0.670591  0.253383  0.753567  1
  Li  Li4  1  0.674362  0.254498  0.252878  1
  Li  Li5  1  0.847599  0.500245  0.503636  1
  Cu  Cu6  1  0.342157  0.240028  0.497663  1
  Cu  Cu7  1  0.818357  0.501203  0.002570  1
  Cu  Cu8  1  0.665691  0.738296  0.254292  1
  Cu  Cu9  1  0.661860  0.743666  0.755578  1
  Cu  Cu10  1  0.341629  0.759268  0.500817  1
  Cu  Cu11  1  0.332507  0.752543  0.000556  1
  P  P12  1  0.830357  0.010900  0.000760  1
  P  P13  1  0.828467  0.004572  0.501393  1
  P  P14  1  0.171089  0.493850  0.750068  1
  P  P15  1  0.174642  0.492607  0.250419  1
  O  O16  1  0.834516  0.012809  0.348819  1
  O  O17  1  0.092176  0.000466  0.560795  1
  O  O18  1  0.831350  0.013432  0.847947  1
  O  O19  1  0.097157  0.016398  0.055691  1
  O  O20  1  0.696378  0.209006  0.558226  1
  O  O21  1  0.678385  0.205436  0.055836  1
  O  O22  1  0.316228  0.294579  0.804063  1
  O  O23  1  0.321158  0.289169  0.297690  1
  O  O24  1  0.176924  0.489672  0.097987  1
  O  O25  1  0.907801  0.485117  0.306342  1
  O  O26  1  0.164696  0.495276  0.597823  1
  O  O27  1  0.899420  0.485296  0.799190  1
  O  O28  1  0.297312  0.706353  0.297437  1
  O  O29  1  0.292139  0.708427  0.797867  1
  O  O30  1  0.700406  0.792211  0.546869  1
  O  O31  1  0.699675  0.802647  0.050647  1
