# generated using pymatgen
data_V3(O2F)2
_symmetry_space_group_name_H-M   'P 1'
_cell_length_a   5.55017161
_cell_length_b   4.69184548
_cell_length_c   7.74426381
_cell_angle_alpha   90.00000000
_cell_angle_beta   94.77300244
_cell_angle_gamma   90.00000000
_symmetry_Int_Tables_number   1
_chemical_formula_structural   V3(O2F)2
_chemical_formula_sum   'V6 O8 F4'
_cell_volume   200.96553238
_cell_formula_units_Z   2
loop_
 _symmetry_equiv_pos_site_id
 _symmetry_equiv_pos_as_xyz
  1  'x, y, z'
loop_
 _atom_site_type_symbol
 _atom_site_label
 _atom_site_symmetry_multiplicity
 _atom_site_fract_x
 _atom_site_fract_y
 _atom_site_fract_z
 _atom_site_occupancy
  V  V0  1  0.231990  0.492722  0.995811  1
  V  V1  1  0.573194  0.518204  0.345476  1
  V  V2  1  0.903551  0.485544  0.689960  1
  V  V3  1  0.768010  0.992722  0.004189  1
  V  V4  1  0.426806  0.018204  0.654524  1
  V  V5  1  0.096449  0.985544  0.310040  1
  O  O6  1  0.713671  0.201242  0.778954  1
  O  O7  1  0.371526  0.191826  0.420906  1
  O  O8  1  0.059918  0.200416  0.102734  1
  O  O9  1  0.201568  0.306260  0.752998  1
  O  O10  1  0.940082  0.700416  0.897266  1
  O  O11  1  0.628474  0.691826  0.579094  1
  O  O12  1  0.286329  0.701242  0.221046  1
  O  O13  1  0.798432  0.806260  0.247002  1
  F  F14  1  0.882538  0.296747  0.442355  1
  F  F15  1  0.555657  0.307039  0.102117  1
  F  F16  1  0.117462  0.796747  0.557645  1
  F  F17  1  0.444343  0.807039  0.897883  1
