# generated using pymatgen
data_Li4FeTe(WO6)2
_symmetry_space_group_name_H-M   'P 1'
_cell_length_a   5.20820121
_cell_length_b   5.49377628
_cell_length_c   7.58840973
_cell_angle_alpha   85.69145003
_cell_angle_beta   89.88115651
_cell_angle_gamma   89.85952049
_symmetry_Int_Tables_number   1
_chemical_formula_structural   Li4FeTe(WO6)2
_chemical_formula_sum   'Li4 Fe1 Te1 W2 O12'
_cell_volume   216.51018369
_cell_formula_units_Z   1
loop_
 _symmetry_equiv_pos_site_id
 _symmetry_equiv_pos_as_xyz
  1  'x, y, z'
loop_
 _atom_site_type_symbol
 _atom_site_label
 _atom_site_symmetry_multiplicity
 _atom_site_fract_x
 _atom_site_fract_y
 _atom_site_fract_z
 _atom_site_occupancy
  Li  Li0  1  0.998981  0.589136  0.266676  1
  Li  Li1  1  0.503687  0.056198  0.805727  1
  Li  Li2  1  0.005619  0.581528  0.805048  1
  Li  Li3  1  0.492422  0.998570  0.233181  1
  Fe  Fe4  1  0.999476  0.015006  0.002475  1
  Te  Te5  1  0.502675  0.506118  0.506621  1
  W  W6  1  0.004360  0.007875  0.502451  1
  W  W7  1  0.496515  0.501346  0.003897  1
  O  O8  1  0.691329  0.812510  0.426458  1
  O  O9  1  0.877628  0.989572  0.735546  1
  O  O10  1  0.678066  0.190605  0.048519  1
  O  O11  1  0.831808  0.311043  0.431552  1
  O  O12  1  0.206748  0.306524  0.932506  1
  O  O13  1  0.633800  0.493041  0.751834  1
  O  O14  1  0.370058  0.489910  0.246394  1
  O  O15  1  0.796990  0.683275  0.051320  1
  O  O16  1  0.173071  0.677873  0.561007  1
  O  O17  1  0.302666  0.790650  0.937797  1
  O  O18  1  0.115420  0.975529  0.258762  1
  O  O19  1  0.318682  0.166090  0.563428  1
