# generated using pymatgen
data_Y2W2O9
_symmetry_space_group_name_H-M   'P 1'
_cell_length_a   7.69069184
_cell_length_b   9.74941320
_cell_length_c   9.23948776
_cell_angle_alpha   90.00000000
_cell_angle_beta   108.43197331
_cell_angle_gamma   90.00000000
_symmetry_Int_Tables_number   1
_chemical_formula_structural   Y2W2O9
_chemical_formula_sum   'Y8 W8 O36'
_cell_volume   657.23480393
_cell_formula_units_Z   4
loop_
 _symmetry_equiv_pos_site_id
 _symmetry_equiv_pos_as_xyz
  1  'x, y, z'
loop_
 _atom_site_type_symbol
 _atom_site_label
 _atom_site_symmetry_multiplicity
 _atom_site_fract_x
 _atom_site_fract_y
 _atom_site_fract_z
 _atom_site_occupancy
  Y  Y0  1  0.226312  0.057189  0.655228  1
  Y  Y1  1  0.292613  0.449539  0.570559  1
  Y  Y2  1  0.226312  0.442811  0.155228  1
  Y  Y3  1  0.292613  0.050461  0.070559  1
  Y  Y4  1  0.707387  0.949539  0.929441  1
  Y  Y5  1  0.773688  0.557189  0.844772  1
  Y  Y6  1  0.707387  0.550461  0.429441  1
  Y  Y7  1  0.773688  0.942811  0.344772  1
  W  W8  1  0.068294  0.749246  0.735589  1
  W  W9  1  0.068294  0.750754  0.235589  1
  W  W10  1  0.575149  0.273430  0.963563  1
  W  W11  1  0.424851  0.773430  0.536437  1
  W  W12  1  0.575149  0.226570  0.463563  1
  W  W13  1  0.424851  0.726570  0.036437  1
  W  W14  1  0.931706  0.249246  0.764411  1
  W  W15  1  0.931706  0.250754  0.264411  1
  O  O16  1  0.005539  0.386313  0.908070  1
  O  O17  1  0.063561  0.089299  0.850422  1
  O  O18  1  0.108251  0.283871  0.665600  1
  O  O19  1  0.005539  0.113687  0.408070  1
  O  O20  1  0.063561  0.410701  0.350422  1
  O  O21  1  0.225123  0.617559  0.918640  1
  O  O22  1  0.268620  0.865360  0.860504  1
  O  O23  1  0.108251  0.216129  0.165600  1
  O  O24  1  0.255285  0.679440  0.637349  1
  O  O25  1  0.225123  0.882441  0.418640  1
  O  O26  1  0.441888  0.102129  0.890333  1
  O  O27  1  0.268620  0.634640  0.360504  1
  O  O28  1  0.498283  0.406880  0.815852  1
  O  O29  1  0.255285  0.820560  0.137349  1
  O  O30  1  0.401855  0.202463  0.565561  1
  O  O31  1  0.598145  0.702463  0.934439  1
  O  O32  1  0.501717  0.906880  0.684148  1
  O  O33  1  0.441888  0.397871  0.390333  1
  O  O34  1  0.558112  0.602129  0.609667  1
  O  O35  1  0.498283  0.093120  0.315852  1
  O  O36  1  0.401855  0.297537  0.065561  1
  O  O37  1  0.598145  0.797537  0.434439  1
  O  O38  1  0.744715  0.179440  0.862651  1
  O  O39  1  0.501717  0.593120  0.184148  1
  O  O40  1  0.731380  0.365360  0.639496  1
  O  O41  1  0.558112  0.897871  0.109667  1
  O  O42  1  0.774877  0.117559  0.581360  1
  O  O43  1  0.744715  0.320560  0.362651  1
  O  O44  1  0.891749  0.783871  0.834400  1
  O  O45  1  0.731380  0.134640  0.139496  1
  O  O46  1  0.774877  0.382441  0.081360  1
  O  O47  1  0.936439  0.589299  0.649578  1
  O  O48  1  0.994461  0.886313  0.591930  1
  O  O49  1  0.891749  0.716129  0.334400  1
  O  O50  1  0.936439  0.910701  0.149578  1
  O  O51  1  0.994461  0.613687  0.091930  1
