# generated using pymatgen
data_Li12Cr3FeP4(CO7)4
_symmetry_space_group_name_H-M   'P 1'
_cell_length_a   8.65031391
_cell_length_b   6.47040427
_cell_length_c   10.02797134
_cell_angle_alpha   90.00000000
_cell_angle_beta   94.38848896
_cell_angle_gamma   90.00000000
_symmetry_Int_Tables_number   1
_chemical_formula_structural   Li12Cr3FeP4(CO7)4
_chemical_formula_sum   'Li12 Cr3 Fe1 P4 C4 O28'
_cell_volume   559.63028577
_cell_formula_units_Z   1
loop_
 _symmetry_equiv_pos_site_id
 _symmetry_equiv_pos_as_xyz
  1  'x, y, z'
loop_
 _atom_site_type_symbol
 _atom_site_label
 _atom_site_symmetry_multiplicity
 _atom_site_fract_x
 _atom_site_fract_y
 _atom_site_fract_z
 _atom_site_occupancy
  Li  Li0  1  0.905325  0.000000  0.382395  1
  Li  Li1  1  0.903727  0.000000  0.879486  1
  Li  Li2  1  0.726286  0.225171  0.125243  1
  Li  Li3  1  0.726286  0.774829  0.125243  1
  Li  Li4  1  0.726143  0.225601  0.624827  1
  Li  Li5  1  0.726143  0.774399  0.624827  1
  Li  Li6  1  0.273879  0.726249  0.374946  1
  Li  Li7  1  0.273879  0.273751  0.374946  1
  Li  Li8  1  0.273159  0.726251  0.874484  1
  Li  Li9  1  0.273159  0.273749  0.874484  1
  Li  Li10  1  0.097559  0.500000  0.119415  1
  Li  Li11  1  0.097305  0.500000  0.619388  1
  Cr  Cr12  1  0.664812  0.500000  0.393044  1
  Cr  Cr13  1  0.664496  0.500000  0.893059  1
  Cr  Cr14  1  0.334521  0.000000  0.107510  1
  Fe  Fe15  1  0.334353  0.000000  0.605118  1
  P  P16  1  0.588934  0.000000  0.358661  1
  P  P17  1  0.586254  0.000000  0.858957  1
  P  P18  1  0.411236  0.500000  0.140754  1
  P  P19  1  0.410893  0.500000  0.640239  1
  C  C20  1  0.968296  0.500000  0.353099  1
  C  C21  1  0.968362  0.500000  0.853397  1
  C  C22  1  0.031524  0.000000  0.146861  1
  C  C23  1  0.034772  0.000000  0.649235  1
  O  O24  1  0.938919  0.500000  0.476891  1
  O  O25  1  0.889654  0.000000  0.183006  1
  O  O26  1  0.938707  0.500000  0.977192  1
  O  O27  1  0.852807  0.500000  0.260479  1
  O  O28  1  0.890436  0.000000  0.679533  1
  O  O29  1  0.852911  0.500000  0.760690  1
  O  O30  1  0.688050  0.186499  0.414911  1
  O  O31  1  0.688050  0.813501  0.414911  1
  O  O32  1  0.687165  0.186311  0.912590  1
  O  O33  1  0.687165  0.813689  0.912590  1
  O  O34  1  0.577787  0.500000  0.093398  1
  O  O35  1  0.580630  0.000000  0.203368  1
  O  O36  1  0.577629  0.500000  0.593624  1
  O  O37  1  0.571253  0.000000  0.702771  1
  O  O38  1  0.420905  0.500000  0.296088  1
  O  O39  1  0.422282  0.000000  0.404748  1
  O  O40  1  0.420030  0.500000  0.795521  1
  O  O41  1  0.422047  0.000000  0.909101  1
  O  O42  1  0.312161  0.313568  0.085212  1
  O  O43  1  0.312161  0.686432  0.085212  1
  O  O44  1  0.312289  0.687287  0.584659  1
  O  O45  1  0.312289  0.312713  0.584659  1
  O  O46  1  0.146782  0.000000  0.239528  1
  O  O47  1  0.109975  0.500000  0.317487  1
  O  O48  1  0.146116  0.000000  0.744688  1
  O  O49  1  0.060401  0.000000  0.023279  1
  O  O50  1  0.109921  0.500000  0.817772  1
  O  O51  1  0.070177  0.000000  0.526472  1
