# generated using pymatgen
data_LiMn3(OF3)2
_symmetry_space_group_name_H-M   'P 1'
_cell_length_a   5.28645836
_cell_length_b   5.40223477
_cell_length_c   6.14276737
_cell_angle_alpha   110.82666012
_cell_angle_beta   88.06944525
_cell_angle_gamma   101.03615483
_symmetry_Int_Tables_number   1
_chemical_formula_structural   LiMn3(OF3)2
_chemical_formula_sum   'Li1 Mn3 O2 F6'
_cell_volume   160.82157315
_cell_formula_units_Z   1
loop_
 _symmetry_equiv_pos_site_id
 _symmetry_equiv_pos_as_xyz
  1  'x, y, z'
loop_
 _atom_site_type_symbol
 _atom_site_label
 _atom_site_symmetry_multiplicity
 _atom_site_fract_x
 _atom_site_fract_y
 _atom_site_fract_z
 _atom_site_occupancy
  Li  Li0  1  0.467376  0.970232  0.728829  1
  Mn  Mn1  1  0.750995  0.497536  0.628532  1
  Mn  Mn2  1  0.250465  0.499431  0.866662  1
  Mn  Mn3  1  0.763722  0.517739  0.129584  1
  O  O4  1  0.884244  0.328712  0.829531  1
  O  O5  1  0.590388  0.700860  0.894731  1
  F  F6  1  0.384578  0.222821  0.595555  1
  F  F7  1  0.853520  0.288951  0.332025  1
  F  F8  1  0.422000  0.293298  0.044699  1
  F  F9  1  0.654094  0.712699  0.447362  1
  F  F10  1  0.143218  0.728684  0.705118  1
  F  F11  1  0.104690  0.724961  0.178664  1
