# generated using pymatgen
data_Rb4LiH3(SO4)4
_symmetry_space_group_name_H-M   'P 1'
_cell_length_a   7.74802788
_cell_length_b   7.74802788
_cell_length_c   30.00459738
_cell_angle_alpha   90.00000000
_cell_angle_beta   90.00000000
_cell_angle_gamma   90.00000000
_symmetry_Int_Tables_number   1
_chemical_formula_structural   Rb4LiH3(SO4)4
_chemical_formula_sum   'Rb16 Li4 H12 S16 O64'
_cell_volume   1801.23407050
_cell_formula_units_Z   4
loop_
 _symmetry_equiv_pos_site_id
 _symmetry_equiv_pos_as_xyz
  1  'x, y, z'
loop_
 _atom_site_type_symbol
 _atom_site_label
 _atom_site_symmetry_multiplicity
 _atom_site_fract_x
 _atom_site_fract_y
 _atom_site_fract_z
 _atom_site_occupancy
  Rb  Rb0  1  0.934642  0.114421  0.474821  1
  Rb  Rb1  1  0.065358  0.885579  0.974821  1
  Rb  Rb2  1  0.114421  0.065358  0.724821  1
  Rb  Rb3  1  0.885579  0.934642  0.224821  1
  Rb  Rb4  1  0.518527  0.227087  0.370003  1
  Rb  Rb5  1  0.481473  0.772913  0.870003  1
  Rb  Rb6  1  0.227087  0.481473  0.620003  1
  Rb  Rb7  1  0.772913  0.518527  0.120003  1
  Rb  Rb8  1  0.635796  0.617999  0.488055  1
  Rb  Rb9  1  0.364204  0.382001  0.988055  1
  Rb  Rb10  1  0.617999  0.364204  0.738055  1
  Rb  Rb11  1  0.382001  0.635796  0.238055  1
  Rb  Rb12  1  0.023852  0.528603  0.359593  1
  Rb  Rb13  1  0.976148  0.471397  0.859593  1
  Rb  Rb14  1  0.528603  0.976148  0.609593  1
  Rb  Rb15  1  0.471397  0.023852  0.109593  1
  Li  Li16  1  0.279237  0.871419  0.422454  1
  Li  Li17  1  0.720763  0.128581  0.922454  1
  Li  Li18  1  0.871419  0.720763  0.672454  1
  Li  Li19  1  0.128581  0.279237  0.172454  1
  H  H20  1  0.072241  0.783883  0.538872  1
  H  H21  1  0.927759  0.216117  0.038872  1
  H  H22  1  0.783883  0.927759  0.788872  1
  H  H23  1  0.216117  0.072241  0.288872  1
  H  H24  1  0.312810  0.318129  0.523915  1
  H  H25  1  0.687190  0.681871  0.023915  1
  H  H26  1  0.318129  0.687190  0.773915  1
  H  H27  1  0.681871  0.312810  0.273915  1
  H  H28  1  0.732272  0.846282  0.323389  1
  H  H29  1  0.267728  0.153718  0.823389  1
  H  H30  1  0.846282  0.267728  0.573389  1
  H  H31  1  0.153718  0.732272  0.073389  1
  S  S32  1  0.126045  0.586249  0.485538  1
  S  S33  1  0.873955  0.413751  0.985538  1
  S  S34  1  0.586249  0.873955  0.735538  1
  S  S35  1  0.413751  0.126045  0.235538  1
  S  S36  1  0.463420  0.124920  0.488328  1
  S  S37  1  0.536580  0.875080  0.988328  1
  S  S38  1  0.124920  0.536580  0.738328  1
  S  S39  1  0.875080  0.463420  0.238328  1
  S  S40  1  0.537212  0.695512  0.360269  1
  S  S41  1  0.462788  0.304488  0.860269  1
  S  S42  1  0.695512  0.462788  0.610269  1
  S  S43  1  0.304488  0.537212  0.110269  1
  S  S44  1  0.006603  0.036498  0.356228  1
  S  S45  1  0.993397  0.963502  0.856228  1
  S  S46  1  0.036498  0.993397  0.606228  1
  S  S47  1  0.963502  0.006603  0.106228  1
  O  O48  1  0.259055  0.652712  0.454889  1
  O  O49  1  0.740945  0.347288  0.954889  1
  O  O50  1  0.652712  0.740945  0.704889  1
  O  O51  1  0.347288  0.259055  0.204889  1
  O  O52  1  0.027685  0.745462  0.506813  1
  O  O53  1  0.972315  0.254538  0.006813  1
  O  O54  1  0.745462  0.972315  0.756813  1
  O  O55  1  0.254538  0.027685  0.256813  1
  O  O56  1  0.204762  0.493687  0.523622  1
  O  O57  1  0.795238  0.506313  0.023622  1
  O  O58  1  0.493687  0.795238  0.773622  1
  O  O59  1  0.506313  0.204762  0.273622  1
  O  O60  1  0.993772  0.487675  0.462074  1
  O  O61  1  0.006228  0.512325  0.962074  1
  O  O62  1  0.487675  0.006228  0.712074  1
  O  O63  1  0.512325  0.993772  0.212074  1
  O  O64  1  0.558827  0.977083  0.505974  1
  O  O65  1  0.441173  0.022917  0.005974  1
  O  O66  1  0.977083  0.441173  0.755974  1
  O  O67  1  0.022917  0.558827  0.255974  1
  O  O68  1  0.574265  0.255715  0.467472  1
  O  O69  1  0.425735  0.744285  0.967472  1
  O  O70  1  0.255715  0.425735  0.717472  1
  O  O71  1  0.744285  0.574265  0.217472  1
  O  O72  1  0.378919  0.208540  0.531489  1
  O  O73  1  0.621081  0.791460  0.031489  1
  O  O74  1  0.208540  0.621081  0.781489  1
  O  O75  1  0.791460  0.378919  0.281489  1
  O  O76  1  0.318459  0.077130  0.458752  1
  O  O77  1  0.681541  0.922870  0.958752  1
  O  O78  1  0.077130  0.681541  0.708752  1
  O  O79  1  0.922870  0.318459  0.208752  1
  O  O80  1  0.893319  0.166412  0.377334  1
  O  O81  1  0.106681  0.833588  0.877334  1
  O  O82  1  0.166412  0.106681  0.627334  1
  O  O83  1  0.833588  0.893319  0.127334  1
  O  O84  1  0.070770  0.913558  0.390720  1
  O  O85  1  0.929230  0.086442  0.890720  1
  O  O86  1  0.913558  0.929230  0.640720  1
  O  O87  1  0.086442  0.070770  0.140720  1
  O  O88  1  0.911662  0.936854  0.321108  1
  O  O89  1  0.088338  0.063146  0.821108  1
  O  O90  1  0.936854  0.088338  0.571108  1
  O  O91  1  0.063146  0.911662  0.071108  1
  O  O92  1  0.157607  0.126357  0.334051  1
  O  O93  1  0.842393  0.873643  0.834051  1
  O  O94  1  0.126357  0.842393  0.584051  1
  O  O95  1  0.873643  0.157607  0.084051  1
  O  O96  1  0.487008  0.845678  0.387624  1
  O  O97  1  0.512992  0.154322  0.887624  1
  O  O98  1  0.845678  0.512992  0.637624  1
  O  O99  1  0.154322  0.487008  0.137624  1
  O  O100  1  0.391105  0.596047  0.342740  1
  O  O101  1  0.608895  0.403953  0.842740  1
  O  O102  1  0.596047  0.608895  0.592740  1
  O  O103  1  0.403953  0.391105  0.092740  1
  O  O104  1  0.623905  0.773116  0.316659  1
  O  O105  1  0.376095  0.226884  0.816659  1
  O  O106  1  0.773116  0.376095  0.566659  1
  O  O107  1  0.226884  0.623905  0.066659  1
  O  O108  1  0.664243  0.587033  0.383515  1
  O  O109  1  0.335757  0.412967  0.883515  1
  O  O110  1  0.587033  0.335757  0.633515  1
  O  O111  1  0.412967  0.664243  0.133515  1
