# generated using pymatgen
data_Na4Cr2C4SO16
_symmetry_space_group_name_H-M   'P 1'
_cell_length_a   9.92293459
_cell_length_b   9.88472090
_cell_length_c   9.71476887
_cell_angle_alpha   60.82608941
_cell_angle_beta   60.43327142
_cell_angle_gamma   58.74063916
_symmetry_Int_Tables_number   1
_chemical_formula_structural   Na4Cr2C4SO16
_chemical_formula_sum   'Na8 Cr4 C8 S2 O32'
_cell_volume   673.28740563
_cell_formula_units_Z   2
loop_
 _symmetry_equiv_pos_site_id
 _symmetry_equiv_pos_as_xyz
  1  'x, y, z'
loop_
 _atom_site_type_symbol
 _atom_site_label
 _atom_site_symmetry_multiplicity
 _atom_site_fract_x
 _atom_site_fract_y
 _atom_site_fract_z
 _atom_site_occupancy
  Na  Na0  1  0.041193  0.458807  0.041193  1
  Na  Na1  1  0.459376  0.040624  0.040625  1
  Na  Na2  1  0.209376  0.790624  0.790624  1
  Na  Na3  1  0.791193  0.208807  0.791193  1
  Na  Na4  1  0.458807  0.041193  0.458807  1
  Na  Na5  1  0.040624  0.459376  0.459376  1
  Na  Na6  1  0.790624  0.209375  0.209376  1
  Na  Na7  1  0.208807  0.791193  0.208807  1
  Cr  Cr8  1  0.625000  0.625000  0.125000  1
  Cr  Cr9  1  0.625000  0.625000  0.625000  1
  Cr  Cr10  1  0.125000  0.625000  0.625000  1
  Cr  Cr11  1  0.625000  0.125000  0.625000  1
  C  C12  1  0.414172  0.416801  0.763605  1
  C  C13  1  0.833199  0.835828  0.844577  1
  C  C14  1  0.763605  0.405423  0.414172  1
  C  C15  1  0.405423  0.763605  0.416801  1
  C  C16  1  0.844577  0.486395  0.833199  1
  C  C17  1  0.486395  0.844577  0.835828  1
  C  C18  1  0.416801  0.414172  0.405423  1
  C  C19  1  0.835828  0.833199  0.486395  1
  S  S20  1  0.000000  0.000000  0.000000  1
  S  S21  1  0.250000  0.250000  0.250000  1
  O  O22  1  0.269998  0.442894  0.768962  1
  O  O23  1  0.068112  0.813354  0.058941  1
  O  O24  1  0.440556  0.533243  0.760364  1
  O  O25  1  0.716757  0.809444  0.984163  1
  O  O26  1  0.760364  0.265837  0.440556  1
  O  O27  1  0.980757  0.719204  0.819564  1
  O  O28  1  0.058941  0.059592  0.068112  1
  O  O29  1  0.813354  0.068112  0.059592  1
  O  O30  1  0.480475  0.819564  0.719204  1
  O  O31  1  0.265837  0.760364  0.533243  1
  O  O32  1  0.807106  0.980002  0.731853  1
  O  O33  1  0.059592  0.058941  0.813354  1
  O  O34  1  0.768962  0.518147  0.269998  1
  O  O35  1  0.518147  0.768962  0.442894  1
  O  O36  1  0.530796  0.269243  0.769525  1
  O  O37  1  0.819564  0.480475  0.980757  1
  O  O38  1  0.430436  0.769525  0.269243  1
  O  O39  1  0.719204  0.980757  0.480475  1
  O  O40  1  0.731853  0.481038  0.807106  1
  O  O41  1  0.481038  0.731853  0.980002  1
  O  O42  1  0.190408  0.191059  0.436646  1
  O  O43  1  0.442894  0.269998  0.518147  1
  O  O44  1  0.984163  0.489636  0.716757  1
  O  O45  1  0.769525  0.430436  0.530796  1
  O  O46  1  0.436646  0.181888  0.190408  1
  O  O47  1  0.191059  0.190408  0.181888  1
  O  O48  1  0.269243  0.530796  0.430436  1
  O  O49  1  0.489636  0.984163  0.809444  1
  O  O50  1  0.533243  0.440556  0.265837  1
  O  O51  1  0.809444  0.716757  0.489636  1
  O  O52  1  0.181888  0.436646  0.191059  1
  O  O53  1  0.980002  0.807106  0.481038  1
