# generated using pymatgen
data_FeOF
_symmetry_space_group_name_H-M   'P 1'
_cell_length_a   4.92189478
_cell_length_b   3.11267058
_cell_length_c   15.32986216
_cell_angle_alpha   90.00000000
_cell_angle_beta   108.77391728
_cell_angle_gamma   90.00000000
_symmetry_Int_Tables_number   1
_chemical_formula_structural   FeOF
_chemical_formula_sum   'Fe6 O6 F6'
_cell_volume   222.36175304
_cell_formula_units_Z   6
loop_
 _symmetry_equiv_pos_site_id
 _symmetry_equiv_pos_as_xyz
  1  'x, y, z'
loop_
 _atom_site_type_symbol
 _atom_site_label
 _atom_site_symmetry_multiplicity
 _atom_site_fract_x
 _atom_site_fract_y
 _atom_site_fract_z
 _atom_site_occupancy
  Fe  Fe0  1  0.979346  0.000000  0.006182  1
  Fe  Fe1  1  0.316334  0.000000  0.336532  1
  Fe  Fe2  1  0.636136  0.000000  0.668077  1
  Fe  Fe3  1  0.631565  0.500000  0.148593  1
  Fe  Fe4  1  0.051184  0.500000  0.498752  1
  Fe  Fe5  1  0.388584  0.500000  0.836145  1
  O  O6  1  0.422542  0.500000  0.606361  1
  O  O7  1  0.753549  0.500000  0.938110  1
  O  O8  1  0.761770  0.000000  0.100502  1
  O  O9  1  0.488724  0.000000  0.775104  1
  O  O10  1  0.129548  0.000000  0.435399  1
  O  O11  1  0.233364  0.500000  0.062851  1
  F  F12  1  0.046576  0.500000  0.261097  1
  F  F13  1  0.517032  0.000000  0.232758  1
  F  F14  1  0.877113  0.000000  0.565104  1
  F  F15  1  0.215388  0.000000  0.896411  1
  F  F16  1  0.604574  0.500000  0.399276  1
  F  F17  1  0.946671  0.500000  0.732745  1
