# generated using pymatgen
data_Fe3H4(S2O9)2
_symmetry_space_group_name_H-M   'P 1'
_cell_length_a   5.19202237
_cell_length_b   14.55877553
_cell_length_c   9.77382201
_cell_angle_alpha   90.00000000
_cell_angle_beta   119.20374339
_cell_angle_gamma   90.00000000
_symmetry_Int_Tables_number   1
_chemical_formula_structural   Fe3H4(S2O9)2
_chemical_formula_sum   'Fe6 H8 S8 O36'
_cell_volume   644.88971260
_cell_formula_units_Z   2
loop_
 _symmetry_equiv_pos_site_id
 _symmetry_equiv_pos_as_xyz
  1  'x, y, z'
loop_
 _atom_site_type_symbol
 _atom_site_label
 _atom_site_symmetry_multiplicity
 _atom_site_fract_x
 _atom_site_fract_y
 _atom_site_fract_z
 _atom_site_occupancy
  Fe  Fe0  1  0.000000  0.000000  0.500000  1
  Fe  Fe1  1  0.000000  0.500000  0.000000  1
  Fe  Fe2  1  0.277465  0.846999  0.026106  1
  Fe  Fe3  1  0.277465  0.653001  0.526106  1
  Fe  Fe4  1  0.722535  0.153001  0.973894  1
  Fe  Fe5  1  0.722535  0.346999  0.473894  1
  H  H6  1  0.871444  0.826998  0.546784  1
  H  H7  1  0.871444  0.673002  0.046784  1
  H  H8  1  0.128556  0.173002  0.453216  1
  H  H9  1  0.128556  0.326998  0.953216  1
  H  H10  1  0.641593  0.891912  0.562339  1
  H  H11  1  0.641593  0.608088  0.062339  1
  H  H12  1  0.358407  0.108088  0.437661  1
  H  H13  1  0.358407  0.391912  0.937661  1
  S  S14  1  0.403960  0.067194  0.177897  1
  S  S15  1  0.403960  0.432806  0.677897  1
  S  S16  1  0.596040  0.932806  0.822103  1
  S  S17  1  0.596040  0.567194  0.322103  1
  S  S18  1  0.987875  0.829203  0.269796  1
  S  S19  1  0.987875  0.670797  0.769796  1
  S  S20  1  0.012125  0.170797  0.730204  1
  S  S21  1  0.012125  0.329203  0.230204  1
  O  O22  1  0.583901  0.062579  0.350824  1
  O  O23  1  0.583901  0.437421  0.850824  1
  O  O24  1  0.416099  0.937421  0.649176  1
  O  O25  1  0.416099  0.562579  0.149176  1
  O  O26  1  0.370108  0.974703  0.107912  1
  O  O27  1  0.370108  0.525297  0.607912  1
  O  O28  1  0.629892  0.025297  0.892088  1
  O  O29  1  0.629892  0.474703  0.392088  1
  O  O30  1  0.546162  0.129816  0.114796  1
  O  O31  1  0.546162  0.370184  0.614796  1
  O  O32  1  0.453838  0.870184  0.885204  1
  O  O33  1  0.453838  0.629816  0.385204  1
  O  O34  1  0.113395  0.105145  0.143469  1
  O  O35  1  0.113395  0.394855  0.643469  1
  O  O36  1  0.886605  0.894855  0.856531  1
  O  O37  1  0.886605  0.605145  0.356531  1
  O  O38  1  0.672400  0.798335  0.195954  1
  O  O39  1  0.672400  0.701665  0.695954  1
  O  O40  1  0.327600  0.201665  0.804046  1
  O  O41  1  0.327600  0.298335  0.304046  1
  O  O42  1  0.018366  0.928120  0.301648  1
  O  O43  1  0.018366  0.571880  0.801648  1
  O  O44  1  0.981634  0.071880  0.698352  1
  O  O45  1  0.981634  0.428120  0.198352  1
  O  O46  1  0.100027  0.802755  0.159948  1
  O  O47  1  0.100027  0.697245  0.659948  1
  O  O48  1  0.899973  0.197245  0.840052  1
  O  O49  1  0.899973  0.302755  0.340052  1
  O  O50  1  0.158559  0.778359  0.420842  1
  O  O51  1  0.158559  0.721641  0.920842  1
  O  O52  1  0.841441  0.221641  0.579158  1
  O  O53  1  0.841441  0.278359  0.079158  1
  O  O54  1  0.768289  0.886036  0.513872  1
  O  O55  1  0.768289  0.613964  0.013872  1
  O  O56  1  0.231711  0.113964  0.486128  1
  O  O57  1  0.231711  0.386036  0.986128  1
