# generated using pymatgen
data_Pb(BrO3)2
_symmetry_space_group_name_H-M   'P 1'
_cell_length_a   5.71542283
_cell_length_b   6.31381333
_cell_length_c   16.51975778
_cell_angle_alpha   90.00000000
_cell_angle_beta   90.00000000
_cell_angle_gamma   90.00000000
_symmetry_Int_Tables_number   1
_chemical_formula_structural   Pb(BrO3)2
_chemical_formula_sum   'Pb4 Br8 O24'
_cell_volume   596.13384380
_cell_formula_units_Z   4
loop_
 _symmetry_equiv_pos_site_id
 _symmetry_equiv_pos_as_xyz
  1  'x, y, z'
loop_
 _atom_site_type_symbol
 _atom_site_label
 _atom_site_symmetry_multiplicity
 _atom_site_fract_x
 _atom_site_fract_y
 _atom_site_fract_z
 _atom_site_occupancy
  Pb  Pb0  1  0.259288  0.750000  0.000000  1
  Pb  Pb1  1  0.740712  0.250000  0.000000  1
  Pb  Pb2  1  0.240712  0.250000  0.500000  1
  Pb  Pb3  1  0.759288  0.750000  0.500000  1
  Br  Br4  1  0.261787  0.216987  0.153684  1
  Br  Br5  1  0.738213  0.716987  0.153684  1
  Br  Br6  1  0.238213  0.716987  0.346316  1
  Br  Br7  1  0.761787  0.216987  0.346316  1
  Br  Br8  1  0.238213  0.783013  0.653684  1
  Br  Br9  1  0.761787  0.283013  0.653684  1
  Br  Br10  1  0.261787  0.283013  0.846316  1
  Br  Br11  1  0.738213  0.783013  0.846316  1
  O  O12  1  0.605841  0.604043  0.068563  1
  O  O13  1  0.394159  0.104043  0.068563  1
  O  O14  1  0.899669  0.912655  0.109800  1
  O  O15  1  0.100331  0.412655  0.109800  1
  O  O16  1  0.522100  0.832239  0.204613  1
  O  O17  1  0.477900  0.332239  0.204613  1
  O  O18  1  0.977900  0.332239  0.295387  1
  O  O19  1  0.022100  0.832239  0.295387  1
  O  O20  1  0.399669  0.912655  0.390200  1
  O  O21  1  0.600331  0.412655  0.390200  1
  O  O22  1  0.105841  0.604043  0.431437  1
  O  O23  1  0.894159  0.104043  0.431437  1
  O  O24  1  0.105841  0.895957  0.568563  1
  O  O25  1  0.894159  0.395957  0.568563  1
  O  O26  1  0.399669  0.587345  0.609800  1
  O  O27  1  0.600331  0.087345  0.609800  1
  O  O28  1  0.977900  0.167761  0.704613  1
  O  O29  1  0.022100  0.667761  0.704613  1
  O  O30  1  0.522100  0.667761  0.795387  1
  O  O31  1  0.477900  0.167761  0.795387  1
  O  O32  1  0.100331  0.087345  0.890200  1
  O  O33  1  0.899669  0.587345  0.890200  1
  O  O34  1  0.394159  0.395957  0.931437  1
  O  O35  1  0.605841  0.895957  0.931437  1
