# generated using pymatgen
data_FeO2
_symmetry_space_group_name_H-M   'P 1'
_cell_length_a   5.87649792
_cell_length_b   5.87649792
_cell_length_c   5.87649792
_cell_angle_alpha   118.15907499
_cell_angle_beta   118.15907499
_cell_angle_gamma   93.21929278
_symmetry_Int_Tables_number   1
_chemical_formula_structural   FeO2
_chemical_formula_sum   'Fe4 O8'
_cell_volume   147.23777678
_cell_formula_units_Z   4
loop_
 _symmetry_equiv_pos_site_id
 _symmetry_equiv_pos_as_xyz
  1  'x, y, z'
loop_
 _atom_site_type_symbol
 _atom_site_label
 _atom_site_symmetry_multiplicity
 _atom_site_fract_x
 _atom_site_fract_y
 _atom_site_fract_z
 _atom_site_occupancy
  Fe  Fe0  1  0.375000  0.625000  0.250000  1
  Fe  Fe1  1  0.375000  0.125000  0.750000  1
  Fe  Fe2  1  0.875000  0.625000  0.250000  1
  Fe  Fe3  1  0.375000  0.625000  0.750000  1
  O  O4  1  0.617634  0.393952  0.223682  1
  O  O5  1  0.606048  0.382366  0.776318  1
  O  O6  1  0.132366  0.856048  0.276318  1
  O  O7  1  0.143952  0.420270  0.276318  1
  O  O8  1  0.143952  0.867634  0.723682  1
  O  O9  1  0.579730  0.856048  0.723682  1
  O  O10  1  0.606048  0.829730  0.223682  1
  O  O11  1  0.170270  0.393952  0.776318  1
