# generated using pymatgen
data_Cs3TlO3
_symmetry_space_group_name_H-M   'P 1'
_cell_length_a   7.54644255
_cell_length_b   7.54644255
_cell_length_c   7.53436898
_cell_angle_alpha   83.64222780
_cell_angle_beta   96.35777220
_cell_angle_gamma   65.42378148
_symmetry_Int_Tables_number   1
_chemical_formula_structural   Cs3TlO3
_chemical_formula_sum   'Cs6 Tl2 O6'
_cell_volume   381.92318647
_cell_formula_units_Z   2
loop_
 _symmetry_equiv_pos_site_id
 _symmetry_equiv_pos_as_xyz
  1  'x, y, z'
loop_
 _atom_site_type_symbol
 _atom_site_label
 _atom_site_symmetry_multiplicity
 _atom_site_fract_x
 _atom_site_fract_y
 _atom_site_fract_z
 _atom_site_occupancy
  Cs  Cs0  1  0.633281  0.366719  0.843687  1
  Cs  Cs1  1  0.803716  0.803716  0.000000  1
  Cs  Cs2  1  0.196284  0.196284  0.000000  1
  Cs  Cs3  1  0.743170  0.743170  0.500000  1
  Cs  Cs4  1  0.256830  0.256830  0.500000  1
  Cs  Cs5  1  0.366719  0.633281  0.156313  1
  Tl  Tl6  1  0.821089  0.178911  0.349385  1
  Tl  Tl7  1  0.178911  0.821089  0.650615  1
  O  O8  1  0.902281  0.097719  0.656589  1
  O  O9  1  0.554383  0.160704  0.226852  1
  O  O10  1  0.839296  0.445617  0.226852  1
  O  O11  1  0.160704  0.554383  0.773148  1
  O  O12  1  0.445617  0.839296  0.773148  1
  O  O13  1  0.097719  0.902281  0.343411  1
