# generated using pymatgen
data_Ni3OF5
_symmetry_space_group_name_H-M   'P 1'
_cell_length_a   5.60578396
_cell_length_b   5.61880038
_cell_length_c   7.37012098
_cell_angle_alpha   71.87203982
_cell_angle_beta   71.90181596
_cell_angle_gamma   71.59610525
_symmetry_Int_Tables_number   1
_chemical_formula_structural   Ni3OF5
_chemical_formula_sum   'Ni6 O2 F10'
_cell_volume   203.44553468
_cell_formula_units_Z   2
loop_
 _symmetry_equiv_pos_site_id
 _symmetry_equiv_pos_as_xyz
  1  'x, y, z'
loop_
 _atom_site_type_symbol
 _atom_site_label
 _atom_site_symmetry_multiplicity
 _atom_site_fract_x
 _atom_site_fract_y
 _atom_site_fract_z
 _atom_site_occupancy
  Ni  Ni0  1  0.500000  0.500000  0.500000  1
  Ni  Ni1  1  0.500000  0.500000  0.000000  1
  Ni  Ni2  1  0.180674  0.150759  0.332476  1
  Ni  Ni3  1  0.174602  0.168795  0.828723  1
  Ni  Ni4  1  0.825398  0.831205  0.171277  1
  Ni  Ni5  1  0.819326  0.849241  0.667524  1
  O  O6  1  0.473716  0.855270  0.334873  1
  O  O7  1  0.526284  0.144730  0.665127  1
  F  F8  1  0.192717  0.804379  0.003683  1
  F  F9  1  0.873032  0.458979  0.333042  1
  F  F10  1  0.066646  0.067261  0.630968  1
  F  F11  1  0.401145  0.395287  0.297144  1
  F  F12  1  0.730514  0.733157  0.965444  1
  F  F13  1  0.598855  0.604713  0.702856  1
  F  F14  1  0.269486  0.266843  0.034556  1
  F  F15  1  0.933354  0.932739  0.369032  1
  F  F16  1  0.126968  0.541021  0.666958  1
  F  F17  1  0.807283  0.195621  0.996317  1
