# generated using pymatgen
data_Li5FeNi3O8
_symmetry_space_group_name_H-M   'P 1'
_cell_length_a   5.91799032
_cell_length_b   5.91799032
_cell_length_c   9.74323355
_cell_angle_alpha   89.40567637
_cell_angle_beta   90.59432363
_cell_angle_gamma   60.82367708
_symmetry_Int_Tables_number   1
_chemical_formula_structural   Li5FeNi3O8
_chemical_formula_sum   'Li10 Fe2 Ni6 O16'
_cell_volume   297.87643670
_cell_formula_units_Z   2
loop_
 _symmetry_equiv_pos_site_id
 _symmetry_equiv_pos_as_xyz
  1  'x, y, z'
loop_
 _atom_site_type_symbol
 _atom_site_label
 _atom_site_symmetry_multiplicity
 _atom_site_fract_x
 _atom_site_fract_y
 _atom_site_fract_z
 _atom_site_occupancy
  Li  Li0  1  0.186307  0.197597  0.443163  1
  Li  Li1  1  0.316431  0.359806  0.224645  1
  Li  Li2  1  0.585666  0.216196  0.450063  1
  Li  Li3  1  0.977511  0.015782  0.515297  1
  Li  Li4  1  0.984218  0.022489  0.015297  1
  Li  Li5  1  0.185682  0.623344  0.448859  1
  Li  Li6  1  0.640194  0.683569  0.724645  1
  Li  Li7  1  0.376656  0.814318  0.948859  1
  Li  Li8  1  0.783804  0.414334  0.950063  1
  Li  Li9  1  0.802403  0.813693  0.943163  1
  Fe  Fe10  1  0.322432  0.346264  0.967213  1
  Fe  Fe11  1  0.653736  0.677568  0.467213  1
  Ni  Ni12  1  0.151629  0.179454  0.713398  1
  Ni  Ni13  1  0.645211  0.181759  0.714345  1
  Ni  Ni14  1  0.151828  0.674302  0.712582  1
  Ni  Ni15  1  0.818241  0.354789  0.214345  1
  Ni  Ni16  1  0.325698  0.848172  0.212582  1
  Ni  Ni17  1  0.820546  0.848371  0.213398  1
  O  O18  1  0.162366  0.184237  0.087392  1
  O  O19  1  0.481746  0.030086  0.839877  1
  O  O20  1  0.653787  0.195018  0.089648  1
  O  O21  1  0.320032  0.343340  0.601480  1
  O  O22  1  0.008170  0.499880  0.839929  1
  O  O23  1  0.474037  0.506040  0.839775  1
  O  O24  1  0.804982  0.346213  0.589648  1
  O  O25  1  0.156616  0.686182  0.086428  1
  O  O26  1  0.493960  0.525963  0.339775  1
  O  O27  1  0.313818  0.843384  0.586428  1
  O  O28  1  0.656660  0.679968  0.101480  1
  O  O29  1  0.989404  0.023091  0.319100  1
  O  O30  1  0.976909  0.010596  0.819100  1
  O  O31  1  0.969914  0.518254  0.339877  1
  O  O32  1  0.500120  0.991830  0.339929  1
  O  O33  1  0.815763  0.837634  0.587392  1
