# generated using pymatgen
data_ZnH12C6S2(N5O)2
_symmetry_space_group_name_H-M   'P 1'
_cell_length_a   10.02171205
_cell_length_b   10.02171205
_cell_length_c   18.73689849
_cell_angle_alpha   67.70601065
_cell_angle_beta   112.29398935
_cell_angle_gamma   152.54246749
_symmetry_Int_Tables_number   1
_chemical_formula_structural   ZnH12C6S2(N5O)2
_chemical_formula_sum   'Zn2 H24 C12 S4 N20 O4'
_cell_volume   798.79870460
_cell_formula_units_Z   2
loop_
 _symmetry_equiv_pos_site_id
 _symmetry_equiv_pos_as_xyz
  1  'x, y, z'
loop_
 _atom_site_type_symbol
 _atom_site_label
 _atom_site_symmetry_multiplicity
 _atom_site_fract_x
 _atom_site_fract_y
 _atom_site_fract_z
 _atom_site_occupancy
  Zn  Zn0  1  0.666647  0.666647  0.250000  1
  Zn  Zn1  1  0.333353  0.333353  0.750000  1
  H  H2  1  0.156699  0.395109  0.541242  1
  H  H3  1  0.395109  0.156699  0.958758  1
  H  H4  1  0.843301  0.604891  0.458758  1
  H  H5  1  0.604891  0.843301  0.041242  1
  H  H6  1  0.415145  0.501779  0.535251  1
  H  H7  1  0.501779  0.415145  0.964749  1
  H  H8  1  0.584855  0.498221  0.464749  1
  H  H9  1  0.498221  0.584855  0.035251  1
  H  H10  1  0.758318  0.119138  0.451570  1
  H  H11  1  0.119138  0.758318  0.048430  1
  H  H12  1  0.241682  0.880862  0.548430  1
  H  H13  1  0.880862  0.241682  0.951570  1
  H  H14  1  0.704773  0.012127  0.374890  1
  H  H15  1  0.012127  0.704773  0.125110  1
  H  H16  1  0.295227  0.987873  0.625110  1
  H  H17  1  0.987873  0.295227  0.874890  1
  H  H18  1  0.524383  0.879075  0.237234  1
  H  H19  1  0.879075  0.524383  0.262766  1
  H  H20  1  0.475617  0.120925  0.762766  1
  H  H21  1  0.120925  0.475617  0.737234  1
  H  H22  1  0.298341  0.766770  0.261000  1
  H  H23  1  0.766770  0.298341  0.239000  1
  H  H24  1  0.701659  0.233230  0.739000  1
  H  H25  1  0.233230  0.701659  0.761000  1
  C  C26  1  0.018865  0.099301  0.363560  1
  C  C27  1  0.099301  0.018865  0.136440  1
  C  C28  1  0.981135  0.900699  0.636440  1
  C  C29  1  0.900699  0.981135  0.863560  1
  C  C30  1  0.080532  0.267758  0.449155  1
  C  C31  1  0.267758  0.080532  0.050845  1
  C  C32  1  0.919468  0.732242  0.550845  1
  C  C33  1  0.732242  0.919468  0.949155  1
  C  C34  1  0.400959  0.138136  0.352688  1
  C  C35  1  0.138136  0.400959  0.147312  1
  C  C36  1  0.599041  0.861864  0.647312  1
  C  C37  1  0.861864  0.599041  0.852688  1
  S  S38  1  0.246467  0.854384  0.402046  1
  S  S39  1  0.854384  0.246467  0.097954  1
  S  S40  1  0.753533  0.145616  0.597954  1
  S  S41  1  0.145616  0.753533  0.902046  1
  N  N42  1  0.517952  0.348415  0.316670  1
  N  N43  1  0.348415  0.517952  0.183330  1
  N  N44  1  0.482048  0.651585  0.683330  1
  N  N45  1  0.651585  0.482048  0.816670  1
  N  N46  1  0.880084  0.945775  0.316323  1
  N  N47  1  0.945775  0.880084  0.183677  1
  N  N48  1  0.119916  0.054225  0.683677  1
  N  N49  1  0.054225  0.119916  0.816323  1
  N  N50  1  0.181662  0.270121  0.416064  1
  N  N51  1  0.270121  0.181662  0.083936  1
  N  N52  1  0.818338  0.729879  0.583936  1
  N  N53  1  0.729879  0.818338  0.916064  1
  N  N54  1  0.245871  0.425077  0.509282  1
  N  N55  1  0.425077  0.245871  0.990718  1
  N  N56  1  0.754129  0.574923  0.490718  1
  N  N57  1  0.574923  0.754129  0.009282  1
  N  N58  1  0.827846  0.118444  0.424020  1
  N  N59  1  0.118444  0.827846  0.075980  1
  N  N60  1  0.172154  0.881556  0.575980  1
  N  N61  1  0.881556  0.172154  0.924020  1
  O  O62  1  0.506007  0.917952  0.269948  1
  O  O63  1  0.917952  0.506007  0.230052  1
  O  O64  1  0.493993  0.082048  0.730052  1
  O  O65  1  0.082048  0.493993  0.769948  1
