# generated using pymatgen
data_Hf2P2O9
_symmetry_space_group_name_H-M   'P 1'
_cell_length_a   5.48797871
_cell_length_b   5.48797871
_cell_length_c   11.89418785
_cell_angle_alpha   90.00000000
_cell_angle_beta   90.00000000
_cell_angle_gamma   105.24191987
_symmetry_Int_Tables_number   1
_chemical_formula_structural   Hf2P2O9
_chemical_formula_sum   'Hf4 P4 O18'
_cell_volume   345.62719856
_cell_formula_units_Z   2
loop_
 _symmetry_equiv_pos_site_id
 _symmetry_equiv_pos_as_xyz
  1  'x, y, z'
loop_
 _atom_site_type_symbol
 _atom_site_label
 _atom_site_symmetry_multiplicity
 _atom_site_fract_x
 _atom_site_fract_y
 _atom_site_fract_z
 _atom_site_occupancy
  Hf  Hf0  1  0.205911  0.794089  0.561577  1
  Hf  Hf1  1  0.794089  0.205911  0.438423  1
  Hf  Hf2  1  0.294089  0.705911  0.061577  1
  Hf  Hf3  1  0.705911  0.294089  0.938423  1
  P  P4  1  0.105913  0.894087  0.852865  1
  P  P5  1  0.894087  0.105913  0.147135  1
  P  P6  1  0.394087  0.605913  0.352865  1
  P  P7  1  0.605913  0.394087  0.647135  1
  O  O8  1  0.634250  0.014025  0.083206  1
  O  O9  1  0.134250  0.514025  0.416794  1
  O  O10  1  0.514025  0.134250  0.583206  1
  O  O11  1  0.014025  0.634250  0.916794  1
  O  O12  1  0.500000  0.500000  0.000000  1
  O  O13  1  0.858821  0.141179  0.271833  1
  O  O14  1  0.641179  0.358821  0.771833  1
  O  O15  1  0.000000  0.000000  0.500000  1
  O  O16  1  0.565070  0.434930  0.375282  1
  O  O17  1  0.934930  0.065070  0.875282  1
  O  O18  1  0.434930  0.565070  0.624718  1
  O  O19  1  0.065070  0.934930  0.124718  1
  O  O20  1  0.141179  0.858821  0.728167  1
  O  O21  1  0.358821  0.641179  0.228167  1
  O  O22  1  0.485975  0.865750  0.416794  1
  O  O23  1  0.365750  0.985975  0.916794  1
  O  O24  1  0.985975  0.365750  0.083206  1
  O  O25  1  0.865750  0.485975  0.583206  1
