# generated using pymatgen
data_Na2B5H5O11
_symmetry_space_group_name_H-M   'P 1'
_cell_length_a   6.57108694
_cell_length_b   11.27269876
_cell_length_c   12.11974263
_cell_angle_alpha   90.00000000
_cell_angle_beta   90.00000000
_cell_angle_gamma   90.00000000
_symmetry_Int_Tables_number   1
_chemical_formula_structural   Na2B5H5O11
_chemical_formula_sum   'Na8 B20 H20 O44'
_cell_volume   897.75640484
_cell_formula_units_Z   4
loop_
 _symmetry_equiv_pos_site_id
 _symmetry_equiv_pos_as_xyz
  1  'x, y, z'
loop_
 _atom_site_type_symbol
 _atom_site_label
 _atom_site_symmetry_multiplicity
 _atom_site_fract_x
 _atom_site_fract_y
 _atom_site_fract_z
 _atom_site_occupancy
  Na  Na0  1  0.858692  0.503058  0.973573  1
  Na  Na1  1  0.141308  0.003058  0.026427  1
  Na  Na2  1  0.358692  0.003058  0.526427  1
  Na  Na3  1  0.641308  0.503058  0.473573  1
  Na  Na4  1  0.032513  0.177898  0.748525  1
  Na  Na5  1  0.967487  0.677898  0.251475  1
  Na  Na6  1  0.532513  0.677898  0.751475  1
  Na  Na7  1  0.467487  0.177898  0.248525  1
  B  B8  1  0.017846  0.507654  0.718002  1
  B  B9  1  0.982154  0.007654  0.281998  1
  B  B10  1  0.517846  0.007654  0.781998  1
  B  B11  1  0.482154  0.507654  0.218002  1
  B  B12  1  0.350772  0.421504  0.657480  1
  B  B13  1  0.649228  0.921504  0.342520  1
  B  B14  1  0.850772  0.921504  0.842520  1
  B  B15  1  0.149228  0.421504  0.157480  1
  B  B16  1  0.120266  0.518808  0.520108  1
  B  B17  1  0.879734  0.018808  0.479892  1
  B  B18  1  0.620266  0.018808  0.979892  1
  B  B19  1  0.379734  0.518808  0.020108  1
  B  B20  1  0.463940  0.213744  0.703281  1
  B  B21  1  0.536060  0.713744  0.296719  1
  B  B22  1  0.963940  0.713744  0.796719  1
  B  B23  1  0.036060  0.213744  0.203281  1
  B  B24  1  0.708753  0.373002  0.715220  1
  B  B25  1  0.291247  0.873002  0.284780  1
  B  B26  1  0.208753  0.873002  0.784780  1
  B  B27  1  0.791247  0.373002  0.215220  1
  H  H28  1  0.160939  0.520570  0.353454  1
  H  H29  1  0.839061  0.020570  0.646546  1
  H  H30  1  0.660939  0.020570  0.146546  1
  H  H31  1  0.339061  0.520570  0.853454  1
  H  H32  1  0.701469  0.663304  0.078579  1
  H  H33  1  0.298531  0.163304  0.921421  1
  H  H34  1  0.201469  0.163304  0.421421  1
  H  H35  1  0.798531  0.663304  0.578579  1
  H  H36  1  0.831224  0.768661  0.026395  1
  H  H37  1  0.168776  0.268661  0.973605  1
  H  H38  1  0.331224  0.268661  0.473605  1
  H  H39  1  0.668776  0.768661  0.526395  1
  H  H40  1  0.705142  0.266392  0.906175  1
  H  H41  1  0.294858  0.766392  0.093825  1
  H  H42  1  0.205142  0.766392  0.593825  1
  H  H43  1  0.794858  0.266392  0.406175  1
  H  H44  1  0.663744  0.254472  0.031126  1
  H  H45  1  0.336256  0.754472  0.968874  1
  H  H46  1  0.163744  0.754472  0.468874  1
  H  H47  1  0.836256  0.254472  0.531126  1
  O  O48  1  0.984211  0.550564  0.601619  1
  O  O49  1  0.015789  0.050564  0.398381  1
  O  O50  1  0.484211  0.050564  0.898381  1
  O  O51  1  0.515789  0.550564  0.101619  1
  O  O52  1  0.923284  0.594921  0.794179  1
  O  O53  1  0.076716  0.094921  0.205821  1
  O  O54  1  0.423284  0.094921  0.705821  1
  O  O55  1  0.576716  0.594921  0.294179  1
  O  O56  1  0.318788  0.290360  0.666171  1
  O  O57  1  0.681212  0.790360  0.333829  1
  O  O58  1  0.818788  0.790360  0.833829  1
  O  O59  1  0.181212  0.290360  0.166171  1
  O  O60  1  0.294937  0.455628  0.541927  1
  O  O61  1  0.705063  0.955628  0.458073  1
  O  O62  1  0.794937  0.955628  0.958073  1
  O  O63  1  0.205063  0.455628  0.041927  1
  O  O64  1  0.233815  0.489019  0.737766  1
  O  O65  1  0.766185  0.989019  0.262234  1
  O  O66  1  0.733815  0.989019  0.762234  1
  O  O67  1  0.266185  0.489019  0.237766  1
  O  O68  1  0.907908  0.394693  0.736305  1
  O  O69  1  0.092092  0.894693  0.263695  1
  O  O70  1  0.407908  0.894693  0.763695  1
  O  O71  1  0.592092  0.394693  0.236305  1
  O  O72  1  0.570439  0.450910  0.672899  1
  O  O73  1  0.429561  0.950910  0.327101  1
  O  O74  1  0.070439  0.950910  0.827101  1
  O  O75  1  0.929561  0.450910  0.172899  1
  O  O76  1  0.075011  0.557600  0.414382  1
  O  O77  1  0.924989  0.057600  0.585618  1
  O  O78  1  0.575011  0.057600  0.085618  1
  O  O79  1  0.424989  0.557600  0.914382  1
  O  O80  1  0.653801  0.254739  0.739242  1
  O  O81  1  0.346199  0.754739  0.260758  1
  O  O82  1  0.153801  0.754739  0.760758  1
  O  O83  1  0.846199  0.254739  0.239242  1
  O  O84  1  0.841241  0.695246  0.069194  1
  O  O85  1  0.158759  0.195246  0.930806  1
  O  O86  1  0.341241  0.195246  0.430806  1
  O  O87  1  0.658759  0.695246  0.569194  1
  O  O88  1  0.712499  0.310152  0.975882  1
  O  O89  1  0.287501  0.810152  0.024118  1
  O  O90  1  0.212499  0.810152  0.524118  1
  O  O91  1  0.787501  0.310152  0.475882  1
