# generated using pymatgen
data_FeOF
_symmetry_space_group_name_H-M   'P 1'
_cell_length_a   14.14130490
_cell_length_b   3.09745471
_cell_length_c   14.24729546
_cell_angle_alpha   90.00000000
_cell_angle_beta   90.19088127
_cell_angle_gamma   90.00000000
_symmetry_Int_Tables_number   1
_chemical_formula_structural   FeOF
_chemical_formula_sum   'Fe18 O18 F18'
_cell_volume   624.05730564
_cell_formula_units_Z   18
loop_
 _symmetry_equiv_pos_site_id
 _symmetry_equiv_pos_as_xyz
  1  'x, y, z'
loop_
 _atom_site_type_symbol
 _atom_site_label
 _atom_site_symmetry_multiplicity
 _atom_site_fract_x
 _atom_site_fract_y
 _atom_site_fract_z
 _atom_site_occupancy
  Fe  Fe0  1  0.986744  0.000000  0.003494  1
  Fe  Fe1  1  0.982082  0.000000  0.662550  1
  Fe  Fe2  1  0.993038  0.000000  0.336202  1
  Fe  Fe3  1  0.846365  0.500000  0.835020  1
  Fe  Fe4  1  0.847228  0.500000  0.497494  1
  Fe  Fe5  1  0.826322  0.500000  0.149711  1
  Fe  Fe6  1  0.657871  0.000000  0.005937  1
  Fe  Fe7  1  0.659118  0.000000  0.664596  1
  Fe  Fe8  1  0.656907  0.000000  0.336232  1
  Fe  Fe9  1  0.513292  0.500000  0.500921  1
  Fe  Fe10  1  0.521482  0.500000  0.832901  1
  Fe  Fe11  1  0.514561  0.500000  0.169685  1
  Fe  Fe12  1  0.327334  0.000000  0.996144  1
  Fe  Fe13  1  0.323238  0.000000  0.671492  1
  Fe  Fe14  1  0.319886  0.000000  0.334293  1
  Fe  Fe15  1  0.177683  0.500000  0.835170  1
  Fe  Fe16  1  0.181152  0.500000  0.504375  1
  Fe  Fe17  1  0.159016  0.500000  0.188369  1
  O  O18  1  0.934990  0.500000  0.728982  1
  O  O19  1  0.931812  0.500000  0.399178  1
  O  O20  1  0.938515  0.500000  0.067965  1
  O  O21  1  0.898875  0.000000  0.897769  1
  O  O22  1  0.897938  0.000000  0.557189  1
  O  O23  1  0.764736  0.000000  0.096632  1
  O  O24  1  0.606914  0.500000  0.727640  1
  O  O25  1  0.602822  0.500000  0.397513  1
  O  O26  1  0.595519  0.500000  0.062057  1
  O  O27  1  0.565155  0.000000  0.898432  1
  O  O28  1  0.565354  0.000000  0.563998  1
  O  O29  1  0.564906  0.000000  0.232204  1
  O  O30  1  0.270510  0.500000  0.735761  1
  O  O31  1  0.268699  0.500000  0.397838  1
  O  O32  1  0.233088  0.000000  0.902987  1
  O  O33  1  0.234482  0.000000  0.567410  1
  O  O34  1  0.232392  0.000000  0.227798  1
  O  O35  1  0.056675  0.500000  0.272075  1
  F  F36  1  0.890538  0.000000  0.230284  1
  F  F37  1  0.768915  0.000000  0.765688  1
  F  F38  1  0.770743  0.000000  0.431524  1
  F  F39  1  0.731541  0.500000  0.928628  1
  F  F40  1  0.733616  0.500000  0.268745  1
  F  F41  1  0.737619  0.500000  0.597380  1
  F  F42  1  0.435489  0.000000  0.769485  1
  F  F43  1  0.434065  0.000000  0.434099  1
  F  F44  1  0.426998  0.000000  0.098495  1
  F  F45  1  0.397710  0.500000  0.937531  1
  F  F46  1  0.400444  0.500000  0.603492  1
  F  F47  1  0.398871  0.500000  0.265821  1
  F  F48  1  0.270312  0.500000  0.064319  1
  F  F49  1  0.104085  0.000000  0.771556  1
  F  F50  1  0.102165  0.000000  0.440446  1
  F  F51  1  0.104577  0.000000  0.098002  1
  F  F52  1  0.068197  0.500000  0.933590  1
  F  F53  1  0.067411  0.500000  0.602895  1
