# generated using pymatgen
data_Li4TiCrO6
_symmetry_space_group_name_H-M   'P 1'
_cell_length_a   5.06926570
_cell_length_b   5.06926570
_cell_length_c   5.11842727
_cell_angle_alpha   80.55461956
_cell_angle_beta   99.44538044
_cell_angle_gamma   59.83709114
_symmetry_Int_Tables_number   1
_chemical_formula_structural   Li4TiCrO6
_chemical_formula_sum   'Li4 Ti1 Cr1 O6'
_cell_volume   107.38947752
_cell_formula_units_Z   1
loop_
 _symmetry_equiv_pos_site_id
 _symmetry_equiv_pos_as_xyz
  1  'x, y, z'
loop_
 _atom_site_type_symbol
 _atom_site_label
 _atom_site_symmetry_multiplicity
 _atom_site_fract_x
 _atom_site_fract_y
 _atom_site_fract_z
 _atom_site_occupancy
  Li  Li0  1  0.000185  0.000185  0.500000  1
  Li  Li1  1  0.495751  0.495751  0.000000  1
  Li  Li2  1  0.657305  0.657305  0.500000  1
  Li  Li3  1  0.334250  0.334250  0.500000  1
  Ti  Ti4  1  0.831758  0.831758  0.000000  1
  Cr  Cr5  1  0.163775  0.163775  0.000000  1
  O  O6  1  0.776821  0.216102  0.767613  1
  O  O7  1  0.216102  0.776821  0.232387  1
  O  O8  1  0.417014  0.929150  0.776135  1
  O  O9  1  0.929150  0.417014  0.223865  1
  O  O10  1  0.575717  0.061008  0.228011  1
  O  O11  1  0.061008  0.575717  0.771989  1
