# generated using pymatgen
data_Li2MnSiO4
_symmetry_space_group_name_H-M   'P 1'
_cell_length_a   5.07881970
_cell_length_b   6.36355365
_cell_length_c   10.84561350
_cell_angle_alpha   90.00000000
_cell_angle_beta   90.00000000
_cell_angle_gamma   90.00000000
_symmetry_Int_Tables_number   1
_chemical_formula_structural   Li2MnSiO4
_chemical_formula_sum   'Li8 Mn4 Si4 O16'
_cell_volume   350.52308840
_cell_formula_units_Z   4
loop_
 _symmetry_equiv_pos_site_id
 _symmetry_equiv_pos_as_xyz
  1  'x, y, z'
loop_
 _atom_site_type_symbol
 _atom_site_label
 _atom_site_symmetry_multiplicity
 _atom_site_fract_x
 _atom_site_fract_y
 _atom_site_fract_z
 _atom_site_occupancy
  Li  Li0  1  0.679976  0.996813  0.912713  1
  Li  Li1  1  0.820024  0.503187  0.412713  1
  Li  Li2  1  0.679976  0.503187  0.912713  1
  Li  Li3  1  0.179976  0.496813  0.587287  1
  Li  Li4  1  0.320024  0.496813  0.087287  1
  Li  Li5  1  0.179976  0.003187  0.587287  1
  Li  Li6  1  0.320024  0.003187  0.087287  1
  Li  Li7  1  0.820024  0.996813  0.412713  1
  Mn  Mn8  1  0.820065  0.750000  0.165958  1
  Mn  Mn9  1  0.679935  0.750000  0.665958  1
  Mn  Mn10  1  0.320065  0.250000  0.334042  1
  Mn  Mn11  1  0.179935  0.250000  0.834042  1
  Si  Si12  1  0.327189  0.750000  0.339421  1
  Si  Si13  1  0.172811  0.750000  0.839421  1
  Si  Si14  1  0.827189  0.250000  0.160579  1
  Si  Si15  1  0.672811  0.250000  0.660579  1
  O  O16  1  0.212539  0.962490  0.408936  1
  O  O17  1  0.287461  0.962490  0.908936  1
  O  O18  1  0.652869  0.750000  0.343585  1
  O  O19  1  0.266772  0.750000  0.692203  1
  O  O20  1  0.233228  0.750000  0.192203  1
  O  O21  1  0.847131  0.750000  0.843585  1
  O  O22  1  0.212539  0.537510  0.408936  1
  O  O23  1  0.287461  0.537510  0.908936  1
  O  O24  1  0.712539  0.462490  0.091064  1
  O  O25  1  0.787461  0.462490  0.591064  1
  O  O26  1  0.152869  0.250000  0.156415  1
  O  O27  1  0.766772  0.250000  0.807797  1
  O  O28  1  0.347131  0.250000  0.656415  1
  O  O29  1  0.733228  0.250000  0.307797  1
  O  O30  1  0.712539  0.037510  0.091064  1
  O  O31  1  0.787461  0.037510  0.591064  1
