# generated using pymatgen
data_Li3Cr(PO4)2
_symmetry_space_group_name_H-M   'P 1'
_cell_length_a   8.11614136
_cell_length_b   8.46606593
_cell_length_c   10.31204226
_cell_angle_alpha   90.24735566
_cell_angle_beta   89.96987304
_cell_angle_gamma   107.54990604
_symmetry_Int_Tables_number   1
_chemical_formula_structural   Li3Cr(PO4)2
_chemical_formula_sum   'Li12 Cr4 P8 O32'
_cell_volume   675.57223215
_cell_formula_units_Z   4
loop_
 _symmetry_equiv_pos_site_id
 _symmetry_equiv_pos_as_xyz
  1  'x, y, z'
loop_
 _atom_site_type_symbol
 _atom_site_label
 _atom_site_symmetry_multiplicity
 _atom_site_fract_x
 _atom_site_fract_y
 _atom_site_fract_z
 _atom_site_occupancy
  Li  Li0  1  0.347857  0.842080  0.148242  1
  Li  Li1  1  0.536595  0.770266  0.429862  1
  Li  Li2  1  0.458978  0.730853  0.915805  1
  Li  Li3  1  0.654749  0.669167  0.656684  1
  Li  Li4  1  0.616816  0.607031  0.167461  1
  Li  Li5  1  0.384659  0.402414  0.838499  1
  Li  Li6  1  0.358556  0.325190  0.341623  1
  Li  Li7  1  0.818907  0.346917  0.153546  1
  Li  Li8  1  0.159352  0.132728  0.661855  1
  Li  Li9  1  0.475882  0.220678  0.583349  1
  Li  Li10  1  0.636087  0.167567  0.851192  1
  Li  Li11  1  0.604934  0.097140  0.336104  1
  Cr  Cr12  1  0.875393  0.877248  0.855229  1
  Cr  Cr13  1  0.124013  0.622855  0.357792  1
  Cr  Cr14  1  0.885212  0.377396  0.653051  1
  Cr  Cr15  1  0.122950  0.132508  0.147112  1
  P  P16  1  0.217579  0.949199  0.411584  1
  P  P17  1  0.724260  0.975556  0.086391  1
  P  P18  1  0.283743  0.511516  0.579332  1
  P  P19  1  0.212572  0.454965  0.090957  1
  P  P20  1  0.787896  0.555270  0.913898  1
  P  P21  1  0.715583  0.475724  0.415193  1
  P  P22  1  0.285864  0.024813  0.906802  1
  P  P23  1  0.778353  0.053518  0.592364  1
  O  O24  1  0.250051  0.004001  0.058470  1
  O  O25  1  0.342589  0.856688  0.349365  1
  O  O26  1  0.044027  0.804880  0.415861  1
  O  O27  1  0.705218  0.987119  0.461730  1
  O  O28  1  0.353039  0.886094  0.864384  1
  O  O29  1  0.902012  0.953866  0.123838  1
  O  O30  1  0.790634  0.909801  0.680397  1
  O  O31  1  0.578429  0.809830  0.104561  1
  O  O32  1  0.434654  0.669279  0.595708  1
  O  O33  1  0.195825  0.600399  0.177948  1
  O  O34  1  0.110864  0.539105  0.625158  1
  O  O35  1  0.645593  0.607043  0.355839  1
  O  O36  1  0.285982  0.521244  0.960601  1
  O  O37  1  0.961074  0.699298  0.908738  1
  O  O38  1  0.657945  0.639718  0.849665  1
  O  O39  1  0.253572  0.474682  0.428116  1
  O  O40  1  0.757227  0.512898  0.564346  1
  O  O41  1  0.322853  0.356522  0.159795  1
  O  O42  1  0.032909  0.315321  0.083918  1
  O  O43  1  0.732880  0.494503  0.049969  1
  O  O44  1  0.321357  0.364366  0.648870  1
  O  O45  1  0.883635  0.463340  0.345270  1
  O  O46  1  0.802586  0.408707  0.827928  1
  O  O47  1  0.578668  0.302214  0.405438  1
  O  O48  1  0.412628  0.196465  0.877340  1
  O  O49  1  0.203058  0.088148  0.318124  1
  O  O50  1  0.110368  0.029300  0.839515  1
  O  O51  1  0.682903  0.115688  0.160261  1
  O  O52  1  0.279533  0.028707  0.541381  1
  O  O53  1  0.961836  0.187926  0.587447  1
  O  O54  1  0.675544  0.163539  0.658959  1
  O  O55  1  0.739972  0.012815  0.935087  1
