# generated using pymatgen
data_BeH14(I2O9)2
_symmetry_space_group_name_H-M   'P 1'
_cell_length_a   7.88794003
_cell_length_b   8.65521704
_cell_length_c   24.87492567
_cell_angle_alpha   90.00000000
_cell_angle_beta   90.00000000
_cell_angle_gamma   90.00000000
_symmetry_Int_Tables_number   1
_chemical_formula_structural   BeH14(I2O9)2
_chemical_formula_sum   'Be4 H56 I16 O72'
_cell_volume   1698.25677019
_cell_formula_units_Z   4
loop_
 _symmetry_equiv_pos_site_id
 _symmetry_equiv_pos_as_xyz
  1  'x, y, z'
loop_
 _atom_site_type_symbol
 _atom_site_label
 _atom_site_symmetry_multiplicity
 _atom_site_fract_x
 _atom_site_fract_y
 _atom_site_fract_z
 _atom_site_occupancy
  Be  Be0  1  0.298059  0.881302  0.750000  1
  Be  Be1  1  0.798059  0.618698  0.750000  1
  Be  Be2  1  0.701941  0.118698  0.250000  1
  Be  Be3  1  0.201941  0.381302  0.250000  1
  H  H4  1  0.851649  0.109496  0.832027  1
  H  H5  1  0.351649  0.390504  0.667973  1
  H  H6  1  0.148351  0.890504  0.332027  1
  H  H7  1  0.648351  0.609496  0.167973  1
  H  H8  1  0.148351  0.890504  0.167973  1
  H  H9  1  0.648351  0.609496  0.332027  1
  H  H10  1  0.851649  0.109496  0.667973  1
  H  H11  1  0.351649  0.390504  0.832027  1
  H  H12  1  0.090989  0.052774  0.717376  1
  H  H13  1  0.590989  0.447226  0.782624  1
  H  H14  1  0.909011  0.947226  0.217376  1
  H  H15  1  0.409011  0.552774  0.282624  1
  H  H16  1  0.909011  0.947226  0.282624  1
  H  H17  1  0.409011  0.552774  0.217376  1
  H  H18  1  0.090989  0.052774  0.782624  1
  H  H19  1  0.590989  0.447226  0.717376  1
  H  H20  1  0.541623  0.999459  0.782695  1
  H  H21  1  0.041623  0.500541  0.717305  1
  H  H22  1  0.458377  0.000541  0.282695  1
  H  H23  1  0.958377  0.499459  0.217305  1
  H  H24  1  0.458377  0.000541  0.217305  1
  H  H25  1  0.958377  0.499459  0.282695  1
  H  H26  1  0.541623  0.999459  0.717305  1
  H  H27  1  0.041623  0.500541  0.782695  1
  H  H28  1  0.175564  0.788191  0.671245  1
  H  H29  1  0.675564  0.711809  0.828755  1
  H  H30  1  0.824436  0.211809  0.171245  1
  H  H31  1  0.324436  0.288191  0.328755  1
  H  H32  1  0.824436  0.211809  0.328755  1
  H  H33  1  0.324436  0.288191  0.171245  1
  H  H34  1  0.175564  0.788191  0.828755  1
  H  H35  1  0.675564  0.711809  0.671245  1
  H  H36  1  0.375934  0.771808  0.666454  1
  H  H37  1  0.875934  0.728192  0.833546  1
  H  H38  1  0.624066  0.228192  0.166454  1
  H  H39  1  0.124066  0.271808  0.333546  1
  H  H40  1  0.624066  0.228192  0.333546  1
  H  H41  1  0.124066  0.271808  0.166454  1
  H  H42  1  0.375934  0.771808  0.833546  1
  H  H43  1  0.875934  0.728192  0.666454  1
  H  H44  1  0.488876  0.646085  0.599218  1
  H  H45  1  0.988876  0.853915  0.900782  1
  H  H46  1  0.511124  0.353915  0.099218  1
  H  H47  1  0.011124  0.146085  0.400782  1
  H  H48  1  0.511124  0.353915  0.400782  1
  H  H49  1  0.011124  0.146085  0.099218  1
  H  H50  1  0.488876  0.646085  0.900782  1
  H  H51  1  0.988876  0.853915  0.599218  1
  H  H52  1  0.542322  0.823809  0.597299  1
  H  H53  1  0.042322  0.676191  0.902701  1
  H  H54  1  0.457678  0.176191  0.097299  1
  H  H55  1  0.957678  0.323809  0.402701  1
  H  H56  1  0.457678  0.176191  0.402701  1
  H  H57  1  0.957678  0.323809  0.097299  1
  H  H58  1  0.542322  0.823809  0.902701  1
  H  H59  1  0.042322  0.676191  0.597299  1
  I  I60  1  0.034767  0.291593  0.883446  1
  I  I61  1  0.534767  0.208407  0.616554  1
  I  I62  1  0.965233  0.708407  0.383446  1
  I  I63  1  0.465233  0.791593  0.116554  1
  I  I64  1  0.965233  0.708407  0.116554  1
  I  I65  1  0.465233  0.791593  0.383446  1
  I  I66  1  0.034767  0.291593  0.616554  1
  I  I67  1  0.534767  0.208407  0.883446  1
  I  I68  1  0.265168  0.520185  0.992435  1
  I  I69  1  0.765168  0.979815  0.507565  1
  I  I70  1  0.734832  0.479815  0.492435  1
  I  I71  1  0.234832  0.020185  0.007565  1
  I  I72  1  0.734832  0.479815  0.007565  1
  I  I73  1  0.234832  0.020185  0.492435  1
  I  I74  1  0.265168  0.520185  0.507565  1
  I  I75  1  0.765168  0.979815  0.992435  1
  O  O76  1  0.821506  0.371315  0.883180  1
  O  O77  1  0.321506  0.128685  0.616820  1
  O  O78  1  0.178494  0.628685  0.383180  1
  O  O79  1  0.678494  0.871315  0.116820  1
  O  O80  1  0.178494  0.628685  0.116820  1
  O  O81  1  0.678494  0.871315  0.383180  1
  O  O82  1  0.821506  0.371315  0.616820  1
  O  O83  1  0.321506  0.128685  0.883180  1
  O  O84  1  0.139252  0.413364  0.833438  1
  O  O85  1  0.639252  0.086636  0.666562  1
  O  O86  1  0.860748  0.586636  0.333438  1
  O  O87  1  0.360748  0.913364  0.166562  1
  O  O88  1  0.860748  0.586636  0.166562  1
  O  O89  1  0.360748  0.913364  0.333438  1
  O  O90  1  0.139252  0.413364  0.666562  1
  O  O91  1  0.639252  0.086636  0.833438  1
  O  O92  1  0.978448  0.128344  0.830902  1
  O  O93  1  0.478448  0.371656  0.669098  1
  O  O94  1  0.021552  0.871656  0.330902  1
  O  O95  1  0.521552  0.628344  0.169098  1
  O  O96  1  0.021552  0.871656  0.169098  1
  O  O97  1  0.521552  0.628344  0.330902  1
  O  O98  1  0.978448  0.128344  0.669098  1
  O  O99  1  0.478448  0.371656  0.830902  1
  O  O100  1  0.277157  0.729833  0.993531  1
  O  O101  1  0.777157  0.770167  0.506469  1
  O  O102  1  0.722843  0.270167  0.493531  1
  O  O103  1  0.222843  0.229833  0.006469  1
  O  O104  1  0.722843  0.270167  0.006469  1
  O  O105  1  0.222843  0.229833  0.493531  1
  O  O106  1  0.277157  0.729833  0.506469  1
  O  O107  1  0.777157  0.770167  0.993531  1
  O  O108  1  0.437423  0.479809  0.943993  1
  O  O109  1  0.937423  0.020191  0.556007  1
  O  O110  1  0.562577  0.520191  0.443993  1
  O  O111  1  0.062577  0.979809  0.056007  1
  O  O112  1  0.562577  0.520191  0.056007  1
  O  O113  1  0.062577  0.979809  0.443993  1
  O  O114  1  0.437423  0.479809  0.556007  1
  O  O115  1  0.937423  0.020191  0.943993  1
  O  O116  1  0.082718  0.503335  0.944338  1
  O  O117  1  0.582718  0.996665  0.555662  1
  O  O118  1  0.917282  0.496665  0.444338  1
  O  O119  1  0.417282  0.003335  0.055662  1
  O  O120  1  0.917282  0.496665  0.055662  1
  O  O121  1  0.417282  0.003335  0.444338  1
  O  O122  1  0.082718  0.503335  0.555662  1
  O  O123  1  0.582718  0.996665  0.944338  1
  O  O124  1  0.140327  0.001909  0.750000  1
  O  O125  1  0.640327  0.498091  0.750000  1
  O  O126  1  0.859673  0.998091  0.250000  1
  O  O127  1  0.359673  0.501909  0.250000  1
  O  O128  1  0.491087  0.949058  0.750000  1
  O  O129  1  0.991087  0.550942  0.750000  1
  O  O130  1  0.508913  0.050942  0.250000  1
  O  O131  1  0.008913  0.449058  0.250000  1
  O  O132  1  0.281298  0.786820  0.693405  1
  O  O133  1  0.781298  0.713180  0.806595  1
  O  O134  1  0.718702  0.213180  0.193405  1
  O  O135  1  0.218702  0.286820  0.306595  1
  O  O136  1  0.718702  0.213180  0.306595  1
  O  O137  1  0.218702  0.286820  0.193405  1
  O  O138  1  0.281298  0.786820  0.806595  1
  O  O139  1  0.781298  0.713180  0.693405  1
  O  O140  1  0.520159  0.735904  0.622131  1
  O  O141  1  0.020159  0.764096  0.877869  1
  O  O142  1  0.479841  0.264096  0.122131  1
  O  O143  1  0.979841  0.235904  0.377869  1
  O  O144  1  0.479841  0.264096  0.377869  1
  O  O145  1  0.979841  0.235904  0.122131  1
  O  O146  1  0.520159  0.735904  0.877869  1
  O  O147  1  0.020159  0.764096  0.622131  1
