# generated using pymatgen
data_Li4Ti9O20
_symmetry_space_group_name_H-M   'P 1'
_cell_length_a   5.97384207
_cell_length_b   5.97630349
_cell_length_c   24.67335487
_cell_angle_alpha   89.99961334
_cell_angle_beta   96.93028063
_cell_angle_gamma   119.91516450
_symmetry_Int_Tables_number   1
_chemical_formula_structural   Li4Ti9O20
_chemical_formula_sum   'Li8 Ti18 O40'
_cell_volume   756.07807337
_cell_formula_units_Z   2
loop_
 _symmetry_equiv_pos_site_id
 _symmetry_equiv_pos_as_xyz
  1  'x, y, z'
loop_
 _atom_site_type_symbol
 _atom_site_label
 _atom_site_symmetry_multiplicity
 _atom_site_fract_x
 _atom_site_fract_y
 _atom_site_fract_z
 _atom_site_occupancy
  Li  Li0  1  0.998335  0.999994  0.999150  1
  Li  Li1  1  0.499689  0.748146  0.251181  1
  Li  Li2  1  0.597059  0.801417  0.398668  1
  Li  Li3  1  0.302952  0.151576  0.453863  1
  Li  Li4  1  0.955055  0.473827  0.425480  1
  Li  Li5  1  0.198815  0.602948  0.802229  1
  Li  Li6  1  0.443794  0.468644  0.924411  1
  Li  Li7  1  0.902586  0.944895  0.850289  1
  Ti  Ti8  1  0.743272  0.885226  0.126555  1
  Ti  Ti9  1  0.358227  0.659192  0.019189  1
  Ti  Ti10  1  0.047676  0.285096  0.324630  1
  Ti  Ti11  1  0.235410  0.858995  0.121181  1
  Ti  Ti12  1  0.257238  0.374619  0.125057  1
  Ti  Ti13  1  0.558074  0.278128  0.327428  1
  Ti  Ti14  1  0.154225  0.066209  0.223581  1
  Ti  Ti15  1  0.045769  0.772644  0.327999  1
  Ti  Ti16  1  0.854005  0.184834  0.523081  1
  Ti  Ti17  1  0.747238  0.878727  0.620428  1
  Ti  Ti18  1  0.337645  0.670223  0.524484  1
  Ti  Ti19  1  0.659734  0.088956  0.726428  1
  Ti  Ti20  1  0.638251  0.576338  0.722020  1
  Ti  Ti21  1  0.848996  0.673836  0.521886  1
  Ti  Ti22  1  0.539872  0.285767  0.828709  1
  Ti  Ti23  1  0.145596  0.060330  0.721999  1
  Ti  Ti24  1  0.936806  0.469249  0.926471  1
  Ti  Ti25  1  0.448149  0.965608  0.922907  1
  O  O26  1  0.529576  0.546051  0.080500  1
  O  O27  1  0.532337  0.986592  0.082145  1
  O  O28  1  0.443775  0.720612  0.168884  1
  O  O29  1  0.089187  0.543553  0.081668  1
  O  O30  1  0.892328  0.944556  0.277544  1
  O  O31  1  0.052331  0.026315  0.082914  1
  O  O32  1  0.969584  0.767061  0.172473  1
  O  O33  1  0.966046  0.199191  0.172254  1
  O  O34  1  0.754848  0.143970  0.366350  1
  O  O35  1  0.333357  0.945394  0.277261  1
  O  O36  1  0.331474  0.385500  0.277550  1
  O  O37  1  0.144767  0.339328  0.483004  1
  O  O38  1  0.677551  0.340316  0.482451  1
  O  O39  1  0.044141  0.523927  0.565045  1
  O  O40  1  0.247251  0.121773  0.368099  1
  O  O41  1  0.856453  0.429380  0.284424  1
  O  O42  1  0.222801  0.611780  0.366628  1
  O  O43  1  0.403439  0.204453  0.172234  1
  O  O44  1  0.656691  0.829743  0.480909  1
  O  O45  1  0.366149  0.406369  0.772143  1
  O  O46  1  0.571483  0.003760  0.572286  1
  O  O47  1  0.572390  0.572596  0.572048  1
  O  O48  1  0.755087  0.611871  0.367064  1
  O  O49  1  0.932606  0.180848  0.679636  1
  O  O50  1  0.145904  0.806171  0.482485  1
  O  O51  1  0.495688  0.744280  0.679491  1
  O  O52  1  0.846192  0.919356  0.767981  1
  O  O53  1  0.815322  0.403544  0.770420  1
  O  O54  1  0.002596  0.001997  0.572185  1
  O  O55  1  0.455151  0.226789  0.684650  1
  O  O56  1  0.615643  0.820304  0.976089  1
  O  O57  1  0.248445  0.641042  0.883601  1
  O  O58  1  0.365051  0.954707  0.769961  1
  O  O59  1  0.153902  0.359003  0.976131  1
  O  O60  1  0.166488  0.804155  0.974340  1
  O  O61  1  0.733039  0.137106  0.875023  1
  O  O62  1  0.746148  0.586151  0.873278  1
  O  O63  1  0.932492  0.743984  0.679562  1
  O  O64  1  0.653704  0.308719  0.962656  1
  O  O65  1  0.283951  0.123370  0.873080  1
