# generated using pymatgen
data_SrLaCl5
_symmetry_space_group_name_H-M   'P 1'
_cell_length_a   4.34671656
_cell_length_b   12.80488244
_cell_length_c   14.91181304
_cell_angle_alpha   90.00000000
_cell_angle_beta   90.00000000
_cell_angle_gamma   90.00000000
_symmetry_Int_Tables_number   1
_chemical_formula_structural   SrLaCl5
_chemical_formula_sum   'Sr4 La4 Cl20'
_cell_volume   829.97950310
_cell_formula_units_Z   4
loop_
 _symmetry_equiv_pos_site_id
 _symmetry_equiv_pos_as_xyz
  1  'x, y, z'
loop_
 _atom_site_type_symbol
 _atom_site_label
 _atom_site_symmetry_multiplicity
 _atom_site_fract_x
 _atom_site_fract_y
 _atom_site_fract_z
 _atom_site_occupancy
  Sr  Sr0  1  0.986783  0.250000  0.000000  1
  Sr  Sr1  1  0.986783  0.250000  0.500000  1
  Sr  Sr2  1  0.013217  0.750000  0.500000  1
  Sr  Sr3  1  0.013217  0.750000  0.000000  1
  La  La4  1  0.483204  0.024899  0.250000  1
  La  La5  1  0.483204  0.475101  0.750000  1
  La  La6  1  0.516796  0.524899  0.250000  1
  La  La7  1  0.516796  0.975101  0.750000  1
  Cl  Cl8  1  0.983387  0.167616  0.250000  1
  Cl  Cl9  1  0.983387  0.332384  0.750000  1
  Cl  Cl10  1  0.986630  0.923913  0.139586  1
  Cl  Cl11  1  0.986630  0.576087  0.639586  1
  Cl  Cl12  1  0.986630  0.576087  0.860414  1
  Cl  Cl13  1  0.986630  0.923913  0.360414  1
  Cl  Cl14  1  0.514442  0.867661  0.924370  1
  Cl  Cl15  1  0.514442  0.867661  0.575630  1
  Cl  Cl16  1  0.514442  0.632339  0.075630  1
  Cl  Cl17  1  0.514442  0.632339  0.424370  1
  Cl  Cl18  1  0.485558  0.132339  0.075630  1
  Cl  Cl19  1  0.485558  0.132339  0.424370  1
  Cl  Cl20  1  0.485558  0.367661  0.575630  1
  Cl  Cl21  1  0.485558  0.367661  0.924370  1
  Cl  Cl22  1  0.013370  0.423913  0.360414  1
  Cl  Cl23  1  0.013370  0.423913  0.139586  1
  Cl  Cl24  1  0.013370  0.076087  0.639586  1
  Cl  Cl25  1  0.013370  0.076087  0.860414  1
  Cl  Cl26  1  0.016613  0.667616  0.250000  1
  Cl  Cl27  1  0.016613  0.832384  0.750000  1
