# generated using pymatgen
data_Li6Ni11(OF12)2
_symmetry_space_group_name_H-M   'P 1'
_cell_length_a   7.96501493
_cell_length_b   7.97203127
_cell_length_c   8.61896882
_cell_angle_alpha   106.25872854
_cell_angle_beta   106.56191323
_cell_angle_gamma   86.48578143
_symmetry_Int_Tables_number   1
_chemical_formula_structural   Li6Ni11(OF12)2
_chemical_formula_sum   'Li6 Ni11 O2 F24'
_cell_volume   503.49501716
_cell_formula_units_Z   1
loop_
 _symmetry_equiv_pos_site_id
 _symmetry_equiv_pos_as_xyz
  1  'x, y, z'
loop_
 _atom_site_type_symbol
 _atom_site_label
 _atom_site_symmetry_multiplicity
 _atom_site_fract_x
 _atom_site_fract_y
 _atom_site_fract_z
 _atom_site_occupancy
  Li  Li0  1  0.888399  0.580256  0.752338  1
  Li  Li1  1  0.795931  0.939893  0.546491  1
  Li  Li2  1  0.287201  0.661933  0.102097  1
  Li  Li3  1  0.716812  0.337704  0.891115  1
  Li  Li4  1  0.199192  0.042693  0.441668  1
  Li  Li5  1  0.110162  0.436807  0.263571  1
  Ni  Ni6  1  0.866376  0.742270  0.145753  1
  Ni  Ni7  1  0.778145  0.158494  0.252474  1
  Ni  Ni8  1  0.995760  0.990611  0.001822  1
  Ni  Ni9  1  0.690614  0.523800  0.295559  1
  Ni  Ni10  1  0.548033  0.299415  0.470457  1
  Ni  Ni11  1  0.630048  0.909070  0.881423  1
  Ni  Ni12  1  0.393769  0.100873  0.127066  1
  Ni  Ni13  1  0.459081  0.700095  0.523088  1
  Ni  Ni14  1  0.299080  0.458694  0.691291  1
  Ni  Ni15  1  0.216078  0.847650  0.754933  1
  Ni  Ni16  1  0.133603  0.248125  0.841055  1
  O  O17  1  0.847340  0.782607  0.926541  1
  O  O18  1  0.563430  0.295515  0.244217  1
  F  F19  1  0.993293  0.001016  0.245962  1
  F  F20  1  0.916200  0.380603  0.321879  1
  F  F21  1  0.915187  0.374153  0.825800  1
  F  F22  1  0.839487  0.749515  0.374772  1
  F  F23  1  0.760300  0.142782  0.477416  1
  F  F24  1  0.705333  0.532879  0.068746  1
  F  F25  1  0.610076  0.935848  0.118781  1
  F  F26  1  0.678421  0.545412  0.550402  1
  F  F27  1  0.773379  0.140296  0.992852  1
  F  F28  1  0.618801  0.907771  0.646759  1
  F  F29  1  0.521730  0.328213  0.701183  1
  F  F30  1  0.476981  0.678240  0.295703  1
  F  F31  1  0.373888  0.093833  0.352616  1
  F  F32  1  0.232185  0.869471  0.008004  1
  F  F33  1  0.441776  0.705427  0.767867  1
  F  F34  1  0.319595  0.467949  0.458626  1
  F  F35  1  0.365056  0.074335  0.872737  1
  F  F36  1  0.151203  0.222102  0.079926  1
  F  F37  1  0.290666  0.459384  0.921199  1
  F  F38  1  0.245854  0.848377  0.532884  1
  F  F39  1  0.156717  0.236835  0.613510  1
  F  F40  1  0.096654  0.626746  0.176769  1
  F  F41  1  0.092976  0.620076  0.682588  1
  F  F42  1  0.005186  0.002231  0.760059  1
