# generated using pymatgen
data_Na3Sb5O14
_symmetry_space_group_name_H-M   'P 1'
_cell_length_a   7.26746951
_cell_length_b   7.58926243
_cell_length_c   24.03340304
_cell_angle_alpha   90.00000000
_cell_angle_beta   90.00000000
_cell_angle_gamma   90.00000000
_symmetry_Int_Tables_number   1
_chemical_formula_structural   Na3Sb5O14
_chemical_formula_sum   'Na12 Sb20 O56'
_cell_volume   1325.55593528
_cell_formula_units_Z   4
loop_
 _symmetry_equiv_pos_site_id
 _symmetry_equiv_pos_as_xyz
  1  'x, y, z'
loop_
 _atom_site_type_symbol
 _atom_site_label
 _atom_site_symmetry_multiplicity
 _atom_site_fract_x
 _atom_site_fract_y
 _atom_site_fract_z
 _atom_site_occupancy
  Na  Na0  1  0.229333  0.867824  0.023802  1
  Na  Na1  1  0.579654  0.121299  0.132705  1
  Na  Na2  1  0.714373  0.548322  0.201360  1
  Na  Na3  1  0.214373  0.548322  0.298640  1
  Na  Na4  1  0.079654  0.121299  0.367295  1
  Na  Na5  1  0.729333  0.867824  0.476198  1
  Na  Na6  1  0.270667  0.867824  0.523802  1
  Na  Na7  1  0.920346  0.121299  0.632705  1
  Na  Na8  1  0.785627  0.548322  0.701360  1
  Na  Na9  1  0.285627  0.548322  0.798640  1
  Na  Na10  1  0.420346  0.121299  0.867295  1
  Na  Na11  1  0.770667  0.867824  0.976198  1
  Sb  Sb12  1  0.417780  0.483334  0.058593  1
  Sb  Sb13  1  0.902504  0.483609  0.063177  1
  Sb  Sb14  1  0.099411  0.215767  0.144049  1
  Sb  Sb15  1  0.106505  0.750630  0.145013  1
  Sb  Sb16  1  0.810375  0.983631  0.242518  1
  Sb  Sb17  1  0.310375  0.983631  0.257482  1
  Sb  Sb18  1  0.606505  0.750630  0.354987  1
  Sb  Sb19  1  0.599411  0.215767  0.355951  1
  Sb  Sb20  1  0.402504  0.483609  0.436823  1
  Sb  Sb21  1  0.917780  0.483334  0.441407  1
  Sb  Sb22  1  0.082220  0.483334  0.558593  1
  Sb  Sb23  1  0.597496  0.483609  0.563177  1
  Sb  Sb24  1  0.400589  0.215767  0.644049  1
  Sb  Sb25  1  0.393495  0.750630  0.645013  1
  Sb  Sb26  1  0.689625  0.983631  0.742518  1
  Sb  Sb27  1  0.189625  0.983631  0.757482  1
  Sb  Sb28  1  0.893495  0.750630  0.854987  1
  Sb  Sb29  1  0.900589  0.215767  0.855951  1
  Sb  Sb30  1  0.097496  0.483609  0.936823  1
  Sb  Sb31  1  0.582220  0.483334  0.941407  1
  O  O32  1  0.500000  0.661449  0.000000  1
  O  O33  1  0.500000  0.311860  0.000000  1
  O  O34  1  0.162222  0.488787  0.018067  1
  O  O35  1  0.951250  0.232493  0.072518  1
  O  O36  1  0.951642  0.736506  0.071255  1
  O  O37  1  0.658950  0.474511  0.098872  1
  O  O38  1  0.332747  0.685068  0.102002  1
  O  O39  1  0.335134  0.294720  0.107840  1
  O  O40  1  0.180208  0.983768  0.117702  1
  O  O41  1  0.020513  0.486294  0.144803  1
  O  O42  1  0.861242  0.165235  0.182226  1
  O  O43  1  0.871199  0.804871  0.182791  1
  O  O44  1  0.245352  0.754830  0.215158  1
  O  O45  1  0.240999  0.202973  0.213298  1
  O  O46  1  0.548005  0.980910  0.215807  1
  O  O47  1  0.048005  0.980910  0.284193  1
  O  O48  1  0.740999  0.202973  0.286702  1
  O  O49  1  0.745352  0.754830  0.284842  1
  O  O50  1  0.371199  0.804871  0.317209  1
  O  O51  1  0.361242  0.165235  0.317774  1
  O  O52  1  0.520513  0.486294  0.355197  1
  O  O53  1  0.680208  0.983768  0.382298  1
  O  O54  1  0.835134  0.294720  0.392160  1
  O  O55  1  0.832747  0.685068  0.397998  1
  O  O56  1  0.158950  0.474511  0.401128  1
  O  O57  1  0.451642  0.736506  0.428745  1
  O  O58  1  0.451250  0.232493  0.427482  1
  O  O59  1  0.662222  0.488787  0.481933  1
  O  O60  1  0.000000  0.661449  0.500000  1
  O  O61  1  0.000000  0.311860  0.500000  1
  O  O62  1  0.337778  0.488787  0.518067  1
  O  O63  1  0.548750  0.232493  0.572518  1
  O  O64  1  0.548358  0.736506  0.571255  1
  O  O65  1  0.841050  0.474511  0.598872  1
  O  O66  1  0.167253  0.685068  0.602002  1
  O  O67  1  0.164866  0.294720  0.607840  1
  O  O68  1  0.319792  0.983768  0.617702  1
  O  O69  1  0.479487  0.486294  0.644803  1
  O  O70  1  0.638758  0.165235  0.682226  1
  O  O71  1  0.628801  0.804871  0.682791  1
  O  O72  1  0.254648  0.754830  0.715158  1
  O  O73  1  0.259001  0.202973  0.713298  1
  O  O74  1  0.951995  0.980910  0.715807  1
  O  O75  1  0.451995  0.980910  0.784193  1
  O  O76  1  0.759001  0.202973  0.786702  1
  O  O77  1  0.754648  0.754830  0.784842  1
  O  O78  1  0.128801  0.804871  0.817209  1
  O  O79  1  0.138758  0.165235  0.817774  1
  O  O80  1  0.979487  0.486294  0.855197  1
  O  O81  1  0.819792  0.983768  0.882298  1
  O  O82  1  0.664866  0.294720  0.892160  1
  O  O83  1  0.667253  0.685068  0.897998  1
  O  O84  1  0.341050  0.474511  0.901128  1
  O  O85  1  0.048358  0.736506  0.928745  1
  O  O86  1  0.048750  0.232493  0.927482  1
  O  O87  1  0.837778  0.488787  0.981933  1
