# generated using pymatgen
data_NaV5O8
_symmetry_space_group_name_H-M   'P 1'
_cell_length_a   5.51902828
_cell_length_b   5.51902828
_cell_length_c   10.63911984
_cell_angle_alpha   77.53607909
_cell_angle_beta   102.46392091
_cell_angle_gamma   148.42420841
_symmetry_Int_Tables_number   1
_chemical_formula_structural   NaV5O8
_chemical_formula_sum   'Na1 V5 O8'
_cell_volume   165.36530782
_cell_formula_units_Z   1
loop_
 _symmetry_equiv_pos_site_id
 _symmetry_equiv_pos_as_xyz
  1  'x, y, z'
loop_
 _atom_site_type_symbol
 _atom_site_label
 _atom_site_symmetry_multiplicity
 _atom_site_fract_x
 _atom_site_fract_y
 _atom_site_fract_z
 _atom_site_occupancy
  Na  Na0  1  0.509486  0.509486  0.000000  1
  V  V1  1  0.281031  0.755098  0.126944  1
  V  V2  1  0.267024  0.737902  0.632236  1
  V  V3  1  0.505990  0.505990  0.500000  1
  V  V4  1  0.755098  0.281031  0.873056  1
  V  V5  1  0.737902  0.267024  0.367764  1
  O  O6  1  0.158255  0.868746  0.936233  1
  O  O7  1  0.327028  0.650372  0.816186  1
  O  O8  1  0.138423  0.880913  0.449411  1
  O  O9  1  0.358908  0.663389  0.329973  1
  O  O10  1  0.650372  0.327028  0.183814  1
  O  O11  1  0.663389  0.358908  0.670027  1
  O  O12  1  0.868746  0.158255  0.063767  1
  O  O13  1  0.880913  0.138423  0.550589  1
