# generated using pymatgen
data_BiOF
_symmetry_space_group_name_H-M   'P 1'
_cell_length_a   8.24013398
_cell_length_b   8.24013398
_cell_length_c   8.24013398
_cell_angle_alpha   27.95466919
_cell_angle_beta   27.95466919
_cell_angle_gamma   27.95466919
_symmetry_Int_Tables_number   1
_chemical_formula_structural   BiOF
_chemical_formula_sum   'Bi2 O2 F2'
_cell_volume   108.58754757
_cell_formula_units_Z   2
loop_
 _symmetry_equiv_pos_site_id
 _symmetry_equiv_pos_as_xyz
  1  'x, y, z'
loop_
 _atom_site_type_symbol
 _atom_site_label
 _atom_site_symmetry_multiplicity
 _atom_site_fract_x
 _atom_site_fract_y
 _atom_site_fract_z
 _atom_site_occupancy
  Bi  Bi0  1  0.604185  0.604185  0.604185  1
  Bi  Bi1  1  0.395815  0.395815  0.395815  1
  O  O2  1  0.301425  0.301425  0.301425  1
  O  O3  1  0.698575  0.698575  0.698575  1
  F  F4  1  0.103618  0.103618  0.103618  1
  F  F5  1  0.896382  0.896382  0.896382  1
