# generated using pymatgen
data_PrTiO3
_symmetry_space_group_name_H-M   'P 1'
_cell_length_a   5.53697763
_cell_length_b   5.53697763
_cell_length_c   5.53697763
_cell_angle_alpha   61.66746217
_cell_angle_beta   61.66746217
_cell_angle_gamma   61.66746217
_symmetry_Int_Tables_number   1
_chemical_formula_structural   PrTiO3
_chemical_formula_sum   'Pr2 Ti2 O6'
_cell_volume   124.52132493
_cell_formula_units_Z   2
loop_
 _symmetry_equiv_pos_site_id
 _symmetry_equiv_pos_as_xyz
  1  'x, y, z'
loop_
 _atom_site_type_symbol
 _atom_site_label
 _atom_site_symmetry_multiplicity
 _atom_site_fract_x
 _atom_site_fract_y
 _atom_site_fract_z
 _atom_site_occupancy
  Pr  Pr0  1  0.750000  0.750000  0.750000  1
  Pr  Pr1  1  0.250000  0.250000  0.250000  1
  Ti  Ti2  1  0.000000  0.000000  0.000000  1
  Ti  Ti3  1  0.500000  0.500000  0.500000  1
  O  O4  1  0.670796  0.829204  0.250000  1
  O  O5  1  0.170796  0.750000  0.329204  1
  O  O6  1  0.750000  0.329204  0.170796  1
  O  O7  1  0.250000  0.670796  0.829204  1
  O  O8  1  0.829204  0.250000  0.670796  1
  O  O9  1  0.329204  0.170796  0.750000  1
