# generated using pymatgen
data_FeO
_symmetry_space_group_name_H-M   'P 1'
_cell_length_a   3.39604878
_cell_length_b   3.39604878
_cell_length_c   10.71766797
_cell_angle_alpha   90.00000000
_cell_angle_beta   90.00000000
_cell_angle_gamma   120.00000000
_symmetry_Int_Tables_number   1
_chemical_formula_structural   FeO
_chemical_formula_sum   'Fe4 O4'
_cell_volume   107.04805253
_cell_formula_units_Z   4
loop_
 _symmetry_equiv_pos_site_id
 _symmetry_equiv_pos_as_xyz
  1  'x, y, z'
loop_
 _atom_site_type_symbol
 _atom_site_label
 _atom_site_symmetry_multiplicity
 _atom_site_fract_x
 _atom_site_fract_y
 _atom_site_fract_z
 _atom_site_occupancy
  Fe  Fe0  1  0.666667  0.333333  0.028258  1
  Fe  Fe1  1  0.000000  0.000000  0.776336  1
  Fe  Fe2  1  0.000000  0.000000  0.276336  1
  Fe  Fe3  1  0.333333  0.666667  0.528258  1
  O  O4  1  0.666667  0.333333  0.222551  1
  O  O5  1  0.000000  0.000000  0.472856  1
  O  O6  1  0.000000  0.000000  0.972856  1
  O  O7  1  0.333333  0.666667  0.722551  1
