# generated using pymatgen
data_Fe3(OF2)2
_symmetry_space_group_name_H-M   'P 1'
_cell_length_a   5.77259862
_cell_length_b   4.84016180
_cell_length_c   7.87639502
_cell_angle_alpha   90.00000000
_cell_angle_beta   94.92479851
_cell_angle_gamma   90.00000000
_symmetry_Int_Tables_number   1
_chemical_formula_structural   Fe3(OF2)2
_chemical_formula_sum   'Fe6 O4 F8'
_cell_volume   219.25648578
_cell_formula_units_Z   2
loop_
 _symmetry_equiv_pos_site_id
 _symmetry_equiv_pos_as_xyz
  1  'x, y, z'
loop_
 _atom_site_type_symbol
 _atom_site_label
 _atom_site_symmetry_multiplicity
 _atom_site_fract_x
 _atom_site_fract_y
 _atom_site_fract_z
 _atom_site_occupancy
  Fe  Fe0  1  0.500000  0.500000  0.000000  1
  Fe  Fe1  1  0.836507  0.450091  0.321990  1
  Fe  Fe2  1  0.163493  0.549909  0.678010  1
  Fe  Fe3  1  0.000000  0.000000  0.000000  1
  Fe  Fe4  1  0.663493  0.950091  0.678010  1
  Fe  Fe5  1  0.336507  0.049909  0.321990  1
  O  O6  1  0.955399  0.805410  0.762335  1
  O  O7  1  0.455399  0.694590  0.762335  1
  O  O8  1  0.544601  0.305410  0.237665  1
  O  O9  1  0.044601  0.194590  0.237665  1
  F  F10  1  0.308746  0.801194  0.116104  1
  F  F11  1  0.627632  0.812337  0.435222  1
  F  F12  1  0.127632  0.687663  0.435222  1
  F  F13  1  0.808746  0.698806  0.116104  1
  F  F14  1  0.191254  0.301194  0.883896  1
  F  F15  1  0.872368  0.312337  0.564778  1
  F  F16  1  0.372368  0.187663  0.564778  1
  F  F17  1  0.691254  0.198806  0.883896  1
