# generated using pymatgen
data_Li3Cr2(AsO4)3
_symmetry_space_group_name_H-M   'P 1'
_cell_length_a   10.51052996
_cell_length_b   10.51052996
_cell_length_c   10.51052996
_cell_angle_alpha   109.47122063
_cell_angle_beta   109.47122063
_cell_angle_gamma   109.47122063
_symmetry_Int_Tables_number   1
_chemical_formula_structural   Li3Cr2(AsO4)3
_chemical_formula_sum   'Li12 Cr8 As12 O48'
_cell_volume   893.82387791
_cell_formula_units_Z   4
loop_
 _symmetry_equiv_pos_site_id
 _symmetry_equiv_pos_as_xyz
  1  'x, y, z'
loop_
 _atom_site_type_symbol
 _atom_site_label
 _atom_site_symmetry_multiplicity
 _atom_site_fract_x
 _atom_site_fract_y
 _atom_site_fract_z
 _atom_site_occupancy
  Li  Li0  1  0.750000  0.125000  0.375000  1
  Li  Li1  1  0.875000  0.625000  0.250000  1
  Li  Li2  1  0.375000  0.125000  0.250000  1
  Li  Li3  1  0.250000  0.375000  0.125000  1
  Li  Li4  1  0.875000  0.750000  0.625000  1
  Li  Li5  1  0.375000  0.750000  0.125000  1
  Li  Li6  1  0.125000  0.250000  0.375000  1
  Li  Li7  1  0.625000  0.250000  0.875000  1
  Li  Li8  1  0.750000  0.625000  0.875000  1
  Li  Li9  1  0.625000  0.875000  0.750000  1
  Li  Li10  1  0.125000  0.375000  0.750000  1
  Li  Li11  1  0.250000  0.875000  0.625000  1
  Cr  Cr12  1  0.500000  0.000000  0.000000  1
  Cr  Cr13  1  0.000000  0.000000  0.000000  1
  Cr  Cr14  1  0.500000  1.000000  0.500000  1
  Cr  Cr15  1  0.500000  0.500000  0.000000  1
  Cr  Cr16  1  0.500000  0.500000  0.500000  1
  Cr  Cr17  1  0.000000  0.500000  0.000000  1
  Cr  Cr18  1  0.000000  0.000000  0.500000  1
  Cr  Cr19  1  1.000000  0.500000  0.500000  1
  As  As20  1  0.875000  0.250000  0.125000  1
  As  As21  1  0.625000  0.375000  0.250000  1
  As  As22  1  0.875000  0.125000  0.750000  1
  As  As23  1  0.750000  0.375000  0.625000  1
  As  As24  1  0.750000  0.875000  0.125000  1
  As  As25  1  0.625000  0.750000  0.375000  1
  As  As26  1  0.375000  0.250000  0.625000  1
  As  As27  1  0.250000  0.625000  0.375000  1
  As  As28  1  0.250000  0.125000  0.875000  1
  As  As29  1  0.125000  0.875000  0.250000  1
  As  As30  1  0.375000  0.625000  0.750000  1
  As  As31  1  0.125000  0.750000  0.875000  1
  O  O32  1  0.897189  0.017501  0.312558  1
  O  O33  1  0.879688  0.397189  0.084631  1
  O  O34  1  0.915369  0.295057  0.312558  1
  O  O35  1  0.915369  0.120312  0.602811  1
  O  O36  1  0.584631  0.187442  0.204943  1
  O  O37  1  0.982499  0.687442  0.102811  1
  O  O38  1  0.620312  0.415369  0.102811  1
  O  O39  1  0.204943  0.120312  0.017501  1
  O  O40  1  0.704943  0.687442  0.084631  1
  O  O41  1  0.602811  0.187442  0.482499  1
  O  O42  1  0.897189  0.379688  0.584631  1
  O  O43  1  0.687442  0.084631  0.704943  1
  O  O44  1  0.120312  0.017501  0.204943  1
  O  O45  1  0.812558  0.517501  0.397189  1
  O  O46  1  0.482499  0.379688  0.295057  1
  O  O47  1  0.482499  0.602811  0.187442  1
  O  O48  1  0.017501  0.204943  0.120312  1
  O  O49  1  0.415369  0.102811  0.620312  1
  O  O50  1  0.687442  0.102811  0.982499  1
  O  O51  1  0.379688  0.295057  0.482499  1
  O  O52  1  0.812558  0.795057  0.415369  1
  O  O53  1  0.704943  0.517501  0.620312  1
  O  O54  1  0.602811  0.915369  0.120312  1
  O  O55  1  0.795057  0.415369  0.812558  1
  O  O56  1  0.295057  0.482499  0.379688  1
  O  O57  1  0.397189  0.084631  0.879688  1
  O  O58  1  0.204943  0.584631  0.187442  1
  O  O59  1  0.187442  0.204943  0.584631  1
  O  O60  1  0.620312  0.704943  0.517501  1
  O  O61  1  0.312558  0.897189  0.017501  1
  O  O62  1  0.584631  0.897189  0.379688  1
  O  O63  1  0.982499  0.795057  0.879688  1
  O  O64  1  0.517501  0.397189  0.812558  1
  O  O65  1  0.517501  0.620312  0.704943  1
  O  O66  1  0.879688  0.982499  0.795057  1
  O  O67  1  0.312558  0.915369  0.295057  1
  O  O68  1  0.187442  0.482499  0.602811  1
  O  O69  1  0.102811  0.620312  0.415369  1
  O  O70  1  0.397189  0.812558  0.517501  1
  O  O71  1  0.295057  0.312558  0.915369  1
  O  O72  1  0.795057  0.879688  0.982499  1
  O  O73  1  0.379688  0.584631  0.897189  1
  O  O74  1  0.084631  0.879688  0.397189  1
  O  O75  1  0.415369  0.812558  0.795057  1
  O  O76  1  0.017501  0.312558  0.897189  1
  O  O77  1  0.084631  0.704943  0.687442  1
  O  O78  1  0.120312  0.602811  0.915369  1
  O  O79  1  0.102811  0.982499  0.687442  1
