# generated using pymatgen
data_Li4Fe3CoO8
_symmetry_space_group_name_H-M   'P 1'
_cell_length_a   5.95231445
_cell_length_b   5.95231445
_cell_length_c   5.09858731
_cell_angle_alpha   73.25624816
_cell_angle_beta   106.74375184
_cell_angle_gamma   120.66927577
_symmetry_Int_Tables_number   1
_chemical_formula_structural   Li4Fe3CoO8
_chemical_formula_sum   'Li4 Fe3 Co1 O8'
_cell_volume   146.58760207
_cell_formula_units_Z   1
loop_
 _symmetry_equiv_pos_site_id
 _symmetry_equiv_pos_as_xyz
  1  'x, y, z'
loop_
 _atom_site_type_symbol
 _atom_site_label
 _atom_site_symmetry_multiplicity
 _atom_site_fract_x
 _atom_site_fract_y
 _atom_site_fract_z
 _atom_site_occupancy
  Li  Li0  1  0.246153  0.753847  0.474246  1
  Li  Li1  1  0.753847  0.246153  0.525754  1
  Li  Li2  1  0.500000  1.000000  0.000000  1
  Li  Li3  1  1.000000  0.500000  0.000000  1
  Fe  Fe4  1  0.246393  0.246393  0.500000  1
  Fe  Fe5  1  0.753607  0.753607  0.500000  1
  Fe  Fe6  1  0.500000  0.500000  0.000000  1
  Co  Co7  1  0.000000  0.000000  0.000000  1
  O  O8  1  0.871752  0.647058  0.237069  1
  O  O9  1  0.352942  0.128248  0.237069  1
  O  O10  1  0.384248  0.615752  0.258277  1
  O  O11  1  0.887516  0.112484  0.245184  1
  O  O12  1  0.112484  0.887516  0.754816  1
  O  O13  1  0.615752  0.384248  0.741723  1
  O  O14  1  0.647058  0.871752  0.762931  1
  O  O15  1  0.128248  0.352942  0.762931  1
