# generated using pymatgen
data_LiFe8(BO3)8
_symmetry_space_group_name_H-M   'P 1'
_cell_length_a   5.33296654
_cell_length_b   9.01100317
_cell_length_c   10.13165912
_cell_angle_alpha   89.36548374
_cell_angle_beta   89.97949504
_cell_angle_gamma   89.62360868
_symmetry_Int_Tables_number   1
_chemical_formula_structural   LiFe8(BO3)8
_chemical_formula_sum   'Li1 Fe8 B8 O24'
_cell_volume   486.84033176
_cell_formula_units_Z   1
loop_
 _symmetry_equiv_pos_site_id
 _symmetry_equiv_pos_as_xyz
  1  'x, y, z'
loop_
 _atom_site_type_symbol
 _atom_site_label
 _atom_site_symmetry_multiplicity
 _atom_site_fract_x
 _atom_site_fract_y
 _atom_site_fract_z
 _atom_site_occupancy
  Li  Li0  1  0.645349  0.996115  0.844206  1
  Fe  Fe1  1  0.842879  0.834140  0.120633  1
  Fe  Fe2  1  0.160416  0.834151  0.370307  1
  Fe  Fe3  1  0.661046  0.658680  0.872779  1
  Fe  Fe4  1  0.340510  0.666384  0.623368  1
  Fe  Fe5  1  0.659216  0.333482  0.372391  1
  Fe  Fe6  1  0.853571  0.170604  0.623435  1
  Fe  Fe7  1  0.337891  0.333317  0.123824  1
  Fe  Fe8  1  0.154465  0.170719  0.877318  1
  B  B9  1  0.837531  0.828633  0.628872  1
  B  B10  1  0.668240  0.671775  0.371538  1
  B  B11  1  0.173984  0.828365  0.870556  1
  B  B12  1  0.338038  0.671113  0.121854  1
  B  B13  1  0.662829  0.328397  0.873855  1
  B  B14  1  0.338843  0.329824  0.620434  1
  B  B15  1  0.831913  0.169044  0.123663  1
  B  B16  1  0.167857  0.169960  0.373078  1
  O  O17  1  0.757147  0.969089  0.652091  1
  O  O18  1  0.920448  0.813557  0.915597  1
  O  O19  1  0.293293  0.958653  0.872476  1
  O  O20  1  0.804213  0.792660  0.319626  1
  O  O21  1  0.695884  0.708135  0.674064  1
  O  O22  1  0.200493  0.793364  0.169064  1
  O  O23  1  0.064724  0.800161  0.565482  1
  O  O24  1  0.575884  0.698874  0.066333  1
  O  O25  1  0.756208  0.532320  0.365873  1
  O  O26  1  0.434840  0.703963  0.428870  1
  O  O27  1  0.297173  0.699648  0.824035  1
  O  O28  1  0.772214  0.463840  0.865249  1
  O  O29  1  0.245412  0.533661  0.129651  1
  O  O30  1  0.692145  0.285806  0.177469  1
  O  O31  1  0.577857  0.302297  0.567183  1
  O  O32  1  0.247590  0.469708  0.623774  1
  O  O33  1  0.435237  0.308615  0.934961  1
  O  O34  1  0.928241  0.194383  0.426487  1
  O  O35  1  0.776231  0.200690  0.820531  1
  O  O36  1  0.301019  0.293014  0.327146  1
  O  O37  1  0.201742  0.210581  0.668063  1
  O  O38  1  0.732722  0.030812  0.110549  1
  O  O39  1  0.070639  0.197492  0.079002  1
  O  O40  1  0.262443  0.030822  0.367471  1
