# generated using pymatgen
data_Mn4P2O9
_symmetry_space_group_name_H-M   'P 1'
_cell_length_a   6.77522010
_cell_length_b   11.70624061
_cell_length_c   9.65328024
_cell_angle_alpha   90.00000000
_cell_angle_beta   103.80755547
_cell_angle_gamma   90.00000000
_symmetry_Int_Tables_number   1
_chemical_formula_structural   Mn4P2O9
_chemical_formula_sum   'Mn16 P8 O36'
_cell_volume   743.50001689
_cell_formula_units_Z   4
loop_
 _symmetry_equiv_pos_site_id
 _symmetry_equiv_pos_as_xyz
  1  'x, y, z'
loop_
 _atom_site_type_symbol
 _atom_site_label
 _atom_site_symmetry_multiplicity
 _atom_site_fract_x
 _atom_site_fract_y
 _atom_site_fract_z
 _atom_site_occupancy
  Mn  Mn0  1  0.042858  0.400099  0.881045  1
  Mn  Mn1  1  0.042858  0.099901  0.381045  1
  Mn  Mn2  1  0.236189  0.619250  0.752649  1
  Mn  Mn3  1  0.185449  0.396663  0.533731  1
  Mn  Mn4  1  0.236189  0.880750  0.252649  1
  Mn  Mn5  1  0.185449  0.103337  0.033731  1
  Mn  Mn6  1  0.468384  0.868138  0.679543  1
  Mn  Mn7  1  0.531616  0.368138  0.820457  1
  Mn  Mn8  1  0.468384  0.631862  0.179543  1
  Mn  Mn9  1  0.531616  0.131862  0.320457  1
  Mn  Mn10  1  0.814551  0.896663  0.966269  1
  Mn  Mn11  1  0.763811  0.119250  0.747351  1
  Mn  Mn12  1  0.814551  0.603337  0.466269  1
  Mn  Mn13  1  0.763811  0.380750  0.247351  1
  Mn  Mn14  1  0.957142  0.900099  0.618955  1
  Mn  Mn15  1  0.957142  0.599901  0.118955  1
  P  P16  1  0.294511  0.828584  0.925433  1
  P  P17  1  0.239176  0.129827  0.684705  1
  P  P18  1  0.294511  0.671416  0.425433  1
  P  P19  1  0.239176  0.370173  0.184705  1
  P  P20  1  0.760824  0.629827  0.815295  1
  P  P21  1  0.705489  0.328584  0.574567  1
  P  P22  1  0.760824  0.870173  0.315295  1
  P  P23  1  0.705489  0.171416  0.074567  1
  O  O24  1  0.108098  0.120123  0.796419  1
  O  O25  1  0.180831  0.808794  0.764173  1
  O  O26  1  0.140006  0.212798  0.560155  1
  O  O27  1  0.247166  0.441876  0.765248  1
  O  O28  1  0.165216  0.597487  0.506468  1
  O  O29  1  0.326472  0.704767  0.983813  1
  O  O30  1  0.108098  0.379877  0.296419  1
  O  O31  1  0.230527  0.010104  0.606268  1
  O  O32  1  0.180831  0.691206  0.264173  1
  O  O33  1  0.140006  0.287202  0.060155  1
  O  O34  1  0.247166  0.058124  0.265248  1
  O  O35  1  0.165216  0.902513  0.006468  1
  O  O36  1  0.326472  0.795233  0.483813  1
  O  O37  1  0.491768  0.890518  0.918280  1
  O  O38  1  0.230527  0.489896  0.106268  1
  O  O39  1  0.456332  0.168963  0.755967  1
  O  O40  1  0.543668  0.668963  0.744033  1
  O  O41  1  0.508232  0.390518  0.581720  1
  O  O42  1  0.491768  0.609482  0.418280  1
  O  O43  1  0.456332  0.331037  0.255967  1
  O  O44  1  0.543668  0.831037  0.244033  1
  O  O45  1  0.769473  0.510104  0.893732  1
  O  O46  1  0.508232  0.109482  0.081720  1
  O  O47  1  0.673528  0.204767  0.516187  1
  O  O48  1  0.834784  0.097487  0.993532  1
  O  O49  1  0.752834  0.941876  0.734752  1
  O  O50  1  0.859994  0.712798  0.939845  1
  O  O51  1  0.819169  0.308794  0.735827  1
  O  O52  1  0.769473  0.989896  0.393732  1
  O  O53  1  0.891902  0.620123  0.703581  1
  O  O54  1  0.673528  0.295233  0.016187  1
  O  O55  1  0.834784  0.402513  0.493532  1
  O  O56  1  0.752834  0.558124  0.234752  1
  O  O57  1  0.859994  0.787202  0.439845  1
  O  O58  1  0.819169  0.191206  0.235827  1
  O  O59  1  0.891902  0.879877  0.203581  1
