# generated using pymatgen
data_Li2Mn2Co(PO4)3
_symmetry_space_group_name_H-M   'P 1'
_cell_length_a   8.57386651
_cell_length_b   8.57386651
_cell_length_c   8.26812798
_cell_angle_alpha   64.60345464
_cell_angle_beta   115.39654536
_cell_angle_gamma   117.12483594
_symmetry_Int_Tables_number   1
_chemical_formula_structural   Li2Mn2Co(PO4)3
_chemical_formula_sum   'Li4 Mn4 Co2 P6 O24'
_cell_volume   467.64128122
_cell_formula_units_Z   2
loop_
 _symmetry_equiv_pos_site_id
 _symmetry_equiv_pos_as_xyz
  1  'x, y, z'
loop_
 _atom_site_type_symbol
 _atom_site_label
 _atom_site_symmetry_multiplicity
 _atom_site_fract_x
 _atom_site_fract_y
 _atom_site_fract_z
 _atom_site_occupancy
  Li  Li0  1  0.862142  0.862142  0.000000  1
  Li  Li1  1  0.154980  0.154980  0.500000  1
  Li  Li2  1  0.751455  0.348558  0.898321  1
  Li  Li3  1  0.348558  0.751455  0.101679  1
  Mn  Mn4  1  0.644611  0.853235  0.604547  1
  Mn  Mn5  1  0.154302  0.346896  0.094115  1
  Mn  Mn6  1  0.853235  0.644611  0.395453  1
  Mn  Mn7  1  0.346896  0.154302  0.905885  1
  Co  Co8  1  0.001968  0.494474  0.257209  1
  Co  Co9  1  0.494474  0.001968  0.742791  1
  P  P10  1  0.246497  0.938061  0.319127  1
  P  P11  1  0.938061  0.246497  0.680873  1
  P  P12  1  0.563124  0.563124  0.000000  1
  P  P13  1  0.457626  0.457626  0.500000  1
  P  P14  1  0.047279  0.750488  0.806500  1
  P  P15  1  0.750488  0.047279  0.193500  1
  O  O16  1  0.095292  0.185579  0.716045  1
  O  O17  1  0.537022  0.407964  0.936772  1
  O  O18  1  0.312728  0.962374  0.161140  1
  O  O19  1  0.081024  0.749870  0.319168  1
  O  O20  1  0.185579  0.095292  0.283955  1
  O  O21  1  0.391871  0.917077  0.513519  1
  O  O22  1  0.917077  0.391871  0.486481  1
  O  O23  1  0.749870  0.081024  0.680832  1
  O  O24  1  0.613171  0.499340  0.426881  1
  O  O25  1  0.589094  0.758127  0.849153  1
  O  O26  1  0.263543  0.437127  0.351485  1
  O  O27  1  0.989350  0.679667  0.641164  1
  O  O28  1  0.962374  0.312728  0.838860  1
  O  O29  1  0.758127  0.589094  0.150847  1
  O  O30  1  0.437127  0.263543  0.648515  1
  O  O31  1  0.407964  0.537022  0.063228  1
  O  O32  1  0.243786  0.899103  0.815821  1
  O  O33  1  0.071986  0.598009  0.001807  1
  O  O34  1  0.598009  0.071986  0.998193  1
  O  O35  1  0.819319  0.904880  0.208036  1
  O  O36  1  0.899103  0.243786  0.184179  1
  O  O37  1  0.679667  0.989350  0.358836  1
  O  O38  1  0.499340  0.613171  0.573119  1
  O  O39  1  0.904880  0.819319  0.791964  1
