# generated using pymatgen
data_Fe4OF7
_symmetry_space_group_name_H-M   'P 1'
_cell_length_a   8.08234582
_cell_length_b   8.08234582
_cell_length_c   5.79870260
_cell_angle_alpha   63.40294977
_cell_angle_beta   116.59705023
_cell_angle_gamma   106.86636137
_symmetry_Int_Tables_number   1
_chemical_formula_structural   Fe4OF7
_chemical_formula_sum   'Fe8 O2 F14'
_cell_volume   300.95598966
_cell_formula_units_Z   2
loop_
 _symmetry_equiv_pos_site_id
 _symmetry_equiv_pos_as_xyz
  1  'x, y, z'
loop_
 _atom_site_type_symbol
 _atom_site_label
 _atom_site_symmetry_multiplicity
 _atom_site_fract_x
 _atom_site_fract_y
 _atom_site_fract_z
 _atom_site_occupancy
  Fe  Fe0  1  0.247165  0.492015  0.486782  1
  Fe  Fe1  1  0.000688  0.748884  0.501177  1
  Fe  Fe2  1  0.251116  0.999312  0.001177  1
  Fe  Fe3  1  0.747558  0.522012  0.985992  1
  Fe  Fe4  1  0.507985  0.752835  0.986782  1
  Fe  Fe5  1  0.004689  0.248870  0.019082  1
  Fe  Fe6  1  0.751130  0.995311  0.519082  1
  Fe  Fe7  1  0.477988  0.252442  0.485992  1
  O  O8  1  0.240136  0.316553  0.309382  1
  O  O9  1  0.683447  0.759864  0.809382  1
  F  F10  1  0.165490  0.272410  0.798583  1
  F  F11  1  0.273307  0.668574  0.694769  1
  F  F12  1  0.029773  0.929610  0.694676  1
  F  F13  1  0.532889  0.411466  0.714152  1
  F  F14  1  0.331426  0.726693  0.194769  1
  F  F15  1  0.070390  0.970227  0.194676  1
  F  F16  1  0.588534  0.467111  0.214152  1
  F  F17  1  0.915259  0.527915  0.803330  1
  F  F18  1  0.430801  0.027290  0.802914  1
  F  F19  1  0.972710  0.569199  0.302914  1
  F  F20  1  0.472085  0.084741  0.303330  1
  F  F21  1  0.727590  0.834510  0.298583  1
  F  F22  1  0.758460  0.180616  0.689163  1
  F  F23  1  0.819384  0.241540  0.189163  1
