# generated using pymatgen
data_Na3CrPCO7
_symmetry_space_group_name_H-M   'P 1'
_cell_length_a   5.30382022
_cell_length_b   6.66118174
_cell_length_c   9.16395334
_cell_angle_alpha   90.00000000
_cell_angle_beta   92.02797777
_cell_angle_gamma   90.00000000
_symmetry_Int_Tables_number   1
_chemical_formula_structural   Na3CrPCO7
_chemical_formula_sum   'Na6 Cr2 P2 C2 O14'
_cell_volume   323.55703617
_cell_formula_units_Z   2
loop_
 _symmetry_equiv_pos_site_id
 _symmetry_equiv_pos_as_xyz
  1  'x, y, z'
loop_
 _atom_site_type_symbol
 _atom_site_label
 _atom_site_symmetry_multiplicity
 _atom_site_fract_x
 _atom_site_fract_y
 _atom_site_fract_z
 _atom_site_occupancy
  Na  Na0  1  0.228340  0.750000  0.083902  1
  Na  Na1  1  0.753722  0.996739  0.263357  1
  Na  Na2  1  0.753722  0.503261  0.263357  1
  Na  Na3  1  0.246278  0.496739  0.736643  1
  Na  Na4  1  0.246278  0.003261  0.736643  1
  Na  Na5  1  0.771660  0.250000  0.916098  1
  Cr  Cr6  1  0.230398  0.250000  0.354412  1
  Cr  Cr7  1  0.769602  0.750000  0.645588  1
  P  P8  1  0.307096  0.750000  0.417595  1
  P  P9  1  0.692904  0.250000  0.582405  1
  C  C10  1  0.279145  0.250000  0.056172  1
  C  C11  1  0.720855  0.750000  0.943828  1
  O  O12  1  0.747893  0.750000  0.084788  1
  O  O13  1  0.077294  0.250000  0.135084  1
  O  O14  1  0.501027  0.250000  0.120426  1
  O  O15  1  0.226410  0.936170  0.323265  1
  O  O16  1  0.226410  0.563830  0.323265  1
  O  O17  1  0.601937  0.750000  0.436917  1
  O  O18  1  0.811541  0.250000  0.431653  1
  O  O19  1  0.188459  0.750000  0.568347  1
  O  O20  1  0.398063  0.250000  0.563083  1
  O  O21  1  0.773590  0.436170  0.676735  1
  O  O22  1  0.773590  0.063830  0.676735  1
  O  O23  1  0.498973  0.750000  0.879574  1
  O  O24  1  0.922706  0.750000  0.864916  1
  O  O25  1  0.252107  0.250000  0.915212  1
