# generated using pymatgen
data_Li5Fe8(BO3)8
_symmetry_space_group_name_H-M   'P 1'
_cell_length_a   5.22006851
_cell_length_b   9.12267489
_cell_length_c   10.12646844
_cell_angle_alpha   91.05954232
_cell_angle_beta   90.54027209
_cell_angle_gamma   90.13297839
_symmetry_Int_Tables_number   1
_chemical_formula_structural   Li5Fe8(BO3)8
_chemical_formula_sum   'Li5 Fe8 B8 O24'
_cell_volume   482.12704211
_cell_formula_units_Z   1
loop_
 _symmetry_equiv_pos_site_id
 _symmetry_equiv_pos_as_xyz
  1  'x, y, z'
loop_
 _atom_site_type_symbol
 _atom_site_label
 _atom_site_symmetry_multiplicity
 _atom_site_fract_x
 _atom_site_fract_y
 _atom_site_fract_z
 _atom_site_occupancy
  Li  Li0  1  0.845802  0.827671  0.652789  1
  Li  Li1  1  0.660018  0.676171  0.905491  1
  Li  Li2  1  0.346261  0.322320  0.667644  1
  Li  Li3  1  0.316490  0.330954  0.157438  1
  Li  Li4  1  0.170536  0.165156  0.398611  1
  Fe  Fe5  1  0.846761  0.165054  0.630461  1
  Fe  Fe6  1  0.827709  0.504081  0.135484  1
  Fe  Fe7  1  0.671297  0.015674  0.883383  1
  Fe  Fe8  1  0.659863  0.348542  0.388372  1
  Fe  Fe9  1  0.347731  0.656047  0.625714  1
  Fe  Fe10  1  0.314667  0.995422  0.127478  1
  Fe  Fe11  1  0.168708  0.828174  0.375157  1
  Fe  Fe12  1  0.171372  0.494689  0.877816  1
  B  B13  1  0.838173  0.497924  0.632778  1
  B  B14  1  0.829355  0.175529  0.128334  1
  B  B15  1  0.673820  0.002564  0.379426  1
  B  B16  1  0.670019  0.335797  0.879606  1
  B  B17  1  0.339415  0.998060  0.623694  1
  B  B18  1  0.335102  0.661248  0.131213  1
  B  B19  1  0.158500  0.502782  0.372008  1
  B  B20  1  0.172559  0.834896  0.875487  1
  O  O21  1  0.904360  0.509168  0.327944  1
  O  O22  1  0.906718  0.848616  0.861952  1
  O  O23  1  0.808312  0.209508  0.843940  1
  O  O24  1  0.784598  0.136906  0.415935  1
  O  O25  1  0.818922  0.877867  0.378131  1
  O  O26  1  0.798572  0.461594  0.928957  1
  O  O27  1  0.722322  0.632419  0.642206  1
  O  O28  1  0.688989  0.057100  0.078140  1
  O  O29  1  0.694764  0.372607  0.596131  1
  O  O30  1  0.690228  0.304365  0.161775  1
  O  O31  1  0.594528  0.660183  0.108413  1
  O  O32  1  0.589898  0.990398  0.675977  1
  O  O33  1  0.408512  0.996611  0.348970  1
  O  O34  1  0.411937  0.334965  0.860384  1
  O  O35  1  0.293549  0.704315  0.843616  1
  O  O36  1  0.276603  0.630054  0.418275  1
  O  O37  1  0.284351  0.370155  0.367411  1
  O  O38  1  0.319440  0.952687  0.920393  1
  O  O39  1  0.195369  0.532433  0.099590  1
  O  O40  1  0.223557  0.132311  0.607178  1
  O  O41  1  0.209620  0.868846  0.585408  1
  O  O42  1  0.210225  0.784678  0.178248  1
  O  O43  1  0.088466  0.170275  0.147041  1
  O  O44  1  0.097952  0.482826  0.661562  1
