# generated using pymatgen
data_Na8TiO6
_symmetry_space_group_name_H-M   'P 1'
_cell_length_a   6.63069986
_cell_length_b   9.59246266
_cell_length_c   13.93894333
_cell_angle_alpha   90.00000000
_cell_angle_beta   90.00000000
_cell_angle_gamma   90.00000000
_symmetry_Int_Tables_number   1
_chemical_formula_structural   Na8TiO6
_chemical_formula_sum   'Na32 Ti4 O24'
_cell_volume   886.58287776
_cell_formula_units_Z   4
loop_
 _symmetry_equiv_pos_site_id
 _symmetry_equiv_pos_as_xyz
  1  'x, y, z'
loop_
 _atom_site_type_symbol
 _atom_site_label
 _atom_site_symmetry_multiplicity
 _atom_site_fract_x
 _atom_site_fract_y
 _atom_site_fract_z
 _atom_site_occupancy
  Na  Na0  1  0.512044  0.773838  0.012554  1
  Na  Na1  1  0.272947  0.524690  0.062950  1
  Na  Na2  1  0.917755  0.189629  0.071176  1
  Na  Na3  1  0.940089  0.830533  0.077319  1
  Na  Na4  1  0.336649  0.011427  0.115424  1
  Na  Na5  1  0.550465  0.817791  0.219832  1
  Na  Na6  1  0.579003  0.198558  0.229064  1
  Na  Na7  1  0.921075  0.007433  0.249725  1
  Na  Na8  1  0.421075  0.507433  0.250275  1
  Na  Na9  1  0.079003  0.698558  0.270936  1
  Na  Na10  1  0.050465  0.317791  0.280168  1
  Na  Na11  1  0.836649  0.511427  0.384576  1
  Na  Na12  1  0.440089  0.330533  0.422681  1
  Na  Na13  1  0.417755  0.689629  0.428824  1
  Na  Na14  1  0.772947  0.024690  0.437050  1
  Na  Na15  1  0.012044  0.273838  0.487446  1
  Na  Na16  1  0.987956  0.773838  0.512554  1
  Na  Na17  1  0.227053  0.524690  0.562950  1
  Na  Na18  1  0.582245  0.189629  0.571176  1
  Na  Na19  1  0.559911  0.830533  0.577319  1
  Na  Na20  1  0.163351  0.011427  0.615424  1
  Na  Na21  1  0.949535  0.817791  0.719832  1
  Na  Na22  1  0.920997  0.198558  0.729064  1
  Na  Na23  1  0.578925  0.007433  0.749725  1
  Na  Na24  1  0.078925  0.507433  0.750275  1
  Na  Na25  1  0.420997  0.698558  0.770936  1
  Na  Na26  1  0.449535  0.317791  0.780168  1
  Na  Na27  1  0.663351  0.511427  0.884576  1
  Na  Na28  1  0.059911  0.330533  0.922681  1
  Na  Na29  1  0.082245  0.689629  0.928824  1
  Na  Na30  1  0.727053  0.024690  0.937050  1
  Na  Na31  1  0.487956  0.273838  0.987446  1
  Ti  Ti32  1  0.780764  0.512365  0.123548  1
  Ti  Ti33  1  0.280764  0.012365  0.376452  1
  Ti  Ti34  1  0.719236  0.512365  0.623548  1
  Ti  Ti35  1  0.219236  0.012365  0.876452  1
  O  O36  1  0.789643  0.627819  0.016816  1
  O  O37  1  0.558201  0.396656  0.120807  1
  O  O38  1  0.709132  0.005469  0.118369  1
  O  O39  1  0.257561  0.758367  0.126155  1
  O  O40  1  0.007817  0.403439  0.126154  1
  O  O41  1  0.749836  0.616686  0.234456  1
  O  O42  1  0.249836  0.116686  0.265544  1
  O  O43  1  0.507817  0.903439  0.373846  1
  O  O44  1  0.757561  0.258367  0.373845  1
  O  O45  1  0.209132  0.505469  0.381631  1
  O  O46  1  0.058201  0.896656  0.379193  1
  O  O47  1  0.289643  0.127819  0.483184  1
  O  O48  1  0.710357  0.627819  0.516816  1
  O  O49  1  0.941799  0.396656  0.620807  1
  O  O50  1  0.790868  0.005469  0.618369  1
  O  O51  1  0.242439  0.758367  0.626155  1
  O  O52  1  0.492183  0.403439  0.626154  1
  O  O53  1  0.750164  0.616686  0.734456  1
  O  O54  1  0.250164  0.116686  0.765544  1
  O  O55  1  0.992183  0.903439  0.873846  1
  O  O56  1  0.742439  0.258367  0.873845  1
  O  O57  1  0.290868  0.505469  0.881631  1
  O  O58  1  0.441799  0.896656  0.879193  1
  O  O59  1  0.210357  0.127819  0.983184  1
