# generated using pymatgen
data_LiBiF5
_symmetry_space_group_name_H-M   'P 1'
_cell_length_a   5.43743325
_cell_length_b   5.43743325
_cell_length_c   5.43743325
_cell_angle_alpha   99.58728403
_cell_angle_beta   99.58728403
_cell_angle_gamma   131.82826689
_symmetry_Int_Tables_number   1
_chemical_formula_structural   LiBiF5
_chemical_formula_sum   'Li1 Bi1 F5'
_cell_volume   109.36128728
_cell_formula_units_Z   1
loop_
 _symmetry_equiv_pos_site_id
 _symmetry_equiv_pos_as_xyz
  1  'x, y, z'
loop_
 _atom_site_type_symbol
 _atom_site_label
 _atom_site_symmetry_multiplicity
 _atom_site_fract_x
 _atom_site_fract_y
 _atom_site_fract_z
 _atom_site_occupancy
  Li  Li0  1  0.500000  0.500000  0.000000  1
  Bi  Bi1  1  0.250000  0.750000  0.500000  1
  F  F2  1  0.750000  0.250000  0.500000  1
  F  F3  1  0.941084  0.637189  0.115652  1
  F  F4  1  0.174568  0.058916  0.696104  1
  F  F5  1  0.362811  0.478464  0.303896  1
  F  F6  1  0.521536  0.825432  0.884348  1
