# generated using pymatgen
data_FeCo3O8
_symmetry_space_group_name_H-M   'P 1'
_cell_length_a   5.61348049
_cell_length_b   5.61348049
_cell_length_c   8.90631997
_cell_angle_alpha   90.00000000
_cell_angle_beta   90.00000000
_cell_angle_gamma   120.00000000
_symmetry_Int_Tables_number   1
_chemical_formula_structural   FeCo3O8
_chemical_formula_sum   'Fe2 Co6 O16'
_cell_volume   243.04873258
_cell_formula_units_Z   2
loop_
 _symmetry_equiv_pos_site_id
 _symmetry_equiv_pos_as_xyz
  1  'x, y, z'
loop_
 _atom_site_type_symbol
 _atom_site_label
 _atom_site_symmetry_multiplicity
 _atom_site_fract_x
 _atom_site_fract_y
 _atom_site_fract_z
 _atom_site_occupancy
  Fe  Fe0  1  0.333333  0.666667  0.495711  1
  Fe  Fe1  1  0.666667  0.333333  0.995711  1
  Co  Co2  1  0.167796  0.832204  0.212145  1
  Co  Co3  1  0.167796  0.335592  0.212145  1
  Co  Co4  1  0.664408  0.832204  0.212145  1
  Co  Co5  1  0.335592  0.167796  0.712145  1
  Co  Co6  1  0.832204  0.664408  0.712145  1
  Co  Co7  1  0.832204  0.167796  0.712145  1
  O  O8  1  0.160128  0.839872  0.605571  1
  O  O9  1  0.039131  0.519565  0.329778  1
  O  O10  1  0.333333  0.666667  0.100464  1
  O  O11  1  0.000000  0.000000  0.319071  1
  O  O12  1  0.000000  0.000000  0.819071  1
  O  O13  1  0.160128  0.320257  0.605571  1
  O  O14  1  0.480435  0.960869  0.329778  1
  O  O15  1  0.480435  0.519565  0.329778  1
  O  O16  1  0.320257  0.160128  0.105571  1
  O  O17  1  0.679743  0.839872  0.605571  1
  O  O18  1  0.519565  0.480435  0.829778  1
  O  O19  1  0.519565  0.039131  0.829778  1
  O  O20  1  0.666667  0.333333  0.600464  1
  O  O21  1  0.839872  0.679743  0.105571  1
  O  O22  1  0.960869  0.480435  0.829778  1
  O  O23  1  0.839872  0.160128  0.105571  1
