# generated using pymatgen
data_Li6CrS4
_symmetry_space_group_name_H-M   'P 1'
_cell_length_a   8.16322731
_cell_length_b   8.16322731
_cell_length_c   5.63560274
_cell_angle_alpha   90.00000000
_cell_angle_beta   90.00000000
_cell_angle_gamma   90.00000000
_symmetry_Int_Tables_number   1
_chemical_formula_structural   Li6CrS4
_chemical_formula_sum   'Li12 Cr2 S8'
_cell_volume   375.54687371
_cell_formula_units_Z   2
loop_
 _symmetry_equiv_pos_site_id
 _symmetry_equiv_pos_as_xyz
  1  'x, y, z'
loop_
 _atom_site_type_symbol
 _atom_site_label
 _atom_site_symmetry_multiplicity
 _atom_site_fract_x
 _atom_site_fract_y
 _atom_site_fract_z
 _atom_site_occupancy
  Li  Li0  1  0.276596  0.276596  0.500000  1
  Li  Li1  1  0.723404  0.276596  0.500000  1
  Li  Li2  1  0.000000  0.500000  0.448789  1
  Li  Li3  1  0.000000  0.500000  0.948789  1
  Li  Li4  1  0.276596  0.723404  0.500000  1
  Li  Li5  1  0.723404  0.723404  0.500000  1
  Li  Li6  1  0.776596  0.776596  0.000000  1
  Li  Li7  1  0.223404  0.776596  0.000000  1
  Li  Li8  1  0.500000  0.000000  0.051211  1
  Li  Li9  1  0.500000  0.000000  0.551211  1
  Li  Li10  1  0.776596  0.223404  0.000000  1
  Li  Li11  1  0.223404  0.223404  0.000000  1
  Cr  Cr12  1  0.500000  0.500000  0.000000  1
  Cr  Cr13  1  0.000000  0.000000  0.500000  1
  S  S14  1  0.000000  0.259495  0.700000  1
  S  S15  1  0.759495  0.500000  0.200000  1
  S  S16  1  0.240505  0.500000  0.200000  1
  S  S17  1  0.000000  0.740505  0.700000  1
  S  S18  1  0.500000  0.759495  0.800000  1
  S  S19  1  0.740505  0.000000  0.300000  1
  S  S20  1  0.259495  0.000000  0.300000  1
  S  S21  1  0.500000  0.240505  0.800000  1
