# generated using pymatgen
data_CaPrO3
_symmetry_space_group_name_H-M   'P 1'
_cell_length_a   6.10519995
_cell_length_b   6.32241465
_cell_length_c   8.44626508
_cell_angle_alpha   90.00000000
_cell_angle_beta   90.00000000
_cell_angle_gamma   90.00000000
_symmetry_Int_Tables_number   1
_chemical_formula_structural   CaPrO3
_chemical_formula_sum   'Ca4 Pr4 O12'
_cell_volume   326.02250050
_cell_formula_units_Z   4
loop_
 _symmetry_equiv_pos_site_id
 _symmetry_equiv_pos_as_xyz
  1  'x, y, z'
loop_
 _atom_site_type_symbol
 _atom_site_label
 _atom_site_symmetry_multiplicity
 _atom_site_fract_x
 _atom_site_fract_y
 _atom_site_fract_z
 _atom_site_occupancy
  Ca  Ca0  1  0.516985  0.446038  0.750000  1
  Ca  Ca1  1  0.983015  0.946038  0.750000  1
  Ca  Ca2  1  0.016985  0.053962  0.250000  1
  Ca  Ca3  1  0.483015  0.553962  0.250000  1
  Pr  Pr4  1  0.500000  0.000000  0.000000  1
  Pr  Pr5  1  0.500000  0.000000  0.500000  1
  Pr  Pr6  1  0.000000  0.500000  0.000000  1
  Pr  Pr7  1  0.000000  0.500000  0.500000  1
  O  O8  1  0.664155  0.898151  0.250000  1
  O  O9  1  0.696736  0.699161  0.595315  1
  O  O10  1  0.696736  0.699161  0.904685  1
  O  O11  1  0.803264  0.199161  0.595315  1
  O  O12  1  0.803264  0.199161  0.904685  1
  O  O13  1  0.835845  0.398151  0.250000  1
  O  O14  1  0.164155  0.601849  0.750000  1
  O  O15  1  0.196736  0.800839  0.404685  1
  O  O16  1  0.196736  0.800839  0.095315  1
  O  O17  1  0.303264  0.300839  0.095315  1
  O  O18  1  0.303264  0.300839  0.404685  1
  O  O19  1  0.335845  0.101849  0.750000  1
