# generated using pymatgen
data_Li4Cr2Fe3Sb3O16
_symmetry_space_group_name_H-M   'P 1'
_cell_length_a   6.11979660
_cell_length_b   6.14625496
_cell_length_c   9.71155004
_cell_angle_alpha   91.35200633
_cell_angle_beta   90.45409528
_cell_angle_gamma   119.33915606
_symmetry_Int_Tables_number   1
_chemical_formula_structural   Li4Cr2Fe3Sb3O16
_chemical_formula_sum   'Li4 Cr2 Fe3 Sb3 O16'
_cell_volume   318.26647499
_cell_formula_units_Z   1
loop_
 _symmetry_equiv_pos_site_id
 _symmetry_equiv_pos_as_xyz
  1  'x, y, z'
loop_
 _atom_site_type_symbol
 _atom_site_label
 _atom_site_symmetry_multiplicity
 _atom_site_fract_x
 _atom_site_fract_y
 _atom_site_fract_z
 _atom_site_occupancy
  Li  Li0  1  0.342417  0.675817  0.118740  1
  Li  Li1  1  0.014549  0.028638  0.014144  1
  Li  Li2  1  0.012935  0.020124  0.496382  1
  Li  Li3  1  0.675718  0.350461  0.597224  1
  Cr  Cr4  1  0.321043  0.653305  0.505717  1
  Cr  Cr5  1  0.655741  0.307586  0.024395  1
  Fe  Fe6  1  0.167888  0.335617  0.785118  1
  Fe  Fe7  1  0.334914  0.165629  0.288198  1
  Fe  Fe8  1  0.827000  0.165100  0.287870  1
  Sb  Sb9  1  0.168786  0.830595  0.785748  1
  Sb  Sb10  1  0.661542  0.829868  0.784960  1
  Sb  Sb11  1  0.825916  0.653873  0.286551  1
  O  O12  1  0.149990  0.818596  0.402288  1
  O  O13  1  0.480017  0.967225  0.661920  1
  O  O14  1  0.344807  0.685375  0.899419  1
  O  O15  1  0.988998  0.981495  0.681835  1
  O  O16  1  0.978987  0.978615  0.193564  1
  O  O17  1  0.665105  0.826372  0.400751  1
  O  O18  1  0.041163  0.534280  0.659020  1
  O  O19  1  0.493716  0.534465  0.658264  1
  O  O20  1  0.843590  0.681302  0.896077  1
  O  O21  1  0.156194  0.329973  0.403660  1
  O  O22  1  0.533325  0.489591  0.150393  1
  O  O23  1  0.958475  0.475838  0.155141  1
  O  O24  1  0.683987  0.348144  0.398333  1
  O  O25  1  0.318789  0.145150  0.900975  1
  O  O26  1  0.528821  0.041888  0.156485  1
  O  O27  1  0.825287  0.145076  0.898988  1
