# generated using pymatgen
data_Ba2LaCl7
_symmetry_space_group_name_H-M   'P 1'
_cell_length_a   7.29198342
_cell_length_b   14.21327641
_cell_length_c   12.46936528
_cell_angle_alpha   90.00000000
_cell_angle_beta   92.56435632
_cell_angle_gamma   90.00000000
_symmetry_Int_Tables_number   1
_chemical_formula_structural   Ba2LaCl7
_chemical_formula_sum   'Ba8 La4 Cl28'
_cell_volume   1291.06795071
_cell_formula_units_Z   4
loop_
 _symmetry_equiv_pos_site_id
 _symmetry_equiv_pos_as_xyz
  1  'x, y, z'
loop_
 _atom_site_type_symbol
 _atom_site_label
 _atom_site_symmetry_multiplicity
 _atom_site_fract_x
 _atom_site_fract_y
 _atom_site_fract_z
 _atom_site_occupancy
  Ba  Ba0  1  0.230994  0.535122  0.730779  1
  Ba  Ba1  1  0.275892  0.142867  0.618814  1
  Ba  Ba2  1  0.261065  0.779103  0.120193  1
  Ba  Ba3  1  0.293232  0.378568  0.215444  1
  Ba  Ba4  1  0.706768  0.878568  0.784556  1
  Ba  Ba5  1  0.738935  0.279103  0.879807  1
  Ba  Ba6  1  0.724108  0.642867  0.381186  1
  Ba  Ba7  1  0.769006  0.035122  0.269221  1
  La  La8  1  0.194838  0.847633  0.542811  1
  La  La9  1  0.215198  0.073018  0.034535  1
  La  La10  1  0.784802  0.573018  0.965465  1
  La  La11  1  0.805162  0.347633  0.457189  1
  Cl  Cl12  1  0.041893  0.698931  0.886498  1
  Cl  Cl13  1  0.049838  0.428590  0.978850  1
  Cl  Cl14  1  0.028932  0.506918  0.500628  1
  Cl  Cl15  1  0.101834  0.155976  0.847296  1
  Cl  Cl16  1  0.101897  0.241538  0.389552  1
  Cl  Cl17  1  0.094269  0.768794  0.349879  1
  Cl  Cl18  1  0.196311  0.922453  0.749283  1
  Cl  Cl19  1  0.218537  0.003650  0.244393  1
  Cl  Cl20  1  0.397408  0.334005  0.721567  1
  Cl  Cl21  1  0.393563  0.589716  0.216559  1
  Cl  Cl22  1  0.430404  0.699289  0.605542  1
  Cl  Cl23  1  0.514991  0.704912  0.902126  1
  Cl  Cl24  1  0.502687  0.961779  0.538931  1
  Cl  Cl25  1  0.511283  0.440194  0.988011  1
  Cl  Cl26  1  0.488717  0.940194  0.011989  1
  Cl  Cl27  1  0.497313  0.461779  0.461069  1
  Cl  Cl28  1  0.485009  0.204912  0.097874  1
  Cl  Cl29  1  0.569596  0.199289  0.394458  1
  Cl  Cl30  1  0.606437  0.089716  0.783441  1
  Cl  Cl31  1  0.602592  0.834005  0.278433  1
  Cl  Cl32  1  0.781463  0.503650  0.755607  1
  Cl  Cl33  1  0.803689  0.422453  0.250717  1
  Cl  Cl34  1  0.905731  0.268794  0.650121  1
  Cl  Cl35  1  0.898103  0.741538  0.610448  1
  Cl  Cl36  1  0.898166  0.655976  0.152704  1
  Cl  Cl37  1  0.971068  0.006918  0.499372  1
  Cl  Cl38  1  0.950162  0.928590  0.021150  1
  Cl  Cl39  1  0.958107  0.198931  0.113502  1
