# generated using pymatgen
data_AlBiO3
_symmetry_space_group_name_H-M   'P 1'
_cell_length_a   7.20713713
_cell_length_b   5.09450450
_cell_length_c   8.68303627
_cell_angle_alpha   90.00000000
_cell_angle_beta   116.99218466
_cell_angle_gamma   90.00000000
_symmetry_Int_Tables_number   1
_chemical_formula_structural   AlBiO3
_chemical_formula_sum   'Al4 Bi4 O12'
_cell_volume   284.08441815
_cell_formula_units_Z   4
loop_
 _symmetry_equiv_pos_site_id
 _symmetry_equiv_pos_as_xyz
  1  'x, y, z'
loop_
 _atom_site_type_symbol
 _atom_site_label
 _atom_site_symmetry_multiplicity
 _atom_site_fract_x
 _atom_site_fract_y
 _atom_site_fract_z
 _atom_site_occupancy
  Al  Al0  1  0.593457  0.740176  0.512175  1
  Al  Al1  1  0.593457  0.759824  0.012175  1
  Al  Al2  1  0.406543  0.240176  0.987825  1
  Al  Al3  1  0.406543  0.259824  0.487825  1
  Bi  Bi4  1  0.790722  0.224141  0.880863  1
  Bi  Bi5  1  0.790722  0.275859  0.380863  1
  Bi  Bi6  1  0.209278  0.724141  0.619137  1
  Bi  Bi7  1  0.209278  0.775859  0.119137  1
  O  O8  1  0.525636  0.545472  0.655938  1
  O  O9  1  0.668276  0.074254  0.610875  1
  O  O10  1  0.525636  0.954528  0.155938  1
  O  O11  1  0.846534  0.645862  0.528602  1
  O  O12  1  0.668276  0.425746  0.110875  1
  O  O13  1  0.153466  0.145862  0.971398  1
  O  O14  1  0.846534  0.854138  0.028602  1
  O  O15  1  0.331724  0.574254  0.889125  1
  O  O16  1  0.153466  0.354138  0.471398  1
  O  O17  1  0.474364  0.045472  0.844062  1
  O  O18  1  0.331724  0.925746  0.389125  1
  O  O19  1  0.474364  0.454528  0.344062  1
