# generated using pymatgen
data_Cs3TmO3
_symmetry_space_group_name_H-M   'P 1'
_cell_length_a   7.57910782
_cell_length_b   7.57910782
_cell_length_c   7.63070211
_cell_angle_alpha   84.00180602
_cell_angle_beta   95.99819398
_cell_angle_gamma   63.39091261
_symmetry_Int_Tables_number   1
_chemical_formula_structural   Cs3TmO3
_chemical_formula_sum   'Cs6 Tm2 O6'
_cell_volume   384.07358878
_cell_formula_units_Z   2
loop_
 _symmetry_equiv_pos_site_id
 _symmetry_equiv_pos_as_xyz
  1  'x, y, z'
loop_
 _atom_site_type_symbol
 _atom_site_label
 _atom_site_symmetry_multiplicity
 _atom_site_fract_x
 _atom_site_fract_y
 _atom_site_fract_z
 _atom_site_occupancy
  Cs  Cs0  1  0.640757  0.359243  0.349200  1
  Cs  Cs1  1  0.789531  0.789531  0.500000  1
  Cs  Cs2  1  0.210469  0.210469  0.500000  1
  Cs  Cs3  1  0.737755  0.737755  0.000000  1
  Cs  Cs4  1  0.262245  0.262245  0.000000  1
  Cs  Cs5  1  0.359243  0.640757  0.650800  1
  Tm  Tm6  1  0.829779  0.170221  0.851016  1
  Tm  Tm7  1  0.170221  0.829779  0.148984  1
  O  O8  1  0.899850  0.100150  0.140917  1
  O  O9  1  0.568832  0.164266  0.736230  1
  O  O10  1  0.835734  0.431168  0.736230  1
  O  O11  1  0.164266  0.568832  0.263770  1
  O  O12  1  0.431168  0.835734  0.263770  1
  O  O13  1  0.100150  0.899850  0.859083  1
