# generated using pymatgen
data_Li4CrSb(WO6)2
_symmetry_space_group_name_H-M   'P 1'
_cell_length_a   5.17304104
_cell_length_b   5.43705669
_cell_length_c   7.50392201
_cell_angle_alpha   93.92054856
_cell_angle_beta   90.03582909
_cell_angle_gamma   90.04248572
_symmetry_Int_Tables_number   1
_chemical_formula_structural   Li4CrSb(WO6)2
_chemical_formula_sum   'Li4 Cr1 Sb1 W2 O12'
_cell_volume   210.56217616
_cell_formula_units_Z   1
loop_
 _symmetry_equiv_pos_site_id
 _symmetry_equiv_pos_as_xyz
  1  'x, y, z'
loop_
 _atom_site_type_symbol
 _atom_site_label
 _atom_site_symmetry_multiplicity
 _atom_site_fract_x
 _atom_site_fract_y
 _atom_site_fract_z
 _atom_site_occupancy
  Li  Li0  1  0.002857  0.579504  0.733608  1
  Li  Li1  1  0.496431  0.063163  0.193655  1
  Li  Li2  1  0.996419  0.567611  0.201095  1
  Li  Li3  1  0.504004  0.018352  0.756350  1
  Cr  Cr4  1  0.000940  0.002046  0.001169  1
  Sb  Sb5  1  0.499183  0.501894  0.497600  1
  W  W6  1  0.997382  0.004845  0.499911  1
  W  W7  1  0.501933  0.499147  0.998174  1
  O  O8  1  0.305905  0.807628  0.572899  1
  O  O9  1  0.116745  0.992744  0.261109  1
  O  O10  1  0.316523  0.192603  0.952089  1
  O  O11  1  0.186200  0.306921  0.570118  1
  O  O12  1  0.794836  0.305348  0.061879  1
  O  O13  1  0.369183  0.489592  0.251310  1
  O  O14  1  0.626803  0.487988  0.748143  1
  O  O15  1  0.198247  0.684705  0.950673  1
  O  O16  1  0.820833  0.682176  0.438613  1
  O  O17  1  0.694816  0.793163  0.059436  1
  O  O18  1  0.887066  0.984367  0.742492  1
  O  O19  1  0.683693  0.178607  0.438476  1
