# generated using pymatgen
data_LiSn2(PO4)3
_symmetry_space_group_name_H-M   'P 1'
_cell_length_a   8.75974040
_cell_length_b   8.87811013
_cell_length_c   12.32149761
_cell_angle_alpha   90.00000000
_cell_angle_beta   90.00000000
_cell_angle_gamma   90.00000000
_symmetry_Int_Tables_number   1
_chemical_formula_structural   LiSn2(PO4)3
_chemical_formula_sum   'Li4 Sn8 P12 O48'
_cell_volume   958.24212961
_cell_formula_units_Z   4
loop_
 _symmetry_equiv_pos_site_id
 _symmetry_equiv_pos_as_xyz
  1  'x, y, z'
loop_
 _atom_site_type_symbol
 _atom_site_label
 _atom_site_symmetry_multiplicity
 _atom_site_fract_x
 _atom_site_fract_y
 _atom_site_fract_z
 _atom_site_occupancy
  Li  Li0  1  0.965501  0.780365  0.073250  1
  Li  Li1  1  0.534499  0.280365  0.073250  1
  Li  Li2  1  0.034499  0.280365  0.926750  1
  Li  Li3  1  0.465501  0.780365  0.926750  1
  Sn  Sn4  1  0.000796  0.539202  0.626840  1
  Sn  Sn5  1  0.499204  0.039202  0.626840  1
  Sn  Sn6  1  0.500796  0.539202  0.373160  1
  Sn  Sn7  1  0.999204  0.039202  0.373160  1
  Sn  Sn8  1  0.002381  0.458758  0.139907  1
  Sn  Sn9  1  0.497619  0.958758  0.139907  1
  Sn  Sn10  1  0.997619  0.958758  0.860093  1
  Sn  Sn11  1  0.502381  0.458758  0.860093  1
  P  P12  1  0.792080  0.251463  0.748892  1
  P  P13  1  0.707920  0.751463  0.748892  1
  P  P14  1  0.351826  0.392331  0.600866  1
  P  P15  1  0.851826  0.392331  0.399134  1
  P  P16  1  0.648174  0.892331  0.399134  1
  P  P17  1  0.207920  0.751463  0.251108  1
  P  P18  1  0.292080  0.251463  0.251108  1
  P  P19  1  0.855143  0.105079  0.102138  1
  P  P20  1  0.644857  0.605079  0.102138  1
  P  P21  1  0.144857  0.605079  0.897862  1
  P  P22  1  0.355143  0.105079  0.897862  1
  P  P23  1  0.148174  0.892331  0.600866  1
  O  O24  1  0.398544  0.430450  0.719121  1
  O  O25  1  0.101456  0.930450  0.719121  1
  O  O26  1  0.606494  0.847631  0.677209  1
  O  O27  1  0.893506  0.347631  0.677209  1
  O  O28  1  0.804655  0.646080  0.680289  1
  O  O29  1  0.695345  0.146080  0.680289  1
  O  O30  1  0.176686  0.397067  0.592827  1
  O  O31  1  0.323314  0.897067  0.592827  1
  O  O32  1  0.097313  0.731754  0.570729  1
  O  O33  1  0.402687  0.231753  0.570729  1
  O  O34  1  0.075630  0.012246  0.527280  1
  O  O35  1  0.424370  0.512246  0.527280  1
  O  O36  1  0.575630  0.012246  0.472720  1
  O  O37  1  0.924370  0.512246  0.472720  1
  O  O38  1  0.597313  0.731754  0.429271  1
  O  O39  1  0.902687  0.231753  0.429271  1
  O  O40  1  0.823314  0.897067  0.407173  1
  O  O41  1  0.676686  0.397067  0.407173  1
  O  O42  1  0.304655  0.646080  0.319711  1
  O  O43  1  0.195345  0.146080  0.319711  1
  O  O44  1  0.393506  0.347631  0.322791  1
  O  O45  1  0.106494  0.847631  0.322791  1
  O  O46  1  0.898544  0.430450  0.280879  1
  O  O47  1  0.601456  0.930450  0.280879  1
  O  O48  1  0.905321  0.067630  0.216183  1
  O  O49  1  0.594679  0.567630  0.216183  1
  O  O50  1  0.098677  0.664387  0.171040  1
  O  O51  1  0.401323  0.164387  0.171040  1
  O  O52  1  0.196843  0.347630  0.170542  1
  O  O53  1  0.303157  0.847630  0.170542  1
  O  O54  1  0.822669  0.604646  0.090010  1
  O  O55  1  0.677331  0.104646  0.090010  1
  O  O56  1  0.910232  0.264503  0.064449  1
  O  O57  1  0.589768  0.764503  0.064449  1
  O  O58  1  0.923139  0.983577  0.023751  1
  O  O59  1  0.576861  0.483577  0.023751  1
  O  O60  1  0.076861  0.483577  0.976249  1
  O  O61  1  0.423139  0.983577  0.976249  1
  O  O62  1  0.089768  0.764503  0.935551  1
  O  O63  1  0.410232  0.264503  0.935551  1
  O  O64  1  0.177331  0.104646  0.909990  1
  O  O65  1  0.322669  0.604646  0.909990  1
  O  O66  1  0.803157  0.847630  0.829458  1
  O  O67  1  0.696843  0.347630  0.829458  1
  O  O68  1  0.901323  0.164387  0.828960  1
  O  O69  1  0.598677  0.664387  0.828960  1
  O  O70  1  0.094679  0.567630  0.783817  1
  O  O71  1  0.405321  0.067630  0.783817  1
