# generated using pymatgen
data_Li2FeSi3O8
_symmetry_space_group_name_H-M   'P 1'
_cell_length_a   6.40792595
_cell_length_b   8.40897448
_cell_length_c   6.80989336
_cell_angle_alpha   90.00000000
_cell_angle_beta   106.74586304
_cell_angle_gamma   90.00000000
_symmetry_Int_Tables_number   1
_chemical_formula_structural   Li2FeSi3O8
_chemical_formula_sum   'Li4 Fe2 Si6 O16'
_cell_volume   351.38354119
_cell_formula_units_Z   2
loop_
 _symmetry_equiv_pos_site_id
 _symmetry_equiv_pos_as_xyz
  1  'x, y, z'
loop_
 _atom_site_type_symbol
 _atom_site_label
 _atom_site_symmetry_multiplicity
 _atom_site_fract_x
 _atom_site_fract_y
 _atom_site_fract_z
 _atom_site_occupancy
  Li  Li0  1  0.855539  0.684197  0.212074  1
  Li  Li1  1  0.560643  0.184565  0.516180  1
  Li  Li2  1  0.439357  0.684565  0.483820  1
  Li  Li3  1  0.144461  0.184197  0.787926  1
  Fe  Fe4  1  0.032360  0.001429  0.400275  1
  Fe  Fe5  1  0.967640  0.501429  0.599725  1
  Si  Si6  1  0.416789  0.484320  0.020906  1
  Si  Si7  1  0.239873  0.813734  0.092846  1
  Si  Si8  1  0.168757  0.335546  0.279862  1
  Si  Si9  1  0.831243  0.835546  0.720138  1
  Si  Si10  1  0.760127  0.313734  0.907154  1
  Si  Si11  1  0.583211  0.984320  0.979094  1
  O  O12  1  0.997417  0.262786  0.063575  1
  O  O13  1  0.331156  0.970241  0.995683  1
  O  O14  1  0.415178  0.669559  0.098950  1
  O  O15  1  0.760471  0.936896  0.188477  1
  O  O16  1  0.397497  0.372176  0.216061  1
  O  O17  1  0.225936  0.836212  0.323079  1
  O  O18  1  0.075984  0.498914  0.349057  1
  O  O19  1  0.232258  0.194275  0.450673  1
  O  O20  1  0.767742  0.694275  0.549327  1
  O  O21  1  0.924016  0.998914  0.650943  1
  O  O22  1  0.774064  0.336212  0.676921  1
  O  O23  1  0.602503  0.872176  0.783939  1
  O  O24  1  0.239529  0.436896  0.811523  1
  O  O25  1  0.584822  0.169559  0.901050  1
  O  O26  1  0.668844  0.470241  0.004317  1
  O  O27  1  0.002583  0.762786  0.936425  1
