# generated using pymatgen
data_Li9Al(CoO4)2
_symmetry_space_group_name_H-M   'P 1'
_cell_length_a   6.38820751
_cell_length_b   7.57898251
_cell_length_c   15.93186883
_cell_angle_alpha   90.00000000
_cell_angle_beta   90.00000000
_cell_angle_gamma   90.00000000
_symmetry_Int_Tables_number   1
_chemical_formula_structural   Li9Al(CoO4)2
_chemical_formula_sum   'Li36 Al4 Co8 O32'
_cell_volume   771.35916157
_cell_formula_units_Z   4
loop_
 _symmetry_equiv_pos_site_id
 _symmetry_equiv_pos_as_xyz
  1  'x, y, z'
loop_
 _atom_site_type_symbol
 _atom_site_label
 _atom_site_symmetry_multiplicity
 _atom_site_fract_x
 _atom_site_fract_y
 _atom_site_fract_z
 _atom_site_occupancy
  Li  Li0  1  0.018355  0.533937  0.069116  1
  Li  Li1  1  0.481645  0.533937  0.069116  1
  Li  Li2  1  0.750000  0.338132  0.141419  1
  Li  Li3  1  0.008837  0.100876  0.119954  1
  Li  Li4  1  0.491163  0.100876  0.119954  1
  Li  Li5  1  0.250000  0.330402  0.161458  1
  Li  Li6  1  0.750000  0.804902  0.194051  1
  Li  Li7  1  0.509297  0.550695  0.211403  1
  Li  Li8  1  0.990703  0.550695  0.211403  1
  Li  Li9  1  0.009297  0.050695  0.288597  1
  Li  Li10  1  0.490703  0.050695  0.288597  1
  Li  Li11  1  0.250000  0.304902  0.305949  1
  Li  Li12  1  0.750000  0.830402  0.338542  1
  Li  Li13  1  0.991163  0.600876  0.380046  1
  Li  Li14  1  0.508837  0.600876  0.380046  1
  Li  Li15  1  0.250000  0.838132  0.358581  1
  Li  Li16  1  0.518355  0.033937  0.430884  1
  Li  Li17  1  0.981645  0.033937  0.430884  1
  Li  Li18  1  0.018355  0.966063  0.569116  1
  Li  Li19  1  0.481645  0.966063  0.569116  1
  Li  Li20  1  0.750000  0.161868  0.641419  1
  Li  Li21  1  0.491163  0.399124  0.619954  1
  Li  Li22  1  0.008837  0.399124  0.619954  1
  Li  Li23  1  0.250000  0.169598  0.661458  1
  Li  Li24  1  0.750000  0.695098  0.694051  1
  Li  Li25  1  0.509297  0.949305  0.711403  1
  Li  Li26  1  0.990703  0.949305  0.711403  1
  Li  Li27  1  0.009297  0.449305  0.788597  1
  Li  Li28  1  0.490703  0.449305  0.788597  1
  Li  Li29  1  0.250000  0.195098  0.805949  1
  Li  Li30  1  0.750000  0.669598  0.838542  1
  Li  Li31  1  0.991163  0.899124  0.880046  1
  Li  Li32  1  0.508837  0.899124  0.880046  1
  Li  Li33  1  0.250000  0.661868  0.858581  1
  Li  Li34  1  0.518355  0.466063  0.930884  1
  Li  Li35  1  0.981645  0.466063  0.930884  1
  Al  Al36  1  0.250000  0.839351  0.004751  1
  Al  Al37  1  0.750000  0.339351  0.495249  1
  Al  Al38  1  0.250000  0.660649  0.504751  1
  Al  Al39  1  0.750000  0.160649  0.995249  1
  Co  Co40  1  0.750000  0.768254  0.032999  1
  Co  Co41  1  0.250000  0.796458  0.198413  1
  Co  Co42  1  0.750000  0.296458  0.301587  1
  Co  Co43  1  0.250000  0.268254  0.467001  1
  Co  Co44  1  0.750000  0.731746  0.532999  1
  Co  Co45  1  0.250000  0.703542  0.698413  1
  Co  Co46  1  0.750000  0.203542  0.801587  1
  Co  Co47  1  0.250000  0.231746  0.967001  1
  O  O48  1  0.976592  0.289474  0.023661  1
  O  O49  1  0.523408  0.289474  0.023661  1
  O  O50  1  0.750000  0.005143  0.083337  1
  O  O51  1  0.750000  0.591364  0.129291  1
  O  O52  1  0.250000  0.568505  0.141561  1
  O  O53  1  0.250000  0.960227  0.100595  1
  O  O54  1  0.503179  0.278820  0.223227  1
  O  O55  1  0.996821  0.278820  0.223227  1
  O  O56  1  0.003179  0.778820  0.276773  1
  O  O57  1  0.496821  0.778820  0.276773  1
  O  O58  1  0.750000  0.460227  0.399405  1
  O  O59  1  0.750000  0.068505  0.358439  1
  O  O60  1  0.250000  0.091364  0.370709  1
  O  O61  1  0.250000  0.505143  0.416663  1
  O  O62  1  0.476592  0.789474  0.476339  1
  O  O63  1  0.023408  0.789474  0.476339  1
  O  O64  1  0.976592  0.210526  0.523661  1
  O  O65  1  0.523408  0.210526  0.523661  1
  O  O66  1  0.750000  0.494857  0.583337  1
  O  O67  1  0.750000  0.908636  0.629291  1
  O  O68  1  0.250000  0.931495  0.641561  1
  O  O69  1  0.250000  0.539773  0.600595  1
  O  O70  1  0.503179  0.221180  0.723227  1
  O  O71  1  0.996821  0.221180  0.723227  1
  O  O72  1  0.003179  0.721180  0.776773  1
  O  O73  1  0.496821  0.721180  0.776773  1
  O  O74  1  0.750000  0.039773  0.899405  1
  O  O75  1  0.750000  0.431495  0.858439  1
  O  O76  1  0.250000  0.408636  0.870709  1
  O  O77  1  0.250000  0.994857  0.916663  1
  O  O78  1  0.476592  0.710526  0.976339  1
  O  O79  1  0.023408  0.710526  0.976339  1
