# generated using pymatgen
data_Sr4Ta2O9
_symmetry_space_group_name_H-M   'P 1'
_cell_length_a   5.94614435
_cell_length_b   5.94614435
_cell_length_c   15.38651984
_cell_angle_alpha   90.00000000
_cell_angle_beta   90.00000000
_cell_angle_gamma   120.00000000
_symmetry_Int_Tables_number   1
_chemical_formula_structural   Sr4Ta2O9
_chemical_formula_sum   'Sr8 Ta4 O18'
_cell_volume   471.13126909
_cell_formula_units_Z   2
loop_
 _symmetry_equiv_pos_site_id
 _symmetry_equiv_pos_as_xyz
  1  'x, y, z'
loop_
 _atom_site_type_symbol
 _atom_site_label
 _atom_site_symmetry_multiplicity
 _atom_site_fract_x
 _atom_site_fract_y
 _atom_site_fract_z
 _atom_site_occupancy
  Sr  Sr0  1  0.333333  0.666667  0.527810  1
  Sr  Sr1  1  0.333333  0.666667  0.801052  1
  Sr  Sr2  1  0.333333  0.666667  0.301052  1
  Sr  Sr3  1  0.333333  0.666667  0.027810  1
  Sr  Sr4  1  0.666667  0.333333  0.698948  1
  Sr  Sr5  1  0.666667  0.333333  0.198948  1
  Sr  Sr6  1  0.666667  0.333333  0.972190  1
  Sr  Sr7  1  0.666667  0.333333  0.472190  1
  Ta  Ta8  1  0.000000  0.000000  0.649519  1
  Ta  Ta9  1  0.000000  0.000000  0.850481  1
  Ta  Ta10  1  0.000000  0.000000  0.149519  1
  Ta  Ta11  1  0.000000  0.000000  0.350481  1
  O  O12  1  0.000000  0.751597  0.250000  1
  O  O13  1  0.039858  0.730553  0.907100  1
  O  O14  1  0.269447  0.960142  0.407100  1
  O  O15  1  0.039858  0.309305  0.407100  1
  O  O16  1  0.000000  0.248403  0.750000  1
  O  O17  1  0.248403  0.248403  0.250000  1
  O  O18  1  0.269447  0.309305  0.907100  1
  O  O19  1  0.690695  0.960142  0.907100  1
  O  O20  1  0.309305  0.269447  0.592900  1
  O  O21  1  0.248403  0.000000  0.750000  1
  O  O22  1  0.690695  0.730553  0.407100  1
  O  O23  1  0.309305  0.039858  0.092900  1
  O  O24  1  0.730553  0.690695  0.092900  1
  O  O25  1  0.751597  0.751597  0.750000  1
  O  O26  1  0.960142  0.690695  0.592900  1
  O  O27  1  0.730553  0.039858  0.592900  1
  O  O28  1  0.751597  0.000000  0.250000  1
  O  O29  1  0.960142  0.269447  0.092900  1
