# generated using pymatgen
data_CoCu3(PO4)4
_symmetry_space_group_name_H-M   'P 1'
_cell_length_a   5.13334357
_cell_length_b   5.98561788
_cell_length_c   9.99827274
_cell_angle_alpha   90.00000000
_cell_angle_beta   92.92754798
_cell_angle_gamma   90.00000000
_symmetry_Int_Tables_number   1
_chemical_formula_structural   CoCu3(PO4)4
_chemical_formula_sum   'Co1 Cu3 P4 O16'
_cell_volume   306.80832444
_cell_formula_units_Z   1
loop_
 _symmetry_equiv_pos_site_id
 _symmetry_equiv_pos_as_xyz
  1  'x, y, z'
loop_
 _atom_site_type_symbol
 _atom_site_label
 _atom_site_symmetry_multiplicity
 _atom_site_fract_x
 _atom_site_fract_y
 _atom_site_fract_z
 _atom_site_occupancy
  Co  Co0  1  0.064686  0.000000  0.292701  1
  Cu  Cu1  1  0.876931  0.500000  0.689644  1
  Cu  Cu2  1  0.645038  0.500000  0.191635  1
  Cu  Cu3  1  0.369223  0.000000  0.810991  1
  P  P4  1  0.919619  0.000000  0.604517  1
  P  P5  1  0.566035  0.000000  0.107669  1
  P  P6  1  0.445668  0.500000  0.888549  1
  P  P7  1  0.076839  0.500000  0.397068  1
  O  O8  1  0.864829  0.000000  0.452465  1
  O  O9  1  0.779077  0.199877  0.670681  1
  O  O10  1  0.779077  0.800123  0.670681  1
  O  O11  1  0.776565  0.500000  0.365938  1
  O  O12  1  0.738746  0.500000  0.861269  1
  O  O13  1  0.734403  0.193172  0.177922  1
  O  O14  1  0.734403  0.806828  0.177922  1
  O  O15  1  0.611214  0.000000  0.955424  1
  O  O16  1  0.420049  0.500000  0.042721  1
  O  O17  1  0.286785  0.697951  0.824835  1
  O  O18  1  0.286785  0.302049  0.824835  1
  O  O19  1  0.277187  0.000000  0.131740  1
  O  O20  1  0.218165  0.000000  0.636254  1
  O  O21  1  0.208754  0.708187  0.336187  1
  O  O22  1  0.208754  0.291813  0.336187  1
  O  O23  1  0.111168  0.500000  0.552168  1
