# generated using pymatgen
data_Li4NbFe(TeO6)2
_symmetry_space_group_name_H-M   'P 1'
_cell_length_a   5.17642498
_cell_length_b   5.44410979
_cell_length_c   7.53086485
_cell_angle_alpha   86.07050932
_cell_angle_beta   89.81335662
_cell_angle_gamma   89.95266459
_symmetry_Int_Tables_number   1
_chemical_formula_structural   Li4NbFe(TeO6)2
_chemical_formula_sum   'Li4 Nb1 Fe1 Te2 O12'
_cell_volume   211.72741758
_cell_formula_units_Z   1
loop_
 _symmetry_equiv_pos_site_id
 _symmetry_equiv_pos_as_xyz
  1  'x, y, z'
loop_
 _atom_site_type_symbol
 _atom_site_label
 _atom_site_symmetry_multiplicity
 _atom_site_fract_x
 _atom_site_fract_y
 _atom_site_fract_z
 _atom_site_occupancy
  Li  Li0  1  0.001499  0.571070  0.262583  1
  Li  Li1  1  0.500874  0.053498  0.800445  1
  Li  Li2  1  0.004194  0.587521  0.806061  1
  Li  Li3  1  0.496499  0.019037  0.248807  1
  Nb  Nb4  1  0.498786  0.500020  0.505881  1
  Fe  Fe5  1  0.000871  0.014230  0.001671  1
  Te  Te6  1  0.998512  0.003704  0.500400  1
  Te  Te7  1  0.499497  0.500828  0.002848  1
  O  O8  1  0.693687  0.809558  0.430018  1
  O  O9  1  0.874498  0.989275  0.738898  1
  O  O10  1  0.674181  0.187317  0.049171  1
  O  O11  1  0.818074  0.308041  0.429121  1
  O  O12  1  0.206975  0.309765  0.928931  1
  O  O13  1  0.627352  0.492749  0.749578  1
  O  O14  1  0.375895  0.488095  0.248770  1
  O  O15  1  0.806942  0.678721  0.050624  1
  O  O16  1  0.178636  0.683648  0.559182  1
  O  O17  1  0.306450  0.794152  0.936322  1
  O  O18  1  0.121580  0.975098  0.260801  1
  O  O19  1  0.314998  0.176073  0.561087  1
