# generated using pymatgen
data_YbTiO3
_symmetry_space_group_name_H-M   'P 1'
_cell_length_a   5.33387865
_cell_length_b   5.49145394
_cell_length_c   7.61434844
_cell_angle_alpha   90.00000000
_cell_angle_beta   90.00000000
_cell_angle_gamma   90.00000000
_symmetry_Int_Tables_number   1
_chemical_formula_structural   YbTiO3
_chemical_formula_sum   'Yb4 Ti4 O12'
_cell_volume   223.02996841
_cell_formula_units_Z   4
loop_
 _symmetry_equiv_pos_site_id
 _symmetry_equiv_pos_as_xyz
  1  'x, y, z'
loop_
 _atom_site_type_symbol
 _atom_site_label
 _atom_site_symmetry_multiplicity
 _atom_site_fract_x
 _atom_site_fract_y
 _atom_site_fract_z
 _atom_site_occupancy
  Yb  Yb0  1  0.987841  0.446415  0.750000  1
  Yb  Yb1  1  0.512159  0.946415  0.750000  1
  Yb  Yb2  1  0.487841  0.053585  0.250000  1
  Yb  Yb3  1  0.012159  0.553585  0.250000  1
  Ti  Ti4  1  0.000000  0.000000  0.000000  1
  Ti  Ti5  1  0.000000  0.000000  0.500000  1
  Ti  Ti6  1  0.500000  0.500000  0.000000  1
  Ti  Ti7  1  0.500000  0.500000  0.500000  1
  O  O8  1  0.086553  0.024525  0.750000  1
  O  O9  1  0.204579  0.294149  0.045743  1
  O  O10  1  0.204579  0.294149  0.454257  1
  O  O11  1  0.295421  0.794149  0.454257  1
  O  O12  1  0.295421  0.794149  0.045743  1
  O  O13  1  0.413447  0.524525  0.750000  1
  O  O14  1  0.586553  0.475475  0.250000  1
  O  O15  1  0.704579  0.205851  0.954257  1
  O  O16  1  0.704579  0.205851  0.545743  1
  O  O17  1  0.795421  0.705851  0.545743  1
  O  O18  1  0.795421  0.705851  0.954257  1
  O  O19  1  0.913447  0.975475  0.250000  1
