# generated using pymatgen
data_NaTi6O12
_symmetry_space_group_name_H-M   'P 1'
_cell_length_a   5.32369692
_cell_length_b   8.96102890
_cell_length_c   9.46598922
_cell_angle_alpha   90.00000000
_cell_angle_beta   90.00000000
_cell_angle_gamma   90.00000000
_symmetry_Int_Tables_number   1
_chemical_formula_structural   NaTi6O12
_chemical_formula_sum   'Na2 Ti12 O24'
_cell_volume   451.58260704
_cell_formula_units_Z   2
loop_
 _symmetry_equiv_pos_site_id
 _symmetry_equiv_pos_as_xyz
  1  'x, y, z'
loop_
 _atom_site_type_symbol
 _atom_site_label
 _atom_site_symmetry_multiplicity
 _atom_site_fract_x
 _atom_site_fract_y
 _atom_site_fract_z
 _atom_site_occupancy
  Na  Na0  1  0.545451  0.500000  0.713795  1
  Na  Na1  1  0.045451  0.000000  0.286205  1
  Ti  Ti2  1  0.967556  0.169052  0.889814  1
  Ti  Ti3  1  0.976756  0.500000  0.904526  1
  Ti  Ti4  1  0.967556  0.830948  0.889814  1
  Ti  Ti5  1  0.531005  0.830425  0.395572  1
  Ti  Ti6  1  0.539860  0.500000  0.382852  1
  Ti  Ti7  1  0.531005  0.169575  0.395572  1
  Ti  Ti8  1  0.467556  0.669052  0.110186  1
  Ti  Ti9  1  0.476756  0.000000  0.095474  1
  Ti  Ti10  1  0.467556  0.330948  0.110186  1
  Ti  Ti11  1  0.039860  0.000000  0.617148  1
  Ti  Ti12  1  0.031005  0.669575  0.604428  1
  Ti  Ti13  1  0.031005  0.330425  0.604428  1
  O  O14  1  0.834078  0.836440  0.516479  1
  O  O15  1  0.818919  0.500000  0.523464  1
  O  O16  1  0.834078  0.163560  0.516479  1
  O  O17  1  0.817138  0.668955  0.787538  1
  O  O18  1  0.817138  0.331045  0.787538  1
  O  O19  1  0.822156  0.000000  0.788312  1
  O  O20  1  0.685579  0.669049  0.286492  1
  O  O21  1  0.685579  0.330951  0.286492  1
  O  O22  1  0.659958  0.000000  0.284592  1
  O  O23  1  0.677545  0.833562  0.022025  1
  O  O24  1  0.677545  0.166438  0.022025  1
  O  O25  1  0.672098  0.500000  0.017347  1
  O  O26  1  0.334078  0.663560  0.483521  1
  O  O27  1  0.318919  0.000000  0.476536  1
  O  O28  1  0.334078  0.336440  0.483521  1
  O  O29  1  0.317138  0.168955  0.212462  1
  O  O30  1  0.317138  0.831045  0.212462  1
  O  O31  1  0.322156  0.500000  0.211688  1
  O  O32  1  0.185579  0.169049  0.713508  1
  O  O33  1  0.159958  0.500000  0.715408  1
  O  O34  1  0.185579  0.830951  0.713508  1
  O  O35  1  0.172098  0.000000  0.982653  1
  O  O36  1  0.177545  0.666438  0.977975  1
  O  O37  1  0.177545  0.333562  0.977975  1
