# generated using pymatgen
data_Na5Ni2As(CO4)4
_symmetry_space_group_name_H-M   'P 1'
_cell_length_a   9.95923271
_cell_length_b   9.95225827
_cell_length_c   9.93538486
_cell_angle_alpha   60.10249057
_cell_angle_beta   60.03277923
_cell_angle_gamma   59.86473020
_symmetry_Int_Tables_number   1
_chemical_formula_structural   Na5Ni2As(CO4)4
_chemical_formula_sum   'Na10 Ni4 As2 C8 O32'
_cell_volume   696.32705002
_cell_formula_units_Z   2
loop_
 _symmetry_equiv_pos_site_id
 _symmetry_equiv_pos_as_xyz
  1  'x, y, z'
loop_
 _atom_site_type_symbol
 _atom_site_label
 _atom_site_symmetry_multiplicity
 _atom_site_fract_x
 _atom_site_fract_y
 _atom_site_fract_z
 _atom_site_occupancy
  Na  Na0  1  0.155594  0.598155  0.332389  1
  Na  Na1  1  0.917101  0.335592  0.652973  1
  Na  Na2  1  0.917611  0.336138  0.094406  1
  Na  Na3  1  0.335592  0.917101  0.094334  1
  Na  Na4  1  0.155666  0.597027  0.914408  1
  Na  Na5  1  0.598155  0.155594  0.913862  1
  Na  Na6  1  0.597027  0.155666  0.332899  1
  Na  Na7  1  0.339694  0.339694  0.660306  1
  Na  Na8  1  0.336138  0.917611  0.651845  1
  Na  Na9  1  0.589694  0.589694  0.910306  1
  Ni  Ni10  1  0.247812  0.752515  0.500156  1
  Ni  Ni11  1  0.750483  0.749844  0.497485  1
  Ni  Ni12  1  0.752515  0.247812  0.499517  1
  Ni  Ni13  1  0.749844  0.750483  0.002188  1
  As  As14  1  0.123497  0.123497  0.876503  1
  As  As15  1  0.373497  0.373497  0.126503  1
  C  C16  1  0.534914  0.891441  0.286643  1
  C  C17  1  0.891441  0.534914  0.287002  1
  C  C18  1  0.535064  0.534902  0.645111  1
  C  C19  1  0.534902  0.535064  0.284923  1
  C  C20  1  0.963357  0.962998  0.715086  1
  C  C21  1  0.962998  0.963357  0.358559  1
  C  C22  1  0.965077  0.604889  0.715098  1
  C  C23  1  0.604889  0.965077  0.714936  1
  O  O24  1  0.106178  0.850117  0.352192  1
  O  O25  1  0.898160  0.647780  0.310325  1
  O  O26  1  0.647780  0.898160  0.143735  1
  O  O27  1  0.941148  0.600874  0.600488  1
  O  O28  1  0.897808  0.558487  0.143822  1
  O  O29  1  0.195266  0.195568  0.664525  1
  O  O30  1  0.195568  0.195266  0.944641  1
  O  O31  1  0.886075  0.397926  0.404503  1
  O  O32  1  0.397926  0.886075  0.311496  1
  O  O33  1  0.650278  0.560246  0.646446  1
  O  O34  1  0.560246  0.650278  0.143030  1
  O  O35  1  0.206375  0.912009  0.939940  1
  O  O36  1  0.912009  0.206375  0.941675  1
  O  O37  1  0.106265  0.939675  0.602220  1
  O  O38  1  0.939675  0.106265  0.351840  1
  O  O39  1  0.649512  0.392510  0.308852  1
  O  O40  1  0.850117  0.106178  0.691513  1
  O  O41  1  0.560181  0.392313  0.648709  1
  O  O42  1  0.392313  0.560181  0.398797  1
  O  O43  1  0.305359  0.585475  0.054432  1
  O  O44  1  0.585475  0.305359  0.054734  1
  O  O45  1  0.938504  0.845497  0.852074  1
  O  O46  1  0.845497  0.938504  0.363925  1
  O  O47  1  0.106970  0.603554  0.689754  1
  O  O48  1  0.603554  0.106970  0.599722  1
  O  O49  1  0.310060  0.308325  0.043625  1
  O  O50  1  0.308325  0.310060  0.337991  1
  O  O51  1  0.600874  0.941148  0.857490  1
  O  O52  1  0.558487  0.897808  0.399883  1
  O  O53  1  0.601291  0.851203  0.689819  1
  O  O54  1  0.851203  0.601291  0.857687  1
  O  O55  1  0.392510  0.649512  0.649126  1
