# generated using pymatgen
data_Fe5O3F7
_symmetry_space_group_name_H-M   'P 1'
_cell_length_a   4.81551990
_cell_length_b   4.81551990
_cell_length_c   15.71467193
_cell_angle_alpha   89.92120776
_cell_angle_beta   90.07879224
_cell_angle_gamma   91.36123374
_symmetry_Int_Tables_number   1
_chemical_formula_structural   Fe5O3F7
_chemical_formula_sum   'Fe10 O6 F14'
_cell_volume   364.30765862
_cell_formula_units_Z   2
loop_
 _symmetry_equiv_pos_site_id
 _symmetry_equiv_pos_as_xyz
  1  'x, y, z'
loop_
 _atom_site_type_symbol
 _atom_site_label
 _atom_site_symmetry_multiplicity
 _atom_site_fract_x
 _atom_site_fract_y
 _atom_site_fract_z
 _atom_site_occupancy
  Fe  Fe0  1  0.019278  0.966325  0.395330  1
  Fe  Fe1  1  0.966325  0.019278  0.604670  1
  Fe  Fe2  1  0.979614  0.971971  0.799717  1
  Fe  Fe3  1  0.975346  0.975346  0.000000  1
  Fe  Fe4  1  0.971971  0.979614  0.200283  1
  Fe  Fe5  1  0.497481  0.497481  0.500000  1
  Fe  Fe6  1  0.510891  0.512275  0.898361  1
  Fe  Fe7  1  0.529968  0.508632  0.692378  1
  Fe  Fe8  1  0.512275  0.510891  0.101639  1
  Fe  Fe9  1  0.508632  0.529968  0.307622  1
  O  O10  1  0.799164  0.804853  0.705137  1
  O  O11  1  0.814419  0.812237  0.900030  1
  O  O12  1  0.812237  0.814419  0.099970  1
  O  O13  1  0.804853  0.799164  0.294863  1
  O  O14  1  0.670924  0.321092  0.596252  1
  O  O15  1  0.321092  0.670924  0.403748  1
  F  F16  1  0.793978  0.793978  0.500000  1
  F  F17  1  0.701883  0.299218  0.400673  1
  F  F18  1  0.703194  0.300610  0.795127  1
  F  F19  1  0.707578  0.296012  0.999788  1
  F  F20  1  0.699819  0.302169  0.205727  1
  F  F21  1  0.299218  0.701883  0.599327  1
  F  F22  1  0.302169  0.699819  0.794273  1
  F  F23  1  0.296012  0.707578  0.000212  1
  F  F24  1  0.300610  0.703194  0.204873  1
  F  F25  1  0.193118  0.193118  0.500000  1
  F  F26  1  0.195794  0.194389  0.900531  1
  F  F27  1  0.205427  0.212338  0.710343  1
  F  F28  1  0.212338  0.205427  0.289657  1
  F  F29  1  0.194389  0.195794  0.099469  1
