# generated using pymatgen
data_Li2Mn3SnO8
_symmetry_space_group_name_H-M   'P 1'
_cell_length_a   5.98891787
_cell_length_b   5.98891787
_cell_length_c   5.98891787
_cell_angle_alpha   60.85005553
_cell_angle_beta   60.85005553
_cell_angle_gamma   60.85005553
_symmetry_Int_Tables_number   1
_chemical_formula_structural   Li2Mn3SnO8
_chemical_formula_sum   'Li2 Mn3 Sn1 O8'
_cell_volume   154.80155314
_cell_formula_units_Z   1
loop_
 _symmetry_equiv_pos_site_id
 _symmetry_equiv_pos_as_xyz
  1  'x, y, z'
loop_
 _atom_site_type_symbol
 _atom_site_label
 _atom_site_symmetry_multiplicity
 _atom_site_fract_x
 _atom_site_fract_y
 _atom_site_fract_z
 _atom_site_occupancy
  Li  Li0  1  0.881648  0.881648  0.881648  1
  Li  Li1  1  0.503745  0.503745  0.503745  1
  Mn  Mn2  1  0.985523  0.504367  0.504367  1
  Mn  Mn3  1  0.504367  0.985523  0.504367  1
  Mn  Mn4  1  0.504367  0.504367  0.985523  1
  Sn  Sn5  1  0.112460  0.112460  0.112460  1
  O  O6  1  0.745960  0.745960  0.745960  1
  O  O7  1  0.749059  0.749059  0.293891  1
  O  O8  1  0.749059  0.293891  0.749059  1
  O  O9  1  0.293891  0.749059  0.749059  1
  O  O10  1  0.708428  0.255612  0.255612  1
  O  O11  1  0.255612  0.708428  0.255612  1
  O  O12  1  0.255612  0.255612  0.708428  1
  O  O13  1  0.250268  0.250268  0.250268  1
