# generated using pymatgen
data_Li2Mn3NiO8
_symmetry_space_group_name_H-M   'P 1'
_cell_length_a   8.29255068
_cell_length_b   8.29255068
_cell_length_c   8.29255068
_cell_angle_alpha   90.00000000
_cell_angle_beta   90.00000000
_cell_angle_gamma   90.00000000
_symmetry_Int_Tables_number   1
_chemical_formula_structural   Li2Mn3NiO8
_chemical_formula_sum   'Li8 Mn12 Ni4 O32'
_cell_volume   570.24882989
_cell_formula_units_Z   4
loop_
 _symmetry_equiv_pos_site_id
 _symmetry_equiv_pos_as_xyz
  1  'x, y, z'
loop_
 _atom_site_type_symbol
 _atom_site_label
 _atom_site_symmetry_multiplicity
 _atom_site_fract_x
 _atom_site_fract_y
 _atom_site_fract_z
 _atom_site_occupancy
  Li  Li0  1  0.125244  0.874756  0.374756  1
  Li  Li1  1  0.252709  0.752709  0.747291  1
  Li  Li2  1  0.247291  0.247291  0.247291  1
  Li  Li3  1  0.374756  0.125244  0.874756  1
  Li  Li4  1  0.625244  0.625244  0.625244  1
  Li  Li5  1  0.752709  0.747291  0.252709  1
  Li  Li6  1  0.747291  0.252709  0.752709  1
  Li  Li7  1  0.874756  0.374756  0.125244  1
  Mn  Mn8  1  0.128027  0.623746  0.124563  1
  Mn  Mn9  1  0.123746  0.375437  0.871973  1
  Mn  Mn10  1  0.124563  0.128027  0.623746  1
  Mn  Mn11  1  0.375437  0.871973  0.123746  1
  Mn  Mn12  1  0.376254  0.624563  0.371973  1
  Mn  Mn13  1  0.371973  0.376254  0.624563  1
  Mn  Mn14  1  0.628027  0.876254  0.875437  1
  Mn  Mn15  1  0.623746  0.124563  0.128027  1
  Mn  Mn16  1  0.624563  0.371973  0.376254  1
  Mn  Mn17  1  0.875437  0.628027  0.876254  1
  Mn  Mn18  1  0.876254  0.875437  0.628027  1
  Mn  Mn19  1  0.871973  0.123746  0.375437  1
  Ni  Ni20  1  0.998142  0.501858  0.498142  1
  Ni  Ni21  1  0.501858  0.498142  0.998142  1
  Ni  Ni22  1  0.498142  0.998142  0.501858  1
  Ni  Ni23  1  0.001858  0.001858  0.001858  1
  O  O24  1  0.106719  0.126638  0.397817  1
  O  O25  1  0.102183  0.893281  0.626638  1
  O  O26  1  0.113824  0.613824  0.886176  1
  O  O27  1  0.126638  0.397817  0.106719  1
  O  O28  1  0.125395  0.147428  0.863359  1
  O  O29  1  0.139999  0.360001  0.639999  1
  O  O30  1  0.136641  0.625395  0.352572  1
  O  O31  1  0.147428  0.863359  0.125395  1
  O  O32  1  0.352572  0.136641  0.625395  1
  O  O33  1  0.363359  0.374605  0.852572  1
  O  O34  1  0.360001  0.639999  0.139999  1
  O  O35  1  0.374605  0.852572  0.363359  1
  O  O36  1  0.373362  0.602183  0.606719  1
  O  O37  1  0.386176  0.386176  0.386176  1
  O  O38  1  0.397817  0.106719  0.126638  1
  O  O39  1  0.393281  0.873362  0.897817  1
  O  O40  1  0.606719  0.373362  0.602183  1
  O  O41  1  0.602183  0.606719  0.373362  1
  O  O42  1  0.613824  0.886176  0.113824  1
  O  O43  1  0.626638  0.102183  0.893281  1
  O  O44  1  0.625395  0.352572  0.136641  1
  O  O45  1  0.639999  0.139999  0.360001  1
  O  O46  1  0.636641  0.874605  0.647428  1
  O  O47  1  0.647428  0.636641  0.874605  1
  O  O48  1  0.852572  0.363359  0.374605  1
  O  O49  1  0.863359  0.125395  0.147428  1
  O  O50  1  0.860001  0.860001  0.860001  1
  O  O51  1  0.874605  0.647428  0.636641  1
  O  O52  1  0.873362  0.897817  0.393281  1
  O  O53  1  0.886176  0.113824  0.613824  1
  O  O54  1  0.897817  0.393281  0.873362  1
  O  O55  1  0.893281  0.626638  0.102183  1
