# generated using pymatgen
data_Li2FeCo9O20
_symmetry_space_group_name_H-M   'P 1'
_cell_length_a   4.93487546
_cell_length_b   7.50832823
_cell_length_c   10.02071535
_cell_angle_alpha   95.63868152
_cell_angle_beta   94.66132514
_cell_angle_gamma   108.99298825
_symmetry_Int_Tables_number   1
_chemical_formula_structural   Li2FeCo9O20
_chemical_formula_sum   'Li2 Fe1 Co9 O20'
_cell_volume   346.84230644
_cell_formula_units_Z   1
loop_
 _symmetry_equiv_pos_site_id
 _symmetry_equiv_pos_as_xyz
  1  'x, y, z'
loop_
 _atom_site_type_symbol
 _atom_site_label
 _atom_site_symmetry_multiplicity
 _atom_site_fract_x
 _atom_site_fract_y
 _atom_site_fract_z
 _atom_site_occupancy
  Li  Li0  1  0.800360  0.347847  0.246311  1
  Li  Li1  1  0.199640  0.652153  0.753689  1
  Fe  Fe2  1  0.000000  0.000000  0.500000  1
  Co  Co3  1  0.200922  0.900921  0.005279  1
  Co  Co4  1  0.602906  0.203105  0.504647  1
  Co  Co5  1  0.799078  0.099079  0.994721  1
  Co  Co6  1  0.399676  0.300016  0.995219  1
  Co  Co7  1  0.201275  0.402443  0.499716  1
  Co  Co8  1  0.798725  0.597557  0.500284  1
  Co  Co9  1  0.000000  0.500000  0.000000  1
  Co  Co10  1  0.397094  0.796895  0.495353  1
  Co  Co11  1  0.600324  0.699984  0.004781  1
  O  O12  1  0.890504  0.919500  0.096252  1
  O  O13  1  0.330651  0.982946  0.402300  1
  O  O14  1  0.669349  0.017054  0.597700  1
  O  O15  1  0.499576  0.874848  0.904058  1
  O  O16  1  0.109496  0.080500  0.903748  1
  O  O17  1  0.304616  0.233774  0.598097  1
  O  O18  1  0.500424  0.125152  0.095942  1
  O  O19  1  0.903318  0.197800  0.399245  1
  O  O20  1  0.514771  0.383327  0.403427  1
  O  O21  1  0.707184  0.281311  0.902505  1
  O  O22  1  0.901870  0.425052  0.600073  1
  O  O23  1  0.083979  0.313458  0.094012  1
  O  O24  1  0.687578  0.511922  0.097338  1
  O  O25  1  0.098130  0.574948  0.399927  1
  O  O26  1  0.485229  0.616673  0.596573  1
  O  O27  1  0.312422  0.488078  0.902662  1
  O  O28  1  0.096682  0.802200  0.600755  1
  O  O29  1  0.916021  0.686542  0.905988  1
  O  O30  1  0.292816  0.718689  0.097495  1
  O  O31  1  0.695384  0.766226  0.401903  1
