# generated using pymatgen
data_Li2VSiO5
_symmetry_space_group_name_H-M   'P 1'
_cell_length_a   4.50845991
_cell_length_b   9.10819826
_cell_length_c   9.25644035
_cell_angle_alpha   90.00000000
_cell_angle_beta   90.00000000
_cell_angle_gamma   90.00000000
_symmetry_Int_Tables_number   1
_chemical_formula_structural   Li2VSiO5
_chemical_formula_sum   'Li8 V4 Si4 O20'
_cell_volume   380.10597323
_cell_formula_units_Z   4
loop_
 _symmetry_equiv_pos_site_id
 _symmetry_equiv_pos_as_xyz
  1  'x, y, z'
loop_
 _atom_site_type_symbol
 _atom_site_label
 _atom_site_symmetry_multiplicity
 _atom_site_fract_x
 _atom_site_fract_y
 _atom_site_fract_z
 _atom_site_occupancy
  Li  Li0  1  0.883051  0.000000  0.004436  1
  Li  Li1  1  0.116949  0.000000  0.504436  1
  Li  Li2  1  0.496967  0.749755  0.001712  1
  Li  Li3  1  0.503033  0.749755  0.501712  1
  Li  Li4  1  0.492191  0.500000  0.254150  1
  Li  Li5  1  0.507809  0.500000  0.754150  1
  Li  Li6  1  0.496967  0.250245  0.001712  1
  Li  Li7  1  0.503033  0.250245  0.501712  1
  V  V8  1  0.541824  0.000000  0.289795  1
  V  V9  1  0.458176  0.000000  0.789795  1
  V  V10  1  0.067426  0.500000  0.997086  1
  V  V11  1  0.932574  0.500000  0.497086  1
  Si  Si12  1  0.999237  0.750455  0.248571  1
  Si  Si13  1  0.000763  0.750455  0.748571  1
  Si  Si14  1  0.999237  0.249545  0.248571  1
  Si  Si15  1  0.000763  0.249545  0.748571  1
  O  O16  1  0.695130  0.000000  0.455385  1
  O  O17  1  0.304870  0.000000  0.955385  1
  O  O18  1  0.757839  0.855607  0.162526  1
  O  O19  1  0.242161  0.855607  0.662526  1
  O  O20  1  0.238040  0.850808  0.339133  1
  O  O21  1  0.761960  0.850808  0.839133  1
  O  O22  1  0.198441  0.647827  0.139612  1
  O  O23  1  0.801559  0.647827  0.639612  1
  O  O24  1  0.796765  0.646643  0.355297  1
  O  O25  1  0.203235  0.646643  0.855297  1
  O  O26  1  0.306470  0.500000  0.494516  1
  O  O27  1  0.693530  0.500000  0.994516  1
  O  O28  1  0.796765  0.353357  0.355297  1
  O  O29  1  0.203235  0.353357  0.855297  1
  O  O30  1  0.198441  0.352173  0.139612  1
  O  O31  1  0.801559  0.352173  0.639612  1
  O  O32  1  0.238040  0.149192  0.339133  1
  O  O33  1  0.761960  0.149192  0.839133  1
  O  O34  1  0.242161  0.144393  0.662526  1
  O  O35  1  0.757839  0.144393  0.162526  1
