# generated using pymatgen
data_Li3NbS4
_symmetry_space_group_name_H-M   'P 1'
_cell_length_a   18.43527777
_cell_length_b   13.83108633
_cell_length_c   13.31386008
_cell_angle_alpha   85.53079975
_cell_angle_beta   48.41482055
_cell_angle_gamma   46.05437970
_symmetry_Int_Tables_number   1
_chemical_formula_structural   Li3NbS4
_chemical_formula_sum   'Li24 Nb8 S32'
_cell_volume   1286.29905440
_cell_formula_units_Z   8
loop_
 _symmetry_equiv_pos_site_id
 _symmetry_equiv_pos_as_xyz
  1  'x, y, z'
loop_
 _atom_site_type_symbol
 _atom_site_label
 _atom_site_symmetry_multiplicity
 _atom_site_fract_x
 _atom_site_fract_y
 _atom_site_fract_z
 _atom_site_occupancy
  Li  Li0  1  0.993156  0.006844  0.006844  1
  Li  Li1  1  0.479277  0.520723  0.520723  1
  Li  Li2  1  0.265275  0.226292  0.736319  1
  Li  Li3  1  0.081588  0.671430  0.868151  1
  Li  Li4  1  0.442619  0.835725  0.368333  1
  Li  Li5  1  0.407426  0.277754  0.367785  1
  Li  Li6  1  0.573659  0.368825  0.183381  1
  Li  Li7  1  0.066619  0.375864  0.676341  1
  Li  Li8  1  0.882215  0.302966  0.842574  1
  Li  Li9  1  0.881667  0.896678  0.807381  1
  Li  Li10  1  0.381849  0.871169  0.168412  1
  Li  Li11  1  0.513681  0.477885  0.984725  1
  Li  Li12  1  0.243156  0.256844  0.256844  1
  Li  Li13  1  0.729277  0.770723  0.770723  1
  Li  Li14  1  0.023708  0.984725  0.477885  1
  Li  Li15  1  0.578570  0.168412  0.871169  1
  Li  Li16  1  0.414275  0.807381  0.896678  1
  Li  Li17  1  0.972246  0.842574  0.302966  1
  Li  Li18  1  0.881175  0.676341  0.375864  1
  Li  Li19  1  0.874136  0.183381  0.368825  1
  Li  Li20  1  0.947034  0.367785  0.277754  1
  Li  Li21  1  0.353322  0.368333  0.835725  1
  Li  Li22  1  0.378831  0.868151  0.671430  1
  Li  Li23  1  0.772115  0.736319  0.226292  1
  Nb  Nb24  1  0.906840  0.323568  0.073501  1
  Nb  Nb25  1  0.181410  0.830848  0.574183  1
  Nb  Nb26  1  0.675817  0.836441  0.068590  1
  Nb  Nb27  1  0.176499  0.553910  0.343160  1
  Nb  Nb28  1  0.926432  0.343160  0.553910  1
  Nb  Nb29  1  0.419152  0.068590  0.836441  1
  Nb  Nb30  1  0.413559  0.574183  0.830848  1
  Nb  Nb31  1  0.696090  0.073501  0.323568  1
  S  S32  1  0.386722  0.296404  0.617828  1
  S  S33  1  0.120208  0.207152  0.778460  1
  S  S34  1  0.735769  0.350905  0.150714  1
  S  S35  1  0.257511  0.852132  0.643985  1
  S  S36  1  0.753585  0.057449  0.105292  1
  S  S37  1  0.969874  0.606365  0.886210  1
  S  S38  1  0.462432  0.040453  0.376306  1
  S  S39  1  0.235403  0.622557  0.574062  1
  S  S40  1  0.675938  0.682021  0.014597  1
  S  S41  1  0.873694  0.129190  0.787568  1
  S  S42  1  0.363790  0.712449  0.280126  1
  S  S43  1  0.144708  0.166326  0.496415  1
  S  S44  1  0.606015  0.003627  0.992489  1
  S  S45  1  0.099286  0.487387  0.514231  1
  S  S46  1  0.471540  0.355820  0.129792  1
  S  S47  1  0.632172  0.550954  0.863278  1
  S  S48  1  0.953596  0.863278  0.550954  1
  S  S49  1  0.042848  0.129792  0.355820  1
  S  S50  1  0.899095  0.514231  0.487387  1
  S  S51  1  0.397868  0.992489  0.003627  1
  S  S52  1  0.192551  0.496415  0.166326  1
  S  S53  1  0.643635  0.280126  0.712449  1
  S  S54  1  0.209547  0.787568  0.129190  1
  S  S55  1  0.627443  0.014597  0.682021  1
  S  S56  1  0.567979  0.574062  0.622557  1
  S  S57  1  0.120810  0.376306  0.040453  1
  S  S58  1  0.537551  0.886210  0.606365  1
  S  S59  1  0.083674  0.105292  0.057449  1
  S  S60  1  0.246373  0.643985  0.852132  1
  S  S61  1  0.762613  0.150714  0.350905  1
  S  S62  1  0.894180  0.778461  0.207152  1
  S  S63  1  0.699046  0.617828  0.296404  1
