# generated using pymatgen
data_NbNi3(PO4)4
_symmetry_space_group_name_H-M   'P 1'
_cell_length_a   4.91155784
_cell_length_b   5.89609094
_cell_length_c   10.00583712
_cell_angle_alpha   90.00000000
_cell_angle_beta   90.74827635
_cell_angle_gamma   90.00000000
_symmetry_Int_Tables_number   1
_chemical_formula_structural   NbNi3(PO4)4
_chemical_formula_sum   'Nb1 Ni3 P4 O16'
_cell_volume   289.73424341
_cell_formula_units_Z   1
loop_
 _symmetry_equiv_pos_site_id
 _symmetry_equiv_pos_as_xyz
  1  'x, y, z'
loop_
 _atom_site_type_symbol
 _atom_site_label
 _atom_site_symmetry_multiplicity
 _atom_site_fract_x
 _atom_site_fract_y
 _atom_site_fract_z
 _atom_site_occupancy
  Nb  Nb0  1  0.973151  0.500000  0.276284  1
  Ni  Ni1  1  0.031077  0.000000  0.730578  1
  Ni  Ni2  1  0.458030  0.000000  0.222241  1
  Ni  Ni3  1  0.542747  0.500000  0.769397  1
  P  P4  1  0.083896  0.500000  0.607355  1
  P  P5  1  0.395693  0.500000  0.087553  1
  P  P6  1  0.593743  0.000000  0.902179  1
  P  P7  1  0.930406  0.000000  0.409365  1
  O  O8  1  0.148133  0.500000  0.447203  1
  O  O9  1  0.234794  0.293879  0.669206  1
  O  O10  1  0.234794  0.706121  0.669206  1
  O  O11  1  0.232907  0.000000  0.384808  1
  O  O12  1  0.282362  0.000000  0.887731  1
  O  O13  1  0.250049  0.301234  0.168611  1
  O  O14  1  0.250049  0.698766  0.168611  1
  O  O15  1  0.337088  0.500000  0.942340  1
  O  O16  1  0.656671  0.000000  0.053352  1
  O  O17  1  0.736427  0.795342  0.831283  1
  O  O18  1  0.736427  0.204658  0.831283  1
  O  O19  1  0.700857  0.500000  0.127484  1
  O  O20  1  0.778126  0.500000  0.609808  1
  O  O21  1  0.788047  0.793568  0.326495  1
  O  O22  1  0.788047  0.206432  0.326495  1
  O  O23  1  0.836478  0.000000  0.551129  1
