# generated using pymatgen
data_LiCr(PO3)4
_symmetry_space_group_name_H-M   'P 1'
_cell_length_a   7.34562270
_cell_length_b   12.99766268
_cell_length_c   11.46786141
_cell_angle_alpha   90.00000000
_cell_angle_beta   127.16111229
_cell_angle_gamma   90.00000000
_symmetry_Int_Tables_number   1
_chemical_formula_structural   LiCr(PO3)4
_chemical_formula_sum   'Li4 Cr4 P16 O48'
_cell_volume   872.57343740
_cell_formula_units_Z   4
loop_
 _symmetry_equiv_pos_site_id
 _symmetry_equiv_pos_as_xyz
  1  'x, y, z'
loop_
 _atom_site_type_symbol
 _atom_site_label
 _atom_site_symmetry_multiplicity
 _atom_site_fract_x
 _atom_site_fract_y
 _atom_site_fract_z
 _atom_site_occupancy
  Li  Li0  1  0.932079  0.226565  0.947501  1
  Li  Li1  1  0.067921  0.726565  0.552499  1
  Li  Li2  1  0.932079  0.273435  0.447501  1
  Li  Li3  1  0.067921  0.773435  0.052499  1
  Cr  Cr4  1  0.523347  0.297941  0.563316  1
  Cr  Cr5  1  0.476653  0.797941  0.936684  1
  Cr  Cr6  1  0.523347  0.202059  0.063316  1
  Cr  Cr7  1  0.476653  0.702059  0.436684  1
  P  P8  1  0.831929  0.614011  0.758885  1
  P  P9  1  0.418991  0.130238  0.305401  1
  P  P10  1  0.468913  0.911273  0.296995  1
  P  P11  1  0.071422  0.899541  0.773799  1
  P  P12  1  0.928578  0.399541  0.726201  1
  P  P13  1  0.531087  0.411273  0.203005  1
  P  P14  1  0.581009  0.630238  0.194599  1
  P  P15  1  0.168071  0.114011  0.741115  1
  P  P16  1  0.831929  0.885989  0.258885  1
  P  P17  1  0.418991  0.369762  0.805401  1
  P  P18  1  0.468913  0.588727  0.796995  1
  P  P19  1  0.071422  0.600459  0.273799  1
  P  P20  1  0.928578  0.100459  0.226201  1
  P  P21  1  0.531087  0.088727  0.703005  1
  P  P22  1  0.581009  0.869762  0.694599  1
  P  P23  1  0.168071  0.385989  0.241115  1
  O  O24  1  0.838179  0.878409  0.747162  1
  O  O25  1  0.223284  0.895344  0.178877  1
  O  O26  1  0.396456  0.428247  0.270638  1
  O  O27  1  0.865848  0.314395  0.787085  1
  O  O28  1  0.960352  0.685656  0.884499  1
  O  O29  1  0.408903  0.137830  0.171021  1
  O  O30  1  0.765593  0.648165  0.611427  1
  O  O31  1  0.271982  0.905747  0.935279  1
  O  O32  1  0.979646  0.507922  0.805877  1
  O  O33  1  0.523161  0.020942  0.381482  1
  O  O34  1  0.548027  0.213496  0.419016  1
  O  O35  1  0.402187  0.333440  0.079497  1
  O  O36  1  0.597813  0.833440  0.420503  1
  O  O37  1  0.020354  0.007922  0.694123  1
  O  O38  1  0.451973  0.713496  0.080984  1
  O  O39  1  0.728018  0.405747  0.564721  1
  O  O40  1  0.476839  0.520942  0.118518  1
  O  O41  1  0.234407  0.148165  0.888573  1
  O  O42  1  0.591097  0.637830  0.328979  1
  O  O43  1  0.039648  0.185656  0.615501  1
  O  O44  1  0.134152  0.814395  0.712915  1
  O  O45  1  0.603544  0.928247  0.229362  1
  O  O46  1  0.161821  0.378409  0.752838  1
  O  O47  1  0.776716  0.395344  0.321123  1
  O  O48  1  0.223284  0.604656  0.678877  1
  O  O49  1  0.838179  0.621591  0.247162  1
  O  O50  1  0.396456  0.071753  0.770638  1
  O  O51  1  0.865848  0.185605  0.287085  1
  O  O52  1  0.960352  0.814344  0.384499  1
  O  O53  1  0.408903  0.362170  0.671021  1
  O  O54  1  0.765593  0.851835  0.111427  1
  O  O55  1  0.523161  0.479058  0.881482  1
  O  O56  1  0.271982  0.594253  0.435279  1
  O  O57  1  0.548027  0.286504  0.919016  1
  O  O58  1  0.979646  0.992078  0.305877  1
  O  O59  1  0.402187  0.166560  0.579497  1
  O  O60  1  0.597813  0.666560  0.920503  1
  O  O61  1  0.451973  0.786504  0.580984  1
  O  O62  1  0.476839  0.979058  0.618518  1
  O  O63  1  0.020354  0.492078  0.194123  1
  O  O64  1  0.728018  0.094253  0.064721  1
  O  O65  1  0.234407  0.351835  0.388573  1
  O  O66  1  0.591097  0.862170  0.828979  1
  O  O67  1  0.039648  0.314344  0.115501  1
  O  O68  1  0.134152  0.685605  0.212915  1
  O  O69  1  0.603544  0.571753  0.729362  1
  O  O70  1  0.776716  0.104656  0.821123  1
  O  O71  1  0.161821  0.121591  0.252838  1
