# generated using pymatgen
data_LiMnP2O7
_symmetry_space_group_name_H-M   'P 1'
_cell_length_a   7.18604250
_cell_length_b   8.10594442
_cell_length_c   9.59251150
_cell_angle_alpha   90.00000000
_cell_angle_beta   112.08211930
_cell_angle_gamma   90.00000000
_symmetry_Int_Tables_number   1
_chemical_formula_structural   LiMnP2O7
_chemical_formula_sum   'Li4 Mn4 P8 O28'
_cell_volume   517.77322118
_cell_formula_units_Z   4
loop_
 _symmetry_equiv_pos_site_id
 _symmetry_equiv_pos_as_xyz
  1  'x, y, z'
loop_
 _atom_site_type_symbol
 _atom_site_label
 _atom_site_symmetry_multiplicity
 _atom_site_fract_x
 _atom_site_fract_y
 _atom_site_fract_z
 _atom_site_occupancy
  Li  Li0  1  0.318791  0.526029  0.290739  1
  Li  Li1  1  0.681209  0.473971  0.709261  1
  Li  Li2  1  0.318791  0.973971  0.790739  1
  Li  Li3  1  0.681209  0.026029  0.209261  1
  Mn  Mn4  1  0.745749  0.494496  0.249020  1
  Mn  Mn5  1  0.745749  0.005504  0.749020  1
  Mn  Mn6  1  0.254251  0.994496  0.250980  1
  Mn  Mn7  1  0.254251  0.505504  0.750980  1
  P  P8  1  0.663753  0.791620  0.454191  1
  P  P9  1  0.083062  0.735806  0.460860  1
  P  P10  1  0.336247  0.208380  0.545809  1
  P  P11  1  0.336247  0.291620  0.045809  1
  P  P12  1  0.083062  0.764194  0.960860  1
  P  P13  1  0.916938  0.264194  0.539140  1
  P  P14  1  0.916938  0.235806  0.039140  1
  P  P15  1  0.663753  0.708380  0.954191  1
  O  O16  1  0.602952  0.885569  0.903572  1
  O  O17  1  0.542380  0.925716  0.345015  1
  O  O18  1  0.971465  0.422756  0.636031  1
  O  O19  1  0.687952  0.690499  0.120246  1
  O  O20  1  0.312048  0.309501  0.879754  1
  O  O21  1  0.542380  0.574284  0.845015  1
  O  O22  1  0.121777  0.169610  0.558180  1
  O  O23  1  0.798987  0.358209  0.088945  1
  O  O24  1  0.798987  0.141791  0.588945  1
  O  O25  1  0.312048  0.190499  0.379754  1
  O  O26  1  0.194729  0.703817  0.630824  1
  O  O27  1  0.397048  0.114431  0.096428  1
  O  O28  1  0.457620  0.074284  0.654985  1
  O  O29  1  0.878223  0.669610  0.941820  1
  O  O30  1  0.602952  0.614431  0.403572  1
  O  O31  1  0.971465  0.077244  0.136031  1
  O  O32  1  0.121777  0.330390  0.058180  1
  O  O33  1  0.028535  0.922756  0.863969  1
  O  O34  1  0.687952  0.809501  0.620246  1
  O  O35  1  0.201013  0.641791  0.911055  1
  O  O36  1  0.878223  0.830390  0.441820  1
  O  O37  1  0.201013  0.858209  0.411055  1
  O  O38  1  0.028535  0.577244  0.363969  1
  O  O39  1  0.397048  0.385569  0.596428  1
  O  O40  1  0.194729  0.796183  0.130824  1
  O  O41  1  0.805271  0.296183  0.369176  1
  O  O42  1  0.457620  0.425716  0.154985  1
  O  O43  1  0.805271  0.203817  0.869176  1
