# generated using pymatgen
data_Hf2N2O
_symmetry_space_group_name_H-M   'P 1'
_cell_length_a   8.72885184
_cell_length_b   8.73383017
_cell_length_c   8.73677080
_cell_angle_alpha   109.50610408
_cell_angle_beta   109.43498953
_cell_angle_gamma   109.38351387
_symmetry_Int_Tables_number   1
_chemical_formula_structural   Hf2N2O
_chemical_formula_sum   'Hf16 N16 O8'
_cell_volume   513.29488458
_cell_formula_units_Z   8
loop_
 _symmetry_equiv_pos_site_id
 _symmetry_equiv_pos_as_xyz
  1  'x, y, z'
loop_
 _atom_site_type_symbol
 _atom_site_label
 _atom_site_symmetry_multiplicity
 _atom_site_fract_x
 _atom_site_fract_y
 _atom_site_fract_z
 _atom_site_occupancy
  Hf  Hf0  1  0.988103  0.481205  0.990963  1
  Hf  Hf1  1  0.745433  0.715232  0.966689  1
  Hf  Hf2  1  0.963012  0.747473  0.714184  1
  Hf  Hf3  1  0.533955  0.249318  0.786133  1
  Hf  Hf4  1  0.702232  0.459675  0.240720  1
  Hf  Hf5  1  0.223676  0.966310  0.258660  1
  Hf  Hf6  1  0.512113  0.512085  0.500577  1
  Hf  Hf7  1  0.490771  0.995929  0.003501  1
  Hf  Hf8  1  0.002003  0.011933  0.510592  1
  Hf  Hf9  1  0.750412  0.213569  0.471326  1
  Hf  Hf10  1  0.250355  0.785630  0.541486  1
  Hf  Hf11  1  0.791452  0.030765  0.747699  1
  Hf  Hf12  1  0.280896  0.538372  0.749918  1
  Hf  Hf13  1  0.043102  0.261011  0.291574  1
  Hf  Hf14  1  0.467905  0.749419  0.210077  1
  Hf  Hf15  1  0.247931  0.290255  0.029745  1
  N  N16  1  0.775660  0.519287  0.049332  1
  N  N17  1  0.274638  0.043998  0.531658  1
  N  N18  1  0.741393  0.467425  0.509041  1
  N  N19  1  0.457169  0.224837  0.989056  1
  N  N20  1  0.549686  0.774914  0.012299  1
  N  N21  1  0.758041  0.269519  0.727681  1
  N  N22  1  0.263083  0.537159  0.484344  1
  N  N23  1  0.227654  0.764393  0.773111  1
  N  N24  1  0.728696  0.949922  0.463300  1
  N  N25  1  0.989009  0.261538  0.037288  1
  N  N26  1  0.462711  0.012164  0.238110  1
  N  N27  1  0.725396  0.770878  0.741604  1
  N  N28  1  0.033264  0.270660  0.541192  1
  N  N29  1  0.223349  0.488767  0.952407  1
  N  N30  1  0.508180  0.542491  0.271593  1
  N  N31  1  0.046796  0.032382  0.769712  1
  O  O32  1  0.958803  0.966679  0.222847  1
  O  O33  1  0.487333  0.452188  0.726137  1
  O  O34  1  0.270824  0.225287  0.267640  1
  O  O35  1  0.968842  0.725888  0.453631  1
  O  O36  1  0.532386  0.985783  0.759936  1
  O  O37  1  0.016910  0.744710  0.970295  1
  O  O38  1  0.773301  0.233951  0.224008  1
  O  O39  1  0.233526  0.726999  0.269933  1
