# generated using pymatgen
data_Na3MnO3
_symmetry_space_group_name_H-M   'P 1'
_cell_length_a   5.77769377
_cell_length_b   6.03088844
_cell_length_c   6.50600198
_cell_angle_alpha   115.62088371
_cell_angle_beta   91.04182459
_cell_angle_gamma   90.93583120
_symmetry_Int_Tables_number   1
_chemical_formula_structural   Na3MnO3
_chemical_formula_sum   'Na6 Mn2 O6'
_cell_volume   204.30159812
_cell_formula_units_Z   2
loop_
 _symmetry_equiv_pos_site_id
 _symmetry_equiv_pos_as_xyz
  1  'x, y, z'
loop_
 _atom_site_type_symbol
 _atom_site_label
 _atom_site_symmetry_multiplicity
 _atom_site_fract_x
 _atom_site_fract_y
 _atom_site_fract_z
 _atom_site_occupancy
  Na  Na0  1  0.930452  0.763884  0.547304  1
  Na  Na1  1  0.872684  0.773670  0.011708  1
  Na  Na2  1  0.563188  0.242300  0.243251  1
  Na  Na3  1  0.436812  0.757700  0.756749  1
  Na  Na4  1  0.127316  0.226330  0.988292  1
  Na  Na5  1  0.069548  0.236116  0.452696  1
  Mn  Mn6  1  0.616627  0.204559  0.692854  1
  Mn  Mn7  1  0.383373  0.795441  0.307146  1
  O  O8  1  0.749576  0.093212  0.893858  1
  O  O9  1  0.754566  0.471575  0.660118  1
  O  O10  1  0.691683  0.927530  0.352380  1
  O  O11  1  0.308317  0.072470  0.647620  1
  O  O12  1  0.245434  0.528425  0.339882  1
  O  O13  1  0.250424  0.906788  0.106142  1
