# generated using pymatgen
data_ZrSn2
_symmetry_space_group_name_H-M   'P 1'
_cell_length_a   6.96585962
_cell_length_b   5.76056812
_cell_length_c   5.63614920
_cell_angle_alpha   75.34616210
_cell_angle_beta   53.13695740
_cell_angle_gamma   51.51688051
_symmetry_Int_Tables_number   1
_chemical_formula_structural   ZrSn2
_chemical_formula_sum   'Zr2 Sn4'
_cell_volume   139.00476087
_cell_formula_units_Z   2
loop_
 _symmetry_equiv_pos_site_id
 _symmetry_equiv_pos_as_xyz
  1  'x, y, z'
loop_
 _atom_site_type_symbol
 _atom_site_label
 _atom_site_symmetry_multiplicity
 _atom_site_fract_x
 _atom_site_fract_y
 _atom_site_fract_z
 _atom_site_occupancy
  Zr  Zr0  1  0.250000  0.250000  0.250000  1
  Zr  Zr1  1  0.000000  0.000000  1.000000  1
  Sn  Sn2  1  0.918820  0.581180  0.918820  1
  Sn  Sn3  1  0.581180  0.918820  0.581180  1
  Sn  Sn4  1  0.331180  0.668820  0.331180  1
  Sn  Sn5  1  0.668820  0.331180  0.668820  1
