# generated using pymatgen
data_Li3V2(O2F)2
_symmetry_space_group_name_H-M   'P 1'
_cell_length_a   5.19394938
_cell_length_b   5.99744953
_cell_length_c   15.69192089
_cell_angle_alpha   90.00000000
_cell_angle_beta   109.37931585
_cell_angle_gamma   90.00000000
_symmetry_Int_Tables_number   1
_chemical_formula_structural   Li3V2(O2F)2
_chemical_formula_sum   'Li12 V8 O16 F8'
_cell_volume   461.11561534
_cell_formula_units_Z   4
loop_
 _symmetry_equiv_pos_site_id
 _symmetry_equiv_pos_as_xyz
  1  'x, y, z'
loop_
 _atom_site_type_symbol
 _atom_site_label
 _atom_site_symmetry_multiplicity
 _atom_site_fract_x
 _atom_site_fract_y
 _atom_site_fract_z
 _atom_site_occupancy
  Li  Li0  1  0.500000  0.977409  0.000000  1
  Li  Li1  1  0.284284  0.001642  0.128653  1
  Li  Li2  1  0.715716  0.001642  0.871347  1
  Li  Li3  1  0.500000  0.758441  0.500000  1
  Li  Li4  1  0.000000  0.748737  0.000000  1
  Li  Li5  1  0.500000  0.521869  0.000000  1
  Li  Li6  1  0.000000  0.498376  0.500000  1
  Li  Li7  1  0.286711  0.496163  0.130148  1
  Li  Li8  1  0.713289  0.496163  0.869852  1
  Li  Li9  1  0.500000  0.243001  0.500000  1
  Li  Li10  1  0.820773  0.250344  0.128108  1
  Li  Li11  1  0.179227  0.250344  0.871892  1
  V  V12  1  0.834945  0.001424  0.666673  1
  V  V13  1  0.165055  0.001424  0.333327  1
  V  V14  1  0.331574  0.748737  0.663286  1
  V  V15  1  0.668426  0.748737  0.336714  1
  V  V16  1  0.839618  0.501282  0.672276  1
  V  V17  1  0.160382  0.501282  0.327724  1
  V  V18  1  0.324908  0.248607  0.664941  1
  V  V19  1  0.675092  0.248607  0.335059  1
  O  O20  1  0.245192  0.015472  0.729354  1
  O  O21  1  0.754808  0.015472  0.270646  1
  O  O22  1  0.562799  0.003862  0.408207  1
  O  O23  1  0.437201  0.003862  0.591793  1
  O  O24  1  0.730624  0.746851  0.732488  1
  O  O25  1  0.269376  0.746851  0.267512  1
  O  O26  1  0.087065  0.731402  0.405612  1
  O  O27  1  0.912935  0.731402  0.594388  1
  O  O28  1  0.233422  0.491861  0.732230  1
  O  O29  1  0.766578  0.491861  0.267770  1
  O  O30  1  0.580837  0.487844  0.409449  1
  O  O31  1  0.419163  0.487844  0.590551  1
  O  O32  1  0.732309  0.262994  0.734238  1
  O  O33  1  0.267691  0.262994  0.265762  1
  O  O34  1  0.076241  0.265498  0.405542  1
  O  O35  1  0.923759  0.265498  0.594458  1
  F  F36  1  0.089751  0.995281  0.918261  1
  F  F37  1  0.910249  0.995281  0.081739  1
  F  F38  1  0.613770  0.749356  0.923426  1
  F  F39  1  0.386230  0.749356  0.076574  1
  F  F40  1  0.088973  0.504202  0.918071  1
  F  F41  1  0.911027  0.504202  0.081929  1
  F  F42  1  0.555816  0.248262  0.909317  1
  F  F43  1  0.444184  0.248262  0.090683  1
