# generated using pymatgen
data_Li6VSn3(PO4)6
_symmetry_space_group_name_H-M   'P 1'
_cell_length_a   8.60393510
_cell_length_b   8.63187935
_cell_length_c   8.64903080
_cell_angle_alpha   64.24934925
_cell_angle_beta   64.53823067
_cell_angle_gamma   64.41086544
_symmetry_Int_Tables_number   1
_chemical_formula_structural   Li6VSn3(PO4)6
_chemical_formula_sum   'Li6 V1 Sn3 P6 O24'
_cell_volume   498.06544452
_cell_formula_units_Z   1
loop_
 _symmetry_equiv_pos_site_id
 _symmetry_equiv_pos_as_xyz
  1  'x, y, z'
loop_
 _atom_site_type_symbol
 _atom_site_label
 _atom_site_symmetry_multiplicity
 _atom_site_fract_x
 _atom_site_fract_y
 _atom_site_fract_z
 _atom_site_occupancy
  Li  Li0  1  0.975134  0.018144  0.014457  1
  Li  Li1  1  0.253421  0.631232  0.844765  1
  Li  Li2  1  0.521018  0.483259  0.481441  1
  Li  Li3  1  0.769269  0.323757  0.147977  1
  Li  Li4  1  0.315526  0.145310  0.771552  1
  Li  Li5  1  0.149313  0.770045  0.318696  1
  V  V6  1  0.152420  0.154364  0.152502  1
  Sn  Sn7  1  0.853798  0.856739  0.851903  1
  Sn  Sn8  1  0.642610  0.645791  0.637253  1
  Sn  Sn9  1  0.334207  0.334672  0.335433  1
  P  P10  1  0.926596  0.579407  0.253874  1
  P  P11  1  0.579384  0.254821  0.929115  1
  P  P12  1  0.252707  0.933624  0.572920  1
  P  P13  1  0.757422  0.042858  0.446539  1
  P  P14  1  0.442396  0.756079  0.036294  1
  P  P15  1  0.046017  0.451047  0.758403  1
  O  O16  1  0.880056  0.507234  0.697462  1
  O  O17  1  0.682304  0.891612  0.484864  1
  O  O18  1  0.906267  0.758820  0.092386  1
  O  O19  1  0.458906  0.687870  0.886916  1
  O  O20  1  0.737018  0.584042  0.400585  1
  O  O21  1  0.984162  0.412311  0.197819  1
  O  O22  1  0.759710  0.098281  0.898128  1
  O  O23  1  0.574238  0.409065  0.743230  1
  O  O24  1  0.396066  0.738923  0.586802  1
  O  O25  1  0.827971  0.994904  0.602656  1
  O  O26  1  0.915128  0.050670  0.266615  1
  O  O27  1  0.614833  0.806531  0.977284  1
  O  O28  1  0.409161  0.202750  0.986773  1
  O  O29  1  0.101455  0.897469  0.759060  1
  O  O30  1  0.199018  0.987002  0.406878  1
  O  O31  1  0.615106  0.232502  0.422780  1
  O  O32  1  0.420106  0.615068  0.225577  1
  O  O33  1  0.270130  0.922146  0.045505  1
  O  O34  1  0.029101  0.606803  0.816790  1
  O  O35  1  0.230756  0.416745  0.612961  1
  O  O36  1  0.593987  0.318141  0.061586  1
  O  O37  1  0.045834  0.273700  0.919112  1
  O  O38  1  0.317993  0.066453  0.584296  1
  O  O39  1  0.059458  0.588814  0.321814  1
