# generated using pymatgen
data_BaLaCl5
_symmetry_space_group_name_H-M   'P 1'
_cell_length_a   9.62124181
_cell_length_b   9.77587018
_cell_length_c   19.65246174
_cell_angle_alpha   90.00000000
_cell_angle_beta   94.34208913
_cell_angle_gamma   90.00000000
_symmetry_Int_Tables_number   1
_chemical_formula_structural   BaLaCl5
_chemical_formula_sum   'Ba8 La8 Cl40'
_cell_volume   1843.12675984
_cell_formula_units_Z   8
loop_
 _symmetry_equiv_pos_site_id
 _symmetry_equiv_pos_as_xyz
  1  'x, y, z'
loop_
 _atom_site_type_symbol
 _atom_site_label
 _atom_site_symmetry_multiplicity
 _atom_site_fract_x
 _atom_site_fract_y
 _atom_site_fract_z
 _atom_site_occupancy
  Ba  Ba0  1  0.000136  0.156477  0.361536  1
  Ba  Ba1  1  0.000136  0.343523  0.861536  1
  Ba  Ba2  1  0.683458  0.155895  0.085988  1
  Ba  Ba3  1  0.683458  0.344105  0.585988  1
  Ba  Ba4  1  0.316542  0.655895  0.414012  1
  Ba  Ba5  1  0.316542  0.844105  0.914012  1
  Ba  Ba6  1  0.999864  0.656477  0.138464  1
  Ba  Ba7  1  0.999864  0.843523  0.638464  1
  La  La8  1  0.820076  0.679866  0.378199  1
  La  La9  1  0.820076  0.820134  0.878199  1
  La  La10  1  0.506155  0.628923  0.160740  1
  La  La11  1  0.493845  0.128923  0.339260  1
  La  La12  1  0.506155  0.871077  0.660740  1
  La  La13  1  0.493845  0.371077  0.839260  1
  La  La14  1  0.179924  0.179866  0.121801  1
  La  La15  1  0.179924  0.320134  0.621801  1
  Cl  Cl16  1  0.021665  0.477871  0.396549  1
  Cl  Cl17  1  0.975241  0.823211  0.287409  1
  Cl  Cl18  1  0.967470  0.833968  0.473944  1
  Cl  Cl19  1  0.021665  0.022129  0.896549  1
  Cl  Cl20  1  0.975241  0.676789  0.787409  1
  Cl  Cl21  1  0.967470  0.666032  0.973944  1
  Cl  Cl22  1  0.718672  0.495470  0.094148  1
  Cl  Cl23  1  0.687789  0.533443  0.270425  1
  Cl  Cl24  1  0.708714  0.161477  0.252877  1
  Cl  Cl25  1  0.665983  0.852846  0.148302  1
  Cl  Cl26  1  0.705851  0.203214  0.436195  1
  Cl  Cl27  1  0.718672  0.004530  0.594148  1
  Cl  Cl28  1  0.633843  0.573009  0.464869  1
  Cl  Cl29  1  0.687789  0.966557  0.770425  1
  Cl  Cl30  1  0.708714  0.338523  0.752877  1
  Cl  Cl31  1  0.589141  0.855205  0.353841  1
  Cl  Cl32  1  0.665983  0.647154  0.648302  1
  Cl  Cl33  1  0.705851  0.296786  0.936195  1
  Cl  Cl34  1  0.633843  0.926991  0.964869  1
  Cl  Cl35  1  0.589141  0.644795  0.853841  1
  Cl  Cl36  1  0.410859  0.355205  0.146159  1
  Cl  Cl37  1  0.366157  0.073009  0.035131  1
  Cl  Cl38  1  0.294149  0.703214  0.063805  1
  Cl  Cl39  1  0.334017  0.352846  0.351698  1
  Cl  Cl40  1  0.410859  0.144795  0.646159  1
  Cl  Cl41  1  0.291286  0.661477  0.247123  1
  Cl  Cl42  1  0.312211  0.033443  0.229575  1
  Cl  Cl43  1  0.366157  0.426991  0.535131  1
  Cl  Cl44  1  0.281328  0.995470  0.405852  1
  Cl  Cl45  1  0.294149  0.796786  0.563805  1
  Cl  Cl46  1  0.334017  0.147154  0.851698  1
  Cl  Cl47  1  0.291286  0.838523  0.747123  1
  Cl  Cl48  1  0.312211  0.466557  0.729575  1
  Cl  Cl49  1  0.281328  0.504530  0.905852  1
  Cl  Cl50  1  0.032530  0.333968  0.026056  1
  Cl  Cl51  1  0.024759  0.323211  0.212591  1
  Cl  Cl52  1  0.978335  0.977871  0.103451  1
  Cl  Cl53  1  0.032530  0.166032  0.526056  1
  Cl  Cl54  1  0.024759  0.176789  0.712591  1
  Cl  Cl55  1  0.978335  0.522129  0.603451  1
