# generated using pymatgen
data_Sr5Ir3O11
_symmetry_space_group_name_H-M   'P 1'
_cell_length_a   3.97842900
_cell_length_b   3.97842900
_cell_length_c   16.75586565
_cell_angle_alpha   89.78470724
_cell_angle_beta   90.21529276
_cell_angle_gamma   88.15466606
_symmetry_Int_Tables_number   1
_chemical_formula_structural   Sr5Ir3O11
_chemical_formula_sum   'Sr5 Ir3 O11'
_cell_volume   265.06871367
_cell_formula_units_Z   1
loop_
 _symmetry_equiv_pos_site_id
 _symmetry_equiv_pos_as_xyz
  1  'x, y, z'
loop_
 _atom_site_type_symbol
 _atom_site_label
 _atom_site_symmetry_multiplicity
 _atom_site_fract_x
 _atom_site_fract_y
 _atom_site_fract_z
 _atom_site_occupancy
  Sr  Sr0  1  0.018158  0.981842  0.270120  1
  Sr  Sr1  1  0.999540  0.000460  0.500085  1
  Sr  Sr2  1  0.986087  0.013913  0.730044  1
  Sr  Sr3  1  0.508459  0.491541  0.889486  1
  Sr  Sr4  1  0.515604  0.484396  0.110550  1
  Ir  Ir5  1  0.003593  0.996407  0.999973  1
  Ir  Ir6  1  0.504368  0.495632  0.377294  1
  Ir  Ir7  1  0.496364  0.503636  0.622758  1
  O  O8  1  0.010281  0.436753  0.379566  1
  O  O9  1  0.004058  0.995942  0.124128  1
  O  O10  1  0.990359  0.563202  0.620336  1
  O  O11  1  0.999296  0.000704  0.875838  1
  O  O12  1  0.563247  0.989719  0.379566  1
  O  O13  1  0.507908  0.951159  0.999950  1
  O  O14  1  0.503730  0.496270  0.256335  1
  O  O15  1  0.500296  0.499704  0.500031  1
  O  O16  1  0.498391  0.501609  0.743657  1
  O  O17  1  0.436798  0.009641  0.620336  1
  O  O18  1  0.048841  0.492092  0.999950  1
