# generated using pymatgen
data_V5P6WO24
_symmetry_space_group_name_H-M   'P 1'
_cell_length_a   8.65685457
_cell_length_b   8.65685457
_cell_length_c   8.65685457
_cell_angle_alpha   60.39517321
_cell_angle_beta   60.39517321
_cell_angle_gamma   60.39517321
_symmetry_Int_Tables_number   1
_chemical_formula_structural   V5P6WO24
_chemical_formula_sum   'V5 P6 W1 O24'
_cell_volume   462.83841901
_cell_formula_units_Z   1
loop_
 _symmetry_equiv_pos_site_id
 _symmetry_equiv_pos_as_xyz
  1  'x, y, z'
loop_
 _atom_site_type_symbol
 _atom_site_label
 _atom_site_symmetry_multiplicity
 _atom_site_fract_x
 _atom_site_fract_y
 _atom_site_fract_z
 _atom_site_occupancy
  V  V0  1  0.997308  0.997308  0.997308  1
  V  V1  1  0.642311  0.642311  0.642311  1
  V  V2  1  0.499312  0.499312  0.499312  1
  V  V3  1  0.855973  0.855973  0.855973  1
  V  V4  1  0.357669  0.357669  0.357669  1
  P  P5  1  0.954404  0.251662  0.548400  1
  P  P6  1  0.548400  0.954404  0.251662  1
  P  P7  1  0.251662  0.548400  0.954404  1
  P  P8  1  0.746570  0.460934  0.043528  1
  P  P9  1  0.460934  0.043528  0.746570  1
  P  P10  1  0.043528  0.746570  0.460934  1
  W  W11  1  0.143741  0.143741  0.143741  1
  O  O12  1  0.500979  0.111242  0.315779  1
  O  O13  1  0.315779  0.500979  0.111242  1
  O  O14  1  0.111242  0.315779  0.500979  1
  O  O15  1  0.939163  0.089447  0.739443  1
  O  O16  1  0.999405  0.182408  0.387637  1
  O  O17  1  0.760605  0.408343  0.555391  1
  O  O18  1  0.739443  0.939163  0.089447  1
  O  O19  1  0.555391  0.760605  0.408343  1
  O  O20  1  0.816781  0.609989  0.004730  1
  O  O21  1  0.408343  0.555391  0.760605  1
  O  O22  1  0.912676  0.260070  0.064859  1
  O  O23  1  0.609989  0.004730  0.816781  1
  O  O24  1  0.387637  0.999405  0.182408  1
  O  O25  1  0.089447  0.739443  0.939163  1
  O  O26  1  0.591586  0.437976  0.240312  1
  O  O27  1  0.182408  0.387637  0.999405  1
  O  O28  1  0.437976  0.240312  0.591586  1
  O  O29  1  0.260070  0.064859  0.912676  1
  O  O30  1  0.240312  0.591586  0.437976  1
  O  O31  1  0.004730  0.816781  0.609989  1
  O  O32  1  0.064859  0.912676  0.260070  1
  O  O33  1  0.887416  0.690281  0.491680  1
  O  O34  1  0.690281  0.491680  0.887416  1
  O  O35  1  0.491680  0.887416  0.690281  1
