# generated using pymatgen
data_Ho2TiO5
_symmetry_space_group_name_H-M   'P 1'
_cell_length_a   5.86801618
_cell_length_b   5.86801618
_cell_length_c   10.49464726
_cell_angle_alpha   90.00000000
_cell_angle_beta   90.00000000
_cell_angle_gamma   139.35392611
_symmetry_Int_Tables_number   1
_chemical_formula_structural   Ho2TiO5
_chemical_formula_sum   'Ho4 Ti2 O10'
_cell_volume   235.38994970
_cell_formula_units_Z   2
loop_
 _symmetry_equiv_pos_site_id
 _symmetry_equiv_pos_as_xyz
  1  'x, y, z'
loop_
 _atom_site_type_symbol
 _atom_site_label
 _atom_site_symmetry_multiplicity
 _atom_site_fract_x
 _atom_site_fract_y
 _atom_site_fract_z
 _atom_site_occupancy
  Ho  Ho0  1  0.142305  0.857695  0.930385  1
  Ho  Ho1  1  0.142305  0.857695  0.569615  1
  Ho  Ho2  1  0.857695  0.142305  0.069615  1
  Ho  Ho3  1  0.857695  0.142305  0.430385  1
  Ti  Ti4  1  0.172747  0.827253  0.250000  1
  Ti  Ti5  1  0.827253  0.172747  0.750000  1
  O  O6  1  0.051719  0.948281  0.376351  1
  O  O7  1  0.051719  0.948281  0.123649  1
  O  O8  1  0.709179  0.290821  0.908023  1
  O  O9  1  0.709179  0.290821  0.591977  1
  O  O10  1  0.272998  0.727002  0.750000  1
  O  O11  1  0.727002  0.272998  0.250000  1
  O  O12  1  0.290821  0.709179  0.091977  1
  O  O13  1  0.290821  0.709179  0.408023  1
  O  O14  1  0.948281  0.051719  0.623649  1
  O  O15  1  0.948281  0.051719  0.876351  1
