# generated using pymatgen
data_Sc5Cu5O13
_symmetry_space_group_name_H-M   'P 1'
_cell_length_a   5.82982043
_cell_length_b   6.00210719
_cell_length_c   8.80624774
_cell_angle_alpha   71.20366830
_cell_angle_beta   70.70067916
_cell_angle_gamma   80.74370261
_symmetry_Int_Tables_number   1
_chemical_formula_structural   Sc5Cu5O13
_chemical_formula_sum   'Sc5 Cu5 O13'
_cell_volume   274.80540305
_cell_formula_units_Z   1
loop_
 _symmetry_equiv_pos_site_id
 _symmetry_equiv_pos_as_xyz
  1  'x, y, z'
loop_
 _atom_site_type_symbol
 _atom_site_label
 _atom_site_symmetry_multiplicity
 _atom_site_fract_x
 _atom_site_fract_y
 _atom_site_fract_z
 _atom_site_occupancy
  Sc  Sc0  1  0.700256  0.462122  0.110485  1
  Sc  Sc1  1  0.101607  0.507995  0.297050  1
  Sc  Sc2  1  0.497693  0.505027  0.499859  1
  Sc  Sc3  1  0.898463  0.547412  0.691149  1
  Sc  Sc4  1  0.302155  0.461450  0.903553  1
  Cu  Cu5  1  0.430739  0.000109  0.174161  1
  Cu  Cu6  1  0.787907  0.003174  0.409413  1
  Cu  Cu7  1  0.196890  0.009116  0.605332  1
  Cu  Cu8  1  0.595394  0.995943  0.795281  1
  Cu  Cu9  1  0.998281  0.999898  0.013506  1
  O  O10  1  0.725543  0.052045  0.205467  1
  O  O11  1  0.012516  0.664454  0.064859  1
  O  O12  1  0.357284  0.324221  0.145012  1
  O  O13  1  0.781770  0.328960  0.349544  1
  O  O14  1  0.427801  0.669438  0.260480  1
  O  O15  1  0.821489  0.679980  0.452708  1
  O  O16  1  0.181703  0.338679  0.535714  1
  O  O17  1  0.860379  0.948055  0.613438  1
  O  O18  1  0.247476  0.679747  0.667267  1
  O  O19  1  0.602388  0.330299  0.721951  1
  O  O20  1  0.333663  0.047119  0.974606  1
  O  O21  1  0.967537  0.334735  0.918865  1
  O  O22  1  0.600894  0.663299  0.879585  1
