# generated using pymatgen
data_NbV2O7
_symmetry_space_group_name_H-M   'P 1'
_cell_length_a   8.91529939
_cell_length_b   8.91529939
_cell_length_c   8.91529939
_cell_angle_alpha   90.00000000
_cell_angle_beta   90.00000000
_cell_angle_gamma   90.00000000
_symmetry_Int_Tables_number   1
_chemical_formula_structural   NbV2O7
_chemical_formula_sum   'Nb4 V8 O28'
_cell_volume   708.61084713
_cell_formula_units_Z   4
loop_
 _symmetry_equiv_pos_site_id
 _symmetry_equiv_pos_as_xyz
  1  'x, y, z'
loop_
 _atom_site_type_symbol
 _atom_site_label
 _atom_site_symmetry_multiplicity
 _atom_site_fract_x
 _atom_site_fract_y
 _atom_site_fract_z
 _atom_site_occupancy
  Nb  Nb0  1  0.000000  0.000000  0.000000  1
  Nb  Nb1  1  0.000000  0.500000  0.500000  1
  Nb  Nb2  1  0.500000  0.000000  0.500000  1
  Nb  Nb3  1  0.500000  0.500000  0.000000  1
  V  V4  1  0.115588  0.884412  0.384412  1
  V  V5  1  0.115588  0.615588  0.884412  1
  V  V6  1  0.384412  0.384412  0.384412  1
  V  V7  1  0.384412  0.115588  0.884412  1
  V  V8  1  0.615588  0.615588  0.615588  1
  V  V9  1  0.615588  0.884412  0.115588  1
  V  V10  1  0.884412  0.115588  0.615588  1
  V  V11  1  0.884412  0.384412  0.115588  1
  O  O12  1  0.000000  0.000000  0.500000  1
  O  O13  1  0.000000  0.500000  0.000000  1
  O  O14  1  0.061490  0.698221  0.410374  1
  O  O15  1  0.061490  0.801779  0.910374  1
  O  O16  1  0.089626  0.561490  0.698221  1
  O  O17  1  0.089626  0.938510  0.198221  1
  O  O18  1  0.198221  0.089626  0.938510  1
  O  O19  1  0.198221  0.410374  0.438510  1
  O  O20  1  0.301779  0.589626  0.938510  1
  O  O21  1  0.301779  0.910374  0.438510  1
  O  O22  1  0.410374  0.061490  0.698221  1
  O  O23  1  0.410374  0.438510  0.198221  1
  O  O24  1  0.438510  0.301779  0.910374  1
  O  O25  1  0.438510  0.198221  0.410374  1
  O  O26  1  0.500000  0.500000  0.500000  1
  O  O27  1  0.500000  0.000000  0.000000  1
  O  O28  1  0.561490  0.698221  0.089626  1
  O  O29  1  0.561490  0.801779  0.589626  1
  O  O30  1  0.589626  0.561490  0.801779  1
  O  O31  1  0.589626  0.938510  0.301779  1
  O  O32  1  0.698221  0.089626  0.561490  1
  O  O33  1  0.698221  0.410374  0.061490  1
  O  O34  1  0.801779  0.589626  0.561490  1
  O  O35  1  0.801779  0.910374  0.061490  1
  O  O36  1  0.910374  0.061490  0.801779  1
  O  O37  1  0.910374  0.438510  0.301779  1
  O  O38  1  0.938510  0.198221  0.089626  1
  O  O39  1  0.938510  0.301779  0.589626  1
