# generated using pymatgen
data_LiCoSiO4
_symmetry_space_group_name_H-M   'P 1'
_cell_length_a   5.61051662
_cell_length_b   5.61051662
_cell_length_c   5.61051662
_cell_angle_alpha   120.39771405
_cell_angle_beta   117.86691629
_cell_angle_gamma   91.52317088
_symmetry_Int_Tables_number   1
_chemical_formula_structural   LiCoSiO4
_chemical_formula_sum   'Li2 Co2 Si2 O8'
_cell_volume   126.39498315
_cell_formula_units_Z   2
loop_
 _symmetry_equiv_pos_site_id
 _symmetry_equiv_pos_as_xyz
  1  'x, y, z'
loop_
 _atom_site_type_symbol
 _atom_site_label
 _atom_site_symmetry_multiplicity
 _atom_site_fract_x
 _atom_site_fract_y
 _atom_site_fract_z
 _atom_site_occupancy
  Li  Li0  1  0.500000  0.000000  0.000000  1
  Li  Li1  1  0.500000  0.500000  0.500000  1
  Co  Co2  1  0.000000  0.000000  0.000000  1
  Co  Co3  1  0.500000  0.000000  0.500000  1
  Si  Si4  1  0.890623  0.640623  0.250000  1
  Si  Si5  1  0.109377  0.359377  0.750000  1
  O  O6  1  0.760637  0.751935  0.491298  1
  O  O7  1  0.239363  0.730661  0.991298  1
  O  O8  1  0.245432  0.755772  0.489661  1
  O  O9  1  0.766111  0.755772  0.010339  1
  O  O10  1  0.760637  0.269339  0.008702  1
  O  O11  1  0.239363  0.248065  0.508702  1
  O  O12  1  0.754568  0.244228  0.510339  1
  O  O13  1  0.233889  0.244228  0.989661  1
