# generated using pymatgen
data_SrLaI5
_symmetry_space_group_name_H-M   'P 1'
_cell_length_a   9.34484715
_cell_length_b   4.68622101
_cell_length_c   15.07886088
_cell_angle_alpha   90.00000000
_cell_angle_beta   92.37826241
_cell_angle_gamma   90.00000000
_symmetry_Int_Tables_number   1
_chemical_formula_structural   SrLaI5
_chemical_formula_sum   'Sr2 La2 I10'
_cell_volume   659.76498134
_cell_formula_units_Z   2
loop_
 _symmetry_equiv_pos_site_id
 _symmetry_equiv_pos_as_xyz
  1  'x, y, z'
loop_
 _atom_site_type_symbol
 _atom_site_label
 _atom_site_symmetry_multiplicity
 _atom_site_fract_x
 _atom_site_fract_y
 _atom_site_fract_z
 _atom_site_occupancy
  Sr  Sr0  1  0.081706  0.750000  0.141481  1
  Sr  Sr1  1  0.918294  0.250000  0.858519  1
  La  La2  1  0.418637  0.250000  0.346562  1
  La  La3  1  0.581363  0.750000  0.653438  1
  I  I4  1  0.074890  0.250000  0.320283  1
  I  I5  1  0.148737  0.750000  0.924895  1
  I  I6  1  0.320084  0.750000  0.485507  1
  I  I7  1  0.351717  0.250000  0.134635  1
  I  I8  1  0.372206  0.250000  0.710872  1
  I  I9  1  0.627794  0.750000  0.289128  1
  I  I10  1  0.648283  0.750000  0.865365  1
  I  I11  1  0.679916  0.250000  0.514493  1
  I  I12  1  0.851263  0.250000  0.075105  1
  I  I13  1  0.925110  0.750000  0.679717  1
