# generated using pymatgen
data_Na2B4H20O17
_symmetry_space_group_name_H-M   'P 1'
_cell_length_a   8.01163689
_cell_length_b   8.01163689
_cell_length_c   12.24834240
_cell_angle_alpha   77.68762396
_cell_angle_beta   102.31237604
_cell_angle_gamma   96.29007176
_symmetry_Int_Tables_number   1
_chemical_formula_structural   Na2B4H20O17
_chemical_formula_sum   'Na4 B8 H40 O34'
_cell_volume   748.73371107
_cell_formula_units_Z   2
loop_
 _symmetry_equiv_pos_site_id
 _symmetry_equiv_pos_as_xyz
  1  'x, y, z'
loop_
 _atom_site_type_symbol
 _atom_site_label
 _atom_site_symmetry_multiplicity
 _atom_site_fract_x
 _atom_site_fract_y
 _atom_site_fract_z
 _atom_site_occupancy
  Na  Na0  1  0.000000  0.000000  0.500000  1
  Na  Na1  1  0.000000  0.000000  0.000000  1
  Na  Na2  1  0.847008  0.847008  0.250000  1
  Na  Na3  1  0.152992  0.152992  0.750000  1
  B  B4  1  0.259479  0.430507  0.284990  1
  B  B5  1  0.430507  0.259479  0.215010  1
  B  B6  1  0.740521  0.569493  0.715010  1
  B  B7  1  0.569493  0.740521  0.784990  1
  B  B8  1  0.358490  0.554962  0.107978  1
  B  B9  1  0.554962  0.358490  0.392022  1
  B  B10  1  0.641510  0.445038  0.892022  1
  B  B11  1  0.445038  0.641510  0.607978  1
  H  H12  1  0.498887  0.019442  0.220053  1
  H  H13  1  0.019442  0.498887  0.279947  1
  H  H14  1  0.501113  0.980558  0.779947  1
  H  H15  1  0.980558  0.501113  0.720053  1
  H  H16  1  0.346467  0.571056  0.461576  1
  H  H17  1  0.571056  0.346467  0.038424  1
  H  H18  1  0.653533  0.428944  0.538424  1
  H  H19  1  0.428944  0.653533  0.961576  1
  H  H20  1  0.087171  0.685876  0.463444  1
  H  H21  1  0.685876  0.087171  0.036556  1
  H  H22  1  0.912829  0.314124  0.536556  1
  H  H23  1  0.314124  0.912829  0.963444  1
  H  H24  1  0.345380  0.077732  0.013532  1
  H  H25  1  0.077732  0.345380  0.486468  1
  H  H26  1  0.654620  0.922268  0.986468  1
  H  H27  1  0.922268  0.654620  0.513532  1
  H  H28  1  0.177250  0.772694  0.193442  1
  H  H29  1  0.772694  0.177250  0.306558  1
  H  H30  1  0.822750  0.227306  0.806558  1
  H  H31  1  0.227306  0.822750  0.693442  1
  H  H32  1  0.964724  0.219680  0.298042  1
  H  H33  1  0.219680  0.964724  0.201958  1
  H  H34  1  0.035276  0.780320  0.701958  1
  H  H35  1  0.780320  0.035276  0.798042  1
  H  H36  1  0.279570  0.112800  0.383249  1
  H  H37  1  0.112800  0.279570  0.116751  1
  H  H38  1  0.720430  0.887200  0.616751  1
  H  H39  1  0.887200  0.720430  0.883249  1
  H  H40  1  0.323085  0.933788  0.463749  1
  H  H41  1  0.933788  0.323085  0.036251  1
  H  H42  1  0.676915  0.066212  0.536251  1
  H  H43  1  0.066212  0.676915  0.963749  1
  H  H44  1  0.715652  0.517049  0.163785  1
  H  H45  1  0.517049  0.715652  0.336215  1
  H  H46  1  0.284348  0.482951  0.836215  1
  H  H47  1  0.482951  0.284348  0.663785  1
  H  H48  1  0.621265  0.851937  0.404100  1
  H  H49  1  0.851937  0.621265  0.095900  1
  H  H50  1  0.378735  0.148063  0.595900  1
  H  H51  1  0.148063  0.378735  0.904100  1
  O  O52  1  0.266611  0.266611  0.250000  1
  O  O53  1  0.733389  0.733389  0.750000  1
  O  O54  1  0.264581  0.574718  0.185341  1
  O  O55  1  0.574718  0.264581  0.314659  1
  O  O56  1  0.735419  0.425282  0.814659  1
  O  O57  1  0.425282  0.735419  0.685341  1
  O  O58  1  0.415548  0.455062  0.376113  1
  O  O59  1  0.455062  0.415548  0.123887  1
  O  O60  1  0.584452  0.544938  0.623887  1
  O  O61  1  0.544938  0.584452  0.876113  1
  O  O62  1  0.109203  0.431403  0.332942  1
  O  O63  1  0.431403  0.109203  0.167058  1
  O  O64  1  0.890797  0.568597  0.667058  1
  O  O65  1  0.568597  0.890797  0.832942  1
  O  O66  1  0.353545  0.679549  0.009986  1
  O  O67  1  0.679549  0.353545  0.490014  1
  O  O68  1  0.646455  0.320451  0.990014  1
  O  O69  1  0.320451  0.646455  0.509986  1
  O  O70  1  0.722817  0.969701  0.051360  1
  O  O71  1  0.969701  0.722817  0.448640  1
  O  O72  1  0.277183  0.030299  0.948640  1
  O  O73  1  0.030299  0.277183  0.551360  1
  O  O74  1  0.877251  0.123637  0.304289  1
  O  O75  1  0.123637  0.877251  0.195711  1
  O  O76  1  0.122749  0.876363  0.695711  1
  O  O77  1  0.876363  0.122749  0.804289  1
  O  O78  1  0.046152  0.284335  0.037680  1
  O  O79  1  0.284335  0.046152  0.462320  1
  O  O80  1  0.953848  0.715665  0.962320  1
  O  O81  1  0.715665  0.953848  0.537680  1
  O  O82  1  0.588299  0.823552  0.327566  1
  O  O83  1  0.823552  0.588299  0.172434  1
  O  O84  1  0.411701  0.176448  0.672434  1
  O  O85  1  0.176448  0.411701  0.827566  1
