# generated using pymatgen
data_Li4V2Co3Ni3O16
_symmetry_space_group_name_H-M   'P 1'
_cell_length_a   5.84253093
_cell_length_b   5.84253093
_cell_length_c   9.35876941
_cell_angle_alpha   88.89987854
_cell_angle_beta   91.10012146
_cell_angle_gamma   120.67366210
_symmetry_Int_Tables_number   1
_chemical_formula_structural   Li4V2Co3Ni3O16
_chemical_formula_sum   'Li4 V2 Co3 Ni3 O16'
_cell_volume   274.69899358
_cell_formula_units_Z   1
loop_
 _symmetry_equiv_pos_site_id
 _symmetry_equiv_pos_as_xyz
  1  'x, y, z'
loop_
 _atom_site_type_symbol
 _atom_site_label
 _atom_site_symmetry_multiplicity
 _atom_site_fract_x
 _atom_site_fract_y
 _atom_site_fract_z
 _atom_site_occupancy
  Li  Li0  1  0.335657  0.664343  0.099332  1
  Li  Li1  1  0.994119  0.005881  0.009546  1
  Li  Li2  1  0.992061  0.007939  0.503673  1
  Li  Li3  1  0.670993  0.329007  0.601562  1
  V  V4  1  0.332331  0.667669  0.500688  1
  V  V5  1  0.647217  0.352783  0.012905  1
  Co  Co6  1  0.165367  0.345738  0.784199  1
  Co  Co7  1  0.654262  0.834633  0.784199  1
  Co  Co8  1  0.823845  0.176155  0.277251  1
  Ni  Ni9  1  0.168464  0.831536  0.786721  1
  Ni  Ni10  1  0.341143  0.170929  0.288271  1
  Ni  Ni11  1  0.829071  0.658857  0.288271  1
  O  O12  1  0.168792  0.353473  0.408422  1
  O  O13  1  0.478308  0.521692  0.667100  1
  O  O14  1  0.344066  0.655934  0.889073  1
  O  O15  1  0.988144  0.011856  0.697321  1
  O  O16  1  0.988574  0.011426  0.202230  1
  O  O17  1  0.646527  0.831208  0.408422  1
  O  O18  1  0.044169  0.504462  0.656837  1
  O  O19  1  0.495538  0.955831  0.656837  1
  O  O20  1  0.834031  0.165969  0.893643  1
  O  O21  1  0.171472  0.828528  0.423461  1
  O  O22  1  0.539015  0.041582  0.151172  1
  O  O23  1  0.958418  0.460985  0.151172  1
  O  O24  1  0.678828  0.321172  0.391516  1
  O  O25  1  0.340315  0.177196  0.908309  1
  O  O26  1  0.521086  0.478914  0.141945  1
  O  O27  1  0.822804  0.659685  0.908309  1
