# generated using pymatgen
data_KAl2NiP3(H2O7)2
_symmetry_space_group_name_H-M   'P 1'
_cell_length_a   8.33839969
_cell_length_b   8.33839969
_cell_length_c   8.77404267
_cell_angle_alpha   75.88033764
_cell_angle_beta   104.11966236
_cell_angle_gamma   104.51351357
_symmetry_Int_Tables_number   1
_chemical_formula_structural   KAl2NiP3(H2O7)2
_chemical_formula_sum   'K2 Al4 Ni2 P6 H8 O28'
_cell_volume   561.77655408
_cell_formula_units_Z   2
loop_
 _symmetry_equiv_pos_site_id
 _symmetry_equiv_pos_as_xyz
  1  'x, y, z'
loop_
 _atom_site_type_symbol
 _atom_site_label
 _atom_site_symmetry_multiplicity
 _atom_site_fract_x
 _atom_site_fract_y
 _atom_site_fract_z
 _atom_site_occupancy
  K  K0  1  0.134775  0.134775  0.750000  1
  K  K1  1  0.865225  0.865225  0.250000  1
  Al  Al2  1  0.594941  0.250639  0.073159  1
  Al  Al3  1  0.250639  0.594941  0.426841  1
  Al  Al4  1  0.405059  0.749361  0.926841  1
  Al  Al5  1  0.749361  0.405059  0.573159  1
  Ni  Ni6  1  0.226093  0.226093  0.250000  1
  Ni  Ni7  1  0.773907  0.773907  0.750000  1
  P  P8  1  0.331955  0.918270  0.173595  1
  P  P9  1  0.918270  0.331955  0.326405  1
  P  P10  1  0.668045  0.081730  0.826405  1
  P  P11  1  0.081730  0.668045  0.673595  1
  P  P12  1  0.498098  0.498098  0.250000  1
  P  P13  1  0.501902  0.501902  0.750000  1
  H  H14  1  0.427152  0.128418  0.541404  1
  H  H15  1  0.128418  0.427152  0.958596  1
  H  H16  1  0.572848  0.871582  0.458596  1
  H  H17  1  0.871582  0.572848  0.041404  1
  H  H18  1  0.281344  0.979583  0.479669  1
  H  H19  1  0.979583  0.281344  0.020331  1
  H  H20  1  0.718656  0.020417  0.520331  1
  H  H21  1  0.020417  0.718656  0.979669  1
  O  O22  1  0.003194  0.191959  0.320678  1
  O  O23  1  0.191959  0.003194  0.179322  1
  O  O24  1  0.996806  0.808041  0.679322  1
  O  O25  1  0.808041  0.996806  0.820678  1
  O  O26  1  0.309323  0.100665  0.483526  1
  O  O27  1  0.100665  0.309323  0.016474  1
  O  O28  1  0.690677  0.899335  0.516474  1
  O  O29  1  0.899335  0.690677  0.983526  1
  O  O30  1  0.473196  0.329066  0.193215  1
  O  O31  1  0.329066  0.473196  0.306785  1
  O  O32  1  0.526804  0.670934  0.806785  1
  O  O33  1  0.670934  0.526804  0.693215  1
  O  O34  1  0.524406  0.651093  0.112919  1
  O  O35  1  0.651093  0.524406  0.387081  1
  O  O36  1  0.475594  0.348907  0.887081  1
  O  O37  1  0.348907  0.475594  0.612919  1
  O  O38  1  0.789602  0.374034  0.166234  1
  O  O39  1  0.374034  0.789602  0.333766  1
  O  O40  1  0.210398  0.625966  0.833766  1
  O  O41  1  0.625966  0.210398  0.666234  1
  O  O42  1  0.727463  0.175168  0.969302  1
  O  O43  1  0.175168  0.727463  0.530698  1
  O  O44  1  0.272537  0.824832  0.030698  1
  O  O45  1  0.824832  0.272537  0.469302  1
  O  O46  1  0.503527  0.040426  0.158949  1
  O  O47  1  0.040426  0.503527  0.341051  1
  O  O48  1  0.496473  0.959574  0.841051  1
  O  O49  1  0.959574  0.496473  0.658949  1
