# generated using pymatgen
data_Ti2N2O
_symmetry_space_group_name_H-M   'P 1'
_cell_length_a   8.21873152
_cell_length_b   8.21931590
_cell_length_c   8.22031146
_cell_angle_alpha   109.41727311
_cell_angle_beta   109.51829418
_cell_angle_gamma   109.37302114
_symmetry_Int_Tables_number   1
_chemical_formula_structural   Ti2N2O
_chemical_formula_sum   'Ti16 N16 O8'
_cell_volume   428.02407015
_cell_formula_units_Z   8
loop_
 _symmetry_equiv_pos_site_id
 _symmetry_equiv_pos_as_xyz
  1  'x, y, z'
loop_
 _atom_site_type_symbol
 _atom_site_label
 _atom_site_symmetry_multiplicity
 _atom_site_fract_x
 _atom_site_fract_y
 _atom_site_fract_z
 _atom_site_occupancy
  Ti  Ti0  1  0.793444  0.044279  0.752463  1
  Ti  Ti1  1  0.002038  0.010096  0.512085  1
  Ti  Ti2  1  0.237947  0.282125  0.035205  1
  Ti  Ti3  1  0.762562  0.217343  0.464545  1
  Ti  Ti4  1  0.469363  0.761821  0.215069  1
  Ti  Ti5  1  0.957036  0.743276  0.709121  1
  Ti  Ti6  1  0.006127  0.517306  0.014642  1
  Ti  Ti7  1  0.488814  0.984763  0.979010  1
  Ti  Ti8  1  0.290639  0.540672  0.742902  1
  Ti  Ti9  1  0.492698  0.489694  0.501663  1
  Ti  Ti10  1  0.698104  0.448968  0.242301  1
  Ti  Ti11  1  0.535116  0.245641  0.795541  1
  Ti  Ti12  1  0.053255  0.258391  0.290312  1
  Ti  Ti13  1  0.254747  0.798253  0.541498  1
  Ti  Ti14  1  0.741077  0.695628  0.957826  1
  Ti  Ti15  1  0.207624  0.959546  0.253095  1
  N  N16  1  0.724147  0.950229  0.458675  1
  N  N17  1  0.551602  0.775550  0.013116  1
  N  N18  1  0.737228  0.461465  0.509102  1
  N  N19  1  0.987599  0.263151  0.039162  1
  N  N20  1  0.777205  0.510818  0.054358  1
  N  N21  1  0.541383  0.988970  0.764796  1
  N  N22  1  0.277887  0.225711  0.266125  1
  N  N23  1  0.037956  0.275731  0.551086  1
  N  N24  1  0.224510  0.766739  0.773309  1
  N  N25  1  0.005622  0.732820  0.958441  1
  N  N26  1  0.453027  0.225773  0.991611  1
  N  N27  1  0.265418  0.538602  0.487741  1
  N  N28  1  0.238016  0.725910  0.273332  1
  N  N29  1  0.050691  0.039822  0.774266  1
  N  N30  1  0.493044  0.451683  0.723734  1
  N  N31  1  0.272584  0.048964  0.538387  1
  O  O32  1  0.509114  0.549227  0.270426  1
  O  O33  1  0.953178  0.961867  0.225223  1
  O  O34  1  0.767114  0.273712  0.724361  1
  O  O35  1  0.773070  0.234866  0.227800  1
  O  O36  1  0.226959  0.488619  0.951981  1
  O  O37  1  0.724402  0.776140  0.732268  1
  O  O38  1  0.460936  0.011005  0.235579  1
  O  O39  1  0.956713  0.724827  0.447842  1
