# generated using pymatgen
data_Li4NbCo3O8
_symmetry_space_group_name_H-M   'P 1'
_cell_length_a   6.00749084
_cell_length_b   6.00749084
_cell_length_c   6.00749084
_cell_angle_alpha   59.70987380
_cell_angle_beta   59.70987380
_cell_angle_gamma   59.70987380
_symmetry_Int_Tables_number   1
_chemical_formula_structural   Li4NbCo3O8
_chemical_formula_sum   'Li4 Nb1 Co3 O8'
_cell_volume   152.29757064
_cell_formula_units_Z   1
loop_
 _symmetry_equiv_pos_site_id
 _symmetry_equiv_pos_as_xyz
  1  'x, y, z'
loop_
 _atom_site_type_symbol
 _atom_site_label
 _atom_site_symmetry_multiplicity
 _atom_site_fract_x
 _atom_site_fract_y
 _atom_site_fract_z
 _atom_site_occupancy
  Li  Li0  1  0.500000  0.500000  0.500000  1
  Li  Li1  1  0.500000  0.000000  0.000000  1
  Li  Li2  1  0.000000  0.000000  0.500000  1
  Li  Li3  1  0.000000  0.500000  1.000000  1
  Nb  Nb4  1  0.000000  0.000000  0.000000  1
  Co  Co5  1  0.000000  0.500000  0.500000  1
  Co  Co6  1  0.500000  0.500000  0.000000  1
  Co  Co7  1  0.500000  0.000000  0.500000  1
  O  O8  1  0.734187  0.734187  0.734187  1
  O  O9  1  0.764101  0.240244  0.240244  1
  O  O10  1  0.240244  0.240244  0.764101  1
  O  O11  1  0.265813  0.265813  0.265813  1
  O  O12  1  0.240244  0.764101  0.240244  1
  O  O13  1  0.235899  0.759756  0.759756  1
  O  O14  1  0.759756  0.759756  0.235899  1
  O  O15  1  0.759756  0.235899  0.759756  1
