# generated using pymatgen
data_Ho2(WO4)3
_symmetry_space_group_name_H-M   'P 1'
_cell_length_a   6.92624746
_cell_length_b   6.92624746
_cell_length_c   11.40584054
_cell_angle_alpha   79.18845908
_cell_angle_beta   100.81154092
_cell_angle_gamma   67.84343765
_symmetry_Int_Tables_number   1
_chemical_formula_structural   Ho2(WO4)3
_chemical_formula_sum   'Ho4 W6 O24'
_cell_volume   477.28096331
_cell_formula_units_Z   2
loop_
 _symmetry_equiv_pos_site_id
 _symmetry_equiv_pos_as_xyz
  1  'x, y, z'
loop_
 _atom_site_type_symbol
 _atom_site_label
 _atom_site_symmetry_multiplicity
 _atom_site_fract_x
 _atom_site_fract_y
 _atom_site_fract_z
 _atom_site_occupancy
  Ho  Ho0  1  0.712315  0.042797  0.406885  1
  Ho  Ho1  1  0.957203  0.287685  0.906885  1
  Ho  Ho2  1  0.042797  0.712315  0.093115  1
  Ho  Ho3  1  0.287685  0.957203  0.593115  1
  W  W4  1  0.539500  0.246583  0.049178  1
  W  W5  1  0.753417  0.460500  0.549178  1
  W  W6  1  0.131928  0.131928  0.250000  1
  W  W7  1  0.868072  0.868072  0.750000  1
  W  W8  1  0.246583  0.539500  0.450822  1
  W  W9  1  0.460500  0.753417  0.950822  1
  O  O10  1  0.548737  0.095649  0.201731  1
  O  O11  1  0.871567  0.208980  0.280582  1
  O  O12  1  0.079300  0.341216  0.105880  1
  O  O13  1  0.767155  0.670313  0.438230  1
  O  O14  1  0.819066  0.081282  0.037879  1
  O  O15  1  0.527458  0.396615  0.424037  1
  O  O16  1  0.904351  0.451263  0.701731  1
  O  O17  1  0.396615  0.527458  0.075963  1
  O  O18  1  0.081282  0.819066  0.462121  1
  O  O19  1  0.670313  0.767155  0.061770  1
  O  O20  1  0.341216  0.079300  0.394120  1
  O  O21  1  0.791020  0.128433  0.780582  1
  O  O22  1  0.208980  0.871567  0.219418  1
  O  O23  1  0.658784  0.920700  0.605880  1
  O  O24  1  0.329687  0.232845  0.938230  1
  O  O25  1  0.918718  0.180934  0.537879  1
  O  O26  1  0.603385  0.472542  0.924037  1
  O  O27  1  0.095649  0.548737  0.298269  1
  O  O28  1  0.472542  0.603385  0.575963  1
  O  O29  1  0.180934  0.918718  0.962121  1
  O  O30  1  0.232845  0.329687  0.561770  1
  O  O31  1  0.920700  0.658784  0.894120  1
  O  O32  1  0.128433  0.791020  0.719418  1
  O  O33  1  0.451263  0.904351  0.798269  1
