# generated using pymatgen
data_CeOF
_symmetry_space_group_name_H-M   'P 1'
_cell_length_a   7.07005697
_cell_length_b   7.07005697
_cell_length_c   7.07005697
_cell_angle_alpha   32.77421358
_cell_angle_beta   32.77421358
_cell_angle_gamma   32.77421358
_symmetry_Int_Tables_number   1
_chemical_formula_structural   CeOF
_chemical_formula_sum   'Ce2 O2 F2'
_cell_volume   92.12602313
_cell_formula_units_Z   2
loop_
 _symmetry_equiv_pos_site_id
 _symmetry_equiv_pos_as_xyz
  1  'x, y, z'
loop_
 _atom_site_type_symbol
 _atom_site_label
 _atom_site_symmetry_multiplicity
 _atom_site_fract_x
 _atom_site_fract_y
 _atom_site_fract_z
 _atom_site_occupancy
  Ce  Ce0  1  0.240067  0.240067  0.240067  1
  Ce  Ce1  1  0.759933  0.759933  0.759933  1
  O  O2  1  0.122190  0.122190  0.122190  1
  O  O3  1  0.877810  0.877810  0.877810  1
  F  F4  1  0.369883  0.369883  0.369883  1
  F  F5  1  0.630117  0.630117  0.630117  1
