# generated using pymatgen
data_V3Cu(PO4)6
_symmetry_space_group_name_H-M   'P 1'
_cell_length_a   8.71864141
_cell_length_b   8.71864141
_cell_length_c   8.71864141
_cell_angle_alpha   58.43525947
_cell_angle_beta   58.43525947
_cell_angle_gamma   58.43525947
_symmetry_Int_Tables_number   1
_chemical_formula_structural   V3Cu(PO4)6
_chemical_formula_sum   'V3 Cu1 P6 O24'
_cell_volume   451.85082898
_cell_formula_units_Z   1
loop_
 _symmetry_equiv_pos_site_id
 _symmetry_equiv_pos_as_xyz
  1  'x, y, z'
loop_
 _atom_site_type_symbol
 _atom_site_label
 _atom_site_symmetry_multiplicity
 _atom_site_fract_x
 _atom_site_fract_y
 _atom_site_fract_z
 _atom_site_occupancy
  V  V0  1  0.860562  0.860562  0.860562  1
  V  V1  1  0.641095  0.641095  0.641095  1
  V  V2  1  0.361735  0.361735  0.361735  1
  Cu  Cu3  1  0.143514  0.143514  0.143514  1
  P  P4  1  0.250196  0.530503  0.968647  1
  P  P5  1  0.968647  0.250196  0.530503  1
  P  P6  1  0.530503  0.968647  0.250196  1
  P  P7  1  0.465703  0.031929  0.754105  1
  P  P8  1  0.031929  0.754105  0.465703  1
  P  P9  1  0.754105  0.465703  0.031929  1
  O  O10  1  0.711517  0.503977  0.861391  1
  O  O11  1  0.503977  0.861391  0.711517  1
  O  O12  1  0.072935  0.716675  0.938810  1
  O  O13  1  0.861391  0.711517  0.503977  1
  O  O14  1  0.423514  0.572682  0.783647  1
  O  O15  1  0.233599  0.362160  0.976579  1
  O  O16  1  0.938810  0.072935  0.716675  1
  O  O17  1  0.783647  0.423514  0.572682  1
  O  O18  1  0.572682  0.783647  0.423514  1
  O  O19  1  0.643462  0.005211  0.777066  1
  O  O20  1  0.282039  0.052223  0.923028  1
  O  O21  1  0.005211  0.777066  0.643462  1
  O  O22  1  0.976579  0.233599  0.362160  1
  O  O23  1  0.716675  0.938810  0.072935  1
  O  O24  1  0.362160  0.976579  0.233599  1
  O  O25  1  0.443487  0.214057  0.569885  1
  O  O26  1  0.214057  0.569885  0.443487  1
  O  O27  1  0.052223  0.923028  0.282039  1
  O  O28  1  0.777066  0.643462  0.005211  1
  O  O29  1  0.569885  0.443487  0.214057  1
  O  O30  1  0.143268  0.276359  0.504441  1
  O  O31  1  0.923028  0.282039  0.052223  1
  O  O32  1  0.504441  0.143268  0.276359  1
  O  O33  1  0.276359  0.504441  0.143268  1
