# generated using pymatgen
data_Na2Cr(HO)8
_symmetry_space_group_name_H-M   'P 1'
_cell_length_a   6.23941526
_cell_length_b   11.21704259
_cell_length_c   12.27485741
_cell_angle_alpha   90.00000000
_cell_angle_beta   104.94214659
_cell_angle_gamma   90.00000000
_symmetry_Int_Tables_number   1
_chemical_formula_structural   Na2Cr(HO)8
_chemical_formula_sum   'Na8 Cr4 H32 O32'
_cell_volume   830.04140601
_cell_formula_units_Z   4
loop_
 _symmetry_equiv_pos_site_id
 _symmetry_equiv_pos_as_xyz
  1  'x, y, z'
loop_
 _atom_site_type_symbol
 _atom_site_label
 _atom_site_symmetry_multiplicity
 _atom_site_fract_x
 _atom_site_fract_y
 _atom_site_fract_z
 _atom_site_occupancy
  Na  Na0  1  0.249628  0.073363  0.996999  1
  Na  Na1  1  0.750372  0.573363  0.503001  1
  Na  Na2  1  0.750372  0.926637  0.003001  1
  Na  Na3  1  0.249628  0.426637  0.496999  1
  Na  Na4  1  0.475895  0.179472  0.612384  1
  Na  Na5  1  0.524105  0.679472  0.887616  1
  Na  Na6  1  0.524105  0.820528  0.387616  1
  Na  Na7  1  0.475895  0.320528  0.112384  1
  Cr  Cr8  1  0.263411  0.899680  0.739697  1
  Cr  Cr9  1  0.736589  0.399680  0.760303  1
  Cr  Cr10  1  0.736589  0.100320  0.260303  1
  Cr  Cr11  1  0.263411  0.600320  0.239697  1
  H  H12  1  0.139685  0.971542  0.384070  1
  H  H13  1  0.860315  0.471542  0.115930  1
  H  H14  1  0.860315  0.028458  0.615930  1
  H  H15  1  0.139685  0.528458  0.884070  1
  H  H16  1  0.252343  0.935726  0.510534  1
  H  H17  1  0.747657  0.435726  0.989466  1
  H  H18  1  0.747657  0.064274  0.489466  1
  H  H19  1  0.252343  0.564274  0.010534  1
  H  H20  1  0.226683  0.191506  0.375872  1
  H  H21  1  0.773317  0.691506  0.124128  1
  H  H22  1  0.773317  0.808494  0.624128  1
  H  H23  1  0.226683  0.308494  0.875872  1
  H  H24  1  0.460978  0.242385  0.375387  1
  H  H25  1  0.539022  0.742385  0.124613  1
  H  H26  1  0.539022  0.757615  0.624613  1
  H  H27  1  0.460978  0.257615  0.875387  1
  H  H28  1  0.015510  0.290140  0.093515  1
  H  H29  1  0.984490  0.790140  0.406485  1
  H  H30  1  0.984490  0.709860  0.906485  1
  H  H31  1  0.015510  0.209860  0.593515  1
  H  H32  1  0.094530  0.180951  0.173182  1
  H  H33  1  0.905470  0.680951  0.326818  1
  H  H34  1  0.905470  0.819049  0.826818  1
  H  H35  1  0.094530  0.319049  0.673182  1
  H  H36  1  0.193565  0.870877  0.152670  1
  H  H37  1  0.806435  0.370877  0.347330  1
  H  H38  1  0.806435  0.129123  0.847330  1
  H  H39  1  0.193565  0.629123  0.652670  1
  H  H40  1  0.088181  0.991081  0.181044  1
  H  H41  1  0.911819  0.491081  0.318956  1
  H  H42  1  0.911819  0.008919  0.818956  1
  H  H43  1  0.088181  0.508919  0.681044  1
  O  O44  1  0.376581  0.929027  0.874250  1
  O  O45  1  0.623419  0.429027  0.625750  1
  O  O46  1  0.623419  0.070973  0.125750  1
  O  O47  1  0.376581  0.570973  0.374250  1
  O  O48  1  0.337468  0.762233  0.710838  1
  O  O49  1  0.662532  0.262233  0.789162  1
  O  O50  1  0.662532  0.237767  0.289162  1
  O  O51  1  0.337468  0.737767  0.210838  1
  O  O52  1  0.347342  0.994690  0.656519  1
  O  O53  1  0.652658  0.494690  0.843481  1
  O  O54  1  0.652658  0.005310  0.343481  1
  O  O55  1  0.347342  0.505310  0.156519  1
  O  O56  1  0.982562  0.909000  0.714507  1
  O  O57  1  0.017438  0.409000  0.785493  1
  O  O58  1  0.017438  0.091000  0.285493  1
  O  O59  1  0.982562  0.591000  0.214507  1
  O  O60  1  0.205721  0.903535  0.432997  1
  O  O61  1  0.794279  0.403535  0.067003  1
  O  O62  1  0.794279  0.096465  0.567003  1
  O  O63  1  0.205721  0.596465  0.932997  1
  O  O64  1  0.349139  0.241579  0.419658  1
  O  O65  1  0.650861  0.741579  0.080342  1
  O  O66  1  0.650861  0.758421  0.580342  1
  O  O67  1  0.349139  0.258421  0.919658  1
  O  O68  1  0.131699  0.228111  0.112582  1
  O  O69  1  0.868301  0.728111  0.387418  1
  O  O70  1  0.868301  0.771889  0.887418  1
  O  O71  1  0.131699  0.271889  0.612582  1
  O  O72  1  0.115786  0.943688  0.118229  1
  O  O73  1  0.884214  0.443688  0.381771  1
  O  O74  1  0.884214  0.056312  0.881771  1
  O  O75  1  0.115786  0.556312  0.618229  1
