# generated using pymatgen
data_Li3La7(FeO8)2
_symmetry_space_group_name_H-M   'P 1'
_cell_length_a   7.60216492
_cell_length_b   7.60216492
_cell_length_c   6.93413664
_cell_angle_alpha   74.13705033
_cell_angle_beta   105.86294967
_cell_angle_gamma   89.73394048
_symmetry_Int_Tables_number   1
_chemical_formula_structural   Li3La7(FeO8)2
_chemical_formula_sum   'Li3 La7 Fe2 O16'
_cell_volume   369.43681150
_cell_formula_units_Z   1
loop_
 _symmetry_equiv_pos_site_id
 _symmetry_equiv_pos_as_xyz
  1  'x, y, z'
loop_
 _atom_site_type_symbol
 _atom_site_label
 _atom_site_symmetry_multiplicity
 _atom_site_fract_x
 _atom_site_fract_y
 _atom_site_fract_z
 _atom_site_occupancy
  Li  Li0  1  0.992825  0.502275  0.981216  1
  Li  Li1  1  0.676722  0.323278  0.705926  1
  Li  Li2  1  0.497725  0.007175  0.981216  1
  La  La3  1  0.815590  0.184410  0.269225  1
  La  La4  1  0.820307  0.676378  0.287604  1
  La  La5  1  0.681094  0.820713  0.721770  1
  La  La6  1  0.323666  0.676334  0.282762  1
  La  La7  1  0.323622  0.179693  0.287604  1
  La  La8  1  0.179287  0.318906  0.721770  1
  La  La9  1  0.178392  0.821608  0.716555  1
  Fe  Fe10  1  0.996468  0.003532  0.995560  1
  Fe  Fe11  1  0.501028  0.498972  0.994485  1
  O  O12  1  0.925585  0.074415  0.649939  1
  O  O13  1  0.003346  0.242106  0.005123  1
  O  O14  1  0.001776  0.756080  0.006313  1
  O  O15  1  0.929942  0.607948  0.644105  1
  O  O16  1  0.589538  0.908419  0.361931  1
  O  O17  1  0.743992  0.500839  0.003795  1
  O  O18  1  0.757894  0.996654  0.005123  1
  O  O19  1  0.587968  0.412032  0.354826  1
  O  O20  1  0.400079  0.599921  0.652437  1
  O  O21  1  0.501112  0.740774  0.005307  1
  O  O22  1  0.499161  0.256008  0.003795  1
  O  O23  1  0.392052  0.070058  0.644105  1
  O  O24  1  0.091581  0.410462  0.361931  1
  O  O25  1  0.243920  0.998224  0.006313  1
  O  O26  1  0.086098  0.913902  0.343958  1
  O  O27  1  0.259226  0.498888  0.005307  1
