# generated using pymatgen
data_Na3SiH5O6
_symmetry_space_group_name_H-M   'P 1'
_cell_length_a   9.99363447
_cell_length_b   10.55702470
_cell_length_c   11.53840239
_cell_angle_alpha   90.00000000
_cell_angle_beta   90.00000000
_cell_angle_gamma   90.00000000
_symmetry_Int_Tables_number   1
_chemical_formula_structural   Na3SiH5O6
_chemical_formula_sum   'Na24 Si8 H40 O48'
_cell_volume   1217.33659746
_cell_formula_units_Z   8
loop_
 _symmetry_equiv_pos_site_id
 _symmetry_equiv_pos_as_xyz
  1  'x, y, z'
loop_
 _atom_site_type_symbol
 _atom_site_label
 _atom_site_symmetry_multiplicity
 _atom_site_fract_x
 _atom_site_fract_y
 _atom_site_fract_z
 _atom_site_occupancy
  Na  Na0  1  0.062975  0.963640  0.156688  1
  Na  Na1  1  0.437025  0.963640  0.656688  1
  Na  Na2  1  0.248252  0.894836  0.437650  1
  Na  Na3  1  0.251748  0.894836  0.937650  1
  Na  Na4  1  0.560358  0.878394  0.080816  1
  Na  Na5  1  0.939642  0.878394  0.580816  1
  Na  Na6  1  0.060358  0.621606  0.080816  1
  Na  Na7  1  0.439642  0.621606  0.580816  1
  Na  Na8  1  0.748252  0.605164  0.437650  1
  Na  Na9  1  0.751748  0.605164  0.937650  1
  Na  Na10  1  0.562975  0.536360  0.156688  1
  Na  Na11  1  0.937025  0.536360  0.656688  1
  Na  Na12  1  0.437025  0.463640  0.843312  1
  Na  Na13  1  0.062975  0.463640  0.343312  1
  Na  Na14  1  0.251748  0.394836  0.562350  1
  Na  Na15  1  0.248252  0.394836  0.062350  1
  Na  Na16  1  0.560358  0.378394  0.419184  1
  Na  Na17  1  0.939642  0.378394  0.919184  1
  Na  Na18  1  0.439642  0.121606  0.919184  1
  Na  Na19  1  0.060358  0.121606  0.419184  1
  Na  Na20  1  0.751748  0.105164  0.562350  1
  Na  Na21  1  0.748252  0.105164  0.062350  1
  Na  Na22  1  0.937025  0.036360  0.843312  1
  Na  Na23  1  0.562975  0.036360  0.343312  1
  Si  Si24  1  0.974723  0.756397  0.355610  1
  Si  Si25  1  0.525277  0.756397  0.855610  1
  Si  Si26  1  0.025277  0.743603  0.855610  1
  Si  Si27  1  0.474723  0.743603  0.355610  1
  Si  Si28  1  0.974723  0.256397  0.144390  1
  Si  Si29  1  0.525277  0.256397  0.644390  1
  Si  Si30  1  0.474723  0.243603  0.144390  1
  Si  Si31  1  0.025277  0.243603  0.644390  1
  H  H32  1  0.367603  0.007022  0.142674  1
  H  H33  1  0.132397  0.007022  0.642674  1
  H  H34  1  0.317030  0.871433  0.194856  1
  H  H35  1  0.182970  0.871433  0.694856  1
  H  H36  1  0.891109  0.857439  0.040026  1
  H  H37  1  0.608891  0.857439  0.540026  1
  H  H38  1  0.821654  0.837300  0.163803  1
  H  H39  1  0.678346  0.837300  0.663803  1
  H  H40  1  0.685497  0.792572  0.284779  1
  H  H41  1  0.814503  0.792572  0.784779  1
  H  H42  1  0.185497  0.707428  0.284779  1
  H  H43  1  0.314503  0.707428  0.784779  1
  H  H44  1  0.321654  0.662700  0.163803  1
  H  H45  1  0.178346  0.662700  0.663803  1
  H  H46  1  0.391109  0.642561  0.040026  1
  H  H47  1  0.108891  0.642561  0.540026  1
  H  H48  1  0.817030  0.628567  0.194856  1
  H  H49  1  0.682970  0.628567  0.694856  1
  H  H50  1  0.632397  0.492978  0.642674  1
  H  H51  1  0.867603  0.492978  0.142674  1
  H  H52  1  0.367603  0.507022  0.357326  1
  H  H53  1  0.132397  0.507022  0.857326  1
  H  H54  1  0.317030  0.371433  0.305144  1
  H  H55  1  0.182970  0.371433  0.805144  1
  H  H56  1  0.891109  0.357439  0.459974  1
  H  H57  1  0.608891  0.357439  0.959974  1
  H  H58  1  0.821654  0.337300  0.336197  1
  H  H59  1  0.678346  0.337300  0.836197  1
  H  H60  1  0.685497  0.292572  0.215221  1
  H  H61  1  0.814503  0.292572  0.715221  1
  H  H62  1  0.314503  0.207428  0.715221  1
  H  H63  1  0.185497  0.207428  0.215221  1
  H  H64  1  0.321654  0.162700  0.336197  1
  H  H65  1  0.178346  0.162700  0.836197  1
  H  H66  1  0.108891  0.142561  0.959974  1
  H  H67  1  0.391109  0.142561  0.459974  1
  H  H68  1  0.817030  0.128567  0.305144  1
  H  H69  1  0.682970  0.128567  0.805144  1
  H  H70  1  0.632397  0.992978  0.857326  1
  H  H71  1  0.867603  0.992978  0.357326  1
  O  O72  1  0.298908  0.938790  0.132535  1
  O  O73  1  0.201092  0.938790  0.632535  1
  O  O74  1  0.481791  0.905062  0.869147  1
  O  O75  1  0.018209  0.905062  0.369147  1
  O  O76  1  0.816240  0.891232  0.092235  1
  O  O77  1  0.683760  0.891232  0.592235  1
  O  O78  1  0.468406  0.818382  0.480380  1
  O  O79  1  0.031594  0.818382  0.980380  1
  O  O80  1  0.911262  0.819750  0.772245  1
  O  O81  1  0.588738  0.819750  0.272245  1
  O  O82  1  0.333116  0.761302  0.284296  1
  O  O83  1  0.166884  0.761302  0.784296  1
  O  O84  1  0.833116  0.738698  0.284296  1
  O  O85  1  0.666884  0.738698  0.784296  1
  O  O86  1  0.088738  0.680250  0.272245  1
  O  O87  1  0.411262  0.680250  0.772245  1
  O  O88  1  0.968406  0.681618  0.480380  1
  O  O89  1  0.531594  0.681618  0.980380  1
  O  O90  1  0.316240  0.608768  0.092235  1
  O  O91  1  0.183760  0.608768  0.592235  1
  O  O92  1  0.518209  0.594938  0.369147  1
  O  O93  1  0.981791  0.594938  0.869147  1
  O  O94  1  0.701092  0.561210  0.632535  1
  O  O95  1  0.798908  0.561210  0.132535  1
  O  O96  1  0.298908  0.438790  0.367465  1
  O  O97  1  0.201092  0.438790  0.867465  1
  O  O98  1  0.481791  0.405062  0.630853  1
  O  O99  1  0.018209  0.405062  0.130853  1
  O  O100  1  0.816240  0.391232  0.407765  1
  O  O101  1  0.683760  0.391232  0.907765  1
  O  O102  1  0.468406  0.318382  0.019620  1
  O  O103  1  0.031594  0.318382  0.519620  1
  O  O104  1  0.588738  0.319750  0.227755  1
  O  O105  1  0.911262  0.319750  0.727755  1
  O  O106  1  0.333116  0.261302  0.215704  1
  O  O107  1  0.166884  0.261302  0.715704  1
  O  O108  1  0.833116  0.238698  0.215704  1
  O  O109  1  0.666884  0.238698  0.715704  1
  O  O110  1  0.411262  0.180250  0.727755  1
  O  O111  1  0.088738  0.180250  0.227755  1
  O  O112  1  0.968406  0.181618  0.019620  1
  O  O113  1  0.531594  0.181618  0.519620  1
  O  O114  1  0.316240  0.108768  0.407765  1
  O  O115  1  0.183760  0.108768  0.907765  1
  O  O116  1  0.981791  0.094938  0.630853  1
  O  O117  1  0.518209  0.094938  0.130853  1
  O  O118  1  0.701092  0.061210  0.867465  1
  O  O119  1  0.798908  0.061210  0.367465  1
