# generated using pymatgen
data_MnFe(PO4)2
_symmetry_space_group_name_H-M   'P 1'
_cell_length_a   4.91510138
_cell_length_b   5.98066472
_cell_length_c   9.89005596
_cell_angle_alpha   90.00000000
_cell_angle_beta   90.00000000
_cell_angle_gamma   90.00000000
_symmetry_Int_Tables_number   1
_chemical_formula_structural   MnFe(PO4)2
_chemical_formula_sum   'Mn2 Fe2 P4 O16'
_cell_volume   290.72386609
_cell_formula_units_Z   2
loop_
 _symmetry_equiv_pos_site_id
 _symmetry_equiv_pos_as_xyz
  1  'x, y, z'
loop_
 _atom_site_type_symbol
 _atom_site_label
 _atom_site_symmetry_multiplicity
 _atom_site_fract_x
 _atom_site_fract_y
 _atom_site_fract_z
 _atom_site_occupancy
  Mn  Mn0  1  0.311969  0.000000  0.218311  1
  Mn  Mn1  1  0.688031  0.000000  0.718311  1
  Fe  Fe2  1  0.786368  0.500000  0.275875  1
  Fe  Fe3  1  0.213632  0.500000  0.775875  1
  P  P4  1  0.333315  0.500000  0.097280  1
  P  P5  1  0.827552  0.000000  0.400463  1
  P  P6  1  0.666685  0.500000  0.597280  1
  P  P7  1  0.172448  0.000000  0.900463  1
  O  O8  1  0.110848  0.000000  0.053176  1
  O  O9  1  0.026393  0.500000  0.119732  1
  O  O10  1  0.480782  0.698317  0.173122  1
  O  O11  1  0.480782  0.301683  0.173122  1
  O  O12  1  0.966195  0.203694  0.329314  1
  O  O13  1  0.966195  0.796306  0.329314  1
  O  O14  1  0.514969  0.000000  0.382381  1
  O  O15  1  0.594832  0.500000  0.447611  1
  O  O16  1  0.889152  0.000000  0.553176  1
  O  O17  1  0.973607  0.500000  0.619732  1
  O  O18  1  0.519218  0.698317  0.673122  1
  O  O19  1  0.519218  0.301683  0.673122  1
  O  O20  1  0.033805  0.203694  0.829314  1
  O  O21  1  0.033805  0.796306  0.829314  1
  O  O22  1  0.485031  0.000000  0.882381  1
  O  O23  1  0.405168  0.500000  0.947611  1
