# generated using pymatgen
data_Zr2Bi2O7
_symmetry_space_group_name_H-M   'P 1'
_cell_length_a   7.65539847
_cell_length_b   7.65539847
_cell_length_c   7.65539847
_cell_angle_alpha   60.00000000
_cell_angle_beta   60.00000000
_cell_angle_gamma   60.00000000
_symmetry_Int_Tables_number   1
_chemical_formula_structural   Zr2Bi2O7
_chemical_formula_sum   'Zr4 Bi4 O14'
_cell_volume   317.24033860
_cell_formula_units_Z   2
loop_
 _symmetry_equiv_pos_site_id
 _symmetry_equiv_pos_as_xyz
  1  'x, y, z'
loop_
 _atom_site_type_symbol
 _atom_site_label
 _atom_site_symmetry_multiplicity
 _atom_site_fract_x
 _atom_site_fract_y
 _atom_site_fract_z
 _atom_site_occupancy
  Zr  Zr0  1  0.625000  0.625000  0.125000  1
  Zr  Zr1  1  0.125000  0.625000  0.625000  1
  Zr  Zr2  1  0.625000  0.125000  0.625000  1
  Zr  Zr3  1  0.625000  0.625000  0.625000  1
  Bi  Bi4  1  0.625000  0.125000  0.125000  1
  Bi  Bi5  1  0.125000  0.125000  0.125000  1
  Bi  Bi6  1  0.125000  0.125000  0.625000  1
  Bi  Bi7  1  0.125000  0.625000  0.125000  1
  O  O8  1  0.290618  0.709382  0.290618  1
  O  O9  1  0.959382  0.540618  0.959382  1
  O  O10  1  0.959382  0.540618  0.540618  1
  O  O11  1  0.540618  0.540618  0.959382  1
  O  O12  1  0.250000  0.250000  0.250000  1
  O  O13  1  0.959382  0.959382  0.540618  1
  O  O14  1  0.540618  0.959382  0.540618  1
  O  O15  1  0.540618  0.959382  0.959382  1
  O  O16  1  0.709382  0.290618  0.709382  1
  O  O17  1  0.709382  0.290618  0.290618  1
  O  O18  1  0.709382  0.709382  0.290618  1
  O  O19  1  0.290618  0.290618  0.709382  1
  O  O20  1  0.290618  0.709382  0.709382  1
  O  O21  1  0.000000  0.000000  0.000000  1
