# generated using pymatgen
data_Tb2WO6
_symmetry_space_group_name_H-M   'P 1'
_cell_length_a   5.63301184
_cell_length_b   10.67103985
_cell_length_c   16.21430524
_cell_angle_alpha   90.00000000
_cell_angle_beta   90.00000000
_cell_angle_gamma   90.00000000
_symmetry_Int_Tables_number   1
_chemical_formula_structural   Tb2WO6
_chemical_formula_sum   'Tb16 W8 O48'
_cell_volume   974.64340921
_cell_formula_units_Z   8
loop_
 _symmetry_equiv_pos_site_id
 _symmetry_equiv_pos_as_xyz
  1  'x, y, z'
loop_
 _atom_site_type_symbol
 _atom_site_label
 _atom_site_symmetry_multiplicity
 _atom_site_fract_x
 _atom_site_fract_y
 _atom_site_fract_z
 _atom_site_occupancy
  Tb  Tb0  1  0.898758  0.641884  0.061848  1
  Tb  Tb1  1  0.398758  0.858116  0.061848  1
  Tb  Tb2  1  0.948974  0.854829  0.230549  1
  Tb  Tb3  1  0.448974  0.645171  0.230549  1
  Tb  Tb4  1  0.948974  0.354829  0.269451  1
  Tb  Tb5  1  0.448974  0.145171  0.269451  1
  Tb  Tb6  1  0.398758  0.358116  0.438152  1
  Tb  Tb7  1  0.898758  0.141884  0.438152  1
  Tb  Tb8  1  0.101242  0.858116  0.561848  1
  Tb  Tb9  1  0.601242  0.641884  0.561848  1
  Tb  Tb10  1  0.551026  0.854829  0.730549  1
  Tb  Tb11  1  0.051026  0.645171  0.730549  1
  Tb  Tb12  1  0.551026  0.354829  0.769451  1
  Tb  Tb13  1  0.051026  0.145171  0.769451  1
  Tb  Tb14  1  0.101242  0.358116  0.938152  1
  Tb  Tb15  1  0.601242  0.141884  0.938152  1
  W  W16  1  0.389409  0.379068  0.119874  1
  W  W17  1  0.889409  0.120932  0.119874  1
  W  W18  1  0.389409  0.879068  0.380126  1
  W  W19  1  0.889409  0.620932  0.380126  1
  W  W20  1  0.110591  0.379068  0.619874  1
  W  W21  1  0.610591  0.120932  0.619874  1
  W  W22  1  0.110591  0.879068  0.880126  1
  W  W23  1  0.610591  0.620932  0.880126  1
  O  O24  1  0.919294  0.215526  0.022254  1
  O  O25  1  0.419294  0.284474  0.022254  1
  O  O26  1  0.122906  0.458493  0.072347  1
  O  O27  1  0.622906  0.041507  0.072347  1
  O  O28  1  0.094216  0.988794  0.106868  1
  O  O29  1  0.594216  0.511206  0.106868  1
  O  O30  1  0.675632  0.769962  0.146549  1
  O  O31  1  0.175632  0.730038  0.146549  1
  O  O32  1  0.658757  0.268878  0.170711  1
  O  O33  1  0.158757  0.231122  0.170711  1
  O  O34  1  0.816547  0.059291  0.230978  1
  O  O35  1  0.316547  0.440709  0.230978  1
  O  O36  1  0.316547  0.940709  0.269022  1
  O  O37  1  0.816547  0.559291  0.269022  1
  O  O38  1  0.658757  0.768878  0.329289  1
  O  O39  1  0.158757  0.731122  0.329289  1
  O  O40  1  0.675632  0.269962  0.353451  1
  O  O41  1  0.175632  0.230038  0.353451  1
  O  O42  1  0.094216  0.488794  0.393132  1
  O  O43  1  0.594216  0.011206  0.393132  1
  O  O44  1  0.122906  0.958493  0.427653  1
  O  O45  1  0.622906  0.541507  0.427653  1
  O  O46  1  0.419294  0.784474  0.477746  1
  O  O47  1  0.919294  0.715526  0.477746  1
  O  O48  1  0.080706  0.284474  0.522254  1
  O  O49  1  0.580706  0.215526  0.522254  1
  O  O50  1  0.377094  0.458493  0.572347  1
  O  O51  1  0.877094  0.041507  0.572347  1
  O  O52  1  0.405784  0.988794  0.606868  1
  O  O53  1  0.905784  0.511206  0.606868  1
  O  O54  1  0.824368  0.769962  0.646549  1
  O  O55  1  0.324368  0.730038  0.646549  1
  O  O56  1  0.841243  0.268878  0.670711  1
  O  O57  1  0.341243  0.231122  0.670711  1
  O  O58  1  0.183453  0.440709  0.730978  1
  O  O59  1  0.683453  0.059291  0.730978  1
  O  O60  1  0.183453  0.940709  0.769022  1
  O  O61  1  0.683453  0.559291  0.769022  1
  O  O62  1  0.841243  0.768878  0.829289  1
  O  O63  1  0.341243  0.731122  0.829289  1
  O  O64  1  0.824368  0.269962  0.853451  1
  O  O65  1  0.324368  0.230038  0.853451  1
  O  O66  1  0.405784  0.488794  0.893132  1
  O  O67  1  0.905784  0.011206  0.893132  1
  O  O68  1  0.377094  0.958493  0.927653  1
  O  O69  1  0.877094  0.541507  0.927653  1
  O  O70  1  0.080706  0.784474  0.977746  1
  O  O71  1  0.580706  0.715526  0.977746  1
