# generated using pymatgen
data_V6O7F5
_symmetry_space_group_name_H-M   'P 1'
_cell_length_a   4.75274023
_cell_length_b   5.59910358
_cell_length_c   7.77784612
_cell_angle_alpha   84.98136852
_cell_angle_beta   89.13494830
_cell_angle_gamma   87.14414813
_symmetry_Int_Tables_number   1
_chemical_formula_structural   V6O7F5
_chemical_formula_sum   'V6 O7 F5'
_cell_volume   205.91537028
_cell_formula_units_Z   1
loop_
 _symmetry_equiv_pos_site_id
 _symmetry_equiv_pos_as_xyz
  1  'x, y, z'
loop_
 _atom_site_type_symbol
 _atom_site_label
 _atom_site_symmetry_multiplicity
 _atom_site_fract_x
 _atom_site_fract_y
 _atom_site_fract_z
 _atom_site_occupancy
  V  V0  1  0.505487  0.821083  0.672790  1
  V  V1  1  0.468735  0.478869  0.991679  1
  V  V2  1  0.545975  0.191929  0.325054  1
  V  V3  1  0.983400  0.343390  0.673797  1
  V  V4  1  0.985296  0.658335  0.334972  1
  V  V5  1  0.018913  0.005348  0.998462  1
  O  O6  1  0.807003  0.378780  0.434815  1
  O  O7  1  0.706598  0.195435  0.103017  1
  O  O8  1  0.690958  0.531660  0.765594  1
  O  O9  1  0.687571  0.890939  0.428860  1
  O  O10  1  0.307373  0.452553  0.246796  1
  O  O11  1  0.300059  0.796891  0.895051  1
  O  O12  1  0.193957  0.290478  0.893078  1
  F  F13  1  0.801116  0.699355  0.097469  1
  F  F14  1  0.803500  0.030328  0.766752  1
  F  F15  1  0.300782  0.136937  0.566431  1
  F  F16  1  0.201482  0.961228  0.237360  1
  F  F17  1  0.191798  0.636462  0.568025  1
