# generated using pymatgen
data_V2O3F
_symmetry_space_group_name_H-M   'P 1'
_cell_length_a   4.71696558
_cell_length_b   4.71696558
_cell_length_c   9.05050644
_cell_angle_alpha   90.00000000
_cell_angle_beta   90.00000000
_cell_angle_gamma   94.39834235
_symmetry_Int_Tables_number   1
_chemical_formula_structural   V2O3F
_chemical_formula_sum   'V6 O9 F3'
_cell_volume   200.77858963
_cell_formula_units_Z   3
loop_
 _symmetry_equiv_pos_site_id
 _symmetry_equiv_pos_as_xyz
  1  'x, y, z'
loop_
 _atom_site_type_symbol
 _atom_site_label
 _atom_site_symmetry_multiplicity
 _atom_site_fract_x
 _atom_site_fract_y
 _atom_site_fract_z
 _atom_site_occupancy
  V  V0  1  0.997648  0.002352  0.666964  1
  V  V1  1  0.997648  0.002352  0.333036  1
  V  V2  1  0.992302  0.007698  0.000000  1
  V  V3  1  0.448358  0.551642  0.500000  1
  V  V4  1  0.543126  0.456874  0.832619  1
  V  V5  1  0.543126  0.456874  0.167381  1
  O  O6  1  0.800946  0.199054  0.167281  1
  O  O7  1  0.800946  0.199054  0.832719  1
  O  O8  1  0.304479  0.311406  0.666144  1
  O  O9  1  0.304479  0.311406  0.333856  1
  O  O10  1  0.310026  0.304704  1.000000  1
  O  O11  1  0.688594  0.695521  0.666144  1
  O  O12  1  0.688594  0.695521  0.333856  1
  O  O13  1  0.695296  0.689974  1.000000  1
  O  O14  1  0.192062  0.807938  0.500000  1
  F  F15  1  0.800080  0.199920  0.500000  1
  F  F16  1  0.196145  0.803855  0.834004  1
  F  F17  1  0.196145  0.803855  0.165996  1
