# generated using pymatgen
data_Mn3(O2F)2
_symmetry_space_group_name_H-M   'P 1'
_cell_length_a   10.30623388
_cell_length_b   10.30623388
_cell_length_c   3.08295360
_cell_angle_alpha   90.00000000
_cell_angle_beta   90.00000000
_cell_angle_gamma   143.05720213
_symmetry_Int_Tables_number   1
_chemical_formula_structural   Mn3(O2F)2
_chemical_formula_sum   'Mn6 O8 F4'
_cell_volume   196.81310664
_cell_formula_units_Z   2
loop_
 _symmetry_equiv_pos_site_id
 _symmetry_equiv_pos_as_xyz
  1  'x, y, z'
loop_
 _atom_site_type_symbol
 _atom_site_label
 _atom_site_symmetry_multiplicity
 _atom_site_fract_x
 _atom_site_fract_y
 _atom_site_fract_z
 _atom_site_occupancy
  Mn  Mn0  1  0.840041  0.159959  0.000000  1
  Mn  Mn1  1  0.000000  0.000000  0.500000  1
  Mn  Mn2  1  0.340726  0.659274  0.500000  1
  Mn  Mn3  1  0.159959  0.840041  0.000000  1
  Mn  Mn4  1  0.500000  0.500000  1.000000  1
  Mn  Mn5  1  0.659274  0.340726  0.500000  1
  O  O6  1  0.900950  0.099050  0.500000  1
  O  O7  1  0.526061  0.857990  1.000000  1
  O  O8  1  0.142010  0.473939  0.000000  1
  O  O9  1  0.473939  0.142010  0.000000  1
  O  O10  1  0.099050  0.900950  0.500000  1
  O  O11  1  0.436758  0.563242  0.500000  1
  O  O12  1  0.563242  0.436758  0.500000  1
  O  O13  1  0.857990  0.526061  0.000000  1
  F  F14  1  0.807142  0.807142  1.000000  1
  F  F15  1  0.232693  0.767307  0.500000  1
  F  F16  1  0.192858  0.192858  1.000000  1
  F  F17  1  0.767307  0.232693  0.500000  1
