# generated using pymatgen
data_MnOF
_symmetry_space_group_name_H-M   'P 1'
_cell_length_a   4.81745980
_cell_length_b   3.06122962
_cell_length_c   19.09254172
_cell_angle_alpha   90.00000000
_cell_angle_beta   97.10459595
_cell_angle_gamma   90.00000000
_symmetry_Int_Tables_number   1
_chemical_formula_structural   MnOF
_chemical_formula_sum   'Mn8 O8 F8'
_cell_volume   279.40256144
_cell_formula_units_Z   8
loop_
 _symmetry_equiv_pos_site_id
 _symmetry_equiv_pos_as_xyz
  1  'x, y, z'
loop_
 _atom_site_type_symbol
 _atom_site_label
 _atom_site_symmetry_multiplicity
 _atom_site_fract_x
 _atom_site_fract_y
 _atom_site_fract_z
 _atom_site_occupancy
  Mn  Mn0  1  0.946763  0.000000  0.001271  1
  Mn  Mn1  1  0.988337  0.000000  0.748738  1
  Mn  Mn2  1  0.003250  0.000000  0.500627  1
  Mn  Mn3  1  0.028963  0.000000  0.250844  1
  Mn  Mn4  1  0.476158  0.500000  0.872596  1
  Mn  Mn5  1  0.496504  0.500000  0.624558  1
  Mn  Mn6  1  0.511378  0.500000  0.376791  1
  Mn  Mn7  1  0.549159  0.500000  0.125762  1
  O  O8  1  0.799779  0.500000  0.047680  1
  O  O9  1  0.667678  0.000000  0.922341  1
  O  O10  1  0.706124  0.000000  0.424794  1
  O  O11  1  0.689483  0.000000  0.673849  1
  O  O12  1  0.730159  0.000000  0.174350  1
  O  O13  1  0.284422  0.000000  0.824562  1
  O  O14  1  0.302254  0.000000  0.575699  1
  O  O15  1  0.322104  0.000000  0.326435  1
  F  F16  1  0.801041  0.500000  0.797297  1
  F  F17  1  0.812755  0.500000  0.547480  1
  F  F18  1  0.832113  0.500000  0.295635  1
  F  F19  1  0.305632  0.000000  0.075822  1
  F  F20  1  0.153649  0.500000  0.958340  1
  F  F21  1  0.180210  0.500000  0.702271  1
  F  F22  1  0.191811  0.500000  0.452885  1
  F  F23  1  0.220277  0.500000  0.199372  1
