# generated using pymatgen
data_Ba4Br6O
_symmetry_space_group_name_H-M   'P 1'
_cell_length_a   6.30046779
_cell_length_b   12.68487821
_cell_length_c   22.23240458
_cell_angle_alpha   90.00000000
_cell_angle_beta   90.00000000
_cell_angle_gamma   90.00000000
_symmetry_Int_Tables_number   1
_chemical_formula_structural   Ba4Br6O
_chemical_formula_sum   'Ba16 Br24 O4'
_cell_volume   1776.82859376
_cell_formula_units_Z   4
loop_
 _symmetry_equiv_pos_site_id
 _symmetry_equiv_pos_as_xyz
  1  'x, y, z'
loop_
 _atom_site_type_symbol
 _atom_site_label
 _atom_site_symmetry_multiplicity
 _atom_site_fract_x
 _atom_site_fract_y
 _atom_site_fract_z
 _atom_site_occupancy
  Ba  Ba0  1  0.070799  0.522572  0.690301  1
  Ba  Ba1  1  0.470696  0.778392  0.702521  1
  Ba  Ba2  1  0.451666  0.165056  0.574313  1
  Ba  Ba3  1  0.449841  0.588862  0.545392  1
  Ba  Ba4  1  0.949841  0.911138  0.454608  1
  Ba  Ba5  1  0.951666  0.334944  0.425687  1
  Ba  Ba6  1  0.970696  0.721608  0.297479  1
  Ba  Ba7  1  0.570799  0.977428  0.309699  1
  Ba  Ba8  1  0.429201  0.477428  0.190301  1
  Ba  Ba9  1  0.029304  0.221608  0.202521  1
  Ba  Ba10  1  0.048334  0.834944  0.074313  1
  Ba  Ba11  1  0.050159  0.411138  0.045392  1
  Ba  Ba12  1  0.550159  0.088862  0.954608  1
  Ba  Ba13  1  0.548334  0.665056  0.925687  1
  Ba  Ba14  1  0.529304  0.278392  0.797479  1
  Ba  Ba15  1  0.929201  0.022572  0.809699  1
  Br  Br16  1  0.480454  0.048929  0.703044  1
  Br  Br17  1  0.972904  0.765412  0.752233  1
  Br  Br18  1  0.503629  0.376194  0.649921  1
  Br  Br19  1  0.950052  0.488571  0.544098  1
  Br  Br20  1  0.723659  0.804300  0.573537  1
  Br  Br21  1  0.950958  0.152687  0.536892  1
  Br  Br22  1  0.450958  0.347313  0.463108  1
  Br  Br23  1  0.223659  0.695700  0.426463  1
  Br  Br24  1  0.450052  0.011429  0.455902  1
  Br  Br25  1  0.003629  0.123806  0.350079  1
  Br  Br26  1  0.472904  0.734588  0.247767  1
  Br  Br27  1  0.980454  0.451071  0.296956  1
  Br  Br28  1  0.019546  0.951071  0.203044  1
  Br  Br29  1  0.527096  0.234588  0.252233  1
  Br  Br30  1  0.996371  0.623806  0.149921  1
  Br  Br31  1  0.549948  0.511429  0.044098  1
  Br  Br32  1  0.776341  0.195700  0.073537  1
  Br  Br33  1  0.549042  0.847313  0.036892  1
  Br  Br34  1  0.049042  0.652687  0.963108  1
  Br  Br35  1  0.276341  0.304300  0.926463  1
  Br  Br36  1  0.049948  0.988571  0.955902  1
  Br  Br37  1  0.496371  0.876194  0.850079  1
  Br  Br38  1  0.027096  0.265412  0.747767  1
  Br  Br39  1  0.519546  0.548929  0.796956  1
  O  O40  1  0.323834  0.635341  0.644197  1
  O  O41  1  0.823834  0.864659  0.355803  1
  O  O42  1  0.176166  0.364659  0.144197  1
  O  O43  1  0.676166  0.135341  0.855803  1
