# generated using pymatgen
data_LiVF4
_symmetry_space_group_name_H-M   'P 1'
_cell_length_a   5.53528596
_cell_length_b   5.29192596
_cell_length_c   5.92812143
_cell_angle_alpha   90.00000000
_cell_angle_beta   116.21502255
_cell_angle_gamma   90.00000000
_symmetry_Int_Tables_number   1
_chemical_formula_structural   LiVF4
_chemical_formula_sum   'Li2 V2 F8'
_cell_volume   155.78741871
_cell_formula_units_Z   2
loop_
 _symmetry_equiv_pos_site_id
 _symmetry_equiv_pos_as_xyz
  1  'x, y, z'
loop_
 _atom_site_type_symbol
 _atom_site_label
 _atom_site_symmetry_multiplicity
 _atom_site_fract_x
 _atom_site_fract_y
 _atom_site_fract_z
 _atom_site_occupancy
  Li  Li0  1  0.785459  0.821813  0.025894  1
  Li  Li1  1  0.214541  0.321813  0.974106  1
  V  V2  1  0.255071  0.999571  0.504318  1
  V  V3  1  0.744929  0.499571  0.495682  1
  F  F4  1  0.415632  0.918507  0.852912  1
  F  F5  1  0.907085  0.795518  0.406320  1
  F  F6  1  0.410660  0.697851  0.433688  1
  F  F7  1  0.916498  0.587993  0.851297  1
  F  F8  1  0.584368  0.418507  0.147088  1
  F  F9  1  0.092915  0.295518  0.593680  1
  F  F10  1  0.589340  0.197851  0.566312  1
  F  F11  1  0.083502  0.087993  0.148703  1
