# generated using pymatgen
data_Na6Zn3As4H6O19
_symmetry_space_group_name_H-M   'P 1'
_cell_length_a   12.37328441
_cell_length_b   12.37328441
_cell_length_c   12.37328441
_cell_angle_alpha   90.00000000
_cell_angle_beta   90.00000000
_cell_angle_gamma   90.00000000
_symmetry_Int_Tables_number   1
_chemical_formula_structural   Na6Zn3As4H6O19
_chemical_formula_sum   'Na24 Zn12 As16 H24 O76'
_cell_volume   1894.32716406
_cell_formula_units_Z   4
loop_
 _symmetry_equiv_pos_site_id
 _symmetry_equiv_pos_as_xyz
  1  'x, y, z'
loop_
 _atom_site_type_symbol
 _atom_site_label
 _atom_site_symmetry_multiplicity
 _atom_site_fract_x
 _atom_site_fract_y
 _atom_site_fract_z
 _atom_site_occupancy
  Na  Na0  1  0.002645  0.252865  0.578776  1
  Na  Na1  1  0.004507  0.742375  0.326142  1
  Na  Na2  1  0.078776  0.497355  0.747135  1
  Na  Na3  1  0.173858  0.995493  0.242375  1
  Na  Na4  1  0.242375  0.173858  0.995493  1
  Na  Na5  1  0.247135  0.421224  0.502645  1
  Na  Na6  1  0.252865  0.578776  0.002645  1
  Na  Na7  1  0.257625  0.826142  0.495493  1
  Na  Na8  1  0.326142  0.004507  0.742375  1
  Na  Na9  1  0.421224  0.502645  0.247135  1
  Na  Na10  1  0.495493  0.257625  0.826142  1
  Na  Na11  1  0.497355  0.747135  0.078776  1
  Na  Na12  1  0.502645  0.247135  0.421224  1
  Na  Na13  1  0.504507  0.757625  0.673858  1
  Na  Na14  1  0.578776  0.002645  0.252865  1
  Na  Na15  1  0.673858  0.504507  0.757625  1
  Na  Na16  1  0.742375  0.326142  0.004507  1
  Na  Na17  1  0.747135  0.078776  0.497355  1
  Na  Na18  1  0.752865  0.921224  0.997355  1
  Na  Na19  1  0.757625  0.673858  0.504507  1
  Na  Na20  1  0.826142  0.495493  0.257625  1
  Na  Na21  1  0.921224  0.997355  0.752865  1
  Na  Na22  1  0.995493  0.242375  0.173858  1
  Na  Na23  1  0.997355  0.752865  0.921224  1
  Zn  Zn24  1  0.010234  0.752246  0.625017  1
  Zn  Zn25  1  0.125017  0.489766  0.247754  1
  Zn  Zn26  1  0.247754  0.125017  0.489766  1
  Zn  Zn27  1  0.252246  0.874983  0.989766  1
  Zn  Zn28  1  0.374983  0.510234  0.747754  1
  Zn  Zn29  1  0.489766  0.247754  0.125017  1
  Zn  Zn30  1  0.510234  0.747754  0.374983  1
  Zn  Zn31  1  0.625017  0.010234  0.752246  1
  Zn  Zn32  1  0.747754  0.374983  0.510234  1
  Zn  Zn33  1  0.752246  0.625017  0.010234  1
  Zn  Zn34  1  0.874983  0.989766  0.252246  1
  Zn  Zn35  1  0.989766  0.252246  0.874983  1
  As  As36  1  0.017245  0.982755  0.482755  1
  As  As37  1  0.031738  0.031738  0.031738  1
  As  As38  1  0.220993  0.279007  0.720993  1
  As  As39  1  0.230942  0.730942  0.769058  1
  As  As40  1  0.269058  0.269058  0.269058  1
  As  As41  1  0.279007  0.720993  0.220993  1
  As  As42  1  0.468262  0.968262  0.531738  1
  As  As43  1  0.482755  0.017245  0.982755  1
  As  As44  1  0.517245  0.517245  0.517245  1
  As  As45  1  0.531738  0.468262  0.968262  1
  As  As46  1  0.720993  0.220993  0.279007  1
  As  As47  1  0.730942  0.769058  0.230942  1
  As  As48  1  0.769058  0.230942  0.730942  1
  As  As49  1  0.779007  0.779007  0.779007  1
  As  As50  1  0.968262  0.531738  0.468262  1
  As  As51  1  0.982755  0.482755  0.017245  1
  H  H52  1  0.040289  0.178745  0.380287  1
  H  H53  1  0.067840  0.301329  0.375974  1
  H  H54  1  0.124026  0.932160  0.801329  1
  H  H55  1  0.119713  0.959711  0.678745  1
  H  H56  1  0.178745  0.380287  0.040289  1
  H  H57  1  0.198671  0.624026  0.567840  1
  H  H58  1  0.301329  0.375974  0.067840  1
  H  H59  1  0.321255  0.619713  0.540289  1
  H  H60  1  0.380287  0.040289  0.178745  1
  H  H61  1  0.375974  0.067840  0.301329  1
  H  H62  1  0.432160  0.698671  0.875974  1
  H  H63  1  0.459711  0.821255  0.880287  1
  H  H64  1  0.540289  0.321255  0.619713  1
  H  H65  1  0.567840  0.198671  0.624026  1
  H  H66  1  0.624026  0.567840  0.198671  1
  H  H67  1  0.619713  0.540289  0.321255  1
  H  H68  1  0.678745  0.119713  0.959711  1
  H  H69  1  0.698671  0.875974  0.432160  1
  H  H70  1  0.801329  0.124026  0.932160  1
  H  H71  1  0.821255  0.880287  0.459711  1
  H  H72  1  0.880287  0.459711  0.821255  1
  H  H73  1  0.875974  0.432160  0.698671  1
  H  H74  1  0.932160  0.801329  0.124026  1
  H  H75  1  0.959711  0.678745  0.119713  1
  O  O76  1  0.005255  0.251064  0.379159  1
  O  O77  1  0.008528  0.546305  0.334431  1
  O  O78  1  0.046305  0.165569  0.991472  1
  O  O79  1  0.047310  0.452690  0.547310  1
  O  O80  1  0.057349  0.416193  0.116828  1
  O  O81  1  0.061832  0.561832  0.938168  1
  O  O82  1  0.083807  0.883172  0.557349  1
  O  O83  1  0.092490  0.308693  0.770555  1
  O  O84  1  0.116828  0.057349  0.416193  1
  O  O85  1  0.120841  0.994745  0.751064  1
  O  O86  1  0.128242  0.668768  0.695662  1
  O  O87  1  0.165569  0.991472  0.046305  1
  O  O88  1  0.168768  0.804338  0.871758  1
  O  O89  1  0.190461  0.190461  0.190461  1
  O  O90  1  0.191307  0.229445  0.592490  1
  O  O91  1  0.195662  0.371758  0.331232  1
  O  O92  1  0.199816  0.800184  0.300184  1
  O  O93  1  0.229445  0.592490  0.191307  1
  O  O94  1  0.248936  0.620841  0.505255  1
  O  O95  1  0.251064  0.379159  0.005255  1
  O  O96  1  0.270555  0.407510  0.691307  1
  O  O97  1  0.300184  0.199816  0.800184  1
  O  O98  1  0.304338  0.628242  0.831232  1
  O  O99  1  0.308693  0.770555  0.092490  1
  O  O100  1  0.309539  0.809539  0.690461  1
  O  O101  1  0.331232  0.195662  0.371758  1
  O  O102  1  0.334431  0.008528  0.546305  1
  O  O103  1  0.371758  0.331232  0.195662  1
  O  O104  1  0.379159  0.005255  0.251064  1
  O  O105  1  0.383172  0.942651  0.916193  1
  O  O106  1  0.407510  0.691307  0.270555  1
  O  O107  1  0.416193  0.116828  0.057349  1
  O  O108  1  0.438168  0.438168  0.438168  1
  O  O109  1  0.442651  0.583807  0.616828  1
  O  O110  1  0.452690  0.547310  0.047310  1
  O  O111  1  0.453695  0.834431  0.491472  1
  O  O112  1  0.491472  0.453695  0.834431  1
  O  O113  1  0.494745  0.748936  0.879159  1
  O  O114  1  0.505255  0.248936  0.620841  1
  O  O115  1  0.508528  0.953695  0.665569  1
  O  O116  1  0.546305  0.334431  0.008528  1
  O  O117  1  0.547310  0.047310  0.452690  1
  O  O118  1  0.557349  0.083807  0.883172  1
  O  O119  1  0.561832  0.938168  0.061832  1
  O  O120  1  0.583807  0.616828  0.442651  1
  O  O121  1  0.592490  0.191307  0.229445  1
  O  O122  1  0.616828  0.442651  0.583807  1
  O  O123  1  0.620841  0.505255  0.248936  1
  O  O124  1  0.628242  0.831232  0.304338  1
  O  O125  1  0.665569  0.508528  0.953695  1
  O  O126  1  0.668768  0.695662  0.128242  1
  O  O127  1  0.690461  0.309539  0.809539  1
  O  O128  1  0.691307  0.270555  0.407510  1
  O  O129  1  0.695662  0.128242  0.668768  1
  O  O130  1  0.699816  0.699816  0.699816  1
  O  O131  1  0.729445  0.907510  0.808693  1
  O  O132  1  0.748936  0.879159  0.494745  1
  O  O133  1  0.751064  0.120841  0.994745  1
  O  O134  1  0.770555  0.092490  0.308693  1
  O  O135  1  0.800184  0.300184  0.199816  1
  O  O136  1  0.804338  0.871758  0.168768  1
  O  O137  1  0.808693  0.729445  0.907510  1
  O  O138  1  0.809539  0.690461  0.309539  1
  O  O139  1  0.831232  0.304338  0.628242  1
  O  O140  1  0.834431  0.491472  0.453695  1
  O  O141  1  0.871758  0.168768  0.804338  1
  O  O142  1  0.879159  0.494745  0.748936  1
  O  O143  1  0.883172  0.557349  0.083807  1
  O  O144  1  0.907510  0.808693  0.729445  1
  O  O145  1  0.916193  0.383172  0.942651  1
  O  O146  1  0.938168  0.061832  0.561832  1
  O  O147  1  0.942651  0.916193  0.383172  1
  O  O148  1  0.952690  0.952690  0.952690  1
  O  O149  1  0.953695  0.665569  0.508528  1
  O  O150  1  0.991472  0.046305  0.165569  1
  O  O151  1  0.994745  0.751064  0.120841  1
