# generated using pymatgen
data_FeCo(PO4)2
_symmetry_space_group_name_H-M   'P 1'
_cell_length_a   4.82165990
_cell_length_b   5.84796611
_cell_length_c   9.90424859
_cell_angle_alpha   90.00000000
_cell_angle_beta   90.51898333
_cell_angle_gamma   90.00000000
_symmetry_Int_Tables_number   1
_chemical_formula_structural   FeCo(PO4)2
_chemical_formula_sum   'Fe2 Co2 P4 O16'
_cell_volume   279.25768710
_cell_formula_units_Z   2
loop_
 _symmetry_equiv_pos_site_id
 _symmetry_equiv_pos_as_xyz
  1  'x, y, z'
loop_
 _atom_site_type_symbol
 _atom_site_label
 _atom_site_symmetry_multiplicity
 _atom_site_fract_x
 _atom_site_fract_y
 _atom_site_fract_z
 _atom_site_occupancy
  Fe  Fe0  1  0.462831  0.750000  0.224855  1
  Fe  Fe1  1  0.537169  0.250000  0.775145  1
  Co  Co2  1  0.938677  0.250000  0.281907  1
  Co  Co3  1  0.061323  0.750000  0.718093  1
  P  P4  1  0.410819  0.250000  0.100907  1
  P  P5  1  0.923616  0.750000  0.407662  1
  P  P6  1  0.076384  0.250000  0.592338  1
  P  P7  1  0.589181  0.750000  0.899093  1
  O  O8  1  0.650762  0.750000  0.050875  1
  O  O9  1  0.730601  0.250000  0.117817  1
  O  O10  1  0.268279  0.044089  0.174130  1
  O  O11  1  0.268279  0.455911  0.174130  1
  O  O12  1  0.772722  0.953051  0.328742  1
  O  O13  1  0.772722  0.546949  0.328742  1
  O  O14  1  0.234946  0.750000  0.388812  1
  O  O15  1  0.161118  0.250000  0.443439  1
  O  O16  1  0.838882  0.750000  0.556561  1
  O  O17  1  0.765054  0.250000  0.611188  1
  O  O18  1  0.227278  0.046949  0.671258  1
  O  O19  1  0.227278  0.453051  0.671258  1
  O  O20  1  0.731721  0.544089  0.825870  1
  O  O21  1  0.731721  0.955911  0.825870  1
  O  O22  1  0.269399  0.750000  0.882183  1
  O  O23  1  0.349238  0.250000  0.949125  1
