# generated using pymatgen
data_Na2(NiO2)5
_symmetry_space_group_name_H-M   'P 1'
_cell_length_a   4.90126187
_cell_length_b   6.52849969
_cell_length_c   7.09681682
_cell_angle_alpha   113.14486952
_cell_angle_beta   96.52383684
_cell_angle_gamma   103.84405723
_symmetry_Int_Tables_number   1
_chemical_formula_structural   Na2(NiO2)5
_chemical_formula_sum   'Na2 Ni5 O10'
_cell_volume   197.17967450
_cell_formula_units_Z   1
loop_
 _symmetry_equiv_pos_site_id
 _symmetry_equiv_pos_as_xyz
  1  'x, y, z'
loop_
 _atom_site_type_symbol
 _atom_site_label
 _atom_site_symmetry_multiplicity
 _atom_site_fract_x
 _atom_site_fract_y
 _atom_site_fract_z
 _atom_site_occupancy
  Na  Na0  1  0.618597  0.227253  0.728170  1
  Na  Na1  1  0.381403  0.772747  0.271830  1
  Ni  Ni2  1  0.601161  0.700526  0.697242  1
  Ni  Ni3  1  0.000000  0.500000  0.500000  1
  Ni  Ni4  1  0.398839  0.299474  0.302758  1
  Ni  Ni5  1  0.799137  0.098707  0.103732  1
  Ni  Ni6  1  0.200863  0.901293  0.896268  1
  O  O7  1  0.672910  0.600206  0.426032  1
  O  O8  1  0.327090  0.399794  0.573968  1
  O  O9  1  0.686060  0.182259  0.371320  1
  O  O10  1  0.092924  0.407235  0.237309  1
  O  O11  1  0.313940  0.817741  0.628680  1
  O  O12  1  0.907076  0.592765  0.762691  1
  O  O13  1  0.111889  0.001149  0.176173  1
  O  O14  1  0.495885  0.208770  0.037743  1
  O  O15  1  0.888111  0.998851  0.823827  1
  O  O16  1  0.504115  0.791230  0.962257  1
