# generated using pymatgen
data_Li2TiV2O6
_symmetry_space_group_name_H-M   'P 1'
_cell_length_a   5.18004454
_cell_length_b   5.18004454
_cell_length_c   10.22158094
_cell_angle_alpha   90.00000000
_cell_angle_beta   90.00000000
_cell_angle_gamma   119.03171990
_symmetry_Int_Tables_number   1
_chemical_formula_structural   Li2TiV2O6
_chemical_formula_sum   'Li4 Ti2 V4 O12'
_cell_volume   239.81202542
_cell_formula_units_Z   2
loop_
 _symmetry_equiv_pos_site_id
 _symmetry_equiv_pos_as_xyz
  1  'x, y, z'
loop_
 _atom_site_type_symbol
 _atom_site_label
 _atom_site_symmetry_multiplicity
 _atom_site_fract_x
 _atom_site_fract_y
 _atom_site_fract_z
 _atom_site_occupancy
  Li  Li0  1  0.629649  0.129649  0.750000  1
  Li  Li1  1  0.870351  0.370351  0.250000  1
  Li  Li2  1  0.129649  0.629649  0.750000  1
  Li  Li3  1  0.370351  0.870351  0.250000  1
  Ti  Ti4  1  0.000000  0.000000  0.000000  1
  Ti  Ti5  1  0.500000  0.500000  0.500000  1
  V  V6  1  0.837637  0.162363  0.500000  1
  V  V7  1  0.662363  0.337636  0.000000  1
  V  V8  1  0.337636  0.662364  0.000000  1
  V  V9  1  0.162363  0.837636  0.500000  1
  O  O10  1  0.679069  0.015627  0.106547  1
  O  O11  1  0.320931  0.984373  0.893453  1
  O  O12  1  0.515627  0.179069  0.393453  1
  O  O13  1  0.820931  0.484373  0.606547  1
  O  O14  1  0.178245  0.178245  0.599183  1
  O  O15  1  0.321755  0.321755  0.099183  1
  O  O16  1  0.678245  0.678245  0.900817  1
  O  O17  1  0.984373  0.320931  0.893453  1
  O  O18  1  0.821755  0.821755  0.400817  1
  O  O19  1  0.179069  0.515627  0.393453  1
  O  O20  1  0.484373  0.820931  0.606547  1
  O  O21  1  0.015627  0.679069  0.106547  1
