# generated using pymatgen
data_VOF
_symmetry_space_group_name_H-M   'P 1'
_cell_length_a   5.10047235
_cell_length_b   5.00255960
_cell_length_c   5.19481666
_cell_angle_alpha   90.00000000
_cell_angle_beta   101.75231594
_cell_angle_gamma   90.00000000
_symmetry_Int_Tables_number   1
_chemical_formula_structural   VOF
_chemical_formula_sum   'V4 O4 F4'
_cell_volume   129.76934301
_cell_formula_units_Z   4
loop_
 _symmetry_equiv_pos_site_id
 _symmetry_equiv_pos_as_xyz
  1  'x, y, z'
loop_
 _atom_site_type_symbol
 _atom_site_label
 _atom_site_symmetry_multiplicity
 _atom_site_fract_x
 _atom_site_fract_y
 _atom_site_fract_z
 _atom_site_occupancy
  V  V0  1  0.296557  0.531036  0.695970  1
  V  V1  1  0.796557  0.968964  0.695970  1
  V  V2  1  0.203443  0.031036  0.304030  1
  V  V3  1  0.703443  0.468964  0.304030  1
  O  O4  1  0.009197  0.254586  0.542126  1
  O  O5  1  0.509197  0.245414  0.542126  1
  O  O6  1  0.490803  0.754586  0.457874  1
  O  O7  1  0.990803  0.745414  0.457874  1
  F  F8  1  0.152533  0.818604  0.944386  1
  F  F9  1  0.652533  0.681396  0.944386  1
  F  F10  1  0.347467  0.318604  0.055614  1
  F  F11  1  0.847467  0.181396  0.055614  1
