# generated using pymatgen
data_Si6Bi9O26
_symmetry_space_group_name_H-M   'P 1'
_cell_length_a   9.76722198
_cell_length_b   9.76722198
_cell_length_c   14.09803538
_cell_angle_alpha   90.00000000
_cell_angle_beta   90.00000000
_cell_angle_gamma   120.00000000
_symmetry_Int_Tables_number   1
_chemical_formula_structural   Si6Bi9O26
_chemical_formula_sum   'Si12 Bi18 O52'
_cell_volume   1164.74631341
_cell_formula_units_Z   2
loop_
 _symmetry_equiv_pos_site_id
 _symmetry_equiv_pos_as_xyz
  1  'x, y, z'
loop_
 _atom_site_type_symbol
 _atom_site_label
 _atom_site_symmetry_multiplicity
 _atom_site_fract_x
 _atom_site_fract_y
 _atom_site_fract_z
 _atom_site_occupancy
  Si  Si0  1  0.625702  0.601110  0.874992  1
  Si  Si1  1  0.625592  0.599391  0.372328  1
  Si  Si2  1  0.601110  0.975408  0.125008  1
  Si  Si3  1  0.599391  0.973799  0.627672  1
  Si  Si4  1  0.026201  0.625592  0.627672  1
  Si  Si5  1  0.024592  0.625702  0.125008  1
  Si  Si6  1  0.975408  0.374298  0.874992  1
  Si  Si7  1  0.973799  0.374408  0.372328  1
  Si  Si8  1  0.400609  0.026201  0.372328  1
  Si  Si9  1  0.398890  0.024592  0.874992  1
  Si  Si10  1  0.374408  0.400609  0.627672  1
  Si  Si11  1  0.374298  0.398890  0.125008  1
  Bi  Bi12  1  0.233266  0.987884  0.126058  1
  Bi  Bi13  1  0.226896  0.984755  0.626685  1
  Bi  Bi14  1  0.984755  0.757859  0.373315  1
  Bi  Bi15  1  0.987884  0.754619  0.873942  1
  Bi  Bi16  1  0.245381  0.233266  0.873942  1
  Bi  Bi17  1  0.242141  0.226896  0.373315  1
  Bi  Bi18  1  0.333333  0.666667  0.259549  1
  Bi  Bi19  1  0.666667  0.333333  0.478990  1
  Bi  Bi20  1  0.666667  0.333333  0.029201  1
  Bi  Bi21  1  0.333333  0.666667  0.521010  1
  Bi  Bi22  1  0.333333  0.666667  0.970799  1
  Bi  Bi23  1  0.666667  0.333333  0.740451  1
  Bi  Bi24  1  0.757859  0.773104  0.626685  1
  Bi  Bi25  1  0.754619  0.766734  0.126058  1
  Bi  Bi26  1  0.012116  0.245381  0.126058  1
  Bi  Bi27  1  0.015245  0.242141  0.626685  1
  Bi  Bi28  1  0.773104  0.015245  0.373315  1
  Bi  Bi29  1  0.766734  0.012116  0.873942  1
  O  O30  1  0.757768  0.683660  0.286159  1
  O  O31  1  0.751653  0.662360  0.784381  1
  O  O32  1  0.751854  0.658528  0.965527  1
  O  O33  1  0.750276  0.656636  0.464254  1
  O  O34  1  0.074108  0.757768  0.713841  1
  O  O35  1  0.089292  0.751653  0.215619  1
  O  O36  1  0.093326  0.751854  0.034473  1
  O  O37  1  0.093640  0.750276  0.535746  1
  O  O38  1  0.407043  0.885730  0.130208  1
  O  O39  1  0.335216  0.836088  0.372646  1
  O  O40  1  0.314439  0.833272  0.876683  1
  O  O41  1  0.405311  0.877474  0.621938  1
  O  O42  1  0.521312  0.407043  0.869792  1
  O  O43  1  0.527837  0.405311  0.378062  1
  O  O44  1  0.833272  0.518834  0.123317  1
  O  O45  1  0.499129  0.335216  0.627354  1
  O  O46  1  0.836088  0.500871  0.627354  1
  O  O47  1  0.658528  0.906674  0.034473  1
  O  O48  1  0.683660  0.925892  0.713841  1
  O  O49  1  0.662360  0.910708  0.215619  1
  O  O50  1  0.481166  0.314439  0.123317  1
  O  O51  1  0.656636  0.906360  0.535746  1
  O  O52  1  0.885730  0.478688  0.869792  1
  O  O53  1  0.877474  0.472163  0.378062  1
  O  O54  1  0.000000  0.000000  0.378927  1
  O  O55  1  0.000000  0.000000  0.126935  1
  O  O56  1  0.000000  0.000000  0.873065  1
  O  O57  1  0.000000  0.000000  0.621073  1
  O  O58  1  0.122526  0.527837  0.621938  1
  O  O59  1  0.114270  0.521312  0.130208  1
  O  O60  1  0.343364  0.093640  0.464254  1
  O  O61  1  0.518834  0.685561  0.876683  1
  O  O62  1  0.337640  0.089292  0.784381  1
  O  O63  1  0.316340  0.074108  0.286159  1
  O  O64  1  0.341472  0.093326  0.965527  1
  O  O65  1  0.163912  0.499129  0.372646  1
  O  O66  1  0.500871  0.664784  0.372646  1
  O  O67  1  0.166728  0.481166  0.876683  1
  O  O68  1  0.472163  0.594689  0.621938  1
  O  O69  1  0.478688  0.592957  0.130208  1
  O  O70  1  0.594689  0.122526  0.378062  1
  O  O71  1  0.685561  0.166728  0.123317  1
  O  O72  1  0.664784  0.163912  0.627354  1
  O  O73  1  0.592957  0.114270  0.869792  1
  O  O74  1  0.906360  0.249724  0.464254  1
  O  O75  1  0.906674  0.248146  0.965527  1
  O  O76  1  0.910708  0.248347  0.784381  1
  O  O77  1  0.925892  0.242232  0.286159  1
  O  O78  1  0.249724  0.343364  0.535746  1
  O  O79  1  0.248146  0.341472  0.034473  1
  O  O80  1  0.248347  0.337640  0.215619  1
  O  O81  1  0.242232  0.316340  0.713841  1
