# generated using pymatgen
data_Li3V2(O2F)2
_symmetry_space_group_name_H-M   'P 1'
_cell_length_a   5.21634787
_cell_length_b   5.95862852
_cell_length_c   14.93876468
_cell_angle_alpha   90.75004028
_cell_angle_beta   90.76523054
_cell_angle_gamma   90.96686174
_symmetry_Int_Tables_number   1
_chemical_formula_structural   Li3V2(O2F)2
_chemical_formula_sum   'Li12 V8 O16 F8'
_cell_volume   464.18216151
_cell_formula_units_Z   4
loop_
 _symmetry_equiv_pos_site_id
 _symmetry_equiv_pos_as_xyz
  1  'x, y, z'
loop_
 _atom_site_type_symbol
 _atom_site_label
 _atom_site_symmetry_multiplicity
 _atom_site_fract_x
 _atom_site_fract_y
 _atom_site_fract_z
 _atom_site_occupancy
  Li  Li0  1  0.683446  0.976688  0.828389  1
  Li  Li1  1  0.660028  0.999888  0.331680  1
  Li  Li2  1  0.313225  0.995360  0.691189  1
  Li  Li3  1  0.154058  0.745295  0.332990  1
  Li  Li4  1  0.127541  0.756798  0.827801  1
  Li  Li5  1  0.508344  0.750456  0.956305  1
  Li  Li6  1  0.973351  0.504742  0.966879  1
  Li  Li7  1  0.377331  0.508067  0.708232  1
  Li  Li8  1  0.148243  0.240542  0.844507  1
  Li  Li9  1  0.155033  0.256585  0.333321  1
  Li  Li10  1  0.516794  0.248340  0.961842  1
  Li  Li11  1  0.839517  0.274471  0.708698  1
  V  V12  1  0.996801  0.000960  0.501220  1
  V  V13  1  0.329084  0.999322  0.162296  1
  V  V14  1  0.499935  0.747480  0.497315  1
  V  V15  1  0.824788  0.745615  0.168588  1
  V  V16  1  0.000320  0.501630  0.503258  1
  V  V17  1  0.338923  0.499541  0.172272  1
  V  V18  1  0.501525  0.250942  0.494381  1
  V  V19  1  0.835195  0.248134  0.168506  1
  O  O20  1  0.661580  0.021326  0.561530  1
  O  O21  1  0.657820  0.992698  0.102320  1
  O  O22  1  0.995943  0.986796  0.242423  1
  O  O23  1  0.328658  0.996859  0.421929  1
  O  O24  1  0.174283  0.755969  0.565565  1
  O  O25  1  0.166100  0.756839  0.105343  1
  O  O26  1  0.503972  0.762219  0.240417  1
  O  O27  1  0.845010  0.769538  0.427326  1
  O  O28  1  0.661841  0.496158  0.562987  1
  O  O29  1  0.681565  0.516320  0.100474  1
  O  O30  1  0.004102  0.501998  0.242198  1
  O  O31  1  0.323641  0.478850  0.425759  1
  O  O32  1  0.173413  0.229130  0.565509  1
  O  O33  1  0.167877  0.250100  0.104245  1
  O  O34  1  0.489419  0.229797  0.239511  1
  O  O35  1  0.833339  0.242244  0.427053  1
  F  F36  1  0.002185  0.019473  0.756132  1
  F  F37  1  0.359777  0.003876  0.907485  1
  F  F38  1  0.469998  0.774320  0.754621  1
  F  F39  1  0.837418  0.752758  0.913236  1
  F  F40  1  0.054941  0.485314  0.755895  1
  F  F41  1  0.313552  0.493501  0.930796  1
  F  F42  1  0.505985  0.235375  0.738266  1
  F  F43  1  0.837433  0.247684  0.915977  1
