# generated using pymatgen
data_Fe10O11F9
_symmetry_space_group_name_H-M   'P 1'
_cell_length_a   4.73659402
_cell_length_b   15.32941639
_cell_length_c   4.74183219
_cell_angle_alpha   90.00000000
_cell_angle_beta   92.25517009
_cell_angle_gamma   90.00000000
_symmetry_Int_Tables_number   1
_chemical_formula_structural   Fe10O11F9
_chemical_formula_sum   'Fe10 O11 F9'
_cell_volume   344.03408124
_cell_formula_units_Z   1
loop_
 _symmetry_equiv_pos_site_id
 _symmetry_equiv_pos_as_xyz
  1  'x, y, z'
loop_
 _atom_site_type_symbol
 _atom_site_label
 _atom_site_symmetry_multiplicity
 _atom_site_fract_x
 _atom_site_fract_y
 _atom_site_fract_z
 _atom_site_occupancy
  Fe  Fe0  1  0.998308  0.395920  0.014805  1
  Fe  Fe1  1  0.998308  0.604080  0.014805  1
  Fe  Fe2  1  0.947913  0.801322  0.992640  1
  Fe  Fe3  1  0.009614  0.000000  0.054129  1
  Fe  Fe4  1  0.947913  0.198678  0.992640  1
  Fe  Fe5  1  0.497515  0.500000  0.509233  1
  Fe  Fe6  1  0.518614  0.898308  0.479380  1
  Fe  Fe7  1  0.532741  0.692471  0.488098  1
  Fe  Fe8  1  0.518614  0.101692  0.479380  1
  Fe  Fe9  1  0.532741  0.307529  0.488098  1
  O  O10  1  0.805070  0.698420  0.184865  1
  O  O11  1  0.806116  0.899943  0.195797  1
  O  O12  1  0.806116  0.100057  0.195797  1
  O  O13  1  0.805070  0.301580  0.184865  1
  O  O14  1  0.697260  0.407131  0.702028  1
  O  O15  1  0.697260  0.592869  0.702028  1
  O  O16  1  0.681314  0.797926  0.676819  1
  O  O17  1  0.681314  0.202074  0.676819  1
  O  O18  1  0.308048  0.405744  0.312202  1
  O  O19  1  0.308048  0.594256  0.312202  1
  O  O20  1  0.321385  0.000000  0.325097  1
  F  F21  1  0.813124  0.500000  0.201323  1
  F  F22  1  0.710879  0.000000  0.708920  1
  F  F23  1  0.294401  0.797416  0.287343  1
  F  F24  1  0.294401  0.202584  0.287343  1
  F  F25  1  0.190261  0.500000  0.820817  1
  F  F26  1  0.195730  0.899698  0.807211  1
  F  F27  1  0.193095  0.700694  0.799053  1
  F  F28  1  0.193095  0.299306  0.799053  1
  F  F29  1  0.195730  0.100302  0.807211  1
