# generated using pymatgen
data_Fe6OF11
_symmetry_space_group_name_H-M   'P 1'
_cell_length_a   4.83752860
_cell_length_b   4.83752860
_cell_length_c   9.69334408
_cell_angle_alpha   90.00000000
_cell_angle_beta   90.00000000
_cell_angle_gamma   90.45955295
_symmetry_Int_Tables_number   1
_chemical_formula_structural   Fe6OF11
_chemical_formula_sum   'Fe6 O1 F11'
_cell_volume   226.83326853
_cell_formula_units_Z   1
loop_
 _symmetry_equiv_pos_site_id
 _symmetry_equiv_pos_as_xyz
  1  'x, y, z'
loop_
 _atom_site_type_symbol
 _atom_site_label
 _atom_site_symmetry_multiplicity
 _atom_site_fract_x
 _atom_site_fract_y
 _atom_site_fract_z
 _atom_site_occupancy
  Fe  Fe0  1  0.009414  0.009414  0.651407  1
  Fe  Fe1  1  0.009414  0.009414  0.348593  1
  Fe  Fe2  1  0.000147  0.000147  1.000000  1
  Fe  Fe3  1  0.480626  0.480626  0.500000  1
  Fe  Fe4  1  0.503602  0.503602  0.831847  1
  Fe  Fe5  1  0.503602  0.503602  0.168153  1
  O  O6  1  0.194210  0.194210  0.500000  1
  F  F7  1  0.199090  0.199090  0.172166  1
  F  F8  1  0.199090  0.199090  0.827834  1
  F  F9  1  0.706274  0.292938  0.669841  1
  F  F10  1  0.706274  0.292938  0.330159  1
  F  F11  1  0.703535  0.300043  0.000000  1
  F  F12  1  0.292938  0.706274  0.669841  1
  F  F13  1  0.292938  0.706274  0.330159  1
  F  F14  1  0.300043  0.703535  0.000000  1
  F  F15  1  0.785784  0.785784  0.500000  1
  F  F16  1  0.806511  0.806511  0.825616  1
  F  F17  1  0.806511  0.806511  0.174384  1
