# generated using pymatgen
data_Li4Ti3Fe2Sn3O16
_symmetry_space_group_name_H-M   'P 1'
_cell_length_a   6.14371744
_cell_length_b   6.14371744
_cell_length_c   9.93491888
_cell_angle_alpha   89.17405231
_cell_angle_beta   90.82594769
_cell_angle_gamma   120.13151766
_symmetry_Int_Tables_number   1
_chemical_formula_structural   Li4Ti3Fe2Sn3O16
_chemical_formula_sum   'Li4 Ti3 Fe2 Sn3 O16'
_cell_volume   324.28006681
_cell_formula_units_Z   1
loop_
 _symmetry_equiv_pos_site_id
 _symmetry_equiv_pos_as_xyz
  1  'x, y, z'
loop_
 _atom_site_type_symbol
 _atom_site_label
 _atom_site_symmetry_multiplicity
 _atom_site_fract_x
 _atom_site_fract_y
 _atom_site_fract_z
 _atom_site_occupancy
  Li  Li0  1  0.668452  0.331548  0.113553  1
  Li  Li1  1  0.991012  0.008988  0.003471  1
  Li  Li2  1  0.993978  0.006022  0.498483  1
  Li  Li3  1  0.334694  0.665306  0.608748  1
  Ti  Ti4  1  0.830913  0.169087  0.782310  1
  Ti  Ti5  1  0.167046  0.337062  0.284084  1
  Ti  Ti6  1  0.662938  0.832954  0.284084  1
  Fe  Fe7  1  0.668285  0.331715  0.502534  1
  Fe  Fe8  1  0.335428  0.664572  0.007619  1
  Sn  Sn9  1  0.830204  0.662401  0.785844  1
  Sn  Sn10  1  0.337599  0.169796  0.785844  1
  Sn  Sn11  1  0.169410  0.830590  0.286568  1
  O  O12  1  0.837766  0.687804  0.396223  1
  O  O13  1  0.515403  0.484597  0.663502  1
  O  O14  1  0.674686  0.325314  0.901290  1
  O  O15  1  0.993488  0.006512  0.680504  1
  O  O16  1  0.993514  0.006486  0.185229  1
  O  O17  1  0.312196  0.162234  0.396223  1
  O  O18  1  0.967094  0.475378  0.668567  1
  O  O19  1  0.524622  0.032906  0.668567  1
  O  O20  1  0.155982  0.844018  0.903591  1
  O  O21  1  0.844316  0.155684  0.386434  1
  O  O22  1  0.494229  0.966137  0.170862  1
  O  O23  1  0.033863  0.505771  0.170862  1
  O  O24  1  0.343775  0.656225  0.396564  1
  O  O25  1  0.685500  0.852344  0.893861  1
  O  O26  1  0.480634  0.519366  0.174845  1
  O  O27  1  0.147656  0.314500  0.893861  1
