# generated using pymatgen
data_LiCo6O7
_symmetry_space_group_name_H-M   'P 1'
_cell_length_a   5.20516427
_cell_length_b   5.20516427
_cell_length_c   5.20516427
_cell_angle_alpha   99.29317086
_cell_angle_beta   99.29317086
_cell_angle_gamma   99.29317086
_symmetry_Int_Tables_number   1
_chemical_formula_structural   LiCo6O7
_chemical_formula_sum   'Li1 Co6 O7'
_cell_volume   134.77848277
_cell_formula_units_Z   1
loop_
 _symmetry_equiv_pos_site_id
 _symmetry_equiv_pos_as_xyz
  1  'x, y, z'
loop_
 _atom_site_type_symbol
 _atom_site_label
 _atom_site_symmetry_multiplicity
 _atom_site_fract_x
 _atom_site_fract_y
 _atom_site_fract_z
 _atom_site_occupancy
  Li  Li0  1  0.000000  0.000000  0.000000  1
  Co  Co1  1  0.859975  0.717396  0.429638  1
  Co  Co2  1  0.429638  0.859975  0.717396  1
  Co  Co3  1  0.282604  0.570362  0.140025  1
  Co  Co4  1  0.717396  0.429638  0.859975  1
  Co  Co5  1  0.140025  0.282604  0.570362  1
  Co  Co6  1  0.570362  0.140025  0.282604  1
  O  O7  1  0.220790  0.928876  0.366674  1
  O  O8  1  0.500000  0.500000  0.500000  1
  O  O9  1  0.633326  0.779210  0.071124  1
  O  O10  1  0.779210  0.071124  0.633326  1
  O  O11  1  0.071124  0.633326  0.779210  1
  O  O12  1  0.928876  0.366674  0.220790  1
  O  O13  1  0.366674  0.220790  0.928876  1
