# generated using pymatgen
data_KAl2P2H5O11
_symmetry_space_group_name_H-M   'P 1'
_cell_length_a   9.28933227
_cell_length_b   9.79694514
_cell_length_c   9.89082451
_cell_angle_alpha   90.00000000
_cell_angle_beta   90.00000000
_cell_angle_gamma   90.00000000
_symmetry_Int_Tables_number   1
_chemical_formula_structural   KAl2P2H5O11
_chemical_formula_sum   'K4 Al8 P8 H20 O44'
_cell_volume   900.13504396
_cell_formula_units_Z   4
loop_
 _symmetry_equiv_pos_site_id
 _symmetry_equiv_pos_as_xyz
  1  'x, y, z'
loop_
 _atom_site_type_symbol
 _atom_site_label
 _atom_site_symmetry_multiplicity
 _atom_site_fract_x
 _atom_site_fract_y
 _atom_site_fract_z
 _atom_site_occupancy
  K  K0  1  0.761007  0.451893  0.153153  1
  K  K1  1  0.738993  0.548107  0.653153  1
  K  K2  1  0.261007  0.048107  0.846847  1
  K  K3  1  0.238993  0.951893  0.346847  1
  Al  Al4  1  0.590793  0.762874  0.355467  1
  Al  Al5  1  0.909207  0.237126  0.855467  1
  Al  Al6  1  0.090793  0.737126  0.644533  1
  Al  Al7  1  0.409207  0.262874  0.144533  1
  Al  Al8  1  0.145018  0.500008  0.192487  1
  Al  Al9  1  0.354982  0.499992  0.692487  1
  Al  Al10  1  0.645018  0.999992  0.807513  1
  Al  Al11  1  0.854982  0.000008  0.307513  1
  P  P12  1  0.918053  0.696547  0.360039  1
  P  P13  1  0.581947  0.303453  0.860039  1
  P  P14  1  0.418053  0.803453  0.639961  1
  P  P15  1  0.081947  0.196547  0.139961  1
  P  P16  1  0.417274  0.472755  0.374899  1
  P  P17  1  0.082726  0.527245  0.874899  1
  P  P18  1  0.917274  0.027245  0.625101  1
  P  P19  1  0.582726  0.972755  0.125101  1
  H  H20  1  0.779308  0.244767  0.394376  1
  H  H21  1  0.720692  0.755233  0.894376  1
  H  H22  1  0.279308  0.255233  0.605624  1
  H  H23  1  0.220692  0.744767  0.105624  1
  H  H24  1  0.651930  0.169550  0.303271  1
  H  H25  1  0.848070  0.830450  0.803271  1
  H  H26  1  0.151930  0.330450  0.696729  1
  H  H27  1  0.348070  0.669550  0.196729  1
  H  H28  1  0.561257  0.701689  0.050626  1
  H  H29  1  0.938743  0.298311  0.550626  1
  H  H30  1  0.061257  0.798311  0.949374  1
  H  H31  1  0.438743  0.201689  0.449374  1
  H  H32  1  0.552217  0.603554  0.925233  1
  H  H33  1  0.947783  0.396446  0.425233  1
  H  H34  1  0.052217  0.896446  0.074767  1
  H  H35  1  0.447783  0.103554  0.574767  1
  H  H36  1  0.692257  0.951795  0.493710  1
  H  H37  1  0.807743  0.048205  0.993710  1
  H  H38  1  0.192257  0.548205  0.506290  1
  H  H39  1  0.307743  0.451795  0.006290  1
  O  O40  1  0.050501  0.331068  0.213967  1
  O  O41  1  0.449499  0.668932  0.713967  1
  O  O42  1  0.550501  0.168932  0.786033  1
  O  O43  1  0.949499  0.831068  0.286033  1
  O  O44  1  0.754030  0.659791  0.359061  1
  O  O45  1  0.745970  0.340209  0.859061  1
  O  O46  1  0.254030  0.840209  0.640939  1
  O  O47  1  0.245970  0.159791  0.140939  1
  O  O48  1  0.535955  0.293434  0.010191  1
  O  O49  1  0.964045  0.706566  0.510191  1
  O  O50  1  0.035955  0.206566  0.989809  1
  O  O51  1  0.464045  0.793434  0.489809  1
  O  O52  1  0.993277  0.576840  0.290223  1
  O  O53  1  0.506723  0.423160  0.790223  1
  O  O54  1  0.493277  0.923160  0.709777  1
  O  O55  1  0.006723  0.076840  0.209777  1
  O  O56  1  0.251473  0.479833  0.356433  1
  O  O57  1  0.248527  0.520167  0.856433  1
  O  O58  1  0.751473  0.020167  0.643567  1
  O  O59  1  0.748527  0.979833  0.143567  1
  O  O60  1  0.472195  0.338177  0.303679  1
  O  O61  1  0.027805  0.661823  0.803679  1
  O  O62  1  0.972195  0.161823  0.696321  1
  O  O63  1  0.527805  0.838177  0.196321  1
  O  O64  1  0.045521  0.537351  0.025740  1
  O  O65  1  0.454479  0.462649  0.525740  1
  O  O66  1  0.545521  0.962649  0.974260  1
  O  O67  1  0.954479  0.037351  0.474260  1
  O  O68  1  0.491865  0.596893  0.306521  1
  O  O69  1  0.008135  0.403107  0.806521  1
  O  O70  1  0.991865  0.903107  0.693479  1
  O  O71  1  0.508135  0.096893  0.193479  1
  O  O72  1  0.697593  0.919044  0.398933  1
  O  O73  1  0.802407  0.080956  0.898933  1
  O  O74  1  0.197593  0.580956  0.601067  1
  O  O75  1  0.302407  0.419044  0.101067  1
  O  O76  1  0.756345  0.180299  0.318952  1
  O  O77  1  0.743655  0.819701  0.818952  1
  O  O78  1  0.256345  0.319701  0.681048  1
  O  O79  1  0.243655  0.680299  0.181048  1
  O  O80  1  0.619552  0.643002  0.991191  1
  O  O81  1  0.880448  0.356998  0.491191  1
  O  O82  1  0.119552  0.856998  0.008809  1
  O  O83  1  0.380448  0.143002  0.508809  1
