# generated using pymatgen
data_Li3Ti2(PO4)3
_symmetry_space_group_name_H-M   'P 1'
_cell_length_a   9.84293424
_cell_length_b   9.84293424
_cell_length_c   9.82348186
_cell_angle_alpha   85.73049929
_cell_angle_beta   94.26950071
_cell_angle_gamma   94.76083563
_symmetry_Int_Tables_number   1
_chemical_formula_structural   Li3Ti2(PO4)3
_chemical_formula_sum   'Li12 Ti8 P12 O48'
_cell_volume   943.58184113
_cell_formula_units_Z   4
loop_
 _symmetry_equiv_pos_site_id
 _symmetry_equiv_pos_as_xyz
  1  'x, y, z'
loop_
 _atom_site_type_symbol
 _atom_site_label
 _atom_site_symmetry_multiplicity
 _atom_site_fract_x
 _atom_site_fract_y
 _atom_site_fract_z
 _atom_site_occupancy
  Li  Li0  1  0.989061  0.494969  0.771197  1
  Li  Li1  1  0.625086  0.250781  0.202500  1
  Li  Li2  1  0.787244  0.444449  0.532500  1
  Li  Li3  1  0.763208  0.263723  0.817532  1
  Li  Li4  1  0.292861  0.065212  0.024453  1
  Li  Li5  1  0.000566  0.741347  0.604599  1
  Li  Li6  1  0.741347  0.000566  0.395401  1
  Li  Li7  1  0.065212  0.292861  0.975547  1
  Li  Li8  1  0.263723  0.763208  0.182468  1
  Li  Li9  1  0.444449  0.787244  0.467500  1
  Li  Li10  1  0.250781  0.625086  0.797500  1
  Li  Li11  1  0.494969  0.989061  0.228803  1
  Ti  Ti12  1  0.964712  0.748990  0.212346  1
  Ti  Ti13  1  0.251523  0.040455  0.711237  1
  Ti  Ti14  1  0.464348  0.464348  0.500000  1
  Ti  Ti15  1  0.251608  0.251608  0.500000  1
  Ti  Ti16  1  0.751532  0.751532  0.000000  1
  Ti  Ti17  1  0.537860  0.537860  0.000000  1
  Ti  Ti18  1  0.040455  0.251523  0.288763  1
  Ti  Ti19  1  0.748990  0.964712  0.787654  1
  P  P20  1  0.827437  0.057381  0.098676  1
  P  P21  1  0.945416  0.179407  0.597157  1
  P  P22  1  0.844918  0.444642  0.072824  1
  P  P23  1  0.559941  0.161229  0.572188  1
  P  P24  1  0.348883  0.318626  0.193789  1
  P  P25  1  0.658101  0.681757  0.304963  1
  P  P26  1  0.681757  0.658101  0.695037  1
  P  P27  1  0.318626  0.348883  0.806211  1
  P  P28  1  0.161229  0.559941  0.427812  1
  P  P29  1  0.444642  0.844918  0.927176  1
  P  P30  1  0.179407  0.945416  0.402843  1
  P  P31  1  0.057381  0.827437  0.901324  1
  O  O32  1  0.968317  0.130464  0.136230  1
  O  O33  1  0.882171  0.040425  0.654504  1
  O  O34  1  0.916812  0.184369  0.438196  1
  O  O35  1  0.796554  0.091620  0.942126  1
  O  O36  1  0.713662  0.090397  0.186822  1
  O  O37  1  0.892806  0.302914  0.658767  1
  O  O38  1  0.909454  0.382359  0.207559  1
  O  O39  1  0.600615  0.094968  0.447948  1
  O  O40  1  0.629726  0.113570  0.711700  1
  O  O41  1  0.898776  0.394232  0.943253  1
  O  O42  1  0.877227  0.603772  0.074264  1
  O  O43  1  0.686530  0.411401  0.073857  1
  O  O44  1  0.417777  0.193236  0.155034  1
  O  O45  1  0.592515  0.320545  0.558305  1
  O  O46  1  0.400471  0.129036  0.582498  1
  O  O47  1  0.808729  0.599688  0.646817  1
  O  O48  1  0.816553  0.688965  0.330620  1
  O  O49  1  0.302935  0.191572  0.843186  1
  O  O50  1  0.604648  0.543798  0.373376  1
  O  O51  1  0.378029  0.329546  0.353734  1
  O  O52  1  0.176703  0.104701  0.369818  1
  O  O53  1  0.838917  0.898241  0.124981  1
  O  O54  1  0.456004  0.408477  0.868849  1
  O  O55  1  0.620191  0.675508  0.145787  1
  O  O56  1  0.675508  0.620191  0.854213  1
  O  O57  1  0.408477  0.456004  0.131151  1
  O  O58  1  0.898241  0.838917  0.875019  1
  O  O59  1  0.104701  0.176703  0.630182  1
  O  O60  1  0.329546  0.378029  0.646266  1
  O  O61  1  0.543798  0.604648  0.626624  1
  O  O62  1  0.191572  0.302935  0.156814  1
  O  O63  1  0.688965  0.816553  0.669380  1
  O  O64  1  0.599688  0.808729  0.353183  1
  O  O65  1  0.129036  0.400471  0.417502  1
  O  O66  1  0.320545  0.592515  0.441695  1
  O  O67  1  0.193236  0.417777  0.844966  1
  O  O68  1  0.411401  0.686530  0.926143  1
  O  O69  1  0.603772  0.877227  0.925736  1
  O  O70  1  0.394232  0.898776  0.056747  1
  O  O71  1  0.113570  0.629726  0.288300  1
  O  O72  1  0.094968  0.600615  0.552052  1
  O  O73  1  0.382359  0.909454  0.792441  1
  O  O74  1  0.302914  0.892806  0.341233  1
  O  O75  1  0.090397  0.713662  0.813178  1
  O  O76  1  0.091620  0.796554  0.057874  1
  O  O77  1  0.184369  0.916812  0.561804  1
  O  O78  1  0.040425  0.882171  0.345496  1
  O  O79  1  0.130464  0.968317  0.863770  1
