# generated using pymatgen
data_ZnH12C2(N3Cl2)2
_symmetry_space_group_name_H-M   'P 1'
_cell_length_a   7.22777926
_cell_length_b   7.40080360
_cell_length_c   12.80656528
_cell_angle_alpha   82.15466799
_cell_angle_beta   86.19956189
_cell_angle_gamma   76.87647644
_symmetry_Int_Tables_number   1
_chemical_formula_structural   ZnH12C2(N3Cl2)2
_chemical_formula_sum   'Zn2 H24 C4 N12 Cl8'
_cell_volume   660.46276528
_cell_formula_units_Z   2
loop_
 _symmetry_equiv_pos_site_id
 _symmetry_equiv_pos_as_xyz
  1  'x, y, z'
loop_
 _atom_site_type_symbol
 _atom_site_label
 _atom_site_symmetry_multiplicity
 _atom_site_fract_x
 _atom_site_fract_y
 _atom_site_fract_z
 _atom_site_occupancy
  Zn  Zn0  1  0.957477  0.174936  0.224418  1
  Zn  Zn1  1  0.042523  0.825064  0.775582  1
  H  H2  1  0.244260  0.040650  0.520091  1
  H  H3  1  0.755740  0.959350  0.479909  1
  H  H4  1  0.235832  0.168542  0.392926  1
  H  H5  1  0.764168  0.831458  0.607074  1
  H  H6  1  0.245865  0.485491  0.372990  1
  H  H7  1  0.754135  0.514509  0.627010  1
  H  H8  1  0.262342  0.593229  0.485887  1
  H  H9  1  0.737658  0.406771  0.514113  1
  H  H10  1  0.287181  0.427047  0.646983  1
  H  H11  1  0.712819  0.572953  0.353017  1
  H  H12  1  0.273448  0.189304  0.665737  1
  H  H13  1  0.726552  0.810696  0.334263  1
  H  H14  1  0.373448  0.652193  0.171024  1
  H  H15  1  0.626552  0.347807  0.828976  1
  H  H16  1  0.568984  0.493913  0.121379  1
  H  H17  1  0.431016  0.506087  0.878621  1
  H  H18  1  0.841731  0.599910  0.059425  1
  H  H19  1  0.158269  0.400090  0.940575  1
  H  H20  1  0.849943  0.834594  0.062962  1
  H  H21  1  0.150057  0.165406  0.937038  1
  H  H22  1  0.592522  0.039485  0.128522  1
  H  H23  1  0.407478  0.960515  0.871478  1
  H  H24  1  0.386448  0.958600  0.176107  1
  H  H25  1  0.613552  0.041400  0.823893  1
  C  C26  1  0.256856  0.316411  0.513722  1
  C  C27  1  0.743144  0.683589  0.486278  1
  C  C28  1  0.602560  0.762303  0.119484  1
  C  C29  1  0.397440  0.237697  0.880516  1
  N  N30  1  0.243643  0.163268  0.472496  1
  N  N31  1  0.756357  0.836732  0.527504  1
  N  N32  1  0.254709  0.477836  0.452516  1
  N  N33  1  0.745291  0.522164  0.547484  1
  N  N34  1  0.275184  0.309060  0.617441  1
  N  N35  1  0.724816  0.690940  0.382559  1
  N  N36  1  0.508277  0.625172  0.139302  1
  N  N37  1  0.491723  0.374828  0.860698  1
  N  N38  1  0.778528  0.729840  0.077416  1
  N  N39  1  0.221472  0.270160  0.922584  1
  N  N40  1  0.521153  0.933946  0.143773  1
  N  N41  1  0.478847  0.066054  0.856227  1
  Cl  Cl42  1  0.722021  0.238504  0.354378  1
  Cl  Cl43  1  0.277979  0.761496  0.645622  1
  Cl  Cl44  1  0.111366  0.870816  0.269445  1
  Cl  Cl45  1  0.888634  0.129184  0.730555  1
  Cl  Cl46  1  0.813775  0.224529  0.064909  1
  Cl  Cl47  1  0.186225  0.775471  0.935091  1
  Cl  Cl48  1  0.177533  0.355265  0.212080  1
  Cl  Cl49  1  0.822467  0.644735  0.787920  1
