# generated using pymatgen
data_Li4Mn3Fe(PO4)4
_symmetry_space_group_name_H-M   'P 1'
_cell_length_a   4.78016820
_cell_length_b   6.15019595
_cell_length_c   11.56441190
_cell_angle_alpha   90.00000000
_cell_angle_beta   114.47798792
_cell_angle_gamma   90.00000000
_symmetry_Int_Tables_number   1
_chemical_formula_structural   Li4Mn3Fe(PO4)4
_chemical_formula_sum   'Li4 Mn3 Fe1 P4 O16'
_cell_volume   309.42442342
_cell_formula_units_Z   1
loop_
 _symmetry_equiv_pos_site_id
 _symmetry_equiv_pos_as_xyz
  1  'x, y, z'
loop_
 _atom_site_type_symbol
 _atom_site_label
 _atom_site_symmetry_multiplicity
 _atom_site_fract_x
 _atom_site_fract_y
 _atom_site_fract_z
 _atom_site_occupancy
  Li  Li0  1  0.999695  0.249639  0.999718  1
  Li  Li1  1  0.999695  0.750361  0.999718  1
  Li  Li2  1  0.000024  0.750591  0.500177  1
  Li  Li3  1  0.000024  0.249409  0.500177  1
  Mn  Mn4  1  0.309637  0.500000  0.281276  1
  Mn  Mn5  1  0.252972  0.500000  0.781600  1
  Mn  Mn6  1  0.746481  0.000000  0.218612  1
  Fe  Fe7  1  0.688490  0.000000  0.718395  1
  P  P8  1  0.497834  0.000000  0.408633  1
  P  P9  1  0.315812  0.000000  0.906366  1
  P  P10  1  0.681942  0.500000  0.092014  1
  P  P11  1  0.504970  0.500000  0.592766  1
  O  O12  1  0.756287  0.000000  0.546103  1
  O  O13  1  0.562471  0.201053  0.338932  1
  O  O14  1  0.562471  0.798947  0.338932  1
  O  O15  1  0.828876  0.500000  0.595964  1
  O  O16  1  0.364660  0.500000  0.095986  1
  O  O17  1  0.111157  0.200988  0.837453  1
  O  O18  1  0.111157  0.799012  0.837453  1
  O  O19  1  0.332911  0.000000  0.044230  1
  O  O20  1  0.667199  0.500000  0.955043  1
  O  O21  1  0.885159  0.701259  0.161575  1
  O  O22  1  0.885159  0.298741  0.161575  1
  O  O23  1  0.633786  0.000000  0.902734  1
  O  O24  1  0.172009  0.000000  0.403820  1
  O  O25  1  0.443186  0.702710  0.662431  1
  O  O26  1  0.443186  0.297290  0.662431  1
  O  O27  1  0.242753  0.500000  0.455888  1
