# generated using pymatgen
data_Na4Cu2C4SO16
_symmetry_space_group_name_H-M   'P 1'
_cell_length_a   9.89834774
_cell_length_b   9.86107704
_cell_length_c   9.63259188
_cell_angle_alpha   61.01777533
_cell_angle_beta   60.63064624
_cell_angle_gamma   58.35157842
_symmetry_Int_Tables_number   1
_chemical_formula_structural   Na4Cu2C4SO16
_chemical_formula_sum   'Na8 Cu4 C8 S2 O32'
_cell_volume   664.00903547
_cell_formula_units_Z   2
loop_
 _symmetry_equiv_pos_site_id
 _symmetry_equiv_pos_as_xyz
  1  'x, y, z'
loop_
 _atom_site_type_symbol
 _atom_site_label
 _atom_site_symmetry_multiplicity
 _atom_site_fract_x
 _atom_site_fract_y
 _atom_site_fract_z
 _atom_site_occupancy
  Na  Na0  1  0.288131  0.711869  0.711869  1
  Na  Na1  1  0.710330  0.289670  0.710330  1
  Na  Na2  1  0.960330  0.539670  0.960330  1
  Na  Na3  1  0.538131  0.961869  0.961869  1
  Na  Na4  1  0.711869  0.288131  0.288131  1
  Na  Na5  1  0.289670  0.710330  0.289670  1
  Na  Na6  1  0.539670  0.960330  0.539670  1
  Na  Na7  1  0.961869  0.538131  0.538131  1
  Cu  Cu8  1  0.125000  0.125000  0.625000  1
  Cu  Cu9  1  0.125000  0.125000  0.125000  1
  Cu  Cu10  1  0.125000  0.625000  0.125000  1
  Cu  Cu11  1  0.625000  0.125000  0.125000  1
  C  C12  1  0.333476  0.338917  0.979993  1
  C  C13  1  0.911083  0.916524  0.902387  1
  C  C14  1  0.347613  0.979993  0.338917  1
  C  C15  1  0.979993  0.347613  0.333476  1
  C  C16  1  0.270007  0.902387  0.916524  1
  C  C17  1  0.902387  0.270007  0.911083  1
  C  C18  1  0.338917  0.333476  0.347613  1
  C  C19  1  0.916524  0.911083  0.270007  1
  S  S20  1  0.750000  0.750000  0.750000  1
  S  S21  1  0.500000  0.500000  0.500000  1
  O  O22  1  0.310625  0.483037  0.974441  1
  O  O23  1  0.936487  0.680852  0.690620  1
  O  O24  1  0.213658  0.316278  0.986261  1
  O  O25  1  0.933722  0.036342  0.766196  1
  O  O26  1  0.483804  0.986261  0.316278  1
  O  O27  1  0.029584  0.769316  0.921671  1
  O  O28  1  0.692042  0.690620  0.680852  1
  O  O29  1  0.680852  0.936487  0.692042  1
  O  O30  1  0.921671  0.279429  0.029584  1
  O  O31  1  0.986261  0.483804  0.213658  1
  O  O32  1  0.766963  0.939375  0.018103  1
  O  O33  1  0.690620  0.692042  0.936487  1
  O  O34  1  0.231897  0.974441  0.483037  1
  O  O35  1  0.974441  0.231897  0.310625  1
  O  O36  1  0.480684  0.220416  0.970571  1
  O  O37  1  0.279429  0.921671  0.769316  1
  O  O38  1  0.970571  0.328329  0.480684  1
  O  O39  1  0.769316  0.029584  0.279429  1
  O  O40  1  0.275559  0.018103  0.939375  1
  O  O41  1  0.018103  0.275559  0.766963  1
  O  O42  1  0.559380  0.557958  0.313513  1
  O  O43  1  0.483037  0.310625  0.231897  1
  O  O44  1  0.263739  0.766196  0.036342  1
  O  O45  1  0.328329  0.970571  0.220416  1
  O  O46  1  0.569148  0.313513  0.557958  1
  O  O47  1  0.557958  0.559380  0.569148  1
  O  O48  1  0.220416  0.480684  0.328329  1
  O  O49  1  0.766196  0.263739  0.933722  1
  O  O50  1  0.316278  0.213658  0.483804  1
  O  O51  1  0.036342  0.933722  0.263739  1
  O  O52  1  0.313513  0.569148  0.559380  1
  O  O53  1  0.939375  0.766963  0.275559  1
