# generated using pymatgen
data_Y2CuO4
_symmetry_space_group_name_H-M   'P 1'
_cell_length_a   6.56390020
_cell_length_b   6.56390020
_cell_length_c   5.51005006
_cell_angle_alpha   90.00000000
_cell_angle_beta   90.00000000
_cell_angle_gamma   130.33725725
_symmetry_Int_Tables_number   1
_chemical_formula_structural   Y2CuO4
_chemical_formula_sum   'Y4 Cu2 O8'
_cell_volume   180.95706393
_cell_formula_units_Z   2
loop_
 _symmetry_equiv_pos_site_id
 _symmetry_equiv_pos_as_xyz
  1  'x, y, z'
loop_
 _atom_site_type_symbol
 _atom_site_label
 _atom_site_symmetry_multiplicity
 _atom_site_fract_x
 _atom_site_fract_y
 _atom_site_fract_z
 _atom_site_occupancy
  Y  Y0  1  0.654219  0.345781  1.000000  1
  Y  Y1  1  0.345781  0.654219  0.000000  1
  Y  Y2  1  0.845781  0.154219  0.500000  1
  Y  Y3  1  0.154219  0.845781  0.500000  1
  Cu  Cu4  1  0.000000  0.000000  0.000000  1
  Cu  Cu5  1  0.500000  0.500000  0.500000  1
  O  O6  1  0.704727  0.704727  0.205302  1
  O  O7  1  0.508396  0.008396  0.250000  1
  O  O8  1  0.008396  0.508396  0.250000  1
  O  O9  1  0.204727  0.204727  0.294698  1
  O  O10  1  0.795273  0.795273  0.705302  1
  O  O11  1  0.991604  0.491604  0.750000  1
  O  O12  1  0.491604  0.991604  0.750000  1
  O  O13  1  0.295273  0.295273  0.794698  1
