# generated using pymatgen
data_LiCoPO4
_symmetry_space_group_name_H-M   'P 1'
_cell_length_a   5.19856068
_cell_length_b   5.19856068
_cell_length_c   9.21961590
_cell_angle_alpha   89.29227268
_cell_angle_beta   90.70772732
_cell_angle_gamma   59.61349518
_symmetry_Int_Tables_number   1
_chemical_formula_structural   LiCoPO4
_chemical_formula_sum   'Li2 Co2 P2 O8'
_cell_volume   214.86759512
_cell_formula_units_Z   2
loop_
 _symmetry_equiv_pos_site_id
 _symmetry_equiv_pos_as_xyz
  1  'x, y, z'
loop_
 _atom_site_type_symbol
 _atom_site_label
 _atom_site_symmetry_multiplicity
 _atom_site_fract_x
 _atom_site_fract_y
 _atom_site_fract_z
 _atom_site_occupancy
  Li  Li0  1  0.005153  0.995276  0.786378  1
  Li  Li1  1  0.004724  0.994847  0.286378  1
  Co  Co2  1  0.336119  0.328960  0.335099  1
  Co  Co3  1  0.671040  0.663881  0.835099  1
  P  P4  1  0.331379  0.333635  0.705436  1
  P  P5  1  0.666365  0.668621  0.205436  1
  O  O6  1  0.338208  0.609523  0.765327  1
  O  O7  1  0.299131  0.356487  0.540621  1
  O  O8  1  0.060449  0.325861  0.772180  1
  O  O9  1  0.623832  0.044830  0.755408  1
  O  O10  1  0.674139  0.939551  0.272180  1
  O  O11  1  0.643513  0.700869  0.040621  1
  O  O12  1  0.955170  0.376168  0.255408  1
  O  O13  1  0.390477  0.661792  0.265327  1
