# generated using pymatgen
data_UAg2(WO5)2
_symmetry_space_group_name_H-M   'P 1'
_cell_length_a   8.60736747
_cell_length_b   7.64165650
_cell_length_c   13.14905978
_cell_angle_alpha   90.00000000
_cell_angle_beta   95.23645223
_cell_angle_gamma   90.00000000
_symmetry_Int_Tables_number   1
_chemical_formula_structural   UAg2(WO5)2
_chemical_formula_sum   'U4 Ag8 W8 O40'
_cell_volume   861.26391375
_cell_formula_units_Z   4
loop_
 _symmetry_equiv_pos_site_id
 _symmetry_equiv_pos_as_xyz
  1  'x, y, z'
loop_
 _atom_site_type_symbol
 _atom_site_label
 _atom_site_symmetry_multiplicity
 _atom_site_fract_x
 _atom_site_fract_y
 _atom_site_fract_z
 _atom_site_occupancy
  U  U0  1  0.974737  0.120921  0.248139  1
  U  U1  1  0.974737  0.379079  0.748139  1
  U  U2  1  0.025263  0.620921  0.251861  1
  U  U3  1  0.025263  0.879079  0.751861  1
  Ag  Ag4  1  0.804233  0.116981  0.951602  1
  Ag  Ag5  1  0.195767  0.616981  0.548398  1
  Ag  Ag6  1  0.198227  0.130884  0.538682  1
  Ag  Ag7  1  0.804233  0.383019  0.451602  1
  Ag  Ag8  1  0.801773  0.630884  0.961318  1
  Ag  Ag9  1  0.198227  0.369116  0.038682  1
  Ag  Ag10  1  0.801773  0.869116  0.461318  1
  Ag  Ag11  1  0.195767  0.883019  0.048398  1
  W  W12  1  0.368568  0.128794  0.831461  1
  W  W13  1  0.631432  0.871206  0.168539  1
  W  W14  1  0.629882  0.130075  0.666385  1
  W  W15  1  0.368568  0.371206  0.331461  1
  W  W16  1  0.629882  0.369925  0.166385  1
  W  W17  1  0.370118  0.869925  0.333615  1
  W  W18  1  0.370118  0.630075  0.833615  1
  W  W19  1  0.631432  0.628794  0.668539  1
  O  O20  1  0.314570  0.621269  0.298142  1
  O  O21  1  0.667815  0.889200  0.037020  1
  O  O22  1  0.004585  0.877317  0.892168  1
  O  O23  1  0.416809  0.596678  0.669657  1
  O  O24  1  0.040385  0.618209  0.110052  1
  O  O25  1  0.314570  0.878731  0.798142  1
  O  O26  1  0.416809  0.903322  0.169657  1
  O  O27  1  0.852348  0.845782  0.231849  1
  O  O28  1  0.586119  0.840238  0.334562  1
  O  O29  1  0.995415  0.122683  0.107832  1
  O  O30  1  0.148980  0.896303  0.268348  1
  O  O31  1  0.667815  0.610800  0.537020  1
  O  O32  1  0.851020  0.103697  0.731652  1
  O  O33  1  0.004585  0.622683  0.392168  1
  O  O34  1  0.851020  0.396303  0.231652  1
  O  O35  1  0.623760  0.620821  0.165657  1
  O  O36  1  0.623760  0.879179  0.665657  1
  O  O37  1  0.332185  0.389200  0.462980  1
  O  O38  1  0.148980  0.603697  0.768348  1
  O  O39  1  0.665803  0.351845  0.035099  1
  O  O40  1  0.586119  0.659762  0.834562  1
  O  O41  1  0.685430  0.121269  0.201858  1
  O  O42  1  0.685430  0.378731  0.701858  1
  O  O43  1  0.583191  0.096678  0.830343  1
  O  O44  1  0.413881  0.159762  0.665438  1
  O  O45  1  0.852348  0.654218  0.731849  1
  O  O46  1  0.959615  0.381791  0.889948  1
  O  O47  1  0.959615  0.118209  0.389948  1
  O  O48  1  0.376240  0.120821  0.334343  1
  O  O49  1  0.376240  0.379179  0.834343  1
  O  O50  1  0.332185  0.110800  0.962980  1
  O  O51  1  0.147652  0.154218  0.768151  1
  O  O52  1  0.040385  0.881791  0.610052  1
  O  O53  1  0.334197  0.851845  0.464901  1
  O  O54  1  0.995415  0.377317  0.607832  1
  O  O55  1  0.147652  0.345782  0.268151  1
  O  O56  1  0.665803  0.148155  0.535099  1
  O  O57  1  0.334197  0.648155  0.964901  1
  O  O58  1  0.583191  0.403322  0.330343  1
  O  O59  1  0.413881  0.340238  0.165438  1
