# generated using pymatgen
data_LiLa3Ti3CrO12
_symmetry_space_group_name_H-M   'P 1'
_cell_length_a   5.52255341
_cell_length_b   5.54122927
_cell_length_c   7.83695758
_cell_angle_alpha   90.09188229
_cell_angle_beta   90.05340740
_cell_angle_gamma   90.33767476
_symmetry_Int_Tables_number   1
_chemical_formula_structural   LiLa3Ti3CrO12
_chemical_formula_sum   'Li1 La3 Ti3 Cr1 O12'
_cell_volume   239.81991629
_cell_formula_units_Z   1
loop_
 _symmetry_equiv_pos_site_id
 _symmetry_equiv_pos_as_xyz
  1  'x, y, z'
loop_
 _atom_site_type_symbol
 _atom_site_label
 _atom_site_symmetry_multiplicity
 _atom_site_fract_x
 _atom_site_fract_y
 _atom_site_fract_z
 _atom_site_occupancy
  Li  Li0  1  0.028785  0.970608  0.258872  1
  La  La1  1  0.493081  0.532560  0.253709  1
  La  La2  1  0.502337  0.471455  0.748367  1
  La  La3  1  0.991367  0.973096  0.746449  1
  Ti  Ti4  1  0.999601  0.498784  0.006770  1
  Ti  Ti5  1  0.999384  0.497076  0.490405  1
  Ti  Ti6  1  0.500974  0.004148  0.013155  1
  Cr  Cr7  1  0.498094  0.003088  0.495177  1
  O  O8  1  0.931044  0.474979  0.248996  1
  O  O9  1  0.218172  0.783826  0.046430  1
  O  O10  1  0.209356  0.784752  0.450846  1
  O  O11  1  0.287975  0.289934  0.026833  1
  O  O12  1  0.287060  0.295407  0.472837  1
  O  O13  1  0.584957  0.997812  0.247047  1
  O  O14  1  0.422573  0.001669  0.749695  1
  O  O15  1  0.713728  0.715965  0.533090  1
  O  O16  1  0.716613  0.720714  0.964632  1
  O  O17  1  0.775534  0.230349  0.548999  1
  O  O18  1  0.772597  0.229432  0.948452  1
  O  O19  1  0.066766  0.524344  0.749240  1
