# generated using pymatgen
data_SrCa2I6
_symmetry_space_group_name_H-M   'P 1'
_cell_length_a   8.97765546
_cell_length_b   7.34006045
_cell_length_c   24.36211478
_cell_angle_alpha   90.00000000
_cell_angle_beta   99.03422780
_cell_angle_gamma   90.00000000
_symmetry_Int_Tables_number   1
_chemical_formula_structural   SrCa2I6
_chemical_formula_sum   'Sr4 Ca8 I24'
_cell_volume   1585.46373238
_cell_formula_units_Z   4
loop_
 _symmetry_equiv_pos_site_id
 _symmetry_equiv_pos_as_xyz
  1  'x, y, z'
loop_
 _atom_site_type_symbol
 _atom_site_label
 _atom_site_symmetry_multiplicity
 _atom_site_fract_x
 _atom_site_fract_y
 _atom_site_fract_z
 _atom_site_occupancy
  Sr  Sr0  1  0.110637  0.004544  0.413843  1
  Sr  Sr1  1  0.110637  0.495456  0.913843  1
  Sr  Sr2  1  0.889363  0.504544  0.086157  1
  Sr  Sr3  1  0.889363  0.995456  0.586157  1
  Ca  Ca4  1  0.254849  0.486624  0.248524  1
  Ca  Ca5  1  0.396848  0.985864  0.084385  1
  Ca  Ca6  1  0.254849  0.013376  0.748524  1
  Ca  Ca7  1  0.396848  0.514136  0.584385  1
  Ca  Ca8  1  0.603152  0.485864  0.415615  1
  Ca  Ca9  1  0.745151  0.986624  0.251476  1
  Ca  Ca10  1  0.603152  0.014136  0.915615  1
  Ca  Ca11  1  0.745151  0.513376  0.751476  1
  I  I12  1  0.989598  0.749810  0.198768  1
  I  I13  1  0.185801  0.257002  0.139475  1
  I  I14  1  0.125015  0.751039  0.025937  1
  I  I15  1  0.989598  0.750190  0.698768  1
  I  I16  1  0.185801  0.242998  0.639475  1
  I  I17  1  0.125015  0.748961  0.525937  1
  I  I18  1  0.385984  0.259200  0.479134  1
  I  I19  1  0.326179  0.715466  0.357483  1
  I  I20  1  0.517270  0.237041  0.308660  1
  I  I21  1  0.482730  0.737041  0.191340  1
  I  I22  1  0.385984  0.240800  0.979134  1
  I  I23  1  0.673821  0.215466  0.142517  1
  I  I24  1  0.326179  0.784534  0.857483  1
  I  I25  1  0.614016  0.759200  0.020866  1
  I  I26  1  0.517270  0.262959  0.808660  1
  I  I27  1  0.482730  0.762959  0.691340  1
  I  I28  1  0.673821  0.284534  0.642517  1
  I  I29  1  0.614016  0.740800  0.520866  1
  I  I30  1  0.874985  0.251039  0.474063  1
  I  I31  1  0.814199  0.757002  0.360525  1
  I  I32  1  0.010402  0.249810  0.301232  1
  I  I33  1  0.874985  0.248961  0.974063  1
  I  I34  1  0.814199  0.742998  0.860525  1
  I  I35  1  0.010402  0.250190  0.801232  1
