# generated using pymatgen
data_LiVF5
_symmetry_space_group_name_H-M   'P 1'
_cell_length_a   5.49013112
_cell_length_b   17.84744635
_cell_length_c   9.57553139
_cell_angle_alpha   90.00000000
_cell_angle_beta   125.04828565
_cell_angle_gamma   90.00000000
_symmetry_Int_Tables_number   1
_chemical_formula_structural   LiVF5
_chemical_formula_sum   'Li8 V8 F40'
_cell_volume   768.12111008
_cell_formula_units_Z   8
loop_
 _symmetry_equiv_pos_site_id
 _symmetry_equiv_pos_as_xyz
  1  'x, y, z'
loop_
 _atom_site_type_symbol
 _atom_site_label
 _atom_site_symmetry_multiplicity
 _atom_site_fract_x
 _atom_site_fract_y
 _atom_site_fract_z
 _atom_site_occupancy
  Li  Li0  1  0.883051  0.304734  0.638493  1
  Li  Li1  1  0.517777  0.118963  0.271922  1
  Li  Li2  1  0.482223  0.618963  0.228078  1
  Li  Li3  1  0.116949  0.804734  0.861507  1
  Li  Li4  1  0.883051  0.195266  0.138493  1
  Li  Li5  1  0.517777  0.381037  0.771922  1
  Li  Li6  1  0.482223  0.881037  0.728078  1
  Li  Li7  1  0.116949  0.695266  0.361507  1
  V  V8  1  0.107227  0.118338  0.863980  1
  V  V9  1  0.285551  0.376580  0.042265  1
  V  V10  1  0.892773  0.618338  0.636020  1
  V  V11  1  0.714449  0.876580  0.457735  1
  V  V12  1  0.285551  0.123420  0.542265  1
  V  V13  1  0.107227  0.381662  0.363980  1
  V  V14  1  0.714449  0.623420  0.957735  1
  V  V15  1  0.892773  0.881662  0.136020  1
  F  F16  1  0.502035  0.349889  0.480761  1
  F  F17  1  0.455729  0.154420  0.428798  1
  F  F18  1  0.900095  0.357263  0.834767  1
  F  F19  1  0.911126  0.596458  0.843159  1
  F  F20  1  0.127378  0.136942  0.068258  1
  F  F21  1  0.323021  0.905174  0.252339  1
  F  F22  1  0.319832  0.284580  0.128050  1
  F  F23  1  0.972537  0.212474  0.773664  1
  F  F24  1  0.813175  0.521809  0.584155  1
  F  F25  1  0.749444  0.972814  0.518076  1
  F  F26  1  0.250556  0.472814  0.981924  1
  F  F27  1  0.186825  0.021809  0.915845  1
  F  F28  1  0.027463  0.712474  0.726336  1
  F  F29  1  0.680168  0.784580  0.371950  1
  F  F30  1  0.676979  0.405174  0.247661  1
  F  F31  1  0.088874  0.096458  0.656841  1
  F  F32  1  0.872622  0.636942  0.431742  1
  F  F33  1  0.099905  0.857263  0.665233  1
  F  F34  1  0.544271  0.654420  0.071202  1
  F  F35  1  0.497965  0.849889  0.019239  1
  F  F36  1  0.502035  0.150111  0.980761  1
  F  F37  1  0.455729  0.345580  0.928798  1
  F  F38  1  0.900095  0.142737  0.334767  1
  F  F39  1  0.127378  0.363058  0.568258  1
  F  F40  1  0.911126  0.903542  0.343159  1
  F  F41  1  0.323021  0.594826  0.752339  1
  F  F42  1  0.319832  0.215420  0.628050  1
  F  F43  1  0.972537  0.287526  0.273664  1
  F  F44  1  0.813175  0.978191  0.084155  1
  F  F45  1  0.749444  0.527186  0.018076  1
  F  F46  1  0.250556  0.027186  0.481924  1
  F  F47  1  0.186825  0.478191  0.415845  1
  F  F48  1  0.027463  0.787526  0.226336  1
  F  F49  1  0.680168  0.715420  0.871950  1
  F  F50  1  0.676979  0.094826  0.747661  1
  F  F51  1  0.872622  0.863058  0.931742  1
  F  F52  1  0.088874  0.403542  0.156841  1
  F  F53  1  0.099905  0.642737  0.165233  1
  F  F54  1  0.544271  0.845580  0.571202  1
  F  F55  1  0.497965  0.650111  0.519239  1
