# generated using pymatgen
data_Mn5Nb(PO4)6
_symmetry_space_group_name_H-M   'P 1'
_cell_length_a   8.72608681
_cell_length_b   8.72608681
_cell_length_c   8.72608681
_cell_angle_alpha   59.92581099
_cell_angle_beta   59.92581099
_cell_angle_gamma   59.92581099
_symmetry_Int_Tables_number   1
_chemical_formula_structural   Mn5Nb(PO4)6
_chemical_formula_sum   'Mn5 Nb1 P6 O24'
_cell_volume   469.04242772
_cell_formula_units_Z   1
loop_
 _symmetry_equiv_pos_site_id
 _symmetry_equiv_pos_as_xyz
  1  'x, y, z'
loop_
 _atom_site_type_symbol
 _atom_site_label
 _atom_site_symmetry_multiplicity
 _atom_site_fract_x
 _atom_site_fract_y
 _atom_site_fract_z
 _atom_site_occupancy
  Mn  Mn0  1  0.994884  0.994884  0.994884  1
  Mn  Mn1  1  0.644562  0.644562  0.644562  1
  Mn  Mn2  1  0.499671  0.499671  0.499671  1
  Mn  Mn3  1  0.853298  0.853298  0.853298  1
  Mn  Mn4  1  0.355419  0.355419  0.355419  1
  Nb  Nb5  1  0.143963  0.143963  0.143963  1
  P  P6  1  0.252163  0.549042  0.954381  1
  P  P7  1  0.954381  0.252163  0.549042  1
  P  P8  1  0.549042  0.954381  0.252163  1
  P  P9  1  0.460747  0.043345  0.743868  1
  P  P10  1  0.043345  0.743868  0.460747  1
  P  P11  1  0.743868  0.460747  0.043345  1
  O  O12  1  0.111561  0.309593  0.510893  1
  O  O13  1  0.510893  0.111561  0.309593  1
  O  O14  1  0.309593  0.510893  0.111561  1
  O  O15  1  0.085030  0.737358  0.940750  1
  O  O16  1  0.186182  0.384455  0.007351  1
  O  O17  1  0.408767  0.553812  0.763012  1
  O  O18  1  0.940750  0.085030  0.737358  1
  O  O19  1  0.763012  0.408767  0.553812  1
  O  O20  1  0.614070  0.010502  0.805472  1
  O  O21  1  0.553812  0.763012  0.408767  1
  O  O22  1  0.263801  0.065458  0.911714  1
  O  O23  1  0.010502  0.805472  0.614070  1
  O  O24  1  0.007351  0.186182  0.384455  1
  O  O25  1  0.737358  0.940750  0.085030  1
  O  O26  1  0.439600  0.239858  0.587074  1
  O  O27  1  0.384455  0.007351  0.186182  1
  O  O28  1  0.239858  0.587074  0.439600  1
  O  O29  1  0.065458  0.911714  0.263801  1
  O  O30  1  0.587074  0.439600  0.239858  1
  O  O31  1  0.805472  0.614070  0.010502  1
  O  O32  1  0.911714  0.263801  0.065458  1
  O  O33  1  0.691878  0.487075  0.889415  1
  O  O34  1  0.487075  0.889415  0.691878  1
  O  O35  1  0.889415  0.691878  0.487075  1
