# generated using pymatgen
data_Al2H12(SeO5)3
_symmetry_space_group_name_H-M   'P 1'
_cell_length_a   8.81693914
_cell_length_b   8.81693914
_cell_length_c   10.93913712
_cell_angle_alpha   90.00000000
_cell_angle_beta   90.00000000
_cell_angle_gamma   120.00000000
_symmetry_Int_Tables_number   1
_chemical_formula_structural   Al2H12(SeO5)3
_chemical_formula_sum   'Al4 H24 Se6 O30'
_cell_volume   736.46037409
_cell_formula_units_Z   2
loop_
 _symmetry_equiv_pos_site_id
 _symmetry_equiv_pos_as_xyz
  1  'x, y, z'
loop_
 _atom_site_type_symbol
 _atom_site_label
 _atom_site_symmetry_multiplicity
 _atom_site_fract_x
 _atom_site_fract_y
 _atom_site_fract_z
 _atom_site_occupancy
  Al  Al0  1  0.333333  0.666667  0.965404  1
  Al  Al1  1  0.333333  0.666667  0.534596  1
  Al  Al2  1  0.666667  0.333333  0.465404  1
  Al  Al3  1  0.666667  0.333333  0.034596  1
  H  H4  1  0.800539  0.217091  0.632022  1
  H  H5  1  0.782909  0.583449  0.632022  1
  H  H6  1  0.416551  0.199461  0.632022  1
  H  H7  1  0.800539  0.217091  0.867978  1
  H  H8  1  0.782909  0.583449  0.867978  1
  H  H9  1  0.416551  0.199461  0.867978  1
  H  H10  1  0.217091  0.800539  0.132022  1
  H  H11  1  0.583449  0.782909  0.132022  1
  H  H12  1  0.199461  0.416551  0.132022  1
  H  H13  1  0.217091  0.800539  0.367978  1
  H  H14  1  0.583449  0.782909  0.367978  1
  H  H15  1  0.199461  0.416551  0.367978  1
  H  H16  1  0.940918  0.417528  0.592720  1
  H  H17  1  0.582472  0.523390  0.592720  1
  H  H18  1  0.476610  0.059082  0.592720  1
  H  H19  1  0.940918  0.417528  0.907280  1
  H  H20  1  0.582472  0.523390  0.907280  1
  H  H21  1  0.476610  0.059082  0.907280  1
  H  H22  1  0.417528  0.940918  0.092720  1
  H  H23  1  0.523390  0.582472  0.092720  1
  H  H24  1  0.059082  0.476610  0.092720  1
  H  H25  1  0.417528  0.940918  0.407280  1
  H  H26  1  0.523390  0.582472  0.407280  1
  H  H27  1  0.059082  0.476610  0.407280  1
  Se  Se28  1  0.616836  0.877790  0.750000  1
  Se  Se29  1  0.122210  0.739045  0.750000  1
  Se  Se30  1  0.260955  0.383164  0.750000  1
  Se  Se31  1  0.877790  0.616836  0.250000  1
  Se  Se32  1  0.739045  0.122210  0.250000  1
  Se  Se33  1  0.383164  0.260955  0.250000  1
  O  O34  1  0.476271  0.167429  0.566673  1
  O  O35  1  0.832571  0.308843  0.566673  1
  O  O36  1  0.691157  0.523729  0.566673  1
  O  O37  1  0.476271  0.167429  0.933327  1
  O  O38  1  0.832571  0.308843  0.933327  1
  O  O39  1  0.691157  0.523729  0.933327  1
  O  O40  1  0.167429  0.476271  0.066673  1
  O  O41  1  0.308843  0.832571  0.066673  1
  O  O42  1  0.523729  0.691157  0.066673  1
  O  O43  1  0.167429  0.476271  0.433327  1
  O  O44  1  0.308843  0.832571  0.433327  1
  O  O45  1  0.523729  0.691157  0.433327  1
  O  O46  1  0.386541  0.515884  0.872122  1
  O  O47  1  0.484116  0.870657  0.872122  1
  O  O48  1  0.129343  0.613459  0.872122  1
  O  O49  1  0.386541  0.515884  0.627878  1
  O  O50  1  0.484116  0.870657  0.627878  1
  O  O51  1  0.129343  0.613459  0.627878  1
  O  O52  1  0.515884  0.386541  0.372122  1
  O  O53  1  0.870657  0.484116  0.372122  1
  O  O54  1  0.613459  0.129343  0.372122  1
  O  O55  1  0.515884  0.386541  0.127878  1
  O  O56  1  0.870657  0.484116  0.127878  1
  O  O57  1  0.613459  0.129343  0.127878  1
  O  O58  1  0.769733  0.093334  0.750000  1
  O  O59  1  0.906666  0.676399  0.750000  1
  O  O60  1  0.323601  0.230267  0.750000  1
  O  O61  1  0.093334  0.769733  0.250000  1
  O  O62  1  0.676399  0.906666  0.250000  1
  O  O63  1  0.230267  0.323601  0.250000  1
