# generated using pymatgen
data_Co2OF3
_symmetry_space_group_name_H-M   'P 1'
_cell_length_a   4.67819880
_cell_length_b   5.61950883
_cell_length_c   13.40976967
_cell_angle_alpha   78.77183277
_cell_angle_beta   88.72444095
_cell_angle_gamma   88.35219791
_symmetry_Int_Tables_number   1
_chemical_formula_structural   Co2OF3
_chemical_formula_sum   'Co10 O5 F15'
_cell_volume   345.59131939
_cell_formula_units_Z   5
loop_
 _symmetry_equiv_pos_site_id
 _symmetry_equiv_pos_as_xyz
  1  'x, y, z'
loop_
 _atom_site_type_symbol
 _atom_site_label
 _atom_site_symmetry_multiplicity
 _atom_site_fract_x
 _atom_site_fract_y
 _atom_site_fract_z
 _atom_site_occupancy
  Co  Co0  1  0.458708  0.501123  0.015656  1
  Co  Co1  1  0.496575  0.700833  0.402746  1
  Co  Co2  1  0.505771  0.299659  0.600626  1
  Co  Co3  1  0.497920  0.096887  0.198116  1
  Co  Co4  1  0.553582  0.906828  0.793987  1
  Co  Co5  1  0.000185  0.200148  0.399648  1
  Co  Co6  1  0.993005  0.385146  0.802295  1
  Co  Co7  1  0.973878  0.616865  0.203611  1
  Co  Co8  1  0.017481  0.797393  0.601145  1
  Co  Co9  1  0.982553  0.997143  0.990825  1
  O  O10  1  0.803947  0.071862  0.854362  1
  O  O11  1  0.716435  0.991474  0.652858  1
  O  O12  1  0.696114  0.776088  0.262093  1
  O  O13  1  0.287375  0.433539  0.138290  1
  O  O14  1  0.305117  0.611364  0.545208  1
  F  F15  1  0.801541  0.282389  0.259933  1
  F  F16  1  0.791523  0.681825  0.060344  1
  F  F17  1  0.814181  0.876236  0.462201  1
  F  F18  1  0.804262  0.489691  0.662358  1
  F  F19  1  0.692732  0.191565  0.056894  1
  F  F20  1  0.694669  0.376477  0.463559  1
  F  F21  1  0.688525  0.568963  0.868807  1
  F  F22  1  0.311860  0.218503  0.734505  1
  F  F23  1  0.308173  0.814334  0.936247  1
  F  F24  1  0.303005  0.017507  0.339531  1
  F  F25  1  0.185009  0.924771  0.134217  1
  F  F26  1  0.200619  0.316765  0.938758  1
  F  F27  1  0.208467  0.115381  0.538394  1
  F  F28  1  0.212979  0.719145  0.743457  1
  F  F29  1  0.193809  0.520099  0.339330  1
