# generated using pymatgen
data_Sn2H10C4N2O9F2
_symmetry_space_group_name_H-M   'P 1'
_cell_length_a   10.22449409
_cell_length_b   9.87051395
_cell_length_c   12.67229525
_cell_angle_alpha   90.00000000
_cell_angle_beta   94.41398020
_cell_angle_gamma   90.00000000
_symmetry_Int_Tables_number   1
_chemical_formula_structural   Sn2H10C4N2O9F2
_chemical_formula_sum   'Sn8 H40 C16 N8 O36 F8'
_cell_volume   1275.10763965
_cell_formula_units_Z   4
loop_
 _symmetry_equiv_pos_site_id
 _symmetry_equiv_pos_as_xyz
  1  'x, y, z'
loop_
 _atom_site_type_symbol
 _atom_site_label
 _atom_site_symmetry_multiplicity
 _atom_site_fract_x
 _atom_site_fract_y
 _atom_site_fract_z
 _atom_site_occupancy
  Sn  Sn0  1  0.489075  0.644843  0.609672  1
  Sn  Sn1  1  0.510925  0.144843  0.890328  1
  Sn  Sn2  1  0.510925  0.355157  0.390328  1
  Sn  Sn3  1  0.489075  0.855157  0.109672  1
  Sn  Sn4  1  0.871557  0.814911  0.994385  1
  Sn  Sn5  1  0.128443  0.314911  0.505615  1
  Sn  Sn6  1  0.128443  0.185089  0.005615  1
  Sn  Sn7  1  0.871557  0.685089  0.494385  1
  H  H8  1  0.125288  0.960712  0.713958  1
  H  H9  1  0.874712  0.460712  0.786042  1
  H  H10  1  0.874712  0.039288  0.286042  1
  H  H11  1  0.125288  0.539288  0.213958  1
  H  H12  1  0.973072  0.897440  0.728098  1
  H  H13  1  0.026928  0.397440  0.771902  1
  H  H14  1  0.026928  0.102560  0.271902  1
  H  H15  1  0.973072  0.602560  0.228098  1
  H  H16  1  0.355035  0.913154  0.705167  1
  H  H17  1  0.644965  0.413154  0.794833  1
  H  H18  1  0.644965  0.086846  0.294833  1
  H  H19  1  0.355035  0.586846  0.205167  1
  H  H20  1  0.997262  0.066331  0.736078  1
  H  H21  1  0.002738  0.566331  0.763922  1
  H  H22  1  0.002738  0.933669  0.263922  1
  H  H23  1  0.997262  0.433669  0.236078  1
  H  H24  1  0.304219  0.890181  0.819271  1
  H  H25  1  0.695781  0.390181  0.680729  1
  H  H26  1  0.695781  0.109819  0.180729  1
  H  H27  1  0.304219  0.609819  0.319271  1
  H  H28  1  0.595833  0.964530  0.607749  1
  H  H29  1  0.404167  0.464530  0.892251  1
  H  H30  1  0.404167  0.035470  0.392251  1
  H  H31  1  0.595833  0.535470  0.107749  1
  H  H32  1  0.629697  0.101253  0.535366  1
  H  H33  1  0.370303  0.601253  0.964634  1
  H  H34  1  0.370303  0.898747  0.464634  1
  H  H35  1  0.629697  0.398747  0.035366  1
  H  H36  1  0.743722  0.976666  0.557074  1
  H  H37  1  0.256278  0.476666  0.942926  1
  H  H38  1  0.256278  0.023334  0.442926  1
  H  H39  1  0.743722  0.523334  0.057074  1
  H  H40  1  0.704330  0.081632  0.657251  1
  H  H41  1  0.295670  0.581632  0.842749  1
  H  H42  1  0.295670  0.918368  0.342749  1
  H  H43  1  0.704330  0.418368  0.157251  1
  H  H44  1  0.000069  0.983231  0.617794  1
  H  H45  1  0.999931  0.483231  0.882206  1
  H  H46  1  0.999931  0.016769  0.382206  1
  H  H47  1  0.000069  0.516769  0.117794  1
  C  C48  1  0.186806  0.682453  0.496120  1
  C  C49  1  0.813194  0.182453  0.003880  1
  C  C50  1  0.813194  0.317547  0.503880  1
  C  C51  1  0.186806  0.817547  0.996120  1
  C  C52  1  0.735173  0.754398  0.765067  1
  C  C53  1  0.264827  0.254398  0.734933  1
  C  C54  1  0.264827  0.245602  0.234933  1
  C  C55  1  0.735173  0.745602  0.265067  1
  C  C56  1  0.173445  0.660395  0.617207  1
  C  C57  1  0.826555  0.160395  0.882793  1
  C  C58  1  0.826555  0.339605  0.382793  1
  C  C59  1  0.173445  0.839605  0.117207  1
  C  C60  1  0.620521  0.723801  0.835387  1
  C  C61  1  0.379479  0.223801  0.664613  1
  C  C62  1  0.379479  0.276199  0.164613  1
  C  C63  1  0.620521  0.776199  0.335387  1
  N  N64  1  0.669512  0.031286  0.589560  1
  N  N65  1  0.330488  0.531286  0.910440  1
  N  N66  1  0.330488  0.968714  0.410440  1
  N  N67  1  0.669512  0.468714  0.089560  1
  N  N68  1  0.023836  0.977755  0.698431  1
  N  N69  1  0.976164  0.477755  0.801569  1
  N  N70  1  0.976164  0.022245  0.301569  1
  N  N71  1  0.023836  0.522245  0.198431  1
  O  O72  1  0.847779  0.780843  0.811501  1
  O  O73  1  0.152221  0.280843  0.688499  1
  O  O74  1  0.152221  0.219157  0.188499  1
  O  O75  1  0.847779  0.719157  0.311501  1
  O  O76  1  0.083274  0.707274  0.437275  1
  O  O77  1  0.916726  0.207274  0.062725  1
  O  O78  1  0.916726  0.292726  0.562725  1
  O  O79  1  0.083274  0.792726  0.937275  1
  O  O80  1  0.276269  0.626547  0.674977  1
  O  O81  1  0.723731  0.126547  0.825023  1
  O  O82  1  0.723731  0.373453  0.325023  1
  O  O83  1  0.276269  0.873453  0.174977  1
  O  O84  1  0.510160  0.691027  0.788562  1
  O  O85  1  0.489840  0.191027  0.711438  1
  O  O86  1  0.489840  0.308973  0.211438  1
  O  O87  1  0.510160  0.808973  0.288562  1
  O  O88  1  0.710005  0.753935  0.666003  1
  O  O89  1  0.289995  0.253935  0.833997  1
  O  O90  1  0.289995  0.246065  0.333997  1
  O  O91  1  0.710005  0.746065  0.166003  1
  O  O92  1  0.642859  0.735221  0.934395  1
  O  O93  1  0.357141  0.235221  0.565605  1
  O  O94  1  0.357141  0.264779  0.065605  1
  O  O95  1  0.642859  0.764779  0.434395  1
  O  O96  1  0.300572  0.673066  0.463126  1
  O  O97  1  0.699428  0.173066  0.036874  1
  O  O98  1  0.699428  0.326934  0.536874  1
  O  O99  1  0.300572  0.826934  0.963126  1
  O  O100  1  0.060601  0.674693  0.649753  1
  O  O101  1  0.939399  0.174693  0.850247  1
  O  O102  1  0.939399  0.325307  0.350247  1
  O  O103  1  0.060601  0.825307  0.149753  1
  O  O104  1  0.293732  0.947523  0.755246  1
  O  O105  1  0.706268  0.447523  0.744754  1
  O  O106  1  0.706268  0.052477  0.244754  1
  O  O107  1  0.293732  0.552477  0.255246  1
  F  F108  1  0.448166  0.857350  0.602369  1
  F  F109  1  0.551834  0.357350  0.897631  1
  F  F110  1  0.551834  0.142650  0.397631  1
  F  F111  1  0.448166  0.642650  0.102369  1
  F  F112  1  0.887250  0.604409  0.009455  1
  F  F113  1  0.112750  0.104409  0.490545  1
  F  F114  1  0.112750  0.395591  0.990545  1
  F  F115  1  0.887250  0.895591  0.509455  1
