# generated using pymatgen
data_LiFeF5
_symmetry_space_group_name_H-M   'P 1'
_cell_length_a   4.94731660
_cell_length_b   8.75791458
_cell_length_c   9.26256408
_cell_angle_alpha   90.00000000
_cell_angle_beta   90.00000000
_cell_angle_gamma   90.00000000
_symmetry_Int_Tables_number   1
_chemical_formula_structural   LiFeF5
_chemical_formula_sum   'Li4 Fe4 F20'
_cell_volume   401.33000836
_cell_formula_units_Z   4
loop_
 _symmetry_equiv_pos_site_id
 _symmetry_equiv_pos_as_xyz
  1  'x, y, z'
loop_
 _atom_site_type_symbol
 _atom_site_label
 _atom_site_symmetry_multiplicity
 _atom_site_fract_x
 _atom_site_fract_y
 _atom_site_fract_z
 _atom_site_occupancy
  Li  Li0  1  0.645128  0.250000  0.000000  1
  Li  Li1  1  0.645128  0.250000  0.500000  1
  Li  Li2  1  0.354872  0.750000  0.000000  1
  Li  Li3  1  0.354872  0.750000  0.500000  1
  Fe  Fe4  1  0.157725  0.081032  0.250000  1
  Fe  Fe5  1  0.157725  0.418968  0.750000  1
  Fe  Fe6  1  0.842275  0.581032  0.250000  1
  Fe  Fe7  1  0.842275  0.918968  0.750000  1
  F  F8  1  0.076659  0.648754  0.115517  1
  F  F9  1  0.076659  0.648754  0.384483  1
  F  F10  1  0.076659  0.851246  0.615517  1
  F  F11  1  0.076659  0.851246  0.884483  1
  F  F12  1  0.326135  0.972697  0.113532  1
  F  F13  1  0.326135  0.527303  0.613532  1
  F  F14  1  0.326135  0.972697  0.386468  1
  F  F15  1  0.326135  0.527303  0.886468  1
  F  F16  1  0.392613  0.255333  0.750000  1
  F  F17  1  0.392613  0.244667  0.250000  1
  F  F18  1  0.607387  0.744667  0.250000  1
  F  F19  1  0.607387  0.755333  0.750000  1
  F  F20  1  0.673865  0.027303  0.613532  1
  F  F21  1  0.673865  0.027303  0.886468  1
  F  F22  1  0.673865  0.472697  0.113532  1
  F  F23  1  0.673865  0.472697  0.386468  1
  F  F24  1  0.923341  0.148754  0.115517  1
  F  F25  1  0.923341  0.148754  0.384483  1
  F  F26  1  0.923341  0.351246  0.615517  1
  F  F27  1  0.923341  0.351246  0.884483  1
