# generated using pymatgen
data_Na2Ge2O5
_symmetry_space_group_name_H-M   'P 1'
_cell_length_a   5.04140414
_cell_length_b   12.46260743
_cell_length_c   10.10327647
_cell_angle_alpha   90.00000000
_cell_angle_beta   119.41180084
_cell_angle_gamma   90.00000000
_symmetry_Int_Tables_number   1
_chemical_formula_structural   Na2Ge2O5
_chemical_formula_sum   'Na8 Ge8 O20'
_cell_volume   552.96418536
_cell_formula_units_Z   4
loop_
 _symmetry_equiv_pos_site_id
 _symmetry_equiv_pos_as_xyz
  1  'x, y, z'
loop_
 _atom_site_type_symbol
 _atom_site_label
 _atom_site_symmetry_multiplicity
 _atom_site_fract_x
 _atom_site_fract_y
 _atom_site_fract_z
 _atom_site_occupancy
  Na  Na0  1  0.894306  0.037059  0.620183  1
  Na  Na1  1  0.391943  0.497507  0.629604  1
  Na  Na2  1  0.608057  0.997507  0.870396  1
  Na  Na3  1  0.105694  0.537059  0.879817  1
  Na  Na4  1  0.894306  0.462941  0.120183  1
  Na  Na5  1  0.391943  0.002493  0.129604  1
  Na  Na6  1  0.608057  0.502493  0.370396  1
  Na  Na7  1  0.105694  0.962941  0.379817  1
  Ge  Ge8  1  0.358725  0.195189  0.552549  1
  Ge  Ge9  1  0.978917  0.323998  0.675292  1
  Ge  Ge10  1  0.021083  0.823998  0.824708  1
  Ge  Ge11  1  0.641275  0.695189  0.947451  1
  Ge  Ge12  1  0.358725  0.304811  0.052549  1
  Ge  Ge13  1  0.978917  0.176002  0.175292  1
  Ge  Ge14  1  0.021083  0.676002  0.324708  1
  Ge  Ge15  1  0.641275  0.804811  0.447451  1
  O  O16  1  0.721233  0.219729  0.562819  1
  O  O17  1  0.359082  0.066225  0.615052  1
  O  O18  1  0.868710  0.456166  0.633536  1
  O  O19  1  0.306720  0.306366  0.650052  1
  O  O20  1  0.928917  0.783192  0.638599  1
  O  O21  1  0.693280  0.806366  0.849948  1
  O  O22  1  0.071083  0.283192  0.861401  1
  O  O23  1  0.131290  0.956166  0.866464  1
  O  O24  1  0.640918  0.566225  0.884948  1
  O  O25  1  0.278767  0.719729  0.937181  1
  O  O26  1  0.721233  0.280271  0.062819  1
  O  O27  1  0.359082  0.433775  0.115052  1
  O  O28  1  0.868710  0.043834  0.133536  1
  O  O29  1  0.928917  0.716808  0.138599  1
  O  O30  1  0.306720  0.193634  0.150052  1
  O  O31  1  0.071083  0.216808  0.361401  1
  O  O32  1  0.693280  0.693634  0.349948  1
  O  O33  1  0.131290  0.543834  0.366464  1
  O  O34  1  0.640918  0.933775  0.384948  1
  O  O35  1  0.278767  0.780271  0.437181  1
