# generated using pymatgen
data_Li5Fe8(BO3)8
_symmetry_space_group_name_H-M   'P 1'
_cell_length_a   5.26450041
_cell_length_b   9.03936029
_cell_length_c   11.44185376
_cell_angle_alpha   112.97766718
_cell_angle_beta   102.49538084
_cell_angle_gamma   89.62036488
_symmetry_Int_Tables_number   1
_chemical_formula_structural   Li5Fe8(BO3)8
_chemical_formula_sum   'Li5 Fe8 B8 O24'
_cell_volume   487.57787174
_cell_formula_units_Z   1
loop_
 _symmetry_equiv_pos_site_id
 _symmetry_equiv_pos_as_xyz
  1  'x, y, z'
loop_
 _atom_site_type_symbol
 _atom_site_label
 _atom_site_symmetry_multiplicity
 _atom_site_fract_x
 _atom_site_fract_y
 _atom_site_fract_z
 _atom_site_occupancy
  Li  Li0  1  0.272115  0.266703  0.874920  1
  Li  Li1  1  0.486883  0.509925  0.665314  1
  Li  Li2  1  0.259809  0.238513  0.153151  1
  Li  Li3  1  0.525856  0.542389  0.408315  1
  Li  Li4  1  0.771828  0.749872  0.168460  1
  Fe  Fe5  1  0.013895  0.347883  0.379828  1
  Fe  Fe6  1  0.266611  0.931070  0.882320  1
  Fe  Fe7  1  0.495119  0.151654  0.631143  1
  Fe  Fe8  1  0.250267  0.563503  0.129258  1
  Fe  Fe9  1  0.773852  0.453160  0.887608  1
  Fe  Fe10  1  0.516775  0.857450  0.381372  1
  Fe  Fe11  1  0.966538  0.661461  0.635388  1
  Fe  Fe12  1  0.745945  0.056296  0.124550  1
  B  B13  1  0.014796  0.674565  0.370178  1
  B  B14  1  0.265127  0.601045  0.874354  1
  B  B15  1  0.463675  0.812779  0.628411  1
  B  B16  1  0.235090  0.893042  0.126708  1
  B  B17  1  0.522600  0.196249  0.383579  1
  B  B18  1  0.768166  0.104914  0.876955  1
  B  B19  1  0.995906  0.318305  0.632237  1
  B  B20  1  0.739353  0.396583  0.130104  1
  O  O21  1  0.034067  0.100955  0.886097  1
  O  O22  1  0.110707  0.717394  0.847924  1
  O  O23  1  0.164997  0.495859  0.919163  1
  O  O24  1  0.157626  0.212823  0.661778  1
  O  O25  1  0.084931  0.421394  0.580358  1
  O  O26  1  0.253663  0.839942  0.687767  1
  O  O27  1  0.259301  0.655464  0.341368  1
  O  O28  1  0.507489  0.589510  0.850085  1
  O  O29  1  0.627890  0.210206  0.829647  1
  O  O30  1  0.441209  0.098404  0.437310  1
  O  O31  1  0.370469  0.315014  0.362602  1
  O  O32  1  0.635390  0.012959  0.921257  1
  O  O33  1  0.339658  0.004129  0.085099  1
  O  O34  1  0.580314  0.668857  0.603934  1
  O  O35  1  0.550450  0.925864  0.588842  1
  O  O36  1  0.400850  0.792903  0.165816  1
  O  O37  1  0.474803  0.378742  0.118911  1
  O  O38  1  0.746678  0.335237  0.658003  1
  O  O39  1  0.755159  0.177275  0.342589  1
  O  O40  1  0.919072  0.567071  0.418508  1
  O  O41  1  0.861796  0.787731  0.353150  1
  O  O42  1  0.845253  0.508443  0.094670  1
  O  O43  1  0.905814  0.297301  0.176905  1
  O  O44  1  0.978703  0.889355  0.130023  1
