# generated using pymatgen
data_Li6MnCrP2(CO7)2
_symmetry_space_group_name_H-M   'P 1'
_cell_length_a   5.00722373
_cell_length_b   6.52463480
_cell_length_c   8.60704042
_cell_angle_alpha   90.00000000
_cell_angle_beta   94.35436579
_cell_angle_gamma   90.00000000
_symmetry_Int_Tables_number   1
_chemical_formula_structural   Li6MnCrP2(CO7)2
_chemical_formula_sum   'Li6 Mn1 Cr1 P2 C2 O14'
_cell_volume   280.38298882
_cell_formula_units_Z   1
loop_
 _symmetry_equiv_pos_site_id
 _symmetry_equiv_pos_as_xyz
  1  'x, y, z'
loop_
 _atom_site_type_symbol
 _atom_site_label
 _atom_site_symmetry_multiplicity
 _atom_site_fract_x
 _atom_site_fract_y
 _atom_site_fract_z
 _atom_site_occupancy
  Li  Li0  1  0.758440  0.500000  0.907553  1
  Li  Li1  1  0.246177  0.278571  0.726661  1
  Li  Li2  1  0.246177  0.721429  0.726661  1
  Li  Li3  1  0.752927  0.775189  0.273098  1
  Li  Li4  1  0.752927  0.224811  0.273098  1
  Li  Li5  1  0.242152  0.000000  0.090044  1
  Mn  Mn6  1  0.778486  0.000000  0.660094  1
  Cr  Cr7  1  0.215690  0.500000  0.335659  1
  P  P8  1  0.718952  0.500000  0.589951  1
  P  P9  1  0.282290  0.000000  0.411362  1
  C  C10  1  0.704660  0.000000  0.967303  1
  C  C11  1  0.293688  0.500000  0.032316  1
  O  O12  1  0.950278  0.000000  0.930812  1
  O  O13  1  0.357864  0.500000  0.888245  1
  O  O14  1  0.511062  0.000000  0.856534  1
  O  O15  1  0.829372  0.314799  0.689332  1
  O  O16  1  0.829372  0.685201  0.689332  1
  O  O17  1  0.189303  0.000000  0.578847  1
  O  O18  1  0.407104  0.500000  0.579401  1
  O  O19  1  0.594895  0.000000  0.423457  1
  O  O20  1  0.812467  0.500000  0.422326  1
  O  O21  1  0.174571  0.186555  0.312450  1
  O  O22  1  0.174571  0.813445  0.312450  1
  O  O23  1  0.483970  0.500000  0.145025  1
  O  O24  1  0.645086  0.000000  0.111984  1
  O  O25  1  0.047520  0.500000  0.066007  1
