# generated using pymatgen
data_LiCuBO3
_symmetry_space_group_name_H-M   'P 1'
_cell_length_a   3.14218548
_cell_length_b   14.06892144
_cell_length_c   14.07991060
_cell_angle_alpha   119.73799326
_cell_angle_beta   91.40986198
_cell_angle_gamma   89.67091648
_symmetry_Int_Tables_number   1
_chemical_formula_structural   LiCuBO3
_chemical_formula_sum   'Li9 Cu9 B9 O27'
_cell_volume   540.28161054
_cell_formula_units_Z   9
loop_
 _symmetry_equiv_pos_site_id
 _symmetry_equiv_pos_as_xyz
  1  'x, y, z'
loop_
 _atom_site_type_symbol
 _atom_site_label
 _atom_site_symmetry_multiplicity
 _atom_site_fract_x
 _atom_site_fract_y
 _atom_site_fract_z
 _atom_site_occupancy
  Li  Li0  1  0.484118  0.902180  0.778219  1
  Li  Li1  1  0.515720  0.891408  0.452584  1
  Li  Li2  1  0.443803  0.547316  0.438994  1
  Li  Li3  1  0.493613  0.876674  0.097241  1
  Li  Li4  1  0.547727  0.562095  0.109883  1
  Li  Li5  1  0.498016  0.552211  0.801974  1
  Li  Li6  1  0.512160  0.221342  0.124926  1
  Li  Li7  1  0.509733  0.198788  0.750557  1
  Li  Li8  1  0.497020  0.250842  0.448556  1
  Cu  Cu9  1  0.936149  0.755319  0.543900  1
  Cu  Cu10  1  0.990663  0.793535  0.246332  1
  Cu  Cu11  1  0.003969  0.785137  0.882887  1
  Cu  Cu12  1  0.060208  0.453484  0.208931  1
  Cu  Cu13  1  0.031476  0.419979  0.886900  1
  Cu  Cu14  1  0.960193  0.467464  0.581451  1
  Cu  Cu15  1  0.032433  0.118504  0.902289  1
  Cu  Cu16  1  0.031907  0.116742  0.535673  1
  Cu  Cu17  1  0.972251  0.099501  0.217714  1
  B  B18  1  0.003096  0.993390  0.658984  1
  B  B19  1  0.001674  0.666852  0.333971  1
  B  B20  1  0.010315  0.666712  0.008390  1
  B  B21  1  0.986102  0.342153  0.334763  1
  B  B22  1  0.467986  0.669582  0.676963  1
  B  B23  1  0.536659  0.322789  0.992020  1
  B  B24  1  0.998951  0.333628  0.666763  1
  B  B25  1  0.991872  0.000069  0.000186  1
  B  B26  1  0.491251  0.009209  0.331263  1
  O  O27  1  0.985760  0.971993  0.890923  1
  O  O28  1  0.038788  0.990155  0.559018  1
  O  O29  1  0.912434  0.899943  0.664667  1
  O  O30  1  0.446835  0.682442  0.586394  1
  O  O31  1  0.489106  0.905839  0.318130  1
  O  O32  1  0.001488  0.779168  0.379326  1
  O  O33  1  0.943182  0.622699  0.400764  1
  O  O34  1  0.970494  0.918370  0.027700  1
  O  O35  1  0.938371  0.442031  0.429506  1
  O  O36  1  0.921745  0.765684  0.100293  1
  O  O37  1  0.059925  0.600008  0.223725  1
  O  O38  1  0.096859  0.334589  0.236271  1
  O  O39  1  0.057525  0.662444  0.908542  1
  O  O40  1  0.047309  0.570234  0.012628  1
  O  O41  1  0.481388  0.759696  0.782218  1
  O  O42  1  0.547470  0.412496  0.095562  1
  O  O43  1  0.529851  0.336062  0.899909  1
  O  O44  1  0.476927  0.564496  0.664469  1
  O  O45  1  0.021065  0.108685  0.081016  1
  O  O46  1  0.531099  0.217004  0.977058  1
  O  O47  1  0.986741  0.438440  0.756224  1
  O  O48  1  0.021110  0.318072  0.562202  1
  O  O49  1  0.989618  0.243948  0.682495  1
  O  O50  1  0.055269  0.093359  0.754453  1
  O  O51  1  0.927837  0.246824  0.339299  1
  O  O52  1  0.503563  0.100629  0.435689  1
  O  O53  1  0.483359  0.023319  0.239648  1
