# generated using pymatgen
data_Mn(IO3)2
_symmetry_space_group_name_H-M   'P 1'
_cell_length_a   5.46038642
_cell_length_b   6.83178952
_cell_length_c   14.96534624
_cell_angle_alpha   90.00000000
_cell_angle_beta   90.00000000
_cell_angle_gamma   90.00000000
_symmetry_Int_Tables_number   1
_chemical_formula_structural   Mn(IO3)2
_chemical_formula_sum   'Mn4 I8 O24'
_cell_volume   558.27042962
_cell_formula_units_Z   4
loop_
 _symmetry_equiv_pos_site_id
 _symmetry_equiv_pos_as_xyz
  1  'x, y, z'
loop_
 _atom_site_type_symbol
 _atom_site_label
 _atom_site_symmetry_multiplicity
 _atom_site_fract_x
 _atom_site_fract_y
 _atom_site_fract_z
 _atom_site_occupancy
  Mn  Mn0  1  0.250000  0.854921  0.000000  1
  Mn  Mn1  1  0.750000  0.145079  0.000000  1
  Mn  Mn2  1  0.750000  0.645079  0.500000  1
  Mn  Mn3  1  0.250000  0.354921  0.500000  1
  I  I4  1  0.751768  0.712803  0.151624  1
  I  I5  1  0.251768  0.287197  0.151624  1
  I  I6  1  0.251768  0.787197  0.348376  1
  I  I7  1  0.751768  0.212803  0.348376  1
  I  I8  1  0.248232  0.787197  0.651624  1
  I  I9  1  0.748232  0.212803  0.651624  1
  I  I10  1  0.748232  0.712803  0.848376  1
  I  I11  1  0.248232  0.287197  0.848376  1
  O  O12  1  0.589156  0.892768  0.078881  1
  O  O13  1  0.089156  0.107232  0.078881  1
  O  O14  1  0.028736  0.663008  0.083626  1
  O  O15  1  0.528736  0.336992  0.083626  1
  O  O16  1  0.372586  0.626367  0.262439  1
  O  O17  1  0.872586  0.373633  0.262439  1
  O  O18  1  0.872586  0.873633  0.237561  1
  O  O19  1  0.372586  0.126367  0.237561  1
  O  O20  1  0.528736  0.836992  0.416374  1
  O  O21  1  0.028736  0.163008  0.416374  1
  O  O22  1  0.089156  0.607232  0.421119  1
  O  O23  1  0.589156  0.392768  0.421119  1
  O  O24  1  0.410844  0.607232  0.578881  1
  O  O25  1  0.910844  0.392768  0.578881  1
  O  O26  1  0.971264  0.836992  0.583626  1
  O  O27  1  0.471264  0.163008  0.583626  1
  O  O28  1  0.627414  0.873633  0.762439  1
  O  O29  1  0.127414  0.126367  0.762439  1
  O  O30  1  0.127414  0.626367  0.737561  1
  O  O31  1  0.627414  0.373633  0.737561  1
  O  O32  1  0.471264  0.663008  0.916374  1
  O  O33  1  0.971264  0.336992  0.916374  1
  O  O34  1  0.910844  0.892768  0.921119  1
  O  O35  1  0.410844  0.107232  0.921119  1
