# generated using pymatgen
data_Li7Mn5O12
_symmetry_space_group_name_H-M   'P 1'
_cell_length_a   5.10334640
_cell_length_b   5.10334640
_cell_length_c   9.66789182
_cell_angle_alpha   85.06915509
_cell_angle_beta   94.93084491
_cell_angle_gamma   60.64609338
_symmetry_Int_Tables_number   1
_chemical_formula_structural   Li7Mn5O12
_chemical_formula_sum   'Li7 Mn5 O12'
_cell_volume   216.26015836
_cell_formula_units_Z   1
loop_
 _symmetry_equiv_pos_site_id
 _symmetry_equiv_pos_as_xyz
  1  'x, y, z'
loop_
 _atom_site_type_symbol
 _atom_site_label
 _atom_site_symmetry_multiplicity
 _atom_site_fract_x
 _atom_site_fract_y
 _atom_site_fract_z
 _atom_site_occupancy
  Li  Li0  1  0.742712  0.742712  0.500000  1
  Li  Li1  1  0.824572  0.348551  0.735485  1
  Li  Li2  1  0.678437  0.152330  0.265560  1
  Li  Li3  1  0.348551  0.824572  0.264515  1
  Li  Li4  1  0.152330  0.678437  0.734440  1
  Li  Li5  1  0.255940  0.255940  0.000000  1
  Li  Li6  1  0.078859  0.078859  0.500000  1
  Mn  Mn7  1  0.926919  0.926919  0.000000  1
  Mn  Mn8  1  0.995389  0.491967  0.259922  1
  Mn  Mn9  1  0.491967  0.995389  0.740078  1
  Mn  Mn10  1  0.585449  0.585449  0.000000  1
  Mn  Mn11  1  0.419400  0.419400  0.500000  1
  O  O12  1  0.059428  0.748761  0.377218  1
  O  O13  1  0.748761  0.059428  0.622782  1
  O  O14  1  0.840175  0.655909  0.873595  1
  O  O15  1  0.655909  0.840175  0.126405  1
  O  O16  1  0.695883  0.449663  0.383069  1
  O  O17  1  0.449663  0.695883  0.616931  1
  O  O18  1  0.578956  0.279951  0.892614  1
  O  O19  1  0.279951  0.578956  0.107386  1
  O  O20  1  0.349831  0.162161  0.369275  1
  O  O21  1  0.162161  0.349831  0.630725  1
  O  O22  1  0.244371  0.934388  0.878749  1
  O  O23  1  0.934388  0.244371  0.121251  1
