# generated using pymatgen
data_Li4Mn3SbO8
_symmetry_space_group_name_H-M   'P 1'
_cell_length_a   6.11521863
_cell_length_b   6.11521863
_cell_length_c   6.11521863
_cell_angle_alpha   61.34879146
_cell_angle_beta   61.34879146
_cell_angle_gamma   61.34879146
_symmetry_Int_Tables_number   1
_chemical_formula_structural   Li4Mn3SbO8
_chemical_formula_sum   'Li4 Mn3 Sb1 O8'
_cell_volume   166.60513906
_cell_formula_units_Z   1
loop_
 _symmetry_equiv_pos_site_id
 _symmetry_equiv_pos_as_xyz
  1  'x, y, z'
loop_
 _atom_site_type_symbol
 _atom_site_label
 _atom_site_symmetry_multiplicity
 _atom_site_fract_x
 _atom_site_fract_y
 _atom_site_fract_z
 _atom_site_occupancy
  Li  Li0  1  0.500000  0.500000  0.500000  1
  Li  Li1  1  0.000000  0.000000  0.500000  1
  Li  Li2  1  0.000000  0.500000  0.000000  1
  Li  Li3  1  0.500000  0.000000  1.000000  1
  Mn  Mn4  1  0.500000  0.500000  0.000000  1
  Mn  Mn5  1  0.500000  0.000000  0.500000  1
  Mn  Mn6  1  0.000000  0.500000  0.500000  1
  Sb  Sb7  1  0.000000  1.000000  0.000000  1
  O  O8  1  0.734842  0.734842  0.734842  1
  O  O9  1  0.233025  0.233025  0.772086  1
  O  O10  1  0.233025  0.772086  0.233025  1
  O  O11  1  0.265158  0.265158  0.265158  1
  O  O12  1  0.772086  0.233025  0.233025  1
  O  O13  1  0.766975  0.766975  0.227914  1
  O  O14  1  0.766975  0.227914  0.766975  1
  O  O15  1  0.227914  0.766975  0.766975  1
