# generated using pymatgen
data_Nb2CoO6
_symmetry_space_group_name_H-M   'P 1'
_cell_length_a   4.83296648
_cell_length_b   4.83296648
_cell_length_c   9.20530117
_cell_angle_alpha   90.00000000
_cell_angle_beta   90.00000000
_cell_angle_gamma   90.00000000
_symmetry_Int_Tables_number   1
_chemical_formula_structural   Nb2CoO6
_chemical_formula_sum   'Nb4 Co2 O12'
_cell_volume   215.01342039
_cell_formula_units_Z   2
loop_
 _symmetry_equiv_pos_site_id
 _symmetry_equiv_pos_as_xyz
  1  'x, y, z'
loop_
 _atom_site_type_symbol
 _atom_site_label
 _atom_site_symmetry_multiplicity
 _atom_site_fract_x
 _atom_site_fract_y
 _atom_site_fract_z
 _atom_site_occupancy
  Nb  Nb0  1  0.000000  0.000000  0.669507  1
  Nb  Nb1  1  0.000000  0.000000  0.330493  1
  Nb  Nb2  1  0.500000  0.500000  0.830493  1
  Nb  Nb3  1  0.500000  0.500000  0.169507  1
  Co  Co4  1  0.000000  0.000000  0.000000  1
  Co  Co5  1  0.500000  0.500000  0.500000  1
  O  O6  1  0.203755  0.796245  0.825217  1
  O  O7  1  0.189863  0.810137  0.500000  1
  O  O8  1  0.203755  0.796245  0.174783  1
  O  O9  1  0.296245  0.296245  0.674783  1
  O  O10  1  0.310137  0.310137  0.000000  1
  O  O11  1  0.296245  0.296245  0.325217  1
  O  O12  1  0.703755  0.703755  0.674783  1
  O  O13  1  0.689863  0.689863  0.000000  1
  O  O14  1  0.703755  0.703755  0.325217  1
  O  O15  1  0.810137  0.189863  0.500000  1
  O  O16  1  0.796245  0.203755  0.825217  1
  O  O17  1  0.796245  0.203755  0.174783  1
