# generated using pymatgen
data_Mn3(OF2)2
_symmetry_space_group_name_H-M   'P 1'
_cell_length_a   4.80538881
_cell_length_b   5.74930572
_cell_length_c   7.97406225
_cell_angle_alpha   87.10450707
_cell_angle_beta   87.60078453
_cell_angle_gamma   88.53260747
_symmetry_Int_Tables_number   1
_chemical_formula_structural   Mn3(OF2)2
_chemical_formula_sum   'Mn6 O4 F8'
_cell_volume   219.76953206
_cell_formula_units_Z   2
loop_
 _symmetry_equiv_pos_site_id
 _symmetry_equiv_pos_as_xyz
  1  'x, y, z'
loop_
 _atom_site_type_symbol
 _atom_site_label
 _atom_site_symmetry_multiplicity
 _atom_site_fract_x
 _atom_site_fract_y
 _atom_site_fract_z
 _atom_site_occupancy
  Mn  Mn0  1  0.496622  0.495957  0.005013  1
  Mn  Mn1  1  0.561559  0.831817  0.662594  1
  Mn  Mn2  1  0.489497  0.170404  0.336461  1
  Mn  Mn3  1  0.966969  0.332746  0.677195  1
  Mn  Mn4  1  0.007734  0.668308  0.333737  1
  Mn  Mn5  1  0.992170  0.992879  0.984386  1
  O  O6  1  0.805975  0.044772  0.764469  1
  O  O7  1  0.694561  0.528556  0.782294  1
  O  O8  1  0.693958  0.882099  0.430558  1
  O  O9  1  0.309047  0.460915  0.229732  1
  F  F10  1  0.797566  0.375772  0.431735  1
  F  F11  1  0.799133  0.692901  0.099124  1
  F  F12  1  0.700447  0.193415  0.104223  1
  F  F13  1  0.279744  0.141709  0.568408  1
  F  F14  1  0.320590  0.804776  0.887593  1
  F  F15  1  0.182316  0.618620  0.577975  1
  F  F16  1  0.195733  0.961757  0.217491  1
  F  F17  1  0.206375  0.302596  0.907010  1
