# generated using pymatgen
data_Ba2YF7
_symmetry_space_group_name_H-M   'P 1'
_cell_length_a   5.93184038
_cell_length_b   13.22854422
_cell_length_c   8.92422295
_cell_angle_alpha   90.00000000
_cell_angle_beta   90.65592477
_cell_angle_gamma   90.00000000
_symmetry_Int_Tables_number   1
_chemical_formula_structural   Ba2YF7
_chemical_formula_sum   'Ba8 Y4 F28'
_cell_volume   700.23443147
_cell_formula_units_Z   4
loop_
 _symmetry_equiv_pos_site_id
 _symmetry_equiv_pos_as_xyz
  1  'x, y, z'
loop_
 _atom_site_type_symbol
 _atom_site_label
 _atom_site_symmetry_multiplicity
 _atom_site_fract_x
 _atom_site_fract_y
 _atom_site_fract_z
 _atom_site_occupancy
  Ba  Ba0  1  0.734469  0.220342  0.947367  1
  Ba  Ba1  1  0.737829  0.562518  0.823400  1
  Ba  Ba2  1  0.262171  0.062518  0.676600  1
  Ba  Ba3  1  0.265531  0.720342  0.552633  1
  Ba  Ba4  1  0.734469  0.279658  0.447367  1
  Ba  Ba5  1  0.737829  0.937482  0.323400  1
  Ba  Ba6  1  0.262171  0.437482  0.176600  1
  Ba  Ba7  1  0.265531  0.779658  0.052633  1
  Y  Y8  1  0.779046  0.874361  0.784218  1
  Y  Y9  1  0.220954  0.374361  0.715782  1
  Y  Y10  1  0.779046  0.625639  0.284218  1
  Y  Y11  1  0.220954  0.125639  0.215782  1
  F  F12  1  0.294112  0.139858  0.972720  1
  F  F13  1  0.008360  0.394395  0.923791  1
  F  F14  1  0.478732  0.395203  0.907870  1
  F  F15  1  0.118821  0.924704  0.869008  1
  F  F16  1  0.519842  0.746558  0.803396  1
  F  F17  1  0.991363  0.731713  0.795184  1
  F  F18  1  0.700213  0.038549  0.788159  1
  F  F19  1  0.299787  0.538549  0.711841  1
  F  F20  1  0.008637  0.231713  0.704816  1
  F  F21  1  0.480158  0.246558  0.696604  1
  F  F22  1  0.881179  0.424704  0.630992  1
  F  F23  1  0.521268  0.895203  0.592130  1
  F  F24  1  0.991640  0.894395  0.576209  1
  F  F25  1  0.705888  0.639858  0.527280  1
  F  F26  1  0.294112  0.360142  0.472720  1
  F  F27  1  0.008360  0.105605  0.423791  1
  F  F28  1  0.478732  0.104797  0.407870  1
  F  F29  1  0.118821  0.575296  0.369008  1
  F  F30  1  0.519842  0.753442  0.303396  1
  F  F31  1  0.991363  0.768287  0.295184  1
  F  F32  1  0.700213  0.461451  0.288159  1
  F  F33  1  0.299787  0.961451  0.211841  1
  F  F34  1  0.008637  0.268287  0.204816  1
  F  F35  1  0.480158  0.253442  0.196604  1
  F  F36  1  0.881179  0.075296  0.130992  1
  F  F37  1  0.521268  0.604797  0.092130  1
  F  F38  1  0.991640  0.605605  0.076209  1
  F  F39  1  0.705888  0.860142  0.027280  1
