# generated using pymatgen
data_Li2Cu2Si5O13
_symmetry_space_group_name_H-M   'P 1'
_cell_length_a   7.61286735
_cell_length_b   7.85429735
_cell_length_c   9.66428140
_cell_angle_alpha   83.02759852
_cell_angle_beta   111.25298413
_cell_angle_gamma   112.16235836
_symmetry_Int_Tables_number   1
_chemical_formula_structural   Li2Cu2Si5O13
_chemical_formula_sum   'Li4 Cu4 Si10 O26'
_cell_volume   498.69368839
_cell_formula_units_Z   2
loop_
 _symmetry_equiv_pos_site_id
 _symmetry_equiv_pos_as_xyz
  1  'x, y, z'
loop_
 _atom_site_type_symbol
 _atom_site_label
 _atom_site_symmetry_multiplicity
 _atom_site_fract_x
 _atom_site_fract_y
 _atom_site_fract_z
 _atom_site_occupancy
  Li  Li0  1  0.214488  0.932350  0.136391  1
  Li  Li1  1  0.153707  0.598078  0.260411  1
  Li  Li2  1  0.846293  0.401922  0.739589  1
  Li  Li3  1  0.785512  0.067650  0.863609  1
  Cu  Cu4  1  0.047381  0.852486  0.401578  1
  Cu  Cu5  1  0.440417  0.155453  0.590833  1
  Cu  Cu6  1  0.559583  0.844547  0.409167  1
  Cu  Cu7  1  0.952619  0.147514  0.598422  1
  Si  Si8  1  0.174786  0.780476  0.739272  1
  Si  Si9  1  0.205232  0.308312  0.948400  1
  Si  Si10  1  0.311643  0.539081  0.597103  1
  Si  Si11  1  0.244126  0.244068  0.265923  1
  Si  Si12  1  0.615062  0.290437  0.947694  1
  Si  Si13  1  0.384938  0.709563  0.052306  1
  Si  Si14  1  0.755874  0.755932  0.734077  1
  Si  Si15  1  0.688357  0.460919  0.402897  1
  Si  Si16  1  0.794768  0.691688  0.051600  1
  Si  Si17  1  0.825214  0.219524  0.260728  1
  O  O18  1  0.005767  0.225682  0.805603  1
  O  O19  1  0.198029  0.944743  0.620418  1
  O  O20  1  0.324290  0.846380  0.912281  1
  O  O21  1  0.215707  0.604973  0.701165  1
  O  O22  1  0.056753  0.307347  0.252985  1
  O  O23  1  0.404270  0.316547  0.921317  1
  O  O24  1  0.192837  0.320494  0.566122  1
  O  O25  1  0.316214  0.676982  0.456916  1
  O  O26  1  0.553465  0.572257  0.694764  1
  O  O27  1  0.380066  0.788891  0.196386  1
  O  O28  1  0.210152  0.502359  0.001001  1
  O  O29  1  0.276007  0.075932  0.376587  1
  O  O30  1  0.193932  0.171052  0.094997  1
  O  O31  1  0.806068  0.828948  0.905003  1
  O  O32  1  0.723993  0.924068  0.623413  1
  O  O33  1  0.789848  0.497641  0.998999  1
  O  O34  1  0.619934  0.211109  0.803614  1
  O  O35  1  0.446535  0.427743  0.305236  1
  O  O36  1  0.683786  0.323018  0.543084  1
  O  O37  1  0.807163  0.679506  0.433878  1
  O  O38  1  0.595730  0.683453  0.078683  1
  O  O39  1  0.943247  0.692653  0.747015  1
  O  O40  1  0.784293  0.395027  0.298835  1
  O  O41  1  0.675710  0.153620  0.087719  1
  O  O42  1  0.801971  0.055257  0.379582  1
  O  O43  1  0.994233  0.774318  0.194397  1
