# generated using pymatgen
data_CoSb(PO4)2
_symmetry_space_group_name_H-M   'P 1'
_cell_length_a   5.00071279
_cell_length_b   6.24069067
_cell_length_c   10.21297352
_cell_angle_alpha   90.00000000
_cell_angle_beta   92.44612193
_cell_angle_gamma   90.00000000
_symmetry_Int_Tables_number   1
_chemical_formula_structural   CoSb(PO4)2
_chemical_formula_sum   'Co2 Sb2 P4 O16'
_cell_volume   318.43504949
_cell_formula_units_Z   2
loop_
 _symmetry_equiv_pos_site_id
 _symmetry_equiv_pos_as_xyz
  1  'x, y, z'
loop_
 _atom_site_type_symbol
 _atom_site_label
 _atom_site_symmetry_multiplicity
 _atom_site_fract_x
 _atom_site_fract_y
 _atom_site_fract_z
 _atom_site_occupancy
  Co  Co0  1  0.545628  0.250000  0.225676  1
  Co  Co1  1  0.454372  0.750000  0.774324  1
  Sb  Sb2  1  0.037390  0.750000  0.279592  1
  Sb  Sb3  1  0.962610  0.250000  0.720408  1
  P  P4  1  0.586880  0.750000  0.095100  1
  P  P5  1  0.100625  0.250000  0.401380  1
  P  P6  1  0.899375  0.750000  0.598620  1
  P  P7  1  0.413120  0.250000  0.904900  1
  O  O8  1  0.360828  0.250000  0.049408  1
  O  O9  1  0.280953  0.750000  0.115112  1
  O  O10  1  0.734269  0.942364  0.173084  1
  O  O11  1  0.734269  0.557636  0.173084  1
  O  O12  1  0.240078  0.054815  0.331376  1
  O  O13  1  0.240078  0.445185  0.331376  1
  O  O14  1  0.798974  0.250000  0.382204  1
  O  O15  1  0.807701  0.750000  0.451018  1
  O  O16  1  0.192299  0.250000  0.548982  1
  O  O17  1  0.201026  0.750000  0.617796  1
  O  O18  1  0.759922  0.945185  0.668624  1
  O  O19  1  0.759922  0.554815  0.668624  1
  O  O20  1  0.265731  0.442364  0.826916  1
  O  O21  1  0.265731  0.057636  0.826916  1
  O  O22  1  0.719047  0.250000  0.884888  1
  O  O23  1  0.639172  0.750000  0.950592  1
