# generated using pymatgen
data_LiAlVO4
_symmetry_space_group_name_H-M   'P 1'
_cell_length_a   5.48808452
_cell_length_b   5.48808452
_cell_length_c   12.20561709
_cell_angle_alpha   90.00000000
_cell_angle_beta   90.00000000
_cell_angle_gamma   120.00000000
_symmetry_Int_Tables_number   1
_chemical_formula_structural   LiAlVO4
_chemical_formula_sum   'Li3 Al3 V3 O12'
_cell_volume   318.36986688
_cell_formula_units_Z   3
loop_
 _symmetry_equiv_pos_site_id
 _symmetry_equiv_pos_as_xyz
  1  'x, y, z'
loop_
 _atom_site_type_symbol
 _atom_site_label
 _atom_site_symmetry_multiplicity
 _atom_site_fract_x
 _atom_site_fract_y
 _atom_site_fract_z
 _atom_site_occupancy
  Li  Li0  1  0.000000  0.000000  0.166667  1
  Li  Li1  1  0.000000  0.000000  0.500000  1
  Li  Li2  1  0.000000  0.000000  0.833333  1
  Al  Al3  1  0.000000  0.500000  0.166667  1
  Al  Al4  1  0.500000  0.500000  0.833333  1
  Al  Al5  1  0.500000  0.000000  0.500000  1
  V  V6  1  0.000000  0.500000  0.666667  1
  V  V7  1  0.500000  0.500000  0.333333  1
  V  V8  1  0.500000  0.000000  0.000000  1
  O  O9  1  0.198951  0.813181  0.090653  1
  O  O10  1  0.186819  0.801049  0.576014  1
  O  O11  1  0.198951  0.385770  0.242681  1
  O  O12  1  0.186819  0.385770  0.757319  1
  O  O13  1  0.614230  0.801049  0.423986  1
  O  O14  1  0.614230  0.813181  0.909347  1
  O  O15  1  0.385770  0.198951  0.423986  1
  O  O16  1  0.385770  0.186819  0.909347  1
  O  O17  1  0.801049  0.614230  0.242681  1
  O  O18  1  0.813181  0.614230  0.757319  1
  O  O19  1  0.801049  0.186819  0.090653  1
  O  O20  1  0.813181  0.198951  0.576014  1
