# generated using pymatgen
data_Na10Zn7Sn7H24(S13O6)2
_symmetry_space_group_name_H-M   'P 1'
_cell_length_a   12.77243811
_cell_length_b   12.77243811
_cell_length_c   12.77243811
_cell_angle_alpha   59.96478125
_cell_angle_beta   59.96478125
_cell_angle_gamma   59.96478125
_symmetry_Int_Tables_number   1
_chemical_formula_structural   Na10Zn7Sn7H24(S13O6)2
_chemical_formula_sum   'Na10 Zn7 Sn7 H24 S26 O12'
_cell_volume   1472.17495353
_cell_formula_units_Z   1
loop_
 _symmetry_equiv_pos_site_id
 _symmetry_equiv_pos_as_xyz
  1  'x, y, z'
loop_
 _atom_site_type_symbol
 _atom_site_label
 _atom_site_symmetry_multiplicity
 _atom_site_fract_x
 _atom_site_fract_y
 _atom_site_fract_z
 _atom_site_occupancy
  Na  Na0  1  0.749779  0.749779  0.749779  1
  Na  Na1  1  0.644266  0.644266  0.644266  1
  Na  Na2  1  0.648769  0.060338  0.650386  1
  Na  Na3  1  0.060338  0.650386  0.648769  1
  Na  Na4  1  0.650386  0.648769  0.060338  1
  Na  Na5  1  0.141853  0.142727  0.567910  1
  Na  Na6  1  0.142727  0.567910  0.141853  1
  Na  Na7  1  0.249732  0.249732  0.249732  1
  Na  Na8  1  0.567910  0.141853  0.142727  1
  Na  Na9  1  0.145209  0.145209  0.145209  1
  Zn  Zn10  1  0.924453  0.924453  0.924453  1
  Zn  Zn11  1  0.924023  0.224549  0.923482  1
  Zn  Zn12  1  0.224549  0.923482  0.924023  1
  Zn  Zn13  1  0.923482  0.924023  0.224549  1
  Zn  Zn14  1  0.419124  0.421907  0.740416  1
  Zn  Zn15  1  0.740416  0.419124  0.421907  1
  Zn  Zn16  1  0.421907  0.740416  0.419124  1
  Sn  Sn17  1  0.751157  0.249214  0.749908  1
  Sn  Sn18  1  0.249214  0.749908  0.751157  1
  Sn  Sn19  1  0.749908  0.751157  0.249214  1
  Sn  Sn20  1  0.248668  0.239895  0.762113  1
  Sn  Sn21  1  0.426612  0.426612  0.426612  1
  Sn  Sn22  1  0.762113  0.248668  0.239895  1
  Sn  Sn23  1  0.239895  0.762113  0.248668  1
  H  H24  1  0.902613  0.647954  0.923745  1
  H  H25  1  0.647954  0.923745  0.902613  1
  H  H26  1  0.526745  0.902252  0.923810  1
  H  H27  1  0.923810  0.526745  0.902252  1
  H  H28  1  0.923745  0.902613  0.647954  1
  H  H29  1  0.647458  0.526503  0.922926  1
  H  H30  1  0.526113  0.647960  0.899756  1
  H  H31  1  0.902252  0.923810  0.526745  1
  H  H32  1  0.526503  0.922926  0.647458  1
  H  H33  1  0.899756  0.526113  0.647960  1
  H  H34  1  0.922926  0.647458  0.526503  1
  H  H35  1  0.647960  0.899756  0.526113  1
  H  H36  1  0.145898  0.403873  0.421929  1
  H  H37  1  0.421929  0.145898  0.403873  1
  H  H38  1  0.402005  0.025417  0.423410  1
  H  H39  1  0.025417  0.423410  0.402005  1
  H  H40  1  0.403873  0.421929  0.145898  1
  H  H41  1  0.025866  0.147401  0.424151  1
  H  H42  1  0.147242  0.026445  0.404021  1
  H  H43  1  0.423410  0.402005  0.025417  1
  H  H44  1  0.424151  0.025866  0.147401  1
  H  H45  1  0.026445  0.404021  0.147242  1
  H  H46  1  0.147401  0.424151  0.025866  1
  H  H47  1  0.404021  0.147242  0.026445  1
  S  S48  1  0.999919  0.999919  0.999919  1
  S  S49  1  0.307380  0.714240  0.923325  1
  S  S50  1  0.923325  0.307380  0.714240  1
  S  S51  1  0.714799  0.056075  0.923298  1
  S  S52  1  0.557336  0.425052  0.804278  1
  S  S53  1  0.056075  0.923298  0.714799  1
  S  S54  1  0.212074  0.556766  0.805123  1
  S  S55  1  0.425052  0.804278  0.557336  1
  S  S56  1  0.714240  0.923325  0.307380  1
  S  S57  1  0.428090  0.213697  0.800568  1
  S  S58  1  0.804278  0.557336  0.425052  1
  S  S59  1  0.052353  0.307956  0.924313  1
  S  S60  1  0.805123  0.212074  0.556766  1
  S  S61  1  0.503831  0.503831  0.503831  1
  S  S62  1  0.213697  0.800568  0.428090  1
  S  S63  1  0.305121  0.055660  0.713604  1
  S  S64  1  0.556766  0.805123  0.212074  1
  S  S65  1  0.210864  0.421432  0.560440  1
  S  S66  1  0.923298  0.714799  0.056075  1
  S  S67  1  0.800568  0.428090  0.213697  1
  S  S68  1  0.560440  0.210864  0.421432  1
  S  S69  1  0.924313  0.052353  0.307956  1
  S  S70  1  0.421432  0.560440  0.210864  1
  S  S71  1  0.055660  0.713604  0.305121  1
  S  S72  1  0.307956  0.924313  0.052353  1
  S  S73  1  0.713604  0.305121  0.055660  1
  O  O74  1  0.621164  0.879982  0.879194  1
  O  O75  1  0.879194  0.621164  0.879982  1
  O  O76  1  0.619306  0.621189  0.882173  1
  O  O77  1  0.879982  0.879194  0.621164  1
  O  O78  1  0.882173  0.619306  0.621189  1
  O  O79  1  0.621189  0.882173  0.619306  1
  O  O80  1  0.379280  0.119437  0.379521  1
  O  O81  1  0.119437  0.379521  0.379280  1
  O  O82  1  0.379521  0.379280  0.119437  1
  O  O83  1  0.119691  0.120641  0.378844  1
  O  O84  1  0.120641  0.378844  0.119691  1
  O  O85  1  0.378844  0.119691  0.120641  1
