# generated using pymatgen
data_Na5Te2H36AuO28
_symmetry_space_group_name_H-M   'P 1'
_cell_length_a   5.99453859
_cell_length_b   9.01624529
_cell_length_c   12.79370353
_cell_angle_alpha   98.14824737
_cell_angle_beta   98.45870071
_cell_angle_gamma   92.70622256
_symmetry_Int_Tables_number   1
_chemical_formula_structural   Na5Te2H36AuO28
_chemical_formula_sum   'Na5 Te2 H36 Au1 O28'
_cell_volume   675.41268954
_cell_formula_units_Z   1
loop_
 _symmetry_equiv_pos_site_id
 _symmetry_equiv_pos_as_xyz
  1  'x, y, z'
loop_
 _atom_site_type_symbol
 _atom_site_label
 _atom_site_symmetry_multiplicity
 _atom_site_fract_x
 _atom_site_fract_y
 _atom_site_fract_z
 _atom_site_occupancy
  Na  Na0  1  0.000000  0.000000  0.500000  1
  Na  Na1  1  0.652498  0.669806  0.045718  1
  Na  Na2  1  0.347502  0.330194  0.954282  1
  Na  Na3  1  0.671345  0.773691  0.318549  1
  Na  Na4  1  0.328655  0.226309  0.681451  1
  Te  Te5  1  0.816467  0.755262  0.805812  1
  Te  Te6  1  0.183533  0.244738  0.194188  1
  H  H7  1  0.145653  0.718196  0.701071  1
  H  H8  1  0.854347  0.281804  0.298929  1
  H  H9  1  0.399206  0.768726  0.834047  1
  H  H10  1  0.600794  0.231274  0.165953  1
  H  H11  1  0.112910  0.486261  0.790504  1
  H  H12  1  0.887090  0.513739  0.209496  1
  H  H13  1  0.375918  0.527843  0.817461  1
  H  H14  1  0.624082  0.472157  0.182539  1
  H  H15  1  0.002401  0.683951  0.520287  1
  H  H16  1  0.997599  0.316049  0.479713  1
  H  H17  1  0.791636  0.750484  0.566839  1
  H  H18  1  0.208364  0.249516  0.433161  1
  H  H19  1  0.434747  0.659988  0.617009  1
  H  H20  1  0.565253  0.340012  0.382991  1
  H  H21  1  0.284525  0.503637  0.578173  1
  H  H22  1  0.715475  0.496363  0.421827  1
  H  H23  1  0.834739  0.194015  0.661995  1
  H  H24  1  0.165261  0.805985  0.338005  1
  H  H25  1  0.902588  0.066696  0.733140  1
  H  H26  1  0.097412  0.933304  0.266860  1
  H  H27  1  0.555067  0.059029  0.850534  1
  H  H28  1  0.444933  0.940971  0.149466  1
  H  H29  1  0.297339  0.011807  0.818514  1
  H  H30  1  0.702661  0.988193  0.181486  1
  H  H31  1  0.730182  0.429218  0.689551  1
  H  H32  1  0.269818  0.570782  0.310449  1
  H  H33  1  0.672526  0.361717  0.564252  1
  H  H34  1  0.327474  0.638283  0.435748  1
  H  H35  1  0.784267  0.458141  0.891168  1
  H  H36  1  0.215733  0.541859  0.108832  1
  H  H37  1  0.836244  0.357332  0.983930  1
  H  H38  1  0.163756  0.642668  0.016070  1
  H  H39  1  0.510034  0.922752  0.620241  1
  H  H40  1  0.489966  0.077248  0.379759  1
  H  H41  1  0.267822  0.915127  0.639337  1
  H  H42  1  0.732178  0.084873  0.360663  1
  Au  Au43  1  0.000000  0.000000  0.000000  1
  O  O44  1  0.122506  0.802566  0.756223  1
  O  O45  1  0.877494  0.197434  0.243777  1
  O  O46  1  0.653616  0.769022  0.669664  1
  O  O47  1  0.346384  0.230978  0.330336  1
  O  O48  1  0.857884  0.547746  0.787366  1
  O  O49  1  0.142116  0.452254  0.212634  1
  O  O50  1  0.530240  0.716121  0.865394  1
  O  O51  1  0.469760  0.283879  0.134606  1
  O  O52  1  0.973281  0.774174  0.956769  1
  O  O53  1  0.026719  0.225826  0.043231  1
  O  O54  1  0.822423  0.978866  0.849653  1
  O  O55  1  0.177577  0.021134  0.150347  1
  O  O56  1  0.263686  0.440762  0.794566  1
  O  O57  1  0.736314  0.559238  0.205434  1
  O  O58  1  0.868580  0.739252  0.500941  1
  O  O59  1  0.131420  0.260748  0.499059  1
  O  O60  1  0.285826  0.610729  0.573142  1
  O  O61  1  0.714174  0.389271  0.426858  1
  O  O62  1  0.942586  0.114420  0.672674  1
  O  O63  1  0.057414  0.885580  0.327326  1
  O  O64  1  0.402774  0.100375  0.843986  1
  O  O65  1  0.597226  0.899625  0.156014  1
  O  O66  1  0.661271  0.338196  0.636633  1
  O  O67  1  0.338729  0.661804  0.363367  1
  O  O68  1  0.722025  0.419136  0.950890  1
  O  O69  1  0.277975  0.580864  0.049110  1
  O  O70  1  0.364994  0.969626  0.600454  1
  O  O71  1  0.635006  0.030374  0.399546  1
