# generated using pymatgen
data_V4(OF3)3
_symmetry_space_group_name_H-M   'P 1'
_cell_length_a   5.22062414
_cell_length_b   5.41375176
_cell_length_c   17.54049578
_cell_angle_alpha   89.81646079
_cell_angle_beta   98.51470541
_cell_angle_gamma   118.75178166
_symmetry_Int_Tables_number   1
_chemical_formula_structural   V4(OF3)3
_chemical_formula_sum   'V8 O6 F18'
_cell_volume   428.51460068
_cell_formula_units_Z   2
loop_
 _symmetry_equiv_pos_site_id
 _symmetry_equiv_pos_as_xyz
  1  'x, y, z'
loop_
 _atom_site_type_symbol
 _atom_site_label
 _atom_site_symmetry_multiplicity
 _atom_site_fract_x
 _atom_site_fract_y
 _atom_site_fract_z
 _atom_site_occupancy
  V  V0  1  0.250347  0.624391  0.875048  1
  V  V1  1  0.216828  0.117869  0.369880  1
  V  V2  1  0.542833  0.261264  0.750570  1
  V  V3  1  0.509610  0.754448  0.249787  1
  V  V4  1  0.747607  0.889540  0.627189  1
  V  V5  1  0.731188  0.391674  0.127022  1
  V  V6  1  0.962011  0.986287  0.998467  1
  V  V7  1  0.998849  0.487821  0.492884  1
  O  O8  1  0.078717  0.342347  0.421031  1
  O  O9  1  0.602654  0.802316  0.959121  1
  O  O10  1  0.606849  0.072147  0.667194  1
  O  O11  1  0.598032  0.580621  0.166714  1
  O  O12  1  0.899969  0.448846  0.791697  1
  O  O13  1  0.922446  0.972292  0.296804  1
  F  F14  1  0.090186  0.848647  0.915059  1
  F  F15  1  0.040241  0.323391  0.941325  1
  F  F16  1  0.027658  0.817576  0.439374  1
  F  F17  1  0.464111  0.929023  0.810939  1
  F  F18  1  0.101645  0.032759  0.707738  1
  F  F19  1  0.083244  0.532905  0.208913  1
  F  F20  1  0.407812  0.401138  0.833728  1
  F  F21  1  0.408226  0.909357  0.336716  1
  F  F22  1  0.423767  0.719167  0.538855  1
  F  F23  1  0.535804  0.551355  0.683826  1
  F  F24  1  0.468466  0.434446  0.313912  1
  F  F25  1  0.567539  0.286102  0.458141  1
  F  F26  1  0.410609  0.204613  0.039328  1
  F  F27  1  0.916580  0.666558  0.580769  1
  F  F28  1  0.524719  0.058648  0.185124  1
  F  F29  1  0.968904  0.686787  0.061941  1
  F  F30  1  0.975748  0.194254  0.563419  1
  F  F31  1  0.916801  0.171412  0.087480  1
