# generated using pymatgen
data_LiV4OF11
_symmetry_space_group_name_H-M   'P 1'
_cell_length_a   5.26605766
_cell_length_b   5.49829749
_cell_length_c   17.42365241
_cell_angle_alpha   88.28214715
_cell_angle_beta   98.49641357
_cell_angle_gamma   118.10180257
_symmetry_Int_Tables_number   1
_chemical_formula_structural   LiV4OF11
_chemical_formula_sum   'Li2 V8 O2 F22'
_cell_volume   439.67915603
_cell_formula_units_Z   2
loop_
 _symmetry_equiv_pos_site_id
 _symmetry_equiv_pos_as_xyz
  1  'x, y, z'
loop_
 _atom_site_type_symbol
 _atom_site_label
 _atom_site_symmetry_multiplicity
 _atom_site_fract_x
 _atom_site_fract_y
 _atom_site_fract_z
 _atom_site_occupancy
  Li  Li0  1  0.447509  0.794606  0.071293  1
  Li  Li1  1  0.700200  0.927258  0.448603  1
  V  V2  1  0.983394  0.980272  0.001806  1
  V  V3  1  0.750876  0.405572  0.121098  1
  V  V4  1  0.754240  0.871515  0.627442  1
  V  V5  1  0.500349  0.245065  0.751237  1
  V  V6  1  0.497586  0.756581  0.250253  1
  V  V7  1  0.249375  0.142298  0.378896  1
  V  V8  1  0.024912  0.497914  0.499013  1
  V  V9  1  0.251592  0.616059  0.875302  1
  O  O10  1  0.757769  0.692693  0.061929  1
  O  O11  1  0.153141  0.276534  0.459050  1
  F  F12  1  0.789847  0.193003  0.038322  1
  F  F13  1  0.713193  0.062443  0.184379  1
  F  F14  1  0.763478  0.168228  0.559388  1
  F  F15  1  0.679819  0.034239  0.715874  1
  F  F16  1  0.684986  0.353249  0.413202  1
  F  F17  1  0.686492  0.551974  0.215853  1
  F  F18  1  0.825837  0.724117  0.531307  1
  F  F19  1  0.800220  0.897992  0.346122  1
  F  F20  1  0.827922  0.415061  0.839725  1
  F  F21  1  0.316001  0.155749  0.086839  1
  F  F22  1  0.727918  0.553660  0.686300  1
  F  F23  1  0.257670  0.430684  0.306446  1
  F  F24  1  0.674164  0.830180  0.908561  1
  F  F25  1  0.174871  0.081584  0.661867  1
  F  F26  1  0.201899  0.606289  0.153469  1
  F  F27  1  0.330470  0.663705  0.591011  1
  F  F28  1  0.321593  0.456060  0.784445  1
  F  F29  1  0.323517  0.965430  0.287741  1
  F  F30  1  0.280904  0.831379  0.437398  1
  F  F31  1  0.220313  0.302801  0.937098  1
  F  F32  1  0.274002  0.933391  0.813949  1
  F  F33  1  0.199462  0.775175  0.971132  1
