# generated using pymatgen
data_TbCrO3
_symmetry_space_group_name_H-M   'P 1'
_cell_length_a   5.32639422
_cell_length_b   5.60689459
_cell_length_c   7.68288031
_cell_angle_alpha   90.00000000
_cell_angle_beta   90.00000000
_cell_angle_gamma   90.00000000
_symmetry_Int_Tables_number   1
_chemical_formula_structural   TbCrO3
_chemical_formula_sum   'Tb4 Cr4 O12'
_cell_volume   229.44561670
_cell_formula_units_Z   4
loop_
 _symmetry_equiv_pos_site_id
 _symmetry_equiv_pos_as_xyz
  1  'x, y, z'
loop_
 _atom_site_type_symbol
 _atom_site_label
 _atom_site_symmetry_multiplicity
 _atom_site_fract_x
 _atom_site_fract_y
 _atom_site_fract_z
 _atom_site_occupancy
  Tb  Tb0  1  0.519430  0.565683  0.250000  1
  Tb  Tb1  1  0.980570  0.065683  0.250000  1
  Tb  Tb2  1  0.480570  0.434317  0.750000  1
  Tb  Tb3  1  0.019430  0.934317  0.750000  1
  Cr  Cr4  1  0.500000  0.000000  0.000000  1
  Cr  Cr5  1  0.000000  0.500000  0.500000  1
  Cr  Cr6  1  0.500000  0.000000  0.500000  1
  Cr  Cr7  1  0.000000  0.500000  0.000000  1
  O  O8  1  0.388821  0.960059  0.250000  1
  O  O9  1  0.111179  0.460059  0.250000  1
  O  O10  1  0.611179  0.039941  0.750000  1
  O  O11  1  0.888821  0.539941  0.750000  1
  O  O12  1  0.804918  0.801369  0.057452  1
  O  O13  1  0.695082  0.301369  0.442548  1
  O  O14  1  0.195082  0.198631  0.557452  1
  O  O15  1  0.304918  0.698631  0.942548  1
  O  O16  1  0.195082  0.198631  0.942548  1
  O  O17  1  0.304918  0.698631  0.557452  1
  O  O18  1  0.804918  0.801369  0.442548  1
  O  O19  1  0.695082  0.301369  0.057452  1
