# generated using pymatgen
data_Fe5(OF4)2
_symmetry_space_group_name_H-M   'P 1'
_cell_length_a   7.98772798
_cell_length_b   4.81939059
_cell_length_c   10.08367206
_cell_angle_alpha   90.00000000
_cell_angle_beta   108.05289715
_cell_angle_gamma   90.00000000
_symmetry_Int_Tables_number   1
_chemical_formula_structural   Fe5(OF4)2
_chemical_formula_sum   'Fe10 O4 F16'
_cell_volume   369.07102289
_cell_formula_units_Z   2
loop_
 _symmetry_equiv_pos_site_id
 _symmetry_equiv_pos_as_xyz
  1  'x, y, z'
loop_
 _atom_site_type_symbol
 _atom_site_label
 _atom_site_symmetry_multiplicity
 _atom_site_fract_x
 _atom_site_fract_y
 _atom_site_fract_z
 _atom_site_occupancy
  Fe  Fe0  1  0.041288  0.463475  0.162055  1
  Fe  Fe1  1  0.248396  0.522212  0.755536  1
  Fe  Fe2  1  0.434367  0.493007  0.348489  1
  Fe  Fe3  1  0.662715  0.484848  0.960200  1
  Fe  Fe4  1  0.843035  0.525455  0.553250  1
  Fe  Fe5  1  0.751604  0.022212  0.244464  1
  Fe  Fe6  1  0.156965  0.025455  0.446750  1
  Fe  Fe7  1  0.565633  0.993007  0.651511  1
  Fe  Fe8  1  0.958712  0.963475  0.837945  1
  Fe  Fe9  1  0.337285  0.984848  0.039800  1
  O  O10  1  0.799081  0.810622  0.681508  1
  O  O11  1  0.181063  0.792422  0.859192  1
  O  O12  1  0.200919  0.310622  0.318492  1
  O  O13  1  0.818937  0.292422  0.140808  1
  F  F14  1  0.598223  0.801696  0.075615  1
  F  F15  1  0.392023  0.813376  0.475463  1
  F  F16  1  0.973234  0.795254  0.269805  1
  F  F17  1  0.268389  0.701650  0.161094  1
  F  F18  1  0.681293  0.711196  0.358503  1
  F  F19  1  0.906291  0.706887  0.985077  1
  F  F20  1  0.484457  0.685447  0.776710  1
  F  F21  1  0.105623  0.692451  0.570272  1
  F  F22  1  0.607977  0.313376  0.524537  1
  F  F23  1  0.026766  0.295254  0.730195  1
  F  F24  1  0.401777  0.301696  0.924385  1
  F  F25  1  0.894377  0.192451  0.429728  1
  F  F26  1  0.318707  0.211196  0.641497  1
  F  F27  1  0.515543  0.185447  0.223290  1
  F  F28  1  0.093709  0.206887  0.014923  1
  F  F29  1  0.731611  0.201650  0.838906  1
