# generated using pymatgen
data_Na2CuP
_symmetry_space_group_name_H-M   'P 1'
_cell_length_a   5.56193053
_cell_length_b   5.56193053
_cell_length_c   5.24692733
_cell_angle_alpha   90.00000000
_cell_angle_beta   90.00000000
_cell_angle_gamma   102.75605579
_symmetry_Int_Tables_number   1
_chemical_formula_structural   Na2CuP
_chemical_formula_sum   'Na4 Cu2 P2'
_cell_volume   158.30799509
_cell_formula_units_Z   2
loop_
 _symmetry_equiv_pos_site_id
 _symmetry_equiv_pos_as_xyz
  1  'x, y, z'
loop_
 _atom_site_type_symbol
 _atom_site_label
 _atom_site_symmetry_multiplicity
 _atom_site_fract_x
 _atom_site_fract_y
 _atom_site_fract_z
 _atom_site_occupancy
  Na  Na0  1  0.031145  0.683133  0.250000  1
  Na  Na1  1  0.968855  0.316867  0.750000  1
  Na  Na2  1  0.683133  0.031145  0.250000  1
  Na  Na3  1  0.316867  0.968855  0.750000  1
  Cu  Cu4  1  0.500000  0.500000  0.500000  1
  Cu  Cu5  1  0.500000  0.500000  0.000000  1
  P  P6  1  0.762099  0.762099  0.750000  1
  P  P7  1  0.237901  0.237901  0.250000  1
