# generated using pymatgen
data_Li2FeF4
_symmetry_space_group_name_H-M   'P 1'
_cell_length_a   5.42863730
_cell_length_b   5.99933046
_cell_length_c   9.64524532
_cell_angle_alpha   90.00000000
_cell_angle_beta   90.00000000
_cell_angle_gamma   90.00000000
_symmetry_Int_Tables_number   1
_chemical_formula_structural   Li2FeF4
_chemical_formula_sum   'Li8 Fe4 F16'
_cell_volume   314.12817360
_cell_formula_units_Z   4
loop_
 _symmetry_equiv_pos_site_id
 _symmetry_equiv_pos_as_xyz
  1  'x, y, z'
loop_
 _atom_site_type_symbol
 _atom_site_label
 _atom_site_symmetry_multiplicity
 _atom_site_fract_x
 _atom_site_fract_y
 _atom_site_fract_z
 _atom_site_occupancy
  Li  Li0  1  0.788984  0.009917  0.229078  1
  Li  Li1  1  0.371982  0.166408  0.023525  1
  Li  Li2  1  0.871982  0.333592  0.523525  1
  Li  Li3  1  0.288984  0.490083  0.729078  1
  Li  Li4  1  0.788984  0.509917  0.270922  1
  Li  Li5  1  0.371982  0.666408  0.476475  1
  Li  Li6  1  0.871982  0.833592  0.976475  1
  Li  Li7  1  0.288984  0.990083  0.770922  1
  Fe  Fe8  1  0.313593  0.163399  0.388744  1
  Fe  Fe9  1  0.813593  0.336601  0.888744  1
  Fe  Fe10  1  0.313593  0.663399  0.111256  1
  Fe  Fe11  1  0.813593  0.836601  0.611256  1
  F  F12  1  0.633444  0.100602  0.500522  1
  F  F13  1  0.718365  0.098466  0.038977  1
  F  F14  1  0.946356  0.082954  0.751691  1
  F  F15  1  0.473024  0.255483  0.807726  1
  F  F16  1  0.973024  0.244517  0.307726  1
  F  F17  1  0.446356  0.417046  0.251691  1
  F  F18  1  0.218365  0.401534  0.538977  1
  F  F19  1  0.133444  0.399398  0.000522  1
  F  F20  1  0.633444  0.600602  0.999478  1
  F  F21  1  0.718365  0.598466  0.461023  1
  F  F22  1  0.946356  0.582954  0.748309  1
  F  F23  1  0.473024  0.755483  0.692274  1
  F  F24  1  0.973024  0.744517  0.192274  1
  F  F25  1  0.446356  0.917046  0.248309  1
  F  F26  1  0.218365  0.901534  0.961023  1
  F  F27  1  0.133444  0.899398  0.499478  1
