# generated using pymatgen
data_Li9V3(WO4)7
_symmetry_space_group_name_H-M   'P 1'
_cell_length_a   8.55141274
_cell_length_b   8.55141274
_cell_length_c   8.55141274
_cell_angle_alpha   89.87868523
_cell_angle_beta   89.87868523
_cell_angle_gamma   89.87868523
_symmetry_Int_Tables_number   1
_chemical_formula_structural   Li9V3(WO4)7
_chemical_formula_sum   'Li9 V3 W7 O28'
_cell_volume   625.33205231
_cell_formula_units_Z   1
loop_
 _symmetry_equiv_pos_site_id
 _symmetry_equiv_pos_as_xyz
  1  'x, y, z'
loop_
 _atom_site_type_symbol
 _atom_site_label
 _atom_site_symmetry_multiplicity
 _atom_site_fract_x
 _atom_site_fract_y
 _atom_site_fract_z
 _atom_site_occupancy
  Li  Li0  1  0.906547  0.357568  0.645364  1
  Li  Li1  1  0.906547  0.645364  0.357568  1
  Li  Li2  1  0.645364  0.357568  0.906547  1
  Li  Li3  1  0.645364  0.906547  0.357568  1
  Li  Li4  1  0.351636  0.090339  0.351636  1
  Li  Li5  1  0.351636  0.351636  0.090339  1
  Li  Li6  1  0.357568  0.645364  0.906547  1
  Li  Li7  1  0.357568  0.906547  0.645364  1
  Li  Li8  1  0.090339  0.351636  0.351636  1
  V  V9  1  0.632888  0.115184  0.632888  1
  V  V10  1  0.632888  0.632888  0.115184  1
  V  V11  1  0.115184  0.632888  0.632888  1
  W  W12  1  0.642948  0.358416  0.358416  1
  W  W13  1  0.652342  0.652342  0.652342  1
  W  W14  1  0.358416  0.358416  0.642948  1
  W  W15  1  0.358416  0.642948  0.358416  1
  W  W16  1  0.999764  0.999764  0.497994  1
  W  W17  1  0.999764  0.497994  0.999764  1
  W  W18  1  0.497994  0.999764  0.999764  1
  O  O19  1  0.852187  0.382801  0.382801  1
  O  O20  1  0.866550  0.615680  0.615680  1
  O  O21  1  0.877149  0.124681  0.621594  1
  O  O22  1  0.877149  0.621594  0.124681  1
  O  O23  1  0.878441  0.376339  0.878441  1
  O  O24  1  0.878441  0.878441  0.376339  1
  O  O25  1  0.621594  0.124681  0.877149  1
  O  O26  1  0.621594  0.877149  0.124681  1
  O  O27  1  0.609880  0.380591  0.609880  1
  O  O28  1  0.609880  0.609880  0.380591  1
  O  O29  1  0.615861  0.144707  0.380494  1
  O  O30  1  0.615861  0.380494  0.144707  1
  O  O31  1  0.615680  0.615680  0.866550  1
  O  O32  1  0.615680  0.866550  0.615680  1
  O  O33  1  0.380494  0.144707  0.615861  1
  O  O34  1  0.380494  0.615861  0.144707  1
  O  O35  1  0.382801  0.382801  0.852187  1
  O  O36  1  0.382801  0.852187  0.382801  1
  O  O37  1  0.394355  0.394355  0.394354  1
  O  O38  1  0.380591  0.609880  0.609880  1
  O  O39  1  0.378380  0.122927  0.122927  1
  O  O40  1  0.376339  0.878441  0.878441  1
  O  O41  1  0.122927  0.122927  0.378380  1
  O  O42  1  0.122927  0.378380  0.122927  1
  O  O43  1  0.124681  0.621594  0.877149  1
  O  O44  1  0.124681  0.877149  0.621594  1
  O  O45  1  0.144707  0.380494  0.615861  1
  O  O46  1  0.144707  0.615861  0.380494  1
