# generated using pymatgen
data_Li3CoPCO7
_symmetry_space_group_name_H-M   'P 1'
_cell_length_a   4.97759055
_cell_length_b   8.44071873
_cell_length_c   12.92155032
_cell_angle_alpha   90.30907298
_cell_angle_beta   90.05161841
_cell_angle_gamma   94.94332246
_symmetry_Int_Tables_number   1
_chemical_formula_structural   Li3CoPCO7
_chemical_formula_sum   'Li12 Co4 P4 C4 O28'
_cell_volume   540.86402045
_cell_formula_units_Z   4
loop_
 _symmetry_equiv_pos_site_id
 _symmetry_equiv_pos_as_xyz
  1  'x, y, z'
loop_
 _atom_site_type_symbol
 _atom_site_label
 _atom_site_symmetry_multiplicity
 _atom_site_fract_x
 _atom_site_fract_y
 _atom_site_fract_z
 _atom_site_occupancy
  Li  Li0  1  0.235091  0.097908  0.124817  1
  Li  Li1  1  0.231593  0.101480  0.629464  1
  Li  Li2  1  0.752327  0.278916  0.514991  1
  Li  Li3  1  0.748182  0.273068  0.247701  1
  Li  Li4  1  0.764634  0.280557  0.740086  1
  Li  Li5  1  0.221247  0.347822  0.868800  1
  Li  Li6  1  0.245221  0.718983  0.981618  1
  Li  Li7  1  0.247340  0.720962  0.264013  1
  Li  Li8  1  0.250028  0.724652  0.493253  1
  Li  Li9  1  0.249319  0.719995  0.762925  1
  Li  Li10  1  0.766309  0.902134  0.378280  1
  Li  Li11  1  0.765600  0.900825  0.870980  1
  Co  Co12  1  0.753803  0.261232  0.996588  1
  Co  Co13  1  0.208869  0.332356  0.376328  1
  Co  Co14  1  0.793451  0.666373  0.124496  1
  Co  Co15  1  0.791620  0.666793  0.625617  1
  P  P16  1  0.273100  0.412723  0.123741  1
  P  P17  1  0.277365  0.411521  0.625840  1
  P  P18  1  0.719838  0.586901  0.374144  1
  P  P19  1  0.715236  0.586227  0.876790  1
  C  C20  1  0.298405  0.037150  0.373046  1
  C  C21  1  0.295309  0.040275  0.881452  1
  C  C22  1  0.702816  0.961653  0.624714  1
  C  C23  1  0.704775  0.962576  0.122780  1
  O  O24  1  0.046821  0.070749  0.881885  1
  O  O25  1  0.051237  0.072810  0.373818  1
  O  O26  1  0.644404  0.111999  0.117579  1
  O  O27  1  0.638038  0.106772  0.625071  1
  O  O28  1  0.488995  0.153983  0.370580  1
  O  O29  1  0.487429  0.156575  0.885336  1
  O  O30  1  0.173268  0.308160  0.530421  1
  O  O31  1  0.156771  0.309922  0.031401  1
  O  O32  1  0.179395  0.310257  0.219337  1
  O  O33  1  0.176085  0.309523  0.718385  1
  O  O34  1  0.825633  0.420354  0.374098  1
  O  O35  1  0.822031  0.419177  0.876352  1
  O  O36  1  0.592827  0.433406  0.623627  1
  O  O37  1  0.589454  0.427890  0.116793  1
  O  O38  1  0.406082  0.567108  0.373533  1
  O  O39  1  0.405213  0.571698  0.877002  1
  O  O40  1  0.177140  0.581273  0.126774  1
  O  O41  1  0.171998  0.579205  0.624302  1
  O  O42  1  0.825467  0.691932  0.467522  1
  O  O43  1  0.823909  0.689926  0.280011  1
  O  O44  1  0.827553  0.687658  0.782982  1
  O  O45  1  0.827541  0.690870  0.970402  1
  O  O46  1  0.512346  0.850571  0.125649  1
  O  O47  1  0.514188  0.843076  0.624765  1
  O  O48  1  0.360626  0.891287  0.374723  1
  O  O49  1  0.362190  0.894439  0.874577  1
  O  O50  1  0.951247  0.929232  0.126008  1
  O  O51  1  0.950639  0.927068  0.624604  1
