# generated using pymatgen
data_KMnH4Cl3O2
_symmetry_space_group_name_H-M   'P 1'
_cell_length_a   6.52060781
_cell_length_b   6.97380254
_cell_length_c   9.28904732
_cell_angle_alpha   110.54371420
_cell_angle_beta   88.77633637
_cell_angle_gamma   112.58020200
_symmetry_Int_Tables_number   1
_chemical_formula_structural   KMnH4Cl3O2
_chemical_formula_sum   'K2 Mn2 H8 Cl6 O4'
_cell_volume   362.06651941
_cell_formula_units_Z   2
loop_
 _symmetry_equiv_pos_site_id
 _symmetry_equiv_pos_as_xyz
  1  'x, y, z'
loop_
 _atom_site_type_symbol
 _atom_site_label
 _atom_site_symmetry_multiplicity
 _atom_site_fract_x
 _atom_site_fract_y
 _atom_site_fract_z
 _atom_site_occupancy
  K  K0  1  0.941893  0.845634  0.804126  1
  K  K1  1  0.058107  0.154366  0.195874  1
  Mn  Mn2  1  0.625953  0.297771  0.673799  1
  Mn  Mn3  1  0.374047  0.702229  0.326201  1
  H  H4  1  0.103260  0.723243  0.505522  1
  H  H5  1  0.896740  0.276757  0.494478  1
  H  H6  1  0.347496  0.819852  0.583211  1
  H  H7  1  0.652504  0.180148  0.416789  1
  H  H8  1  0.538193  0.306304  0.941925  1
  H  H9  1  0.461807  0.693696  0.058075  1
  H  H10  1  0.380082  0.421194  0.808661  1
  H  H11  1  0.619918  0.578806  0.191339  1
  Cl  Cl12  1  0.752746  0.710813  0.501642  1
  Cl  Cl13  1  0.247254  0.289187  0.498358  1
  Cl  Cl14  1  0.461340  0.891189  0.812223  1
  Cl  Cl15  1  0.538660  0.108811  0.187777  1
  Cl  Cl16  1  0.003381  0.335159  0.831363  1
  Cl  Cl17  1  0.996619  0.664841  0.168637  1
  O  O18  1  0.262036  0.784554  0.488940  1
  O  O19  1  0.737964  0.215446  0.511060  1
  O  O20  1  0.529599  0.403825  0.832258  1
  O  O21  1  0.470401  0.596175  0.167742  1
