# generated using pymatgen
data_LiFePH2O5
_symmetry_space_group_name_H-M   'P 1'
_cell_length_a   5.57351962
_cell_length_b   7.90122180
_cell_length_c   9.67327226
_cell_angle_alpha   90.00000000
_cell_angle_beta   95.89199587
_cell_angle_gamma   90.00000000
_symmetry_Int_Tables_number   1
_chemical_formula_structural   LiFePH2O5
_chemical_formula_sum   'Li4 Fe4 P4 H8 O20'
_cell_volume   423.73741425
_cell_formula_units_Z   4
loop_
 _symmetry_equiv_pos_site_id
 _symmetry_equiv_pos_as_xyz
  1  'x, y, z'
loop_
 _atom_site_type_symbol
 _atom_site_label
 _atom_site_symmetry_multiplicity
 _atom_site_fract_x
 _atom_site_fract_y
 _atom_site_fract_z
 _atom_site_occupancy
  Li  Li0  1  0.551185  0.467888  0.351378  1
  Li  Li1  1  0.051185  0.032112  0.351378  1
  Li  Li2  1  0.948815  0.967888  0.648622  1
  Li  Li3  1  0.448815  0.532112  0.648622  1
  Fe  Fe4  1  0.790198  0.195938  0.017136  1
  Fe  Fe5  1  0.290198  0.304062  0.017136  1
  Fe  Fe6  1  0.709802  0.695938  0.982864  1
  Fe  Fe7  1  0.209802  0.804062  0.982864  1
  P  P8  1  0.982142  0.525368  0.198890  1
  P  P9  1  0.482142  0.974632  0.198890  1
  P  P10  1  0.517858  0.025368  0.801110  1
  P  P11  1  0.017858  0.474632  0.801110  1
  H  H12  1  0.871763  0.741316  0.417720  1
  H  H13  1  0.695814  0.896210  0.436436  1
  H  H14  1  0.371763  0.758684  0.417720  1
  H  H15  1  0.195814  0.603790  0.436436  1
  H  H16  1  0.804186  0.396210  0.563564  1
  H  H17  1  0.628237  0.241316  0.582280  1
  H  H18  1  0.304186  0.103790  0.563564  1
  H  H19  1  0.128237  0.258684  0.582280  1
  O  O20  1  0.767710  0.444680  0.101782  1
  O  O21  1  0.267710  0.055320  0.101782  1
  O  O22  1  0.515786  0.795555  0.132262  1
  O  O23  1  0.015786  0.704445  0.132262  1
  O  O24  1  0.717112  0.081945  0.198000  1
  O  O25  1  0.217112  0.418055  0.198000  1
  O  O26  1  0.906436  0.544431  0.346612  1
  O  O27  1  0.406436  0.955569  0.346612  1
  O  O28  1  0.865986  0.857820  0.457347  1
  O  O29  1  0.365986  0.642180  0.457347  1
  O  O30  1  0.634014  0.357820  0.542653  1
  O  O31  1  0.134014  0.142180  0.542653  1
  O  O32  1  0.593564  0.044431  0.653388  1
  O  O33  1  0.093564  0.455569  0.653388  1
  O  O34  1  0.782888  0.581945  0.802000  1
  O  O35  1  0.282888  0.918055  0.802000  1
  O  O36  1  0.984214  0.295555  0.867738  1
  O  O37  1  0.484214  0.204445  0.867738  1
  O  O38  1  0.732290  0.944680  0.898218  1
  O  O39  1  0.232290  0.555320  0.898218  1
