# generated using pymatgen
data_Te3WO12
_symmetry_space_group_name_H-M   'P 1'
_cell_length_a   5.08273320
_cell_length_b   5.30639126
_cell_length_c   7.34852481
_cell_angle_alpha   86.54073963
_cell_angle_beta   89.95863315
_cell_angle_gamma   89.99106200
_symmetry_Int_Tables_number   1
_chemical_formula_structural   Te3WO12
_chemical_formula_sum   'Te3 W1 O12'
_cell_volume   197.83567318
_cell_formula_units_Z   1
loop_
 _symmetry_equiv_pos_site_id
 _symmetry_equiv_pos_as_xyz
  1  'x, y, z'
loop_
 _atom_site_type_symbol
 _atom_site_label
 _atom_site_symmetry_multiplicity
 _atom_site_fract_x
 _atom_site_fract_y
 _atom_site_fract_z
 _atom_site_occupancy
  Te  Te0  1  0.000000  0.000000  0.500000  1
  Te  Te1  1  0.500000  0.500000  0.000000  1
  Te  Te2  1  0.500000  0.500000  0.500000  1
  W  W3  1  0.000000  0.000000  0.000000  1
  O  O4  1  0.684326  0.191774  0.570690  1
  O  O5  1  0.883928  0.005093  0.254279  1
  O  O6  1  0.690459  0.815379  0.947663  1
  O  O7  1  0.815661  0.691736  0.570989  1
  O  O8  1  0.193099  0.697857  0.061364  1
  O  O9  1  0.632567  0.506868  0.253496  1
  O  O10  1  0.367433  0.493132  0.746504  1
  O  O11  1  0.806901  0.302143  0.938636  1
  O  O12  1  0.184339  0.308264  0.429011  1
  O  O13  1  0.309541  0.184621  0.052337  1
  O  O14  1  0.116072  0.994907  0.745721  1
  O  O15  1  0.315674  0.808226  0.429310  1
