# generated using pymatgen
data_SnP4O11
_symmetry_space_group_name_H-M   'P 1'
_cell_length_a   8.92998317
_cell_length_b   13.00193102
_cell_length_c   12.77244138
_cell_angle_alpha   90.00000000
_cell_angle_beta   133.71133844
_cell_angle_gamma   90.00000000
_symmetry_Int_Tables_number   1
_chemical_formula_structural   SnP4O11
_chemical_formula_sum   'Sn4 P16 O44'
_cell_volume   1071.93593969
_cell_formula_units_Z   4
loop_
 _symmetry_equiv_pos_site_id
 _symmetry_equiv_pos_as_xyz
  1  'x, y, z'
loop_
 _atom_site_type_symbol
 _atom_site_label
 _atom_site_symmetry_multiplicity
 _atom_site_fract_x
 _atom_site_fract_y
 _atom_site_fract_z
 _atom_site_occupancy
  Sn  Sn0  1  0.493039  0.467900  0.270084  1
  Sn  Sn1  1  0.506961  0.967900  0.229916  1
  Sn  Sn2  1  0.493039  0.032100  0.770084  1
  Sn  Sn3  1  0.506961  0.532100  0.729916  1
  P  P4  1  0.501216  0.208046  0.411853  1
  P  P5  1  0.847694  0.167077  0.725976  1
  P  P6  1  0.868450  0.496244  0.672282  1
  P  P7  1  0.847493  0.843809  0.606231  1
  P  P8  1  0.152507  0.343809  0.893769  1
  P  P9  1  0.131550  0.996244  0.827718  1
  P  P10  1  0.498784  0.708046  0.088147  1
  P  P11  1  0.152306  0.667077  0.774024  1
  P  P12  1  0.847694  0.332923  0.225976  1
  P  P13  1  0.501216  0.291954  0.911853  1
  P  P14  1  0.868450  0.003756  0.172282  1
  P  P15  1  0.847493  0.656191  0.106231  1
  P  P16  1  0.152507  0.156191  0.393769  1
  P  P17  1  0.131550  0.503756  0.327718  1
  P  P18  1  0.152306  0.832923  0.274024  1
  P  P19  1  0.498784  0.791954  0.588147  1
  O  O20  1  0.268322  0.887246  0.247938  1
  O  O21  1  0.733196  0.469329  0.697345  1
  O  O22  1  0.664432  0.782520  0.569970  1
  O  O23  1  0.503541  0.101451  0.372153  1
  O  O24  1  0.468247  0.299940  0.328729  1
  O  O25  1  0.203142  0.402615  0.013137  1
  O  O26  1  0.717324  0.231253  0.581128  1
  O  O27  1  0.992859  0.253687  0.845271  1
  O  O28  1  0.948170  0.907147  0.748171  1
  O  O29  1  0.007787  0.597348  0.775527  1
  O  O30  1  0.790083  0.514151  0.526282  1
  O  O31  1  0.209917  0.014151  0.973718  1
  O  O32  1  0.992213  0.097348  0.724473  1
  O  O33  1  0.796858  0.902615  0.486863  1
  O  O34  1  0.531753  0.799940  0.171271  1
  O  O35  1  0.051830  0.407147  0.751829  1
  O  O36  1  0.496459  0.601451  0.127847  1
  O  O37  1  0.007141  0.753687  0.654729  1
  O  O38  1  0.282676  0.731253  0.918872  1
  O  O39  1  0.335568  0.282520  0.930030  1
  O  O40  1  0.731678  0.387246  0.252062  1
  O  O41  1  0.733196  0.030671  0.197345  1
  O  O42  1  0.266804  0.969329  0.802655  1
  O  O43  1  0.268322  0.612754  0.747938  1
  O  O44  1  0.664432  0.717480  0.069970  1
  O  O45  1  0.717324  0.268747  0.081128  1
  O  O46  1  0.992859  0.246313  0.345271  1
  O  O47  1  0.503541  0.398549  0.872153  1
  O  O48  1  0.948170  0.592853  0.248171  1
  O  O49  1  0.468247  0.200060  0.828729  1
  O  O50  1  0.203142  0.097385  0.513137  1
  O  O51  1  0.007787  0.902652  0.275527  1
  O  O52  1  0.790083  0.985849  0.026282  1
  O  O53  1  0.209917  0.485849  0.473718  1
  O  O54  1  0.992213  0.402652  0.224473  1
  O  O55  1  0.051830  0.092853  0.251829  1
  O  O56  1  0.007141  0.746313  0.154729  1
  O  O57  1  0.282676  0.768747  0.418872  1
  O  O58  1  0.796858  0.597385  0.986863  1
  O  O59  1  0.531753  0.700060  0.671271  1
  O  O60  1  0.496459  0.898549  0.627847  1
  O  O61  1  0.335568  0.217480  0.430030  1
  O  O62  1  0.266804  0.530671  0.302655  1
  O  O63  1  0.731678  0.112754  0.752062  1
