# generated using pymatgen
data_Li4VP2O9
_symmetry_space_group_name_H-M   'P 1'
_cell_length_a   6.85492073
_cell_length_b   10.24113626
_cell_length_c   13.77038886
_cell_angle_alpha   90.00000000
_cell_angle_beta   90.00000000
_cell_angle_gamma   90.00000000
_symmetry_Int_Tables_number   1
_chemical_formula_structural   Li4VP2O9
_chemical_formula_sum   'Li16 V4 P8 O36'
_cell_volume   966.71127952
_cell_formula_units_Z   4
loop_
 _symmetry_equiv_pos_site_id
 _symmetry_equiv_pos_as_xyz
  1  'x, y, z'
loop_
 _atom_site_type_symbol
 _atom_site_label
 _atom_site_symmetry_multiplicity
 _atom_site_fract_x
 _atom_site_fract_y
 _atom_site_fract_z
 _atom_site_occupancy
  Li  Li0  1  0.837377  0.104050  0.587584  1
  Li  Li1  1  0.837377  0.104050  0.912416  1
  Li  Li2  1  0.904824  0.693730  0.538027  1
  Li  Li3  1  0.904824  0.693730  0.961973  1
  Li  Li4  1  0.595176  0.193730  0.038027  1
  Li  Li5  1  0.595176  0.193730  0.461973  1
  Li  Li6  1  0.662623  0.604050  0.087584  1
  Li  Li7  1  0.662623  0.604050  0.412416  1
  Li  Li8  1  0.337377  0.395950  0.587584  1
  Li  Li9  1  0.337377  0.395950  0.912416  1
  Li  Li10  1  0.404824  0.806270  0.538027  1
  Li  Li11  1  0.404824  0.806270  0.961973  1
  Li  Li12  1  0.095176  0.306270  0.461973  1
  Li  Li13  1  0.095176  0.306270  0.038027  1
  Li  Li14  1  0.162623  0.895950  0.412416  1
  Li  Li15  1  0.162623  0.895950  0.087584  1
  V  V16  1  0.936235  0.733980  0.250000  1
  V  V17  1  0.563765  0.233980  0.750000  1
  V  V18  1  0.436235  0.766020  0.250000  1
  V  V19  1  0.063765  0.266020  0.750000  1
  P  P20  1  0.799287  0.397976  0.916584  1
  P  P21  1  0.799287  0.397976  0.583416  1
  P  P22  1  0.700713  0.897976  0.083416  1
  P  P23  1  0.700713  0.897976  0.416584  1
  P  P24  1  0.299287  0.102024  0.583416  1
  P  P25  1  0.299287  0.102024  0.916584  1
  P  P26  1  0.200713  0.602024  0.083416  1
  P  P27  1  0.200713  0.602024  0.416584  1
  O  O28  1  0.016903  0.603198  0.150764  1
  O  O29  1  0.016903  0.603198  0.349236  1
  O  O30  1  0.824142  0.283638  0.509357  1
  O  O31  1  0.824142  0.283638  0.990643  1
  O  O32  1  0.810115  0.183892  0.750000  1
  O  O33  1  0.777787  0.529435  0.968211  1
  O  O34  1  0.777787  0.529435  0.531789  1
  O  O35  1  0.889426  0.872870  0.355219  1
  O  O36  1  0.889426  0.872870  0.144781  1
  O  O37  1  0.610574  0.372870  0.644781  1
  O  O38  1  0.610574  0.372870  0.855219  1
  O  O39  1  0.722213  0.029435  0.031789  1
  O  O40  1  0.722213  0.029435  0.468211  1
  O  O41  1  0.689885  0.683892  0.250000  1
  O  O42  1  0.675858  0.783638  0.009357  1
  O  O43  1  0.675858  0.783638  0.490643  1
  O  O44  1  0.483097  0.103198  0.650764  1
  O  O45  1  0.483097  0.103198  0.849236  1
  O  O46  1  0.516903  0.896802  0.150764  1
  O  O47  1  0.516903  0.896802  0.349236  1
  O  O48  1  0.324142  0.216362  0.509357  1
  O  O49  1  0.324142  0.216362  0.990643  1
  O  O50  1  0.310115  0.316108  0.750000  1
  O  O51  1  0.277787  0.970565  0.531789  1
  O  O52  1  0.277787  0.970565  0.968211  1
  O  O53  1  0.389426  0.627130  0.144781  1
  O  O54  1  0.389426  0.627130  0.355219  1
  O  O55  1  0.110574  0.127130  0.644781  1
  O  O56  1  0.110574  0.127130  0.855219  1
  O  O57  1  0.222213  0.470565  0.031789  1
  O  O58  1  0.222213  0.470565  0.468211  1
  O  O59  1  0.189885  0.816108  0.250000  1
  O  O60  1  0.175858  0.716362  0.490643  1
  O  O61  1  0.175858  0.716362  0.009357  1
  O  O62  1  0.983097  0.396802  0.650764  1
  O  O63  1  0.983097  0.396802  0.849236  1
