# generated using pymatgen
data_Zn(Bi19O30)2
_symmetry_space_group_name_H-M   'P 1'
_cell_length_a   14.70323183
_cell_length_b   14.70323183
_cell_length_c   8.99915714
_cell_angle_alpha   90.00000000
_cell_angle_beta   90.00000000
_cell_angle_gamma   120.00000000
_symmetry_Int_Tables_number   1
_chemical_formula_structural   Zn(Bi19O30)2
_chemical_formula_sum   'Zn1 Bi38 O60'
_cell_volume   1684.83772187
_cell_formula_units_Z   1
loop_
 _symmetry_equiv_pos_site_id
 _symmetry_equiv_pos_as_xyz
  1  'x, y, z'
loop_
 _atom_site_type_symbol
 _atom_site_label
 _atom_site_symmetry_multiplicity
 _atom_site_fract_x
 _atom_site_fract_y
 _atom_site_fract_z
 _atom_site_occupancy
  Zn  Zn0  1  0.000000  0.000000  0.999683  1
  Bi  Bi1  1  0.852880  0.834483  0.678201  1
  Bi  Bi2  1  0.608776  0.556426  0.745961  1
  Bi  Bi3  1  0.038825  0.779465  0.903591  1
  Bi  Bi4  1  0.165517  0.018397  0.678201  1
  Bi  Bi5  1  0.390423  0.295281  0.561629  1
  Bi  Bi6  1  0.650885  0.499052  0.340120  1
  Bi  Bi7  1  0.008750  0.854882  0.325555  1
  Bi  Bi8  1  0.666667  0.333333  0.662598  1
  Bi  Bi9  1  0.443574  0.052350  0.745961  1
  Bi  Bi10  1  0.904858  0.609577  0.561629  1
  Bi  Bi11  1  0.785093  0.734709  0.082287  1
  Bi  Bi12  1  0.500948  0.151834  0.340120  1
  Bi  Bi13  1  0.947650  0.391224  0.745961  1
  Bi  Bi14  1  0.265291  0.050383  0.082287  1
  Bi  Bi15  1  0.270766  0.889286  0.425152  1
  Bi  Bi16  1  0.507958  0.323314  0.014482  1
  Bi  Bi17  1  0.177397  0.663441  0.684933  1
  Bi  Bi18  1  0.704719  0.095142  0.561629  1
  Bi  Bi19  1  0.848166  0.349115  0.340120  1
  Bi  Bi20  1  0.740641  0.961175  0.903591  1
  Bi  Bi21  1  0.065953  0.631094  0.223400  1
  Bi  Bi22  1  0.815356  0.492042  0.014482  1
  Bi  Bi23  1  0.486044  0.822603  0.684933  1
  Bi  Bi24  1  0.317000  0.830285  0.015027  1
  Bi  Bi25  1  0.676686  0.184644  0.014482  1
  Bi  Bi26  1  0.981603  0.147120  0.678201  1
  Bi  Bi27  1  0.336559  0.513956  0.684933  1
  Bi  Bi28  1  0.333333  0.666667  0.337678  1
  Bi  Bi29  1  0.220535  0.259359  0.903591  1
  Bi  Bi30  1  0.565141  0.934047  0.223400  1
  Bi  Bi31  1  0.110714  0.381481  0.425152  1
  Bi  Bi32  1  0.618519  0.729234  0.425152  1
  Bi  Bi33  1  0.169715  0.486715  0.015027  1
  Bi  Bi34  1  0.949617  0.214907  0.082287  1
  Bi  Bi35  1  0.846132  0.991250  0.325555  1
  Bi  Bi36  1  0.513285  0.683000  0.015027  1
  Bi  Bi37  1  0.368906  0.434859  0.223400  1
  Bi  Bi38  1  0.145118  0.153868  0.325555  1
  O  O39  1  0.366397  0.364876  0.750562  1
  O  O40  1  0.874696  0.749946  0.872561  1
  O  O41  1  0.250054  0.124751  0.872561  1
  O  O42  1  0.198549  0.159941  0.574801  1
  O  O43  1  0.710405  0.670708  0.593018  1
  O  O44  1  0.542056  0.456596  0.543127  1
  O  O45  1  0.282449  0.951118  0.929099  1
  O  O46  1  0.961392  0.801451  0.574801  1
  O  O47  1  0.515962  0.256829  0.741920  1
  O  O48  1  0.740867  0.484038  0.741920  1
  O  O49  1  0.322718  0.291094  0.087060  1
  O  O50  1  0.998479  0.633603  0.750562  1
  O  O51  1  0.329292  0.039697  0.593018  1
  O  O52  1  0.164211  0.953701  0.400434  1
  O  O53  1  0.509414  0.378453  0.246052  1
  O  O54  1  0.176856  0.710067  0.919147  1
  O  O55  1  0.074832  0.924320  0.075314  1
  O  O56  1  0.666667  0.333333  0.435845  1
  O  O57  1  0.743171  0.259133  0.741920  1
  O  O58  1  0.382828  0.878870  0.741845  1
  O  O59  1  0.041860  0.700649  0.413580  1
  O  O60  1  0.717604  0.550650  0.081460  1
  O  O61  1  0.914540  0.457944  0.543127  1
  O  O62  1  0.543404  0.085460  0.543127  1
  O  O63  1  0.635124  0.001521  0.750562  1
  O  O64  1  0.869038  0.490586  0.246052  1
  O  O65  1  0.968377  0.677282  0.087060  1
  O  O66  1  0.533210  0.823144  0.919147  1
  O  O67  1  0.375184  0.995341  0.264262  1
  O  O68  1  0.449350  0.166954  0.081460  1
  O  O69  1  0.048882  0.331331  0.929099  1
  O  O70  1  0.121130  0.503957  0.741845  1
  O  O71  1  0.875249  0.125304  0.872561  1
  O  O72  1  0.209585  0.790827  0.210788  1
  O  O73  1  0.666667  0.333333  0.039564  1
  O  O74  1  0.333333  0.666667  0.704526  1
  O  O75  1  0.960303  0.289595  0.593018  1
  O  O76  1  0.621547  0.130962  0.246052  1
  O  O77  1  0.289933  0.466790  0.919147  1
  O  O78  1  0.181091  0.591233  0.408911  1
  O  O79  1  0.410143  0.818909  0.408911  1
  O  O80  1  0.668669  0.717551  0.929099  1
  O  O81  1  0.658789  0.958140  0.413580  1
  O  O82  1  0.004659  0.379843  0.264262  1
  O  O83  1  0.833046  0.282396  0.081460  1
  O  O84  1  0.496043  0.617172  0.741845  1
  O  O85  1  0.840059  0.038608  0.574801  1
  O  O86  1  0.333333  0.666667  0.109997  1
  O  O87  1  0.000000  0.000000  0.772181  1
  O  O88  1  0.408767  0.589857  0.408911  1
  O  O89  1  0.708906  0.031623  0.087060  1
  O  O90  1  0.046299  0.210510  0.400434  1
  O  O91  1  0.581243  0.790415  0.210788  1
  O  O92  1  0.209173  0.418757  0.210788  1
  O  O93  1  0.299351  0.341211  0.413580  1
  O  O94  1  0.789490  0.835789  0.400434  1
  O  O95  1  0.000000  0.000000  0.375089  1
  O  O96  1  0.620157  0.624816  0.264262  1
  O  O97  1  0.075680  0.150512  0.075314  1
  O  O98  1  0.849488  0.925168  0.075314  1
