# generated using pymatgen
data_Na6B4Sb2PO16
_symmetry_space_group_name_H-M   'P 1'
_cell_length_a   10.05324181
_cell_length_b   10.05324181
_cell_length_c   10.05324181
_cell_angle_alpha   60.00000000
_cell_angle_beta   60.00000000
_cell_angle_gamma   60.00000000
_symmetry_Int_Tables_number   1
_chemical_formula_structural   Na6B4Sb2PO16
_chemical_formula_sum   'Na12 B8 Sb4 P2 O32'
_cell_volume   718.46131458
_cell_formula_units_Z   2
loop_
 _symmetry_equiv_pos_site_id
 _symmetry_equiv_pos_as_xyz
  1  'x, y, z'
loop_
 _atom_site_type_symbol
 _atom_site_label
 _atom_site_symmetry_multiplicity
 _atom_site_fract_x
 _atom_site_fract_y
 _atom_site_fract_z
 _atom_site_occupancy
  Na  Na0  1  0.548826  0.548826  0.951174  1
  Na  Na1  1  0.298826  0.298826  0.701174  1
  Na  Na2  1  0.298826  0.701174  0.701174  1
  Na  Na3  1  0.548826  0.951174  0.951174  1
  Na  Na4  1  0.701174  0.298826  0.701174  1
  Na  Na5  1  0.951174  0.548826  0.951174  1
  Na  Na6  1  0.951174  0.548826  0.548826  1
  Na  Na7  1  0.548826  0.951174  0.548826  1
  Na  Na8  1  0.298826  0.701174  0.298826  1
  Na  Na9  1  0.701174  0.298826  0.298826  1
  Na  Na10  1  0.951174  0.951174  0.548826  1
  Na  Na11  1  0.701174  0.701174  0.298826  1
  B  B12  1  0.271076  0.909641  0.909641  1
  B  B13  1  0.909641  0.271076  0.909641  1
  B  B14  1  0.340359  0.340359  0.340359  1
  B  B15  1  0.909641  0.909641  0.271076  1
  B  B16  1  0.340359  0.340359  0.978924  1
  B  B17  1  0.909641  0.909641  0.909641  1
  B  B18  1  0.978924  0.340359  0.340359  1
  B  B19  1  0.340359  0.978924  0.340359  1
  Sb  Sb20  1  0.125000  0.125000  0.125000  1
  Sb  Sb21  1  0.625000  0.125000  0.125000  1
  Sb  Sb22  1  0.125000  0.625000  0.125000  1
  Sb  Sb23  1  0.125000  0.125000  0.625000  1
  P  P24  1  0.750000  0.750000  0.750000  1
  P  P25  1  0.500000  0.500000  0.500000  1
  O  O26  1  0.933215  0.273966  0.759841  1
  O  O27  1  0.686652  0.686652  0.686652  1
  O  O28  1  0.273966  0.032977  0.759841  1
  O  O29  1  0.273966  0.759841  0.933215  1
  O  O30  1  0.686652  0.940045  0.686652  1
  O  O31  1  0.940045  0.686652  0.686652  1
  O  O32  1  0.759841  0.273966  0.032977  1
  O  O33  1  0.032977  0.273966  0.933215  1
  O  O34  1  0.686652  0.686652  0.940045  1
  O  O35  1  0.759841  0.933215  0.273966  1
  O  O36  1  0.316785  0.490159  0.217023  1
  O  O37  1  0.273966  0.933215  0.032977  1
  O  O38  1  0.032977  0.759841  0.273966  1
  O  O39  1  0.490159  0.217023  0.316785  1
  O  O40  1  0.032977  0.933215  0.759841  1
  O  O41  1  0.316785  0.217023  0.976034  1
  O  O42  1  0.933215  0.032977  0.273966  1
  O  O43  1  0.217023  0.316785  0.490159  1
  O  O44  1  0.759841  0.032977  0.933215  1
  O  O45  1  0.217023  0.490159  0.976034  1
  O  O46  1  0.976034  0.316785  0.217023  1
  O  O47  1  0.933215  0.759841  0.032977  1
  O  O48  1  0.490159  0.316785  0.976034  1
  O  O49  1  0.563348  0.563348  0.309955  1
  O  O50  1  0.217023  0.976034  0.316785  1
  O  O51  1  0.490159  0.976034  0.217023  1
  O  O52  1  0.309955  0.563348  0.563348  1
  O  O53  1  0.563348  0.309955  0.563348  1
  O  O54  1  0.976034  0.490159  0.316785  1
  O  O55  1  0.976034  0.217023  0.490159  1
  O  O56  1  0.563348  0.563348  0.563348  1
  O  O57  1  0.316785  0.976034  0.490159  1
