# generated using pymatgen
data_Al2CoO4
_symmetry_space_group_name_H-M   'P 1'
_cell_length_a   19.21729369
_cell_length_b   19.21729369
_cell_length_c   19.21729369
_cell_angle_alpha   17.29442612
_cell_angle_beta   17.29442612
_cell_angle_gamma   17.29442612
_symmetry_Int_Tables_number   1
_chemical_formula_structural   Al2CoO4
_chemical_formula_sum   'Al16 Co8 O32'
_cell_volume   547.30440973
_cell_formula_units_Z   8
loop_
 _symmetry_equiv_pos_site_id
 _symmetry_equiv_pos_as_xyz
  1  'x, y, z'
loop_
 _atom_site_type_symbol
 _atom_site_label
 _atom_site_symmetry_multiplicity
 _atom_site_fract_x
 _atom_site_fract_y
 _atom_site_fract_z
 _atom_site_occupancy
  Al  Al0  1  0.311277  0.311277  0.311277  1
  Al  Al1  1  0.784730  0.784730  0.274396  1
  Al  Al2  1  0.274396  0.784730  0.784730  1
  Al  Al3  1  0.562099  0.562099  0.562099  1
  Al  Al4  1  0.784730  0.274396  0.784730  1
  Al  Al5  1  0.032925  0.032925  0.527607  1
  Al  Al6  1  0.527607  0.032925  0.032925  1
  Al  Al7  1  0.032925  0.527607  0.032925  1
  Al  Al8  1  0.281170  0.281170  0.780716  1
  Al  Al9  1  0.780716  0.281170  0.281170  1
  Al  Al10  1  0.155899  0.155899  0.155899  1
  Al  Al11  1  0.281170  0.780716  0.281170  1
  Al  Al12  1  0.533425  0.533425  0.027368  1
  Al  Al13  1  0.027368  0.533425  0.533425  1
  Al  Al14  1  0.406118  0.406118  0.406118  1
  Al  Al15  1  0.533425  0.027368  0.533425  1
  Co  Co16  1  0.000849  0.000849  0.000849  1
  Co  Co17  1  0.657020  0.657020  0.657020  1
  Co  Co18  1  0.250527  0.250527  0.250527  1
  Co  Co19  1  0.906494  0.906494  0.906494  1
  Co  Co20  1  0.812846  0.812846  0.812846  1
  Co  Co21  1  0.499843  0.499843  0.499843  1
  Co  Co22  1  0.061624  0.061624  0.061624  1
  Co  Co23  1  0.750218  0.750218  0.750218  1
  O  O24  1  0.472058  0.955339  0.472058  1
  O  O25  1  0.955339  0.472058  0.472058  1
  O  O26  1  0.595134  0.595134  0.595134  1
  O  O27  1  0.472058  0.472058  0.955339  1
  O  O28  1  0.083206  0.083206  0.623667  1
  O  O29  1  0.717570  0.214250  0.717570  1
  O  O30  1  0.214250  0.717570  0.717570  1
  O  O31  1  0.965935  0.965935  0.965935  1
  O  O32  1  0.848598  0.848598  0.848598  1
  O  O33  1  0.623667  0.083206  0.083206  1
  O  O34  1  0.717570  0.717570  0.214250  1
  O  O35  1  0.083206  0.623667  0.083206  1
  O  O36  1  0.324372  0.324372  0.885035  1
  O  O37  1  0.986275  0.429894  0.986275  1
  O  O38  1  0.429894  0.986275  0.986275  1
  O  O39  1  0.885035  0.324372  0.324372  1
  O  O40  1  0.215246  0.215246  0.215246  1
  O  O41  1  0.097090  0.097090  0.097090  1
  O  O42  1  0.986275  0.986275  0.429894  1
  O  O43  1  0.324372  0.885035  0.324372  1
  O  O44  1  0.575450  0.575450  0.134051  1
  O  O45  1  0.239117  0.673763  0.239117  1
  O  O46  1  0.673763  0.239117  0.239117  1
  O  O47  1  0.343843  0.343843  0.343843  1
  O  O48  1  0.465128  0.465128  0.465128  1
  O  O49  1  0.134051  0.575450  0.575450  1
  O  O50  1  0.239117  0.239117  0.673763  1
  O  O51  1  0.575450  0.134051  0.575450  1
  O  O52  1  0.834450  0.834450  0.372733  1
  O  O53  1  0.372733  0.834450  0.834450  1
  O  O54  1  0.715896  0.715896  0.715896  1
  O  O55  1  0.834450  0.372733  0.834450  1
