# generated using pymatgen
data_Li4Co3Sb5O16
_symmetry_space_group_name_H-M   'P 1'
_cell_length_a   6.25207583
_cell_length_b   6.25207583
_cell_length_c   10.26463345
_cell_angle_alpha   89.60902140
_cell_angle_beta   90.39097860
_cell_angle_gamma   120.63088747
_symmetry_Int_Tables_number   1
_chemical_formula_structural   Li4Co3Sb5O16
_chemical_formula_sum   'Li4 Co3 Sb5 O16'
_cell_volume   345.23354332
_cell_formula_units_Z   1
loop_
 _symmetry_equiv_pos_site_id
 _symmetry_equiv_pos_as_xyz
  1  'x, y, z'
loop_
 _atom_site_type_symbol
 _atom_site_label
 _atom_site_symmetry_multiplicity
 _atom_site_fract_x
 _atom_site_fract_y
 _atom_site_fract_z
 _atom_site_occupancy
  Li  Li0  1  0.661952  0.338048  0.889545  1
  Li  Li1  1  0.993891  0.006109  0.987569  1
  Li  Li2  1  0.997309  0.002691  0.503485  1
  Li  Li3  1  0.323282  0.676718  0.399581  1
  Co  Co4  1  0.830392  0.169608  0.213673  1
  Co  Co5  1  0.171324  0.335540  0.713659  1
  Co  Co6  1  0.664460  0.828676  0.713659  1
  Sb  Sb7  1  0.334524  0.169187  0.215648  1
  Sb  Sb8  1  0.679073  0.320927  0.510757  1
  Sb  Sb9  1  0.830813  0.665476  0.215648  1
  Sb  Sb10  1  0.171247  0.828753  0.717633  1
  Sb  Sb11  1  0.346893  0.653107  0.973825  1
  O  O12  1  0.323017  0.144782  0.604280  1
  O  O13  1  0.505254  0.494746  0.320329  1
  O  O14  1  0.654672  0.345328  0.105888  1
  O  O15  1  0.006814  0.993186  0.320260  1
  O  O16  1  0.009349  0.990651  0.807891  1
  O  O17  1  0.855218  0.676983  0.604280  1
  O  O18  1  0.502195  0.032069  0.323819  1
  O  O19  1  0.967931  0.497805  0.323819  1
  O  O20  1  0.149038  0.850962  0.106163  1
  O  O21  1  0.844368  0.155632  0.599425  1
  O  O22  1  0.033141  0.525183  0.839068  1
  O  O23  1  0.474817  0.966859  0.839068  1
  O  O24  1  0.324226  0.675774  0.609911  1
  O  O25  1  0.161800  0.300755  0.103238  1
  O  O26  1  0.484307  0.515693  0.842466  1
  O  O27  1  0.699245  0.838200  0.103238  1
