# generated using pymatgen
data_Li3Cu3(PO4)2
_symmetry_space_group_name_H-M   'P 1'
_cell_length_a   5.43902114
_cell_length_b   6.22688288
_cell_length_c   10.17685385
_cell_angle_alpha   89.98918342
_cell_angle_beta   89.68960725
_cell_angle_gamma   89.53917262
_symmetry_Int_Tables_number   1
_chemical_formula_structural   Li3Cu3(PO4)2
_chemical_formula_sum   'Li6 Cu6 P4 O16'
_cell_volume   344.65497903
_cell_formula_units_Z   2
loop_
 _symmetry_equiv_pos_site_id
 _symmetry_equiv_pos_as_xyz
  1  'x, y, z'
loop_
 _atom_site_type_symbol
 _atom_site_label
 _atom_site_symmetry_multiplicity
 _atom_site_fract_x
 _atom_site_fract_y
 _atom_site_fract_z
 _atom_site_occupancy
  Li  Li0  1  0.154841  0.999745  0.253748  1
  Li  Li1  1  0.155601  0.998597  0.752650  1
  Li  Li2  1  0.329851  0.244956  0.504516  1
  Li  Li3  1  0.326712  0.249577  0.002095  1
  Li  Li4  1  0.671481  0.252549  0.753701  1
  Li  Li5  1  0.846121  0.500570  0.504851  1
  Cu  Cu6  1  0.661634  0.261678  0.249740  1
  Cu  Cu7  1  0.821471  0.502746  0.004353  1
  Cu  Cu8  1  0.662090  0.738036  0.252924  1
  Cu  Cu9  1  0.662032  0.742418  0.755175  1
  Cu  Cu10  1  0.335773  0.758152  0.504197  1
  Cu  Cu11  1  0.331624  0.751308  0.000349  1
  P  P12  1  0.832734  0.007729  0.997441  1
  P  P13  1  0.830545  0.006010  0.503199  1
  P  P14  1  0.174951  0.490406  0.748150  1
  P  P15  1  0.177264  0.495231  0.253771  1
  O  O16  1  0.841430  0.004475  0.349948  1
  O  O17  1  0.098048  0.012274  0.558445  1
  O  O18  1  0.835092  0.008916  0.844424  1
  O  O19  1  0.096337  0.014931  0.053938  1
  O  O20  1  0.684353  0.204518  0.554861  1
  O  O21  1  0.677110  0.205356  0.045819  1
  O  O22  1  0.316204  0.292590  0.802896  1
  O  O23  1  0.305827  0.290149  0.310273  1
  O  O24  1  0.180709  0.486325  0.101128  1
  O  O25  1  0.911546  0.499468  0.311570  1
  O  O26  1  0.176749  0.487875  0.594650  1
  O  O27  1  0.901792  0.484373  0.795659  1
  O  O28  1  0.302149  0.708907  0.298535  1
  O  O29  1  0.293865  0.705397  0.796272  1
  O  O30  1  0.704679  0.792483  0.549400  1
  O  O31  1  0.699385  0.802256  0.048731  1
