# generated using pymatgen
data_Li3Fe8(BO3)8
_symmetry_space_group_name_H-M   'P 1'
_cell_length_a   5.26025022
_cell_length_b   9.11364699
_cell_length_c   11.39254765
_cell_angle_alpha   113.54253551
_cell_angle_beta   102.95758763
_cell_angle_gamma   89.25429412
_symmetry_Int_Tables_number   1
_chemical_formula_structural   Li3Fe8(BO3)8
_chemical_formula_sum   'Li3 Fe8 B8 O24'
_cell_volume   486.15518273
_cell_formula_units_Z   1
loop_
 _symmetry_equiv_pos_site_id
 _symmetry_equiv_pos_as_xyz
  1  'x, y, z'
loop_
 _atom_site_type_symbol
 _atom_site_label
 _atom_site_symmetry_multiplicity
 _atom_site_fract_x
 _atom_site_fract_y
 _atom_site_fract_z
 _atom_site_occupancy
  Li  Li0  1  0.027254  0.033181  0.408977  1
  Li  Li1  1  0.495935  0.509073  0.665723  1
  Li  Li2  1  0.259029  0.246601  0.154112  1
  Fe  Fe3  1  0.007453  0.354967  0.375202  1
  Fe  Fe4  1  0.270517  0.939855  0.883014  1
  Fe  Fe5  1  0.482585  0.150731  0.633766  1
  Fe  Fe6  1  0.245970  0.569025  0.126441  1
  Fe  Fe7  1  0.771072  0.436448  0.886319  1
  Fe  Fe8  1  0.517739  0.843140  0.372432  1
  Fe  Fe9  1  0.976543  0.659816  0.627933  1
  Fe  Fe10  1  0.743870  0.049592  0.122582  1
  B  B11  1  0.028415  0.694300  0.380349  1
  B  B12  1  0.255956  0.601577  0.870303  1
  B  B13  1  0.472220  0.808783  0.623619  1
  B  B14  1  0.242490  0.900374  0.135425  1
  B  B15  1  0.513897  0.179957  0.376427  1
  B  B16  1  0.771385  0.106054  0.879122  1
  B  B17  1  0.976306  0.318705  0.623319  1
  B  B18  1  0.730368  0.391558  0.128013  1
  O  O19  1  0.032571  0.093486  0.886452  1
  O  O20  1  0.125400  0.715006  0.828702  1
  O  O21  1  0.128160  0.522518  0.923228  1
  O  O22  1  0.105097  0.186753  0.607469  1
  O  O23  1  0.073783  0.435706  0.583274  1
  O  O24  1  0.244822  0.831895  0.672769  1
  O  O25  1  0.253725  0.672255  0.335056  1
  O  O26  1  0.501735  0.568190  0.851908  1
  O  O27  1  0.643069  0.216042  0.835988  1
  O  O28  1  0.430033  0.068203  0.416823  1
  O  O29  1  0.349669  0.290895  0.356859  1
  O  O30  1  0.632931  0.011976  0.918248  1
  O  O31  1  0.343977  0.998514  0.082548  1
  O  O32  1  0.616990  0.682669  0.629119  1
  O  O33  1  0.542923  0.908943  0.571593  1
  O  O34  1  0.411558  0.803157  0.179554  1
  O  O35  1  0.475491  0.395117  0.131632  1
  O  O36  1  0.750726  0.350542  0.670459  1
  O  O37  1  0.765237  0.176499  0.353304  1
  O  O38  1  0.953444  0.584186  0.428248  1
  O  O39  1  0.883092  0.819555  0.383377  1
  O  O40  1  0.850217  0.477791  0.076035  1
  O  O41  1  0.892511  0.293790  0.180014  1
  O  O42  1  0.993394  0.903387  0.145661  1
