# generated using pymatgen
data_Li(ReO3)4
_symmetry_space_group_name_H-M   'P 1'
_cell_length_a   6.49665934
_cell_length_b   6.49665934
_cell_length_c   6.49665934
_cell_angle_alpha   109.82835293
_cell_angle_beta   109.57622786
_cell_angle_gamma   109.01016191
_symmetry_Int_Tables_number   1
_chemical_formula_structural   Li(ReO3)4
_chemical_formula_sum   'Li1 Re4 O12'
_cell_volume   211.06936386
_cell_formula_units_Z   1
loop_
 _symmetry_equiv_pos_site_id
 _symmetry_equiv_pos_as_xyz
  1  'x, y, z'
loop_
 _atom_site_type_symbol
 _atom_site_label
 _atom_site_symmetry_multiplicity
 _atom_site_fract_x
 _atom_site_fract_y
 _atom_site_fract_z
 _atom_site_occupancy
  Li  Li0  1  0.500000  0.000000  0.500000  1
  Re  Re1  1  0.000000  0.500000  0.000000  1
  Re  Re2  1  0.500000  0.000000  0.000000  1
  Re  Re3  1  0.000000  0.000000  0.500000  1
  Re  Re4  1  0.500000  0.500000  0.500000  1
  O  O5  1  0.286890  0.791973  0.078863  1
  O  O6  1  0.215949  0.933251  0.717302  1
  O  O7  1  0.215949  0.498647  0.282698  1
  O  O8  1  0.934529  0.718814  0.215714  1
  O  O9  1  0.496900  0.281186  0.215714  1
  O  O10  1  0.713110  0.791973  0.505084  1
  O  O11  1  0.286890  0.208027  0.494916  1
  O  O12  1  0.065471  0.281186  0.784286  1
  O  O13  1  0.503100  0.718814  0.784286  1
  O  O14  1  0.784051  0.501353  0.717302  1
  O  O15  1  0.784051  0.066749  0.282698  1
  O  O16  1  0.713110  0.208027  0.921137  1
