# generated using pymatgen
data_Li2Fe(PO4)2
_symmetry_space_group_name_H-M   'P 1'
_cell_length_a   5.12847644
_cell_length_b   5.12847644
_cell_length_c   13.97620299
_cell_angle_alpha   82.68715003
_cell_angle_beta   97.31284997
_cell_angle_gamma   125.09094383
_symmetry_Int_Tables_number   1
_chemical_formula_structural   Li2Fe(PO4)2
_chemical_formula_sum   'Li4 Fe2 P4 O16'
_cell_volume   297.66818106
_cell_formula_units_Z   2
loop_
 _symmetry_equiv_pos_site_id
 _symmetry_equiv_pos_as_xyz
  1  'x, y, z'
loop_
 _atom_site_type_symbol
 _atom_site_label
 _atom_site_symmetry_multiplicity
 _atom_site_fract_x
 _atom_site_fract_y
 _atom_site_fract_z
 _atom_site_occupancy
  Li  Li0  1  0.679538  0.357938  0.660925  1
  Li  Li1  1  0.642062  0.320462  0.160925  1
  Li  Li2  1  0.960538  0.972845  0.255861  1
  Li  Li3  1  0.027155  0.039462  0.755861  1
  Fe  Fe4  1  0.021890  0.008713  0.491040  1
  Fe  Fe5  1  0.991287  0.978110  0.991040  1
  P  P6  1  0.670465  0.348742  0.883341  1
  P  P7  1  0.651258  0.329535  0.383341  1
  P  P8  1  0.350413  0.668041  0.613952  1
  P  P9  1  0.331959  0.649587  0.113952  1
  O  O10  1  0.842962  0.722021  0.873726  1
  O  O11  1  0.783441  0.560189  0.465616  1
  O  O12  1  0.793029  0.504161  0.287430  1
  O  O13  1  0.938705  0.293125  0.912423  1
  O  O14  1  0.706875  0.061295  0.412423  1
  O  O15  1  0.495839  0.206971  0.787430  1
  O  O16  1  0.439811  0.216559  0.965616  1
  O  O17  1  0.705803  0.789963  0.637764  1
  O  O18  1  0.277979  0.157038  0.373726  1
  O  O19  1  0.558167  0.771817  0.030955  1
  O  O20  1  0.533407  0.875214  0.195606  1
  O  O21  1  0.334385  0.962875  0.583589  1
  O  O22  1  0.037125  0.665615  0.083589  1
  O  O23  1  0.124786  0.466593  0.695606  1
  O  O24  1  0.228183  0.441833  0.530955  1
  O  O25  1  0.210037  0.294197  0.137764  1
