# generated using pymatgen
data_LiMn2O2F3
_symmetry_space_group_name_H-M   'P 1'
_cell_length_a   6.12568837
_cell_length_b   6.12568837
_cell_length_c   6.87442032
_cell_angle_alpha   72.11272702
_cell_angle_beta   107.88727298
_cell_angle_gamma   131.93958856
_symmetry_Int_Tables_number   1
_chemical_formula_structural   LiMn2O2F3
_chemical_formula_sum   'Li2 Mn4 O4 F6'
_cell_volume   180.70515137
_cell_formula_units_Z   2
loop_
 _symmetry_equiv_pos_site_id
 _symmetry_equiv_pos_as_xyz
  1  'x, y, z'
loop_
 _atom_site_type_symbol
 _atom_site_label
 _atom_site_symmetry_multiplicity
 _atom_site_fract_x
 _atom_site_fract_y
 _atom_site_fract_z
 _atom_site_occupancy
  Li  Li0  1  0.492352  0.486327  0.249057  1
  Li  Li1  1  0.486327  0.492352  0.750943  1
  Mn  Mn2  1  0.786304  0.156637  0.387877  1
  Mn  Mn3  1  0.838431  0.212052  0.886901  1
  Mn  Mn4  1  0.156637  0.786304  0.612123  1
  Mn  Mn5  1  0.212052  0.838431  0.113099  1
  O  O6  1  0.984030  0.375632  0.622877  1
  O  O7  1  0.621042  0.017184  0.121231  1
  O  O8  1  0.375632  0.984030  0.377123  1
  O  O9  1  0.017184  0.621042  0.878769  1
  F  F10  1  0.216885  0.216885  0.000000  1
  F  F11  1  0.586763  0.826102  0.805333  1
  F  F12  1  0.172592  0.412694  0.306163  1
  F  F13  1  0.826102  0.586763  0.194667  1
  F  F14  1  0.412694  0.172592  0.693837  1
  F  F15  1  0.787271  0.787271  0.500000  1
