# generated using pymatgen
data_Li7Ni5O12
_symmetry_space_group_name_H-M   'P 1'
_cell_length_a   4.99010601
_cell_length_b   4.99010601
_cell_length_c   9.47664570
_cell_angle_alpha   85.06421577
_cell_angle_beta   94.93578423
_cell_angle_gamma   60.77189443
_symmetry_Int_Tables_number   1
_chemical_formula_structural   Li7Ni5O12
_chemical_formula_sum   'Li7 Ni5 O12'
_cell_volume   202.93412539
_cell_formula_units_Z   1
loop_
 _symmetry_equiv_pos_site_id
 _symmetry_equiv_pos_as_xyz
  1  'x, y, z'
loop_
 _atom_site_type_symbol
 _atom_site_label
 _atom_site_symmetry_multiplicity
 _atom_site_fract_x
 _atom_site_fract_y
 _atom_site_fract_z
 _atom_site_occupancy
  Li  Li0  1  0.741457  0.741457  0.500000  1
  Li  Li1  1  0.823366  0.344696  0.739911  1
  Li  Li2  1  0.673545  0.163259  0.259456  1
  Li  Li3  1  0.344696  0.823366  0.260089  1
  Li  Li4  1  0.163259  0.673545  0.740544  1
  Li  Li5  1  0.254047  0.254047  0.000000  1
  Li  Li6  1  0.081224  0.081224  0.500000  1
  Ni  Ni7  1  0.924053  0.924053  0.000000  1
  Ni  Ni8  1  0.996637  0.496045  0.254539  1
  Ni  Ni9  1  0.496045  0.996637  0.745461  1
  Ni  Ni10  1  0.586957  0.586957  0.000000  1
  Ni  Ni11  1  0.414324  0.414324  0.500000  1
  O  O12  1  0.061923  0.743799  0.376757  1
  O  O13  1  0.743799  0.061923  0.623243  1
  O  O14  1  0.840550  0.657924  0.875630  1
  O  O15  1  0.657924  0.840550  0.124370  1
  O  O16  1  0.698557  0.448676  0.382538  1
  O  O17  1  0.448676  0.698557  0.617462  1
  O  O18  1  0.577509  0.280937  0.891047  1
  O  O19  1  0.280937  0.577509  0.108953  1
  O  O20  1  0.348900  0.164544  0.369875  1
  O  O21  1  0.164544  0.348900  0.630125  1
  O  O22  1  0.245367  0.931703  0.880532  1
  O  O23  1  0.931703  0.245367  0.119468  1
