# generated using pymatgen
data_Li2Ti3NbO8
_symmetry_space_group_name_H-M   'P 1'
_cell_length_a   8.55851739
_cell_length_b   8.55851739
_cell_length_c   8.55851739
_cell_angle_alpha   90.00000000
_cell_angle_beta   90.00000000
_cell_angle_gamma   90.00000000
_symmetry_Int_Tables_number   1
_chemical_formula_structural   Li2Ti3NbO8
_chemical_formula_sum   'Li8 Ti12 Nb4 O32'
_cell_volume   626.89616495
_cell_formula_units_Z   4
loop_
 _symmetry_equiv_pos_site_id
 _symmetry_equiv_pos_as_xyz
  1  'x, y, z'
loop_
 _atom_site_type_symbol
 _atom_site_label
 _atom_site_symmetry_multiplicity
 _atom_site_fract_x
 _atom_site_fract_y
 _atom_site_fract_z
 _atom_site_occupancy
  Li  Li0  1  0.497048  0.497048  0.497048  1
  Li  Li1  1  0.752952  0.752952  0.752952  1
  Li  Li2  1  0.747048  0.247048  0.252952  1
  Li  Li3  1  0.002952  0.502952  0.997048  1
  Li  Li4  1  0.997048  0.002952  0.502952  1
  Li  Li5  1  0.252952  0.747048  0.247048  1
  Li  Li6  1  0.247048  0.252952  0.747048  1
  Li  Li7  1  0.502952  0.997048  0.002952  1
  Ti  Ti8  1  0.623467  0.626533  0.125000  1
  Ti  Ti9  1  0.625000  0.876533  0.373467  1
  Ti  Ti10  1  0.626533  0.125000  0.623467  1
  Ti  Ti11  1  0.873467  0.875000  0.123467  1
  Ti  Ti12  1  0.875000  0.123467  0.873467  1
  Ti  Ti13  1  0.876533  0.373467  0.625000  1
  Ti  Ti14  1  0.123467  0.873467  0.875000  1
  Ti  Ti15  1  0.125000  0.623467  0.626533  1
  Ti  Ti16  1  0.126533  0.375000  0.376533  1
  Ti  Ti17  1  0.373467  0.625000  0.876533  1
  Ti  Ti18  1  0.375000  0.376533  0.126533  1
  Ti  Ti19  1  0.376533  0.126533  0.375000  1
  Nb  Nb20  1  0.625000  0.375000  0.875000  1
  Nb  Nb21  1  0.875000  0.625000  0.375000  1
  Nb  Nb22  1  0.125000  0.125000  0.125000  1
  Nb  Nb23  1  0.375000  0.875000  0.625000  1
  O  O24  1  0.609331  0.619387  0.887957  1
  O  O25  1  0.612043  0.390669  0.119387  1
  O  O26  1  0.611959  0.111959  0.388041  1
  O  O27  1  0.630613  0.640669  0.362043  1
  O  O28  1  0.619387  0.887957  0.609331  1
  O  O29  1  0.638041  0.861959  0.138041  1
  O  O30  1  0.637957  0.130613  0.859331  1
  O  O31  1  0.640669  0.362043  0.630613  1
  O  O32  1  0.859331  0.637957  0.130613  1
  O  O33  1  0.862043  0.869387  0.359331  1
  O  O34  1  0.861959  0.138041  0.638041  1
  O  O35  1  0.880613  0.112043  0.109331  1
  O  O36  1  0.869387  0.359331  0.862043  1
  O  O37  1  0.888041  0.888041  0.888041  1
  O  O38  1  0.887957  0.609331  0.619387  1
  O  O39  1  0.890669  0.380613  0.387957  1
  O  O40  1  0.109331  0.880613  0.112043  1
  O  O41  1  0.112043  0.109331  0.880613  1
  O  O42  1  0.111959  0.388041  0.611959  1
  O  O43  1  0.130613  0.859331  0.637957  1
  O  O44  1  0.119387  0.612043  0.390669  1
  O  O45  1  0.138041  0.638041  0.861959  1
  O  O46  1  0.137957  0.369387  0.140669  1
  O  O47  1  0.140669  0.137957  0.369387  1
  O  O48  1  0.359331  0.862043  0.869387  1
  O  O49  1  0.362043  0.630613  0.640669  1
  O  O50  1  0.361959  0.361959  0.361959  1
  O  O51  1  0.380613  0.387957  0.890669  1
  O  O52  1  0.369387  0.140669  0.137957  1
  O  O53  1  0.388041  0.611959  0.111959  1
  O  O54  1  0.387957  0.890669  0.380613  1
  O  O55  1  0.390669  0.119387  0.612043  1
