# generated using pymatgen
data_Er2Bi2O7
_symmetry_space_group_name_H-M   'P 1'
_cell_length_a   7.32961781
_cell_length_b   7.32961781
_cell_length_c   13.11885119
_cell_angle_alpha   90.00000000
_cell_angle_beta   90.00000000
_cell_angle_gamma   90.00000000
_symmetry_Int_Tables_number   1
_chemical_formula_structural   Er2Bi2O7
_chemical_formula_sum   'Er8 Bi8 O28'
_cell_volume   704.78794242
_cell_formula_units_Z   4
loop_
 _symmetry_equiv_pos_site_id
 _symmetry_equiv_pos_as_xyz
  1  'x, y, z'
loop_
 _atom_site_type_symbol
 _atom_site_label
 _atom_site_symmetry_multiplicity
 _atom_site_fract_x
 _atom_site_fract_y
 _atom_site_fract_z
 _atom_site_occupancy
  Er  Er0  1  0.379904  0.349092  0.359639  1
  Er  Er1  1  0.650908  0.379904  0.609639  1
  Er  Er2  1  0.149484  0.122701  0.140301  1
  Er  Er3  1  0.877299  0.149484  0.390301  1
  Er  Er4  1  0.122701  0.850516  0.890301  1
  Er  Er5  1  0.850516  0.877299  0.640301  1
  Er  Er6  1  0.349092  0.620096  0.109639  1
  Er  Er7  1  0.620096  0.650908  0.859639  1
  Bi  Bi8  1  0.119403  0.376719  0.902451  1
  Bi  Bi9  1  0.119836  0.375210  0.591283  1
  Bi  Bi10  1  0.623281  0.119403  0.152451  1
  Bi  Bi11  1  0.624790  0.119836  0.841283  1
  Bi  Bi12  1  0.375210  0.880164  0.341283  1
  Bi  Bi13  1  0.376719  0.880597  0.652451  1
  Bi  Bi14  1  0.880164  0.624790  0.091283  1
  Bi  Bi15  1  0.880597  0.623281  0.402451  1
  O  O16  1  0.094900  0.424866  0.086440  1
  O  O17  1  0.680261  0.407872  0.426325  1
  O  O18  1  0.084321  0.391402  0.420699  1
  O  O19  1  0.386862  0.331497  0.533153  1
  O  O20  1  0.407872  0.319739  0.176325  1
  O  O21  1  0.668503  0.386862  0.783153  1
  O  O22  1  0.185118  0.320983  0.742179  1
  O  O23  1  0.679017  0.185118  0.992179  1
  O  O24  1  0.176193  0.108931  0.970845  1
  O  O25  1  0.911092  0.181444  0.575832  1
  O  O26  1  0.891069  0.176193  0.220845  1
  O  O27  1  0.575134  0.094900  0.336440  1
  O  O28  1  0.181444  0.088908  0.325832  1
  O  O29  1  0.608598  0.084321  0.670699  1
  O  O30  1  0.391402  0.915679  0.170699  1
  O  O31  1  0.818556  0.911092  0.825832  1
  O  O32  1  0.424866  0.905100  0.836440  1
  O  O33  1  0.108931  0.823807  0.720845  1
  O  O34  1  0.088908  0.818556  0.075832  1
  O  O35  1  0.823807  0.891069  0.470845  1
  O  O36  1  0.320983  0.814882  0.492179  1
  O  O37  1  0.814882  0.679017  0.242179  1
  O  O38  1  0.331497  0.613138  0.283153  1
  O  O39  1  0.592128  0.680261  0.676325  1
  O  O40  1  0.613138  0.668503  0.033153  1
  O  O41  1  0.915679  0.608598  0.920699  1
  O  O42  1  0.319739  0.592128  0.926325  1
  O  O43  1  0.905100  0.575134  0.586440  1
