# generated using pymatgen
data_Yb4Br6O
_symmetry_space_group_name_H-M   'P 1'
_cell_length_a   9.16346133
_cell_length_b   9.16346133
_cell_length_c   6.98078603
_cell_angle_alpha   90.00000000
_cell_angle_beta   90.00000000
_cell_angle_gamma   90.00000000
_symmetry_Int_Tables_number   1
_chemical_formula_structural   Yb4Br6O
_chemical_formula_sum   'Yb8 Br12 O2'
_cell_volume   586.16978653
_cell_formula_units_Z   2
loop_
 _symmetry_equiv_pos_site_id
 _symmetry_equiv_pos_as_xyz
  1  'x, y, z'
loop_
 _atom_site_type_symbol
 _atom_site_label
 _atom_site_symmetry_multiplicity
 _atom_site_fract_x
 _atom_site_fract_y
 _atom_site_fract_z
 _atom_site_occupancy
  Yb  Yb0  1  0.000000  0.229008  0.353484  1
  Yb  Yb1  1  0.729008  0.500000  0.853484  1
  Yb  Yb2  1  0.270992  0.500000  0.853484  1
  Yb  Yb3  1  0.000000  0.770992  0.353484  1
  Yb  Yb4  1  0.500000  0.729008  0.146516  1
  Yb  Yb5  1  0.229008  0.000000  0.646516  1
  Yb  Yb6  1  0.770992  0.000000  0.646516  1
  Yb  Yb7  1  0.500000  0.270992  0.146516  1
  Br  Br8  1  0.704147  0.295853  0.500000  1
  Br  Br9  1  0.295853  0.295853  0.500000  1
  Br  Br10  1  0.000000  0.500000  0.647584  1
  Br  Br11  1  0.000000  0.500000  0.147584  1
  Br  Br12  1  0.295853  0.704147  0.500000  1
  Br  Br13  1  0.704147  0.704147  0.500000  1
  Br  Br14  1  0.795853  0.795853  0.000000  1
  Br  Br15  1  0.204147  0.795853  0.000000  1
  Br  Br16  1  0.500000  0.000000  0.852416  1
  Br  Br17  1  0.500000  0.000000  0.352416  1
  Br  Br18  1  0.795853  0.204147  0.000000  1
  Br  Br19  1  0.204147  0.204147  0.000000  1
  O  O20  1  0.500000  0.500000  0.000000  1
  O  O21  1  0.000000  0.000000  0.500000  1
