# generated using pymatgen
data_LiVP2O7
_symmetry_space_group_name_H-M   'P 1'
_cell_length_a   6.30702104
_cell_length_b   6.30702104
_cell_length_c   13.79415341
_cell_angle_alpha   77.44014580
_cell_angle_beta   102.55985420
_cell_angle_gamma   98.92889807
_symmetry_Int_Tables_number   1
_chemical_formula_structural   LiVP2O7
_chemical_formula_sum   'Li4 V4 P8 O28'
_cell_volume   519.39838732
_cell_formula_units_Z   4
loop_
 _symmetry_equiv_pos_site_id
 _symmetry_equiv_pos_as_xyz
  1  'x, y, z'
loop_
 _atom_site_type_symbol
 _atom_site_label
 _atom_site_symmetry_multiplicity
 _atom_site_fract_x
 _atom_site_fract_y
 _atom_site_fract_z
 _atom_site_occupancy
  Li  Li0  1  0.210397  0.786044  0.334866  1
  Li  Li1  1  0.786044  0.210397  0.165134  1
  Li  Li2  1  0.213956  0.789603  0.834866  1
  Li  Li3  1  0.789603  0.213956  0.665134  1
  V  V4  1  0.409771  0.851099  0.642938  1
  V  V5  1  0.148901  0.590229  0.142938  1
  V  V6  1  0.851099  0.409771  0.857062  1
  V  V7  1  0.590229  0.148901  0.357062  1
  P  P8  1  0.276744  0.130349  0.137413  1
  P  P9  1  0.344229  0.262515  0.914985  1
  P  P10  1  0.262515  0.344229  0.585015  1
  P  P11  1  0.869651  0.723256  0.637413  1
  P  P12  1  0.130349  0.276744  0.362587  1
  P  P13  1  0.737485  0.655771  0.414985  1
  P  P14  1  0.655771  0.737485  0.085015  1
  P  P15  1  0.723256  0.869651  0.862587  1
  O  O16  1  0.092002  0.273280  0.121659  1
  O  O17  1  0.172671  0.431473  0.892144  1
  O  O18  1  0.273280  0.092002  0.378341  1
  O  O19  1  0.486176  0.206356  0.211098  1
  O  O20  1  0.084159  0.286265  0.645286  1
  O  O21  1  0.202286  0.891882  0.176600  1
  O  O22  1  0.352499  0.148275  0.033956  1
  O  O23  1  0.380806  0.581851  0.585722  1
  O  O24  1  0.581851  0.380806  0.914278  1
  O  O25  1  0.286265  0.084159  0.854714  1
  O  O26  1  0.148275  0.352499  0.466044  1
  O  O27  1  0.568527  0.827329  0.392144  1
  O  O28  1  0.891882  0.202286  0.323400  1
  O  O29  1  0.206356  0.486176  0.288902  1
  O  O30  1  0.793644  0.513824  0.711098  1
  O  O31  1  0.108118  0.797714  0.676600  1
  O  O32  1  0.431473  0.172671  0.607856  1
  O  O33  1  0.851725  0.647501  0.533956  1
  O  O34  1  0.713735  0.915841  0.145286  1
  O  O35  1  0.418149  0.619194  0.085722  1
  O  O36  1  0.619194  0.418149  0.414278  1
  O  O37  1  0.647501  0.851725  0.966044  1
  O  O38  1  0.797714  0.108118  0.823400  1
  O  O39  1  0.915841  0.713735  0.354714  1
  O  O40  1  0.513824  0.793644  0.788902  1
  O  O41  1  0.726720  0.907998  0.621659  1
  O  O42  1  0.827329  0.568527  0.107856  1
  O  O43  1  0.907998  0.726720  0.878341  1
