# generated using pymatgen
data_MgBP(H3O4)2
_symmetry_space_group_name_H-M   'P 1'
_cell_length_a   9.85388568
_cell_length_b   9.85388568
_cell_length_c   9.85388568
_cell_angle_alpha   99.14739092
_cell_angle_beta   99.14739092
_cell_angle_gamma   99.14739092
_symmetry_Int_Tables_number   1
_chemical_formula_structural   MgBP(H3O4)2
_chemical_formula_sum   'Mg6 B6 P6 H36 O48'
_cell_volume   915.80878239
_cell_formula_units_Z   6
loop_
 _symmetry_equiv_pos_site_id
 _symmetry_equiv_pos_as_xyz
  1  'x, y, z'
loop_
 _atom_site_type_symbol
 _atom_site_label
 _atom_site_symmetry_multiplicity
 _atom_site_fract_x
 _atom_site_fract_y
 _atom_site_fract_z
 _atom_site_occupancy
  Mg  Mg0  1  0.250258  0.750000  0.249742  1
  Mg  Mg1  1  0.750258  0.749742  0.250000  1
  Mg  Mg2  1  0.250000  0.750258  0.749742  1
  Mg  Mg3  1  0.750000  0.249742  0.250258  1
  Mg  Mg4  1  0.249742  0.250258  0.750000  1
  Mg  Mg5  1  0.749742  0.250000  0.750258  1
  B  B6  1  0.750000  0.940707  0.559293  1
  B  B7  1  0.440707  0.250000  0.059293  1
  B  B8  1  0.059293  0.440707  0.250000  1
  B  B9  1  0.559293  0.750000  0.940707  1
  B  B10  1  0.940707  0.559293  0.750000  1
  B  B11  1  0.250000  0.059293  0.440707  1
  P  P12  1  0.250000  0.439865  0.060135  1
  P  P13  1  0.939865  0.750000  0.560135  1
  P  P14  1  0.560135  0.939865  0.750000  1
  P  P15  1  0.060135  0.250000  0.439865  1
  P  P16  1  0.439865  0.060135  0.250000  1
  P  P17  1  0.750000  0.560135  0.939865  1
  H  H18  1  0.130123  0.832290  0.021647  1
  H  H19  1  0.978353  0.869877  0.167710  1
  H  H20  1  0.526977  0.834200  0.130927  1
  H  H21  1  0.961441  0.979669  0.294999  1
  H  H22  1  0.020331  0.705001  0.038559  1
  H  H23  1  0.665800  0.973023  0.369073  1
  H  H24  1  0.165800  0.869073  0.473023  1
  H  H25  1  0.520331  0.538559  0.205001  1
  H  H26  1  0.461441  0.794999  0.479669  1
  H  H27  1  0.026977  0.630927  0.334200  1
  H  H28  1  0.478353  0.667710  0.369877  1
  H  H29  1  0.869073  0.473023  0.165800  1
  H  H30  1  0.630927  0.334200  0.026977  1
  H  H31  1  0.630123  0.521647  0.332290  1
  H  H32  1  0.332290  0.630123  0.521647  1
  H  H33  1  0.167710  0.978353  0.869877  1
  H  H34  1  0.794999  0.479669  0.461441  1
  H  H35  1  0.705001  0.038559  0.020331  1
  H  H36  1  0.205001  0.520331  0.538559  1
  H  H37  1  0.294999  0.961441  0.979669  1
  H  H38  1  0.832290  0.021647  0.130123  1
  H  H39  1  0.667710  0.369877  0.478353  1
  H  H40  1  0.369877  0.478353  0.667710  1
  H  H41  1  0.369073  0.665800  0.973023  1
  H  H42  1  0.130927  0.526977  0.834200  1
  H  H43  1  0.521647  0.332290  0.630123  1
  H  H44  1  0.973023  0.369073  0.665800  1
  H  H45  1  0.538559  0.205001  0.520331  1
  H  H46  1  0.479669  0.461441  0.794999  1
  H  H47  1  0.834200  0.130927  0.526977  1
  H  H48  1  0.334200  0.026977  0.630927  1
  H  H49  1  0.979669  0.294999  0.961441  1
  H  H50  1  0.038559  0.020331  0.705001  1
  H  H51  1  0.473023  0.165800  0.869073  1
  H  H52  1  0.021647  0.130123  0.832290  1
  H  H53  1  0.869877  0.167710  0.978353  1
  O  O54  1  0.394066  0.901564  0.201353  1
  O  O55  1  0.600642  0.789554  0.093496  1
  O  O56  1  0.088560  0.786890  0.094230  1
  O  O57  1  0.905770  0.911440  0.213110  1
  O  O58  1  0.798647  0.605934  0.098436  1
  O  O59  1  0.210446  0.906504  0.399358  1
  O  O60  1  0.710446  0.899358  0.406504  1
  O  O61  1  0.298647  0.598436  0.105934  1
  O  O62  1  0.405770  0.713110  0.411440  1
  O  O63  1  0.588560  0.594230  0.286890  1
  O  O64  1  0.100642  0.593496  0.289554  1
  O  O65  1  0.894066  0.701353  0.401564  1
  O  O66  1  0.627718  0.886138  0.622347  1
  O  O67  1  0.872282  0.877653  0.613862  1
  O  O68  1  0.377653  0.372282  0.113862  1
  O  O69  1  0.122347  0.386138  0.127718  1
  O  O70  1  0.401564  0.894066  0.701353  1
  O  O71  1  0.098436  0.798647  0.605934  1
  O  O72  1  0.906504  0.399358  0.210446  1
  O  O73  1  0.593496  0.289554  0.100642  1
  O  O74  1  0.113862  0.377653  0.372282  1
  O  O75  1  0.386138  0.127718  0.122347  1
  O  O76  1  0.286890  0.588560  0.594230  1
  O  O77  1  0.213110  0.905770  0.911440  1
  O  O78  1  0.713110  0.411440  0.405770  1
  O  O79  1  0.786890  0.094230  0.088560  1
  O  O80  1  0.613862  0.872282  0.877653  1
  O  O81  1  0.886138  0.622347  0.627718  1
  O  O82  1  0.093496  0.600642  0.789554  1
  O  O83  1  0.406504  0.710446  0.899358  1
  O  O84  1  0.901564  0.201353  0.394066  1
  O  O85  1  0.598436  0.105934  0.298647  1
  O  O86  1  0.622347  0.627718  0.886138  1
  O  O87  1  0.877653  0.613862  0.872282  1
  O  O88  1  0.127718  0.122347  0.386138  1
  O  O89  1  0.372282  0.113862  0.377653  1
  O  O90  1  0.105934  0.298647  0.598436  1
  O  O91  1  0.899358  0.406504  0.710446  1
  O  O92  1  0.411440  0.405770  0.713110  1
  O  O93  1  0.594230  0.286890  0.588560  1
  O  O94  1  0.701353  0.401564  0.894066  1
  O  O95  1  0.289554  0.100642  0.593496  1
  O  O96  1  0.789554  0.093496  0.600642  1
  O  O97  1  0.201353  0.394066  0.901564  1
  O  O98  1  0.094230  0.088560  0.786890  1
  O  O99  1  0.911440  0.213110  0.905770  1
  O  O100  1  0.399358  0.210446  0.906504  1
  O  O101  1  0.605934  0.098436  0.798647  1
