# generated using pymatgen
data_Li3Ni5OF11
_symmetry_space_group_name_H-M   'P 1'
_cell_length_a   5.12774011
_cell_length_b   5.48952643
_cell_length_c   8.89505964
_cell_angle_alpha   105.72106227
_cell_angle_beta   89.69833908
_cell_angle_gamma   117.13130060
_symmetry_Int_Tables_number   1
_chemical_formula_structural   Li3Ni5OF11
_chemical_formula_sum   'Li3 Ni5 O1 F11'
_cell_volume   212.44359631
_cell_formula_units_Z   1
loop_
 _symmetry_equiv_pos_site_id
 _symmetry_equiv_pos_as_xyz
  1  'x, y, z'
loop_
 _atom_site_type_symbol
 _atom_site_label
 _atom_site_symmetry_multiplicity
 _atom_site_fract_x
 _atom_site_fract_y
 _atom_site_fract_z
 _atom_site_occupancy
  Li  Li0  1  0.289564  0.146029  0.426321  1
  Li  Li1  1  0.222165  0.371345  0.071766  1
  Li  Li2  1  0.707256  0.863660  0.560298  1
  Ni  Ni3  1  0.758965  0.633775  0.928573  1
  Ni  Ni4  1  0.483577  0.112805  0.831720  1
  Ni  Ni5  1  0.988157  0.644188  0.330043  1
  Ni  Ni6  1  0.017354  0.363860  0.672122  1
  Ni  Ni7  1  0.527276  0.857145  0.165911  1
  O  O8  1  0.517930  0.775995  0.971973  1
  F  F9  1  0.545826  0.474340  0.286715  1
  F  F10  1  0.032219  0.975508  0.781291  1
  F  F11  1  0.574577  0.128719  0.625669  1
  F  F12  1  0.927944  0.381373  0.871087  1
  F  F13  1  0.976928  0.718232  0.533134  1
  F  F14  1  0.470396  0.219472  0.030333  1
  F  F15  1  0.032751  0.287348  0.472375  1
  F  F16  1  0.056642  0.621561  0.128866  1
  F  F17  1  0.431162  0.870668  0.367337  1
  F  F18  1  0.465439  0.524408  0.720077  1
  F  F19  1  0.973872  0.029570  0.224387  1
