# generated using pymatgen
data_Li2Mn2Si2O9
_symmetry_space_group_name_H-M   'P 1'
_cell_length_a   5.12930192
_cell_length_b   8.42693875
_cell_length_c   13.93125107
_cell_angle_alpha   90.00000000
_cell_angle_beta   90.00000000
_cell_angle_gamma   90.00000000
_symmetry_Int_Tables_number   1
_chemical_formula_structural   Li2Mn2Si2O9
_chemical_formula_sum   'Li8 Mn8 Si8 O36'
_cell_volume   602.16875827
_cell_formula_units_Z   4
loop_
 _symmetry_equiv_pos_site_id
 _symmetry_equiv_pos_as_xyz
  1  'x, y, z'
loop_
 _atom_site_type_symbol
 _atom_site_label
 _atom_site_symmetry_multiplicity
 _atom_site_fract_x
 _atom_site_fract_y
 _atom_site_fract_z
 _atom_site_occupancy
  Li  Li0  1  0.365140  0.946356  0.660858  1
  Li  Li1  1  0.865140  0.553644  0.660858  1
  Li  Li2  1  0.865140  0.446356  0.839142  1
  Li  Li3  1  0.365140  0.053644  0.839142  1
  Li  Li4  1  0.634860  0.946356  0.160858  1
  Li  Li5  1  0.134860  0.553644  0.160858  1
  Li  Li6  1  0.134860  0.446356  0.339142  1
  Li  Li7  1  0.634860  0.053644  0.339142  1
  Mn  Mn8  1  0.378133  0.341459  0.670281  1
  Mn  Mn9  1  0.878133  0.158541  0.670281  1
  Mn  Mn10  1  0.878133  0.841459  0.829719  1
  Mn  Mn11  1  0.378133  0.658541  0.829719  1
  Mn  Mn12  1  0.621867  0.341459  0.170281  1
  Mn  Mn13  1  0.121867  0.158541  0.170281  1
  Mn  Mn14  1  0.121867  0.841459  0.329719  1
  Mn  Mn15  1  0.621867  0.658541  0.329719  1
  Si  Si16  1  0.784236  0.846798  0.528102  1
  Si  Si17  1  0.284236  0.653202  0.528102  1
  Si  Si18  1  0.284236  0.346798  0.971898  1
  Si  Si19  1  0.784236  0.153202  0.971898  1
  Si  Si20  1  0.215764  0.846798  0.028102  1
  Si  Si21  1  0.715764  0.653202  0.028102  1
  Si  Si22  1  0.715764  0.346798  0.471898  1
  Si  Si23  1  0.215764  0.153202  0.471898  1
  O  O24  1  0.556727  0.727045  0.569105  1
  O  O25  1  0.056727  0.772955  0.569105  1
  O  O26  1  0.725714  0.017912  0.574780  1
  O  O27  1  0.225714  0.482088  0.574780  1
  O  O28  1  0.713168  0.343856  0.591115  1
  O  O29  1  0.213168  0.156144  0.591115  1
  O  O30  1  0.560926  0.176523  0.735132  1
  O  O31  1  0.060926  0.323477  0.735132  1
  O  O32  1  0.028477  0.000000  0.750000  1
  O  O33  1  0.528477  0.500000  0.750000  1
  O  O34  1  0.560926  0.823477  0.764868  1
  O  O35  1  0.060926  0.676523  0.764868  1
  O  O36  1  0.213168  0.843856  0.908885  1
  O  O37  1  0.713168  0.656144  0.908885  1
  O  O38  1  0.725714  0.982088  0.925220  1
  O  O39  1  0.225714  0.517912  0.925220  1
  O  O40  1  0.556727  0.272955  0.930895  1
  O  O41  1  0.056727  0.227045  0.930895  1
  O  O42  1  0.943273  0.772955  0.069105  1
  O  O43  1  0.443273  0.727045  0.069105  1
  O  O44  1  0.774286  0.482088  0.074780  1
  O  O45  1  0.274286  0.017912  0.074780  1
  O  O46  1  0.286832  0.343856  0.091115  1
  O  O47  1  0.786832  0.156144  0.091115  1
  O  O48  1  0.939074  0.323477  0.235132  1
  O  O49  1  0.439074  0.176523  0.235132  1
  O  O50  1  0.971523  0.000000  0.250000  1
  O  O51  1  0.471523  0.500000  0.250000  1
  O  O52  1  0.439074  0.823477  0.264868  1
  O  O53  1  0.939074  0.676523  0.264868  1
  O  O54  1  0.786832  0.843856  0.408885  1
  O  O55  1  0.286832  0.656144  0.408885  1
  O  O56  1  0.274286  0.982088  0.425220  1
  O  O57  1  0.774286  0.517912  0.425220  1
  O  O58  1  0.443273  0.272955  0.430895  1
  O  O59  1  0.943273  0.227045  0.430895  1
