# generated using pymatgen
data_Na3Li3Fe2P2(CO7)2
_symmetry_space_group_name_H-M   'P 1'
_cell_length_a   6.71274864
_cell_length_b   8.72233393
_cell_length_c   10.17081462
_cell_angle_alpha   92.39637774
_cell_angle_beta   90.58074189
_cell_angle_gamma   90.08348023
_symmetry_Int_Tables_number   1
_chemical_formula_structural   Na3Li3Fe2P2(CO7)2
_chemical_formula_sum   'Na6 Li6 Fe4 P4 C4 O28'
_cell_volume   594.95728576
_cell_formula_units_Z   2
loop_
 _symmetry_equiv_pos_site_id
 _symmetry_equiv_pos_as_xyz
  1  'x, y, z'
loop_
 _atom_site_type_symbol
 _atom_site_label
 _atom_site_symmetry_multiplicity
 _atom_site_fract_x
 _atom_site_fract_y
 _atom_site_fract_z
 _atom_site_occupancy
  Na  Na0  1  0.257201  0.086403  0.121204  1
  Na  Na1  1  0.997613  0.259399  0.370991  1
  Na  Na2  1  0.000617  0.257323  0.876824  1
  Na  Na3  1  0.501295  0.255593  0.871842  1
  Na  Na4  1  0.499850  0.745731  0.123777  1
  Na  Na5  1  0.502128  0.739725  0.627646  1
  Li  Li6  1  0.240175  0.092848  0.618395  1
  Li  Li7  1  0.464095  0.289539  0.388522  1
  Li  Li8  1  0.972901  0.720147  0.117110  1
  Li  Li9  1  0.983201  0.723147  0.624827  1
  Li  Li10  1  0.760340  0.900456  0.378646  1
  Li  Li11  1  0.766898  0.897438  0.875605  1
  Fe  Fe12  1  0.744248  0.358312  0.117490  1
  Fe  Fe13  1  0.749273  0.347543  0.608443  1
  Fe  Fe14  1  0.242342  0.661156  0.391318  1
  Fe  Fe15  1  0.242357  0.647172  0.888395  1
  P  P16  1  0.246574  0.419635  0.148412  1
  P  P17  1  0.243764  0.410059  0.642396  1
  P  P18  1  0.746678  0.594872  0.358205  1
  P  P19  1  0.753124  0.591381  0.857903  1
  C  C20  1  0.760283  0.043576  0.134899  1
  C  C21  1  0.762489  0.040844  0.636620  1
  C  C22  1  0.262861  0.961546  0.369508  1
  C  C23  1  0.245083  0.938245  0.848126  1
  O  O24  1  0.283596  0.106098  0.348783  1
  O  O25  1  0.249162  0.081674  0.820123  1
  O  O26  1  0.753769  0.069200  0.010437  1
  O  O27  1  0.761725  0.072981  0.513254  1
  O  O28  1  0.744966  0.158642  0.221200  1
  O  O29  1  0.746623  0.153308  0.725672  1
  O  O30  1  0.062970  0.316117  0.113582  1
  O  O31  1  0.430910  0.329710  0.096167  1
  O  O32  1  0.063338  0.303695  0.604754  1
  O  O33  1  0.430265  0.317693  0.593821  1
  O  O34  1  0.266623  0.442445  0.301773  1
  O  O35  1  0.728076  0.432298  0.414298  1
  O  O36  1  0.253626  0.434047  0.795514  1
  O  O37  1  0.749624  0.435047  0.924113  1
  O  O38  1  0.227304  0.579756  0.088498  1
  O  O39  1  0.771288  0.575618  0.205528  1
  O  O40  1  0.229626  0.568834  0.581043  1
  O  O41  1  0.779545  0.563246  0.705986  1
  O  O42  1  0.561914  0.697006  0.389309  1
  O  O43  1  0.926665  0.688981  0.417109  1
  O  O44  1  0.562164  0.688068  0.883980  1
  O  O45  1  0.926497  0.695063  0.914036  1
  O  O46  1  0.244972  0.861741  0.270035  1
  O  O47  1  0.225845  0.832693  0.754079  1
  O  O48  1  0.256453  0.912221  0.488111  1
  O  O49  1  0.259417  0.894378  0.968281  1
  O  O50  1  0.780234  0.905810  0.178014  1
  O  O51  1  0.777411  0.901538  0.675395  1
