# generated using pymatgen
data_Li12Mn3VP4(CO7)4
_symmetry_space_group_name_H-M   'P 1'
_cell_length_a   8.52927439
_cell_length_b   6.62103019
_cell_length_c   10.00008483
_cell_angle_alpha   90.00000000
_cell_angle_beta   94.55628808
_cell_angle_gamma   90.00000000
_symmetry_Int_Tables_number   1
_chemical_formula_structural   Li12Mn3VP4(CO7)4
_chemical_formula_sum   'Li12 Mn3 V1 P4 C4 O28'
_cell_volume   562.94594603
_cell_formula_units_Z   1
loop_
 _symmetry_equiv_pos_site_id
 _symmetry_equiv_pos_as_xyz
  1  'x, y, z'
loop_
 _atom_site_type_symbol
 _atom_site_label
 _atom_site_symmetry_multiplicity
 _atom_site_fract_x
 _atom_site_fract_y
 _atom_site_fract_z
 _atom_site_occupancy
  Li  Li0  1  0.909346  0.000000  0.379347  1
  Li  Li1  1  0.907816  0.000000  0.879692  1
  Li  Li2  1  0.726700  0.222730  0.122804  1
  Li  Li3  1  0.726700  0.777270  0.122804  1
  Li  Li4  1  0.725636  0.222872  0.623149  1
  Li  Li5  1  0.725636  0.777128  0.623149  1
  Li  Li6  1  0.273517  0.722262  0.377098  1
  Li  Li7  1  0.273517  0.277738  0.377098  1
  Li  Li8  1  0.273934  0.723000  0.876633  1
  Li  Li9  1  0.273934  0.277000  0.876633  1
  Li  Li10  1  0.091370  0.500000  0.120880  1
  Li  Li11  1  0.091624  0.500000  0.620950  1
  Mn  Mn12  1  0.659387  0.500000  0.389773  1
  Mn  Mn13  1  0.659472  0.500000  0.889726  1
  Mn  Mn14  1  0.340572  0.000000  0.109883  1
  V  V15  1  0.331285  0.000000  0.604048  1
  P  P16  1  0.590668  0.000000  0.360889  1
  P  P17  1  0.588707  0.000000  0.859123  1
  P  P18  1  0.409949  0.500000  0.139863  1
  P  P19  1  0.410226  0.500000  0.640129  1
  C  C20  1  0.967116  0.500000  0.352109  1
  C  C21  1  0.967175  0.500000  0.852088  1
  C  C22  1  0.032965  0.000000  0.147973  1
  C  C23  1  0.034494  0.000000  0.649174  1
  O  O24  1  0.930205  0.500000  0.475391  1
  O  O25  1  0.887116  0.000000  0.177509  1
  O  O26  1  0.930209  0.500000  0.975042  1
  O  O27  1  0.855421  0.500000  0.255239  1
  O  O28  1  0.888744  0.000000  0.676510  1
  O  O29  1  0.855533  0.500000  0.754918  1
  O  O30  1  0.690330  0.183920  0.414013  1
  O  O31  1  0.690330  0.816080  0.414013  1
  O  O32  1  0.689367  0.183455  0.912936  1
  O  O33  1  0.689367  0.816545  0.912936  1
  O  O34  1  0.579560  0.500000  0.094232  1
  O  O35  1  0.575605  0.000000  0.204003  1
  O  O36  1  0.579642  0.500000  0.594049  1
  O  O37  1  0.572951  0.000000  0.701992  1
  O  O38  1  0.423749  0.500000  0.297038  1
  O  O39  1  0.421763  0.000000  0.407860  1
  O  O40  1  0.424007  0.500000  0.797088  1
  O  O41  1  0.420660  0.000000  0.907430  1
  O  O42  1  0.310501  0.316172  0.086384  1
  O  O43  1  0.310501  0.683828  0.086384  1
  O  O44  1  0.310348  0.683189  0.586286  1
  O  O45  1  0.310348  0.316811  0.586286  1
  O  O46  1  0.144635  0.000000  0.245164  1
  O  O47  1  0.112897  0.500000  0.322748  1
  O  O48  1  0.146459  0.000000  0.745743  1
  O  O49  1  0.069870  0.000000  0.024963  1
  O  O50  1  0.113034  0.500000  0.822545  1
  O  O51  1  0.075102  0.000000  0.526285  1
