# generated using pymatgen
data_Li2Mn3CoO8
_symmetry_space_group_name_H-M   'P 1'
_cell_length_a   8.30293934
_cell_length_b   8.30293934
_cell_length_c   8.30293934
_cell_angle_alpha   90.00000000
_cell_angle_beta   90.00000000
_cell_angle_gamma   90.00000000
_symmetry_Int_Tables_number   1
_chemical_formula_structural   Li2Mn3CoO8
_chemical_formula_sum   'Li8 Mn12 Co4 O32'
_cell_volume   572.39468803
_cell_formula_units_Z   4
loop_
 _symmetry_equiv_pos_site_id
 _symmetry_equiv_pos_as_xyz
  1  'x, y, z'
loop_
 _atom_site_type_symbol
 _atom_site_label
 _atom_site_symmetry_multiplicity
 _atom_site_fract_x
 _atom_site_fract_y
 _atom_site_fract_z
 _atom_site_occupancy
  Li  Li0  1  0.124442  0.875558  0.375558  1
  Li  Li1  1  0.251610  0.751610  0.748390  1
  Li  Li2  1  0.248390  0.248390  0.248390  1
  Li  Li3  1  0.375558  0.124442  0.875558  1
  Li  Li4  1  0.624442  0.624442  0.624442  1
  Li  Li5  1  0.751610  0.748390  0.251610  1
  Li  Li6  1  0.748390  0.251610  0.751610  1
  Li  Li7  1  0.875558  0.375558  0.124442  1
  Mn  Mn8  1  0.124199  0.623016  0.121990  1
  Mn  Mn9  1  0.123016  0.378010  0.875801  1
  Mn  Mn10  1  0.121990  0.124199  0.623016  1
  Mn  Mn11  1  0.378010  0.875801  0.123016  1
  Mn  Mn12  1  0.376984  0.621990  0.375801  1
  Mn  Mn13  1  0.375801  0.376984  0.621990  1
  Mn  Mn14  1  0.624199  0.876984  0.878010  1
  Mn  Mn15  1  0.623016  0.121990  0.124199  1
  Mn  Mn16  1  0.621990  0.375801  0.376984  1
  Mn  Mn17  1  0.878010  0.624199  0.876984  1
  Mn  Mn18  1  0.876984  0.878010  0.624199  1
  Mn  Mn19  1  0.875801  0.123016  0.378010  1
  Co  Co20  1  0.997033  0.502967  0.497033  1
  Co  Co21  1  0.502967  0.497033  0.997033  1
  Co  Co22  1  0.497033  0.997033  0.502967  1
  Co  Co23  1  0.002967  0.002967  0.002967  1
  O  O24  1  0.101541  0.127854  0.393304  1
  O  O25  1  0.106696  0.898459  0.627854  1
  O  O26  1  0.113956  0.613956  0.886044  1
  O  O27  1  0.127854  0.393304  0.101541  1
  O  O28  1  0.121590  0.147330  0.859720  1
  O  O29  1  0.135859  0.364141  0.635859  1
  O  O30  1  0.140280  0.621590  0.352670  1
  O  O31  1  0.147330  0.859720  0.121590  1
  O  O32  1  0.352670  0.140280  0.621590  1
  O  O33  1  0.359720  0.378410  0.852670  1
  O  O34  1  0.364141  0.635859  0.135859  1
  O  O35  1  0.378410  0.852670  0.359720  1
  O  O36  1  0.372146  0.606696  0.601541  1
  O  O37  1  0.386044  0.386044  0.386044  1
  O  O38  1  0.393304  0.101541  0.127854  1
  O  O39  1  0.398459  0.872146  0.893304  1
  O  O40  1  0.601541  0.372146  0.606696  1
  O  O41  1  0.606696  0.601541  0.372146  1
  O  O42  1  0.613956  0.886044  0.113956  1
  O  O43  1  0.627854  0.106696  0.898459  1
  O  O44  1  0.621590  0.352670  0.140280  1
  O  O45  1  0.635859  0.135859  0.364141  1
  O  O46  1  0.640280  0.878410  0.647330  1
  O  O47  1  0.647330  0.640280  0.878410  1
  O  O48  1  0.852670  0.359720  0.378410  1
  O  O49  1  0.859720  0.121590  0.147330  1
  O  O50  1  0.864141  0.864141  0.864141  1
  O  O51  1  0.878410  0.647330  0.640280  1
  O  O52  1  0.872146  0.893304  0.398459  1
  O  O53  1  0.886044  0.113956  0.613956  1
  O  O54  1  0.893304  0.398459  0.872146  1
  O  O55  1  0.898459  0.627854  0.106696  1
