# generated using pymatgen
data_Li2VFe(P2O7)2
_symmetry_space_group_name_H-M   'P 1'
_cell_length_a   7.17516857
_cell_length_b   8.23739179
_cell_length_c   9.77890744
_cell_angle_alpha   90.00000000
_cell_angle_beta   111.44891635
_cell_angle_gamma   90.00000000
_symmetry_Int_Tables_number   1
_chemical_formula_structural   Li2VFe(P2O7)2
_chemical_formula_sum   'Li4 V2 Fe2 P8 O28'
_cell_volume   537.95059764
_cell_formula_units_Z   2
loop_
 _symmetry_equiv_pos_site_id
 _symmetry_equiv_pos_as_xyz
  1  'x, y, z'
loop_
 _atom_site_type_symbol
 _atom_site_label
 _atom_site_symmetry_multiplicity
 _atom_site_fract_x
 _atom_site_fract_y
 _atom_site_fract_z
 _atom_site_occupancy
  Li  Li0  1  0.575740  0.362727  0.249209  1
  Li  Li1  1  0.926510  0.861150  0.251019  1
  Li  Li2  1  0.073490  0.361150  0.748981  1
  Li  Li3  1  0.424260  0.862727  0.750791  1
  V  V4  1  0.527829  0.999665  0.257168  1
  V  V5  1  0.472171  0.499665  0.742832  1
  Fe  Fe6  1  0.973726  0.499812  0.241609  1
  Fe  Fe7  1  0.026274  0.999812  0.758391  1
  P  P8  1  0.149430  0.782474  0.062976  1
  P  P9  1  0.539629  0.679872  0.061417  1
  P  P10  1  0.961746  0.180801  0.439109  1
  P  P11  1  0.651795  0.784658  0.564671  1
  P  P12  1  0.348205  0.284658  0.435329  1
  P  P13  1  0.038254  0.680801  0.560891  1
  P  P14  1  0.460371  0.179872  0.938583  1
  P  P15  1  0.850570  0.282474  0.937024  1
  O  O16  1  0.326056  0.651657  0.078753  1
  O  O17  1  0.239361  0.932605  0.157481  1
  O  O18  1  0.497578  0.178178  0.103487  1
  O  O19  1  0.623129  0.843968  0.129524  1
  O  O20  1  0.666042  0.537782  0.147626  1
  O  O21  1  0.952962  0.323193  0.099037  1
  O  O22  1  0.008741  0.693075  0.123814  1
  O  O23  1  0.490481  0.198195  0.375323  1
  O  O24  1  0.550932  0.825304  0.402137  1
  O  O25  1  0.834529  0.038736  0.351644  1
  O  O26  1  0.879046  0.346128  0.370425  1
  O  O27  1  0.002919  0.679047  0.396501  1
  O  O28  1  0.255824  0.434192  0.341490  1
  O  O29  1  0.174397  0.152361  0.420983  1
  O  O30  1  0.825603  0.652361  0.579017  1
  O  O31  1  0.744176  0.934192  0.658510  1
  O  O32  1  0.997081  0.179047  0.603499  1
  O  O33  1  0.120954  0.846128  0.629575  1
  O  O34  1  0.165471  0.538736  0.648356  1
  O  O35  1  0.449068  0.325304  0.597863  1
  O  O36  1  0.509519  0.698195  0.624677  1
  O  O37  1  0.991259  0.193075  0.876186  1
  O  O38  1  0.047038  0.823193  0.900963  1
  O  O39  1  0.333958  0.037782  0.852374  1
  O  O40  1  0.376871  0.343968  0.870476  1
  O  O41  1  0.502422  0.678178  0.896513  1
  O  O42  1  0.760639  0.432605  0.842519  1
  O  O43  1  0.673944  0.151657  0.921247  1
