# generated using pymatgen
data_ZnH10C4N6(ClO2)2
_symmetry_space_group_name_H-M   'P 1'
_cell_length_a   8.15043564
_cell_length_b   7.36645526
_cell_length_c   11.70835096
_cell_angle_alpha   90.00000000
_cell_angle_beta   124.81239468
_cell_angle_gamma   90.00000000
_symmetry_Int_Tables_number   1
_chemical_formula_structural   ZnH10C4N6(ClO2)2
_chemical_formula_sum   'Zn2 H20 C8 N12 Cl4 O8'
_cell_volume   577.15422170
_cell_formula_units_Z   2
loop_
 _symmetry_equiv_pos_site_id
 _symmetry_equiv_pos_as_xyz
  1  'x, y, z'
loop_
 _atom_site_type_symbol
 _atom_site_label
 _atom_site_symmetry_multiplicity
 _atom_site_fract_x
 _atom_site_fract_y
 _atom_site_fract_z
 _atom_site_occupancy
  Zn  Zn0  1  0.000000  0.500000  0.500000  1
  Zn  Zn1  1  0.000000  0.000000  0.000000  1
  H  H2  1  0.332174  0.147214  0.801061  1
  H  H3  1  0.667826  0.647214  0.698939  1
  H  H4  1  0.667826  0.852786  0.198939  1
  H  H5  1  0.332174  0.352786  0.301061  1
  H  H6  1  0.400031  0.928300  0.790299  1
  H  H7  1  0.599969  0.428300  0.709701  1
  H  H8  1  0.599969  0.071700  0.209701  1
  H  H9  1  0.400031  0.571700  0.290299  1
  H  H10  1  0.116618  0.401901  0.981440  1
  H  H11  1  0.883382  0.901901  0.518560  1
  H  H12  1  0.883382  0.598099  0.018560  1
  H  H13  1  0.116618  0.098099  0.481440  1
  H  H14  1  0.237565  0.428057  0.896437  1
  H  H15  1  0.762435  0.928057  0.603563  1
  H  H16  1  0.762435  0.571943  0.103563  1
  H  H17  1  0.237565  0.071943  0.396437  1
  H  H18  1  0.299278  0.689547  0.849855  1
  H  H19  1  0.700722  0.189547  0.650145  1
  H  H20  1  0.700722  0.310453  0.150145  1
  H  H21  1  0.299278  0.810453  0.349855  1
  C  C22  1  0.234312  0.952655  0.874763  1
  C  C23  1  0.765688  0.452655  0.625237  1
  C  C24  1  0.765688  0.047345  0.125237  1
  C  C25  1  0.234312  0.547345  0.374763  1
  C  C26  1  0.160658  0.663436  0.949517  1
  C  C27  1  0.839342  0.163436  0.550483  1
  C  C28  1  0.839342  0.336564  0.050483  1
  C  C29  1  0.160658  0.836564  0.449517  1
  N  N30  1  0.239448  0.765328  0.891902  1
  N  N31  1  0.760552  0.265328  0.608098  1
  N  N32  1  0.760552  0.234672  0.108098  1
  N  N33  1  0.239448  0.734672  0.391902  1
  N  N34  1  0.328239  0.011145  0.817891  1
  N  N35  1  0.671761  0.511145  0.682109  1
  N  N36  1  0.671761  0.988855  0.182109  1
  N  N37  1  0.328239  0.488855  0.317891  1
  N  N38  1  0.180607  0.483994  0.946631  1
  N  N39  1  0.819393  0.983994  0.553369  1
  N  N40  1  0.819393  0.516006  0.053369  1
  N  N41  1  0.180607  0.016006  0.446631  1
  Cl  Cl42  1  0.328834  0.445214  0.741511  1
  Cl  Cl43  1  0.671166  0.945214  0.758489  1
  Cl  Cl44  1  0.671166  0.554786  0.258489  1
  Cl  Cl45  1  0.328834  0.054786  0.241511  1
  O  O46  1  0.150152  0.061878  0.908642  1
  O  O47  1  0.849848  0.561878  0.591358  1
  O  O48  1  0.849848  0.938122  0.091358  1
  O  O49  1  0.150152  0.438122  0.408642  1
  O  O50  1  0.077497  0.731779  0.003543  1
  O  O51  1  0.922503  0.231779  0.496457  1
  O  O52  1  0.922503  0.268221  0.996457  1
  O  O53  1  0.077497  0.768221  0.503543  1
