# generated using pymatgen
data_BiOF
_symmetry_space_group_name_H-M   'P 1'
_cell_length_a   7.26612658
_cell_length_b   6.87384303
_cell_length_c   6.04324457
_cell_angle_alpha   68.11050381
_cell_angle_beta   61.37917305
_cell_angle_gamma   50.51032314
_symmetry_Int_Tables_number   1
_chemical_formula_structural   BiOF
_chemical_formula_sum   'Bi4 O4 F4'
_cell_volume   203.43773339
_cell_formula_units_Z   4
loop_
 _symmetry_equiv_pos_site_id
 _symmetry_equiv_pos_as_xyz
  1  'x, y, z'
loop_
 _atom_site_type_symbol
 _atom_site_label
 _atom_site_symmetry_multiplicity
 _atom_site_fract_x
 _atom_site_fract_y
 _atom_site_fract_z
 _atom_site_occupancy
  Bi  Bi0  1  0.073318  0.925776  0.330271  1
  Bi  Bi1  1  0.324224  0.176682  0.579364  1
  Bi  Bi2  1  0.670636  0.330271  0.925776  1
  Bi  Bi3  1  0.919729  0.579364  0.176682  1
  O  O4  1  0.738660  0.998057  0.257861  1
  O  O5  1  0.005422  0.257861  0.998057  1
  O  O6  1  0.992139  0.244578  0.511340  1
  O  O7  1  0.251943  0.511340  0.244578  1
  F  F8  1  0.008923  0.740844  0.752479  1
  F  F9  1  0.509156  0.241077  0.752246  1
  F  F10  1  0.497754  0.752479  0.740844  1
  F  F11  1  0.497521  0.752246  0.241077  1
