# generated using pymatgen
data_Li3Fe4CoO8
_symmetry_space_group_name_H-M   'P 1'
_cell_length_a   6.01800478
_cell_length_b   6.01800478
_cell_length_c   5.99725998
_cell_angle_alpha   60.22714838
_cell_angle_beta   119.77285162
_cell_angle_gamma   120.27404907
_symmetry_Int_Tables_number   1
_chemical_formula_structural   Li3Fe4CoO8
_chemical_formula_sum   'Li3 Fe4 Co1 O8'
_cell_volume   153.78425484
_cell_formula_units_Z   1
loop_
 _symmetry_equiv_pos_site_id
 _symmetry_equiv_pos_as_xyz
  1  'x, y, z'
loop_
 _atom_site_type_symbol
 _atom_site_label
 _atom_site_symmetry_multiplicity
 _atom_site_fract_x
 _atom_site_fract_y
 _atom_site_fract_z
 _atom_site_occupancy
  Li  Li0  1  0.000000  0.500000  0.000000  1
  Li  Li1  1  0.000000  0.000000  0.500000  1
  Li  Li2  1  0.500000  1.000000  0.000000  1
  Fe  Fe3  1  0.500000  0.500000  0.500000  1
  Fe  Fe4  1  0.000000  0.000000  0.000000  1
  Fe  Fe5  1  0.000000  0.500000  0.500000  1
  Fe  Fe6  1  0.500000  1.000000  0.500000  1
  Co  Co7  1  0.500000  0.500000  0.000000  1
  O  O8  1  0.254338  0.745662  0.734607  1
  O  O9  1  0.264029  0.248287  0.263799  1
  O  O10  1  0.751713  0.735971  0.263799  1
  O  O11  1  0.742336  0.257664  0.733434  1
  O  O12  1  0.257664  0.742336  0.266566  1
  O  O13  1  0.248287  0.264029  0.736201  1
  O  O14  1  0.735971  0.751713  0.736201  1
  O  O15  1  0.745662  0.254338  0.265393  1
