# generated using pymatgen
data_Li4Mn3Fe3(CoO8)2
_symmetry_space_group_name_H-M   'P 1'
_cell_length_a   5.87995151
_cell_length_b   5.87995151
_cell_length_c   9.38052577
_cell_angle_alpha   89.07499328
_cell_angle_beta   90.92500672
_cell_angle_gamma   120.30758725
_symmetry_Int_Tables_number   1
_chemical_formula_structural   Li4Mn3Fe3(CoO8)2
_chemical_formula_sum   'Li4 Mn3 Fe3 Co2 O16'
_cell_volume   279.94687723
_cell_formula_units_Z   1
loop_
 _symmetry_equiv_pos_site_id
 _symmetry_equiv_pos_as_xyz
  1  'x, y, z'
loop_
 _atom_site_type_symbol
 _atom_site_label
 _atom_site_symmetry_multiplicity
 _atom_site_fract_x
 _atom_site_fract_y
 _atom_site_fract_z
 _atom_site_occupancy
  Li  Li0  1  0.668697  0.331303  0.105593  1
  Li  Li1  1  0.999048  0.000952  0.002662  1
  Li  Li2  1  0.001961  0.998039  0.504534  1
  Li  Li3  1  0.334285  0.665715  0.605561  1
  Mn  Mn4  1  0.827335  0.172665  0.785900  1
  Mn  Mn5  1  0.661903  0.831044  0.287047  1
  Mn  Mn6  1  0.168956  0.338097  0.287047  1
  Fe  Fe7  1  0.828538  0.660777  0.787828  1
  Fe  Fe8  1  0.339223  0.171462  0.787828  1
  Fe  Fe9  1  0.168396  0.831604  0.288954  1
  Co  Co10  1  0.662904  0.337096  0.518851  1
  Co  Co11  1  0.330929  0.669071  0.015902  1
  O  O12  1  0.828050  0.666829  0.399958  1
  O  O13  1  0.522528  0.477472  0.651079  1
  O  O14  1  0.672284  0.327716  0.898524  1
  O  O15  1  0.993085  0.006915  0.693028  1
  O  O16  1  0.993738  0.006262  0.190810  1
  O  O17  1  0.333171  0.171950  0.399958  1
  O  O18  1  0.956162  0.471677  0.655056  1
  O  O19  1  0.528323  0.043838  0.655056  1
  O  O20  1  0.169556  0.830444  0.904874  1
  O  O21  1  0.837656  0.162344  0.396792  1
  O  O22  1  0.485930  0.956446  0.155844  1
  O  O23  1  0.043554  0.514070  0.155844  1
  O  O24  1  0.340996  0.659004  0.394563  1
  O  O25  1  0.662232  0.837859  0.901429  1
  O  O26  1  0.478578  0.521422  0.160202  1
  O  O27  1  0.162141  0.337768  0.901429  1
