# generated using pymatgen
data_Li4Ti2Mn3Ni3O16
_symmetry_space_group_name_H-M   'P 1'
_cell_length_a   5.87037262
_cell_length_b   5.87037262
_cell_length_c   9.46772318
_cell_angle_alpha   88.15803589
_cell_angle_beta   91.84196411
_cell_angle_gamma   121.13385095
_symmetry_Int_Tables_number   1
_chemical_formula_structural   Li4Ti2Mn3Ni3O16
_chemical_formula_sum   'Li4 Ti2 Mn3 Ni3 O16'
_cell_volume   279.08421941
_cell_formula_units_Z   1
loop_
 _symmetry_equiv_pos_site_id
 _symmetry_equiv_pos_as_xyz
  1  'x, y, z'
loop_
 _atom_site_type_symbol
 _atom_site_label
 _atom_site_symmetry_multiplicity
 _atom_site_fract_x
 _atom_site_fract_y
 _atom_site_fract_z
 _atom_site_occupancy
  Li  Li0  1  0.660441  0.339559  0.894687  1
  Li  Li1  1  0.994931  0.005069  0.992632  1
  Li  Li2  1  0.002376  0.997624  0.496274  1
  Li  Li3  1  0.332270  0.667730  0.394586  1
  Ti  Ti4  1  0.671911  0.328089  0.497039  1
  Ti  Ti5  1  0.331609  0.668391  0.994288  1
  Mn  Mn6  1  0.342694  0.168270  0.215716  1
  Mn  Mn7  1  0.831730  0.657306  0.215716  1
  Mn  Mn8  1  0.172595  0.827405  0.717779  1
  Ni  Ni9  1  0.829857  0.170143  0.213049  1
  Ni  Ni10  1  0.168624  0.338736  0.714150  1
  Ni  Ni11  1  0.661264  0.831376  0.714150  1
  O  O12  1  0.342926  0.155707  0.595267  1
  O  O13  1  0.519137  0.480863  0.332795  1
  O  O14  1  0.656622  0.343378  0.106367  1
  O  O15  1  0.007540  0.992460  0.307597  1
  O  O16  1  0.005411  0.994589  0.804182  1
  O  O17  1  0.844293  0.657074  0.595267  1
  O  O18  1  0.506415  0.039078  0.342352  1
  O  O19  1  0.960922  0.493585  0.342352  1
  O  O20  1  0.163151  0.836849  0.102651  1
  O  O21  1  0.839876  0.160124  0.595365  1
  O  O22  1  0.033475  0.531270  0.844935  1
  O  O23  1  0.468730  0.966525  0.844935  1
  O  O24  1  0.329674  0.670326  0.613277  1
  O  O25  1  0.179229  0.334866  0.091641  1
  O  O26  1  0.475120  0.524880  0.837208  1
  O  O27  1  0.665134  0.820770  0.091641  1
