# generated using pymatgen
data_TiMn5O12
_symmetry_space_group_name_H-M   'P 1'
_cell_length_a   5.08281472
_cell_length_b   5.08281472
_cell_length_c   9.71485929
_cell_angle_alpha   89.99607380
_cell_angle_beta   90.00392620
_cell_angle_gamma   59.92229247
_symmetry_Int_Tables_number   1
_chemical_formula_structural   TiMn5O12
_chemical_formula_sum   'Ti1 Mn5 O12'
_cell_volume   217.18763766
_cell_formula_units_Z   1
loop_
 _symmetry_equiv_pos_site_id
 _symmetry_equiv_pos_as_xyz
  1  'x, y, z'
loop_
 _atom_site_type_symbol
 _atom_site_label
 _atom_site_symmetry_multiplicity
 _atom_site_fract_x
 _atom_site_fract_y
 _atom_site_fract_z
 _atom_site_occupancy
  Ti  Ti0  1  0.000000  0.000000  0.000000  1
  Mn  Mn1  1  0.833288  0.833288  0.500000  1
  Mn  Mn2  1  0.333328  0.333328  0.000000  1
  Mn  Mn3  1  0.666672  0.666672  0.000000  1
  Mn  Mn4  1  0.166712  0.166712  0.500000  1
  Mn  Mn5  1  0.500000  0.500000  0.500000  1
  O  O6  1  0.999911  0.660614  0.100077  1
  O  O7  1  0.660614  0.999911  0.899923  1
  O  O8  1  0.833197  0.500031  0.401684  1
  O  O9  1  0.499969  0.166803  0.401684  1
  O  O10  1  0.500031  0.833197  0.598316  1
  O  O11  1  0.833590  0.166410  0.598472  1
  O  O12  1  0.166803  0.499969  0.598316  1
  O  O13  1  0.339386  0.000089  0.100077  1
  O  O14  1  0.660433  0.339567  0.100135  1
  O  O15  1  0.000089  0.339386  0.899923  1
  O  O16  1  0.339567  0.660433  0.899865  1
  O  O17  1  0.166410  0.833590  0.401528  1
