# generated using pymatgen
data_Zr2N2O
_symmetry_space_group_name_H-M   'P 1'
_cell_length_a   8.85381926
_cell_length_b   8.87996653
_cell_length_c   8.88360740
_cell_angle_alpha   109.53115219
_cell_angle_beta   109.26607492
_cell_angle_gamma   109.51897147
_symmetry_Int_Tables_number   1
_chemical_formula_structural   Zr2N2O
_chemical_formula_sum   'Zr16 N16 O8'
_cell_volume   538.30511925
_cell_formula_units_Z   8
loop_
 _symmetry_equiv_pos_site_id
 _symmetry_equiv_pos_as_xyz
  1  'x, y, z'
loop_
 _atom_site_type_symbol
 _atom_site_label
 _atom_site_symmetry_multiplicity
 _atom_site_fract_x
 _atom_site_fract_y
 _atom_site_fract_z
 _atom_site_occupancy
  Zr  Zr0  1  0.010911  0.998144  0.500732  1
  Zr  Zr1  1  0.747853  0.294839  0.463928  1
  Zr  Zr2  1  0.221500  0.471360  0.249297  1
  Zr  Zr3  1  0.714937  0.958592  0.249646  1
  Zr  Zr4  1  0.259049  0.211145  0.034565  1
  Zr  Zr5  1  0.967773  0.742371  0.285489  1
  Zr  Zr6  1  0.457490  0.747309  0.784931  1
  Zr  Zr7  1  0.033799  0.250452  0.713434  1
  Zr  Zr8  1  0.995572  0.507838  0.995279  1
  Zr  Zr9  1  0.500473  0.999370  0.000318  1
  Zr  Zr10  1  0.533301  0.257910  0.212107  1
  Zr  Zr11  1  0.508741  0.508207  0.490913  1
  Zr  Zr12  1  0.749442  0.789501  0.968691  1
  Zr  Zr13  1  0.788895  0.533718  0.750605  1
  Zr  Zr14  1  0.278318  0.031485  0.750165  1
  Zr  Zr15  1  0.243812  0.705880  0.542308  1
  N  N16  1  0.035115  0.993128  0.733709  1
  N  N17  1  0.267531  0.237907  0.272085  1
  N  N18  1  0.770970  0.047133  0.968330  1
  N  N19  1  0.465210  0.728147  0.039651  1
  N  N20  1  0.488085  0.256849  0.469969  1
  N  N21  1  0.010387  0.537780  0.229856  1
  N  N22  1  0.514227  0.741246  0.533478  1
  N  N23  1  0.740539  0.728309  0.228304  1
  N  N24  1  0.227880  0.770414  0.768429  1
  N  N25  1  0.228016  0.958518  0.030628  1
  N  N26  1  0.532375  0.270666  0.955867  1
  N  N27  1  0.759791  0.533008  0.014531  1
  N  N28  1  0.988532  0.455092  0.774167  1
  N  N29  1  0.269121  0.506457  0.457321  1
  N  N30  1  0.726178  0.484930  0.548409  1
  N  N31  1  0.049780  0.779717  0.485401  1
  O  O32  1  0.961744  0.014831  0.263574  1
  O  O33  1  0.552236  0.034420  0.726425  1
  O  O34  1  0.943784  0.219140  0.518359  1
  O  O35  1  0.257065  0.274890  0.776459  1
  O  O36  1  0.240988  0.463807  0.980557  1
  O  O37  1  0.457358  0.966545  0.270556  1
  O  O38  1  0.772323  0.224428  0.236621  1
  O  O39  1  0.728900  0.764518  0.724905  1
