# generated using pymatgen
data_SrLiLa3MnO8
_symmetry_space_group_name_H-M   'P 1'
_cell_length_a   6.88322996
_cell_length_b   6.88322996
_cell_length_c   5.44325567
_cell_angle_alpha   90.00000000
_cell_angle_beta   90.00000000
_cell_angle_gamma   133.56051422
_symmetry_Int_Tables_number   1
_chemical_formula_structural   SrLiLa3MnO8
_chemical_formula_sum   'Sr1 Li1 La3 Mn1 O8'
_cell_volume   186.88298305
_cell_formula_units_Z   1
loop_
 _symmetry_equiv_pos_site_id
 _symmetry_equiv_pos_as_xyz
  1  'x, y, z'
loop_
 _atom_site_type_symbol
 _atom_site_label
 _atom_site_symmetry_multiplicity
 _atom_site_fract_x
 _atom_site_fract_y
 _atom_site_fract_z
 _atom_site_occupancy
  Sr  Sr0  1  0.358852  0.641148  0.500000  1
  Li  Li1  1  0.495039  0.504961  1.000000  1
  La  La2  1  0.139903  0.860097  1.000000  1
  La  La3  1  0.633371  0.366629  0.500000  1
  La  La4  1  0.863021  0.136979  0.000000  1
  Mn  Mn5  1  0.999899  0.000101  0.500000  1
  O  O6  1  0.758504  0.751827  0.744063  1
  O  O7  1  0.758504  0.751827  0.255937  1
  O  O8  1  0.248173  0.241496  0.744063  1
  O  O9  1  0.248173  0.241496  0.255937  1
  O  O10  1  0.158345  0.841655  0.500000  1
  O  O11  1  0.683027  0.316973  0.000000  1
  O  O12  1  0.318542  0.681458  1.000000  1
  O  O13  1  0.836392  0.163608  0.500000  1
