# generated using pymatgen
data_Mn6Zn3O16
_symmetry_space_group_name_H-M   'P 1'
_cell_length_a   8.29311202
_cell_length_b   8.29529653
_cell_length_c   8.30202949
_cell_angle_alpha   90.00000000
_cell_angle_beta   90.39262597
_cell_angle_gamma   90.00000000
_symmetry_Int_Tables_number   1
_chemical_formula_structural   Mn6Zn3O16
_chemical_formula_sum   'Mn12 Zn6 O32'
_cell_volume   571.11494071
_cell_formula_units_Z   2
loop_
 _symmetry_equiv_pos_site_id
 _symmetry_equiv_pos_as_xyz
  1  'x, y, z'
loop_
 _atom_site_type_symbol
 _atom_site_label
 _atom_site_symmetry_multiplicity
 _atom_site_fract_x
 _atom_site_fract_y
 _atom_site_fract_z
 _atom_site_occupancy
  Mn  Mn0  1  0.127200  0.374185  0.125140  1
  Mn  Mn1  1  0.128600  0.874352  0.626479  1
  Mn  Mn2  1  0.126537  0.124242  0.373873  1
  Mn  Mn3  1  0.871400  0.374352  0.373521  1
  Mn  Mn4  1  0.873463  0.624242  0.626127  1
  Mn  Mn5  1  0.872800  0.874185  0.874860  1
  Mn  Mn6  1  0.625633  0.877863  0.122777  1
  Mn  Mn7  1  0.624369  0.620407  0.381416  1
  Mn  Mn8  1  0.625466  0.122598  0.878129  1
  Mn  Mn9  1  0.374534  0.622598  0.121871  1
  Mn  Mn10  1  0.375631  0.120407  0.618584  1
  Mn  Mn11  1  0.374367  0.377863  0.877223  1
  Zn  Zn12  1  0.253291  0.997877  0.001419  1
  Zn  Zn13  1  0.258784  0.502829  0.504100  1
  Zn  Zn14  1  0.003493  0.753174  0.247848  1
  Zn  Zn15  1  0.996507  0.253174  0.752152  1
  Zn  Zn16  1  0.746709  0.497877  0.998581  1
  Zn  Zn17  1  0.741216  0.002829  0.495900  1
  O  O18  1  0.149628  0.606837  0.136371  1
  O  O19  1  0.115362  0.899251  0.394430  1
  O  O20  1  0.134682  0.141726  0.148586  1
  O  O21  1  0.113733  0.362491  0.362885  1
  O  O22  1  0.108226  0.649383  0.613714  1
  O  O23  1  0.101242  0.886744  0.856399  1
  O  O24  1  0.134686  0.112880  0.612290  1
  O  O25  1  0.143546  0.363386  0.899317  1
  O  O26  1  0.856454  0.863386  0.100683  1
  O  O27  1  0.865314  0.612880  0.387710  1
  O  O28  1  0.898758  0.386744  0.143601  1
  O  O29  1  0.891774  0.149383  0.386286  1
  O  O30  1  0.886267  0.862491  0.637115  1
  O  O31  1  0.865318  0.641726  0.851414  1
  O  O32  1  0.884638  0.399251  0.605570  1
  O  O33  1  0.850372  0.106837  0.863629  1
  O  O34  1  0.611633  0.637535  0.137535  1
  O  O35  1  0.610286  0.098008  0.102434  1
  O  O36  1  0.639036  0.853359  0.348762  1
  O  O37  1  0.651082  0.400245  0.360205  1
  O  O38  1  0.646867  0.637438  0.597507  1
  O  O39  1  0.599403  0.114219  0.642680  1
  O  O40  1  0.640076  0.888488  0.888759  1
  O  O41  1  0.605602  0.350483  0.884491  1
  O  O42  1  0.394398  0.850483  0.115509  1
  O  O43  1  0.359924  0.388488  0.111241  1
  O  O44  1  0.400597  0.614219  0.357320  1
  O  O45  1  0.353133  0.137438  0.402493  1
  O  O46  1  0.348918  0.900245  0.639795  1
  O  O47  1  0.360964  0.353359  0.651238  1
  O  O48  1  0.389714  0.598008  0.897566  1
  O  O49  1  0.388367  0.137535  0.862465  1
