# generated using pymatgen
data_LiVO2
_symmetry_space_group_name_H-M   'P 1'
_cell_length_a   5.28185901
_cell_length_b   5.28185901
_cell_length_c   5.28185901
_cell_angle_alpha   134.32987793
_cell_angle_beta   133.14369289
_cell_angle_gamma   67.50400901
_symmetry_Int_Tables_number   1
_chemical_formula_structural   LiVO2
_chemical_formula_sum   'Li2 V2 O4'
_cell_volume   75.61754074
_cell_formula_units_Z   2
loop_
 _symmetry_equiv_pos_site_id
 _symmetry_equiv_pos_as_xyz
  1  'x, y, z'
loop_
 _atom_site_type_symbol
 _atom_site_label
 _atom_site_symmetry_multiplicity
 _atom_site_fract_x
 _atom_site_fract_y
 _atom_site_fract_z
 _atom_site_occupancy
  Li  Li0  1  0.624192  0.874192  0.750000  1
  Li  Li1  1  0.375808  0.125808  0.250000  1
  V  V2  1  0.128486  0.378486  0.750000  1
  V  V3  1  0.871514  0.621514  0.250000  1
  O  O4  1  0.645771  0.395771  0.250000  1
  O  O5  1  0.109390  0.859390  0.250000  1
  O  O6  1  0.354229  0.604229  0.750000  1
  O  O7  1  0.890610  0.140610  0.750000  1
