# generated using pymatgen
data_Li5V6O5F19
_symmetry_space_group_name_H-M   'P 1'
_cell_length_a   5.20829001
_cell_length_b   5.40008826
_cell_length_c   16.16101307
_cell_angle_alpha   99.46036865
_cell_angle_beta   90.14388344
_cell_angle_gamma   90.38025903
_symmetry_Int_Tables_number   1
_chemical_formula_structural   Li5V6O5F19
_chemical_formula_sum   'Li5 V6 O5 F19'
_cell_volume   448.33742613
_cell_formula_units_Z   1
loop_
 _symmetry_equiv_pos_site_id
 _symmetry_equiv_pos_as_xyz
  1  'x, y, z'
loop_
 _atom_site_type_symbol
 _atom_site_label
 _atom_site_symmetry_multiplicity
 _atom_site_fract_x
 _atom_site_fract_y
 _atom_site_fract_z
 _atom_site_occupancy
  Li  Li0  1  0.034241  0.953663  0.772919  1
  Li  Li1  1  0.741706  0.497211  0.481978  1
  Li  Li2  1  0.785939  0.304010  0.151045  1
  Li  Li3  1  0.459399  0.497250  0.786075  1
  Li  Li4  1  0.974665  0.372327  0.899982  1
  V  V5  1  0.523741  0.863762  0.664701  1
  V  V6  1  0.999489  0.667810  0.331667  1
  V  V7  1  0.027313  0.960328  0.997027  1
  V  V8  1  0.527497  0.485668  0.006312  1
  V  V9  1  0.978092  0.363842  0.665552  1
  V  V10  1  0.516622  0.192888  0.333736  1
  O  O11  1  0.807597  0.637154  0.695348  1
  O  O12  1  0.709396  0.461632  0.351886  1
  O  O13  1  0.786521  0.303575  0.016435  1
  O  O14  1  0.195120  0.688670  0.972175  1
  O  O15  1  0.701408  0.133804  0.693565  1
  F  F16  1  0.798552  0.966832  0.355589  1
  F  F17  1  0.702218  0.812666  0.028467  1
  F  F18  1  0.294907  0.875054  0.315651  1
  F  F19  1  0.918327  0.618677  0.220970  1
  F  F20  1  0.914307  0.986652  0.881787  1
  F  F21  1  0.583741  0.770104  0.551660  1
  F  F22  1  0.416963  0.525178  0.115329  1
  F  F23  1  0.383217  0.842021  0.775062  1
  F  F24  1  0.065859  0.690327  0.442642  1
  F  F25  1  0.202657  0.364972  0.308498  1
  F  F26  1  0.310767  0.517338  0.647698  1
  F  F27  1  0.623401  0.477090  0.884444  1
  F  F28  1  0.073326  0.075135  0.110508  1
  F  F29  1  0.907999  0.296159  0.552552  1
  F  F30  1  0.592821  0.121765  0.218485  1
  F  F31  1  0.430497  0.225800  0.446875  1
  F  F32  1  0.112434  0.346431  0.781645  1
  F  F33  1  0.283747  0.204097  0.967628  1
  F  F34  1  0.189753  0.025082  0.648214  1
