# generated using pymatgen
data_Li3FeBPO7
_symmetry_space_group_name_H-M   'P 1'
_cell_length_a   5.02020819
_cell_length_b   6.44885575
_cell_length_c   8.42058535
_cell_angle_alpha   90.00000000
_cell_angle_beta   93.60801121
_cell_angle_gamma   90.00000000
_symmetry_Int_Tables_number   1
_chemical_formula_structural   Li3FeBPO7
_chemical_formula_sum   'Li6 Fe2 B2 P2 O14'
_cell_volume   272.07273341
_cell_formula_units_Z   2
loop_
 _symmetry_equiv_pos_site_id
 _symmetry_equiv_pos_as_xyz
  1  'x, y, z'
loop_
 _atom_site_type_symbol
 _atom_site_label
 _atom_site_symmetry_multiplicity
 _atom_site_fract_x
 _atom_site_fract_y
 _atom_site_fract_z
 _atom_site_occupancy
  Li  Li0  1  0.262938  0.750000  0.083490  1
  Li  Li1  1  0.753762  0.009995  0.231144  1
  Li  Li2  1  0.753762  0.490005  0.231144  1
  Li  Li3  1  0.246238  0.509995  0.768856  1
  Li  Li4  1  0.246238  0.990005  0.768856  1
  Li  Li5  1  0.737062  0.250000  0.916510  1
  Fe  Fe6  1  0.216953  0.250000  0.332612  1
  Fe  Fe7  1  0.783047  0.750000  0.667388  1
  B  B8  1  0.271238  0.250000  0.043148  1
  B  B9  1  0.728762  0.750000  0.956852  1
  P  P10  1  0.280795  0.750000  0.419376  1
  P  P11  1  0.719205  0.250000  0.580624  1
  O  O12  1  0.666758  0.750000  0.111238  1
  O  O13  1  0.014261  0.250000  0.099021  1
  O  O14  1  0.476561  0.250000  0.166387  1
  O  O15  1  0.191599  0.937958  0.313868  1
  O  O16  1  0.191599  0.562042  0.313868  1
  O  O17  1  0.589676  0.750000  0.452550  1
  O  O18  1  0.845136  0.250000  0.417452  1
  O  O19  1  0.154864  0.750000  0.582548  1
  O  O20  1  0.410324  0.250000  0.547450  1
  O  O21  1  0.808401  0.437958  0.686132  1
  O  O22  1  0.808401  0.062042  0.686132  1
  O  O23  1  0.523439  0.750000  0.833613  1
  O  O24  1  0.985739  0.750000  0.900979  1
  O  O25  1  0.333242  0.250000  0.888762  1
