# generated using pymatgen
data_Bi2(SO4)3
_symmetry_space_group_name_H-M   'P 1'
_cell_length_a   9.43295218
_cell_length_b   9.43295218
_cell_length_c   9.43295218
_cell_angle_alpha   60.26616897
_cell_angle_beta   60.26616897
_cell_angle_gamma   60.26616897
_symmetry_Int_Tables_number   1
_chemical_formula_structural   Bi2(SO4)3
_chemical_formula_sum   'Bi4 S6 O24'
_cell_volume   597.08541281
_cell_formula_units_Z   2
loop_
 _symmetry_equiv_pos_site_id
 _symmetry_equiv_pos_as_xyz
  1  'x, y, z'
loop_
 _atom_site_type_symbol
 _atom_site_label
 _atom_site_symmetry_multiplicity
 _atom_site_fract_x
 _atom_site_fract_y
 _atom_site_fract_z
 _atom_site_occupancy
  Bi  Bi0  1  0.639316  0.639316  0.639316  1
  Bi  Bi1  1  0.860684  0.860684  0.860684  1
  Bi  Bi2  1  0.360684  0.360684  0.360684  1
  Bi  Bi3  1  0.139316  0.139316  0.139316  1
  S  S4  1  0.545473  0.954527  0.250000  1
  S  S5  1  0.750000  0.454527  0.045473  1
  S  S6  1  0.045473  0.750000  0.454527  1
  S  S7  1  0.954527  0.250000  0.545473  1
  S  S8  1  0.250000  0.545473  0.954527  1
  S  S9  1  0.454527  0.045473  0.750000  1
  O  O10  1  0.715296  0.942167  0.106680  1
  O  O11  1  0.057833  0.893320  0.284704  1
  O  O12  1  0.310682  0.506841  0.091889  1
  O  O13  1  0.189318  0.408111  0.993159  1
  O  O14  1  0.557833  0.784704  0.393320  1
  O  O15  1  0.606680  0.442167  0.215296  1
  O  O16  1  0.893320  0.284704  0.057833  1
  O  O17  1  0.591889  0.006841  0.810682  1
  O  O18  1  0.908111  0.689318  0.493159  1
  O  O19  1  0.493159  0.908111  0.689318  1
  O  O20  1  0.006841  0.810682  0.591889  1
  O  O21  1  0.215296  0.606680  0.442167  1
  O  O22  1  0.784704  0.393320  0.557833  1
  O  O23  1  0.506841  0.091889  0.310682  1
  O  O24  1  0.993159  0.189318  0.408111  1
  O  O25  1  0.408111  0.993159  0.189318  1
  O  O26  1  0.091889  0.310682  0.506841  1
  O  O27  1  0.106680  0.715296  0.942167  1
  O  O28  1  0.393320  0.557833  0.784704  1
  O  O29  1  0.442167  0.215296  0.606680  1
  O  O30  1  0.689318  0.493159  0.908111  1
  O  O31  1  0.810682  0.591889  0.006841  1
  O  O32  1  0.942167  0.106680  0.715296  1
  O  O33  1  0.284704  0.057833  0.893320  1
