# generated using pymatgen
data_Li2V(CO3)3
_symmetry_space_group_name_H-M   'P 1'
_cell_length_a   6.24072697
_cell_length_b   6.24072697
_cell_length_c   9.79497951
_cell_angle_alpha   90.00000000
_cell_angle_beta   90.00000000
_cell_angle_gamma   101.05850622
_symmetry_Int_Tables_number   1
_chemical_formula_structural   Li2V(CO3)3
_chemical_formula_sum   'Li4 V2 C6 O18'
_cell_volume   374.39844512
_cell_formula_units_Z   2
loop_
 _symmetry_equiv_pos_site_id
 _symmetry_equiv_pos_as_xyz
  1  'x, y, z'
loop_
 _atom_site_type_symbol
 _atom_site_label
 _atom_site_symmetry_multiplicity
 _atom_site_fract_x
 _atom_site_fract_y
 _atom_site_fract_z
 _atom_site_occupancy
  Li  Li0  1  0.326184  0.368402  0.250000  1
  Li  Li1  1  0.176657  0.747464  0.250000  1
  Li  Li2  1  0.747464  0.176657  0.750000  1
  Li  Li3  1  0.368402  0.326184  0.750000  1
  V  V4  1  0.672271  0.084608  0.250000  1
  V  V5  1  0.084608  0.672271  0.750000  1
  C  C6  1  0.572558  0.167040  0.018393  1
  C  C7  1  0.742691  0.709556  0.250000  1
  C  C8  1  0.572558  0.167040  0.481607  1
  C  C9  1  0.167040  0.572558  0.518393  1
  C  C10  1  0.709556  0.742691  0.750000  1
  C  C11  1  0.167040  0.572558  0.981607  1
  O  O12  1  0.767728  0.139805  0.062441  1
  O  O13  1  0.196703  0.531854  0.103181  1
  O  O14  1  0.435294  0.153433  0.121538  1
  O  O15  1  0.749857  0.512499  0.250000  1
  O  O16  1  0.550243  0.781147  0.250000  1
  O  O17  1  0.906710  0.875020  0.250000  1
  O  O18  1  0.435294  0.153433  0.378462  1
  O  O19  1  0.196703  0.531854  0.396819  1
  O  O20  1  0.767728  0.139805  0.437559  1
  O  O21  1  0.139805  0.767728  0.562441  1
  O  O22  1  0.531854  0.196703  0.603181  1
  O  O23  1  0.153433  0.435294  0.621538  1
  O  O24  1  0.781147  0.550243  0.750000  1
  O  O25  1  0.512499  0.749857  0.750000  1
  O  O26  1  0.875020  0.906710  0.750000  1
  O  O27  1  0.153433  0.435294  0.878462  1
  O  O28  1  0.531854  0.196703  0.896819  1
  O  O29  1  0.139805  0.767728  0.937559  1
