# generated using pymatgen
data_LiFe8(BO3)8
_symmetry_space_group_name_H-M   'P 1'
_cell_length_a   5.24301788
_cell_length_b   9.10284764
_cell_length_c   11.33447202
_cell_angle_alpha   112.81128506
_cell_angle_beta   102.33684270
_cell_angle_gamma   91.25419175
_symmetry_Int_Tables_number   1
_chemical_formula_structural   LiFe8(BO3)8
_chemical_formula_sum   'Li1 Fe8 B8 O24'
_cell_volume   483.82402827
_cell_formula_units_Z   1
loop_
 _symmetry_equiv_pos_site_id
 _symmetry_equiv_pos_as_xyz
  1  'x, y, z'
loop_
 _atom_site_type_symbol
 _atom_site_label
 _atom_site_symmetry_multiplicity
 _atom_site_fract_x
 _atom_site_fract_y
 _atom_site_fract_z
 _atom_site_occupancy
  Li  Li0  1  0.238844  0.592626  0.845842  1
  Fe  Fe1  1  0.980129  0.977107  0.624864  1
  Fe  Fe2  1  0.732295  0.058631  0.122694  1
  Fe  Fe3  1  0.516486  0.524150  0.371265  1
  Fe  Fe4  1  0.750494  0.422013  0.874580  1
  Fe  Fe5  1  0.231634  0.556352  0.117682  1
  Fe  Fe6  1  0.493492  0.470231  0.623533  1
  Fe  Fe7  1  0.017792  0.021782  0.370680  1
  Fe  Fe8  1  0.266287  0.949538  0.875076  1
  B  B9  1  0.979638  0.308487  0.625814  1
  B  B10  1  0.733764  0.728818  0.121660  1
  B  B11  1  0.525136  0.187224  0.371844  1
  B  B12  1  0.763082  0.767870  0.872575  1
  B  B13  1  0.471485  0.809382  0.623041  1
  B  B14  1  0.234104  0.230645  0.123736  1
  B  B15  1  0.028754  0.687589  0.372578  1
  B  B16  1  0.265133  0.265307  0.873060  1
  O  O17  1  0.982745  0.210126  0.128657  1
  O  O18  1  0.869467  0.883723  0.173217  1
  O  O19  1  0.872093  0.598668  0.076098  1
  O  O20  1  0.862974  0.569348  0.368809  1
  O  O21  1  0.981464  0.848034  0.429371  1
  O  O22  1  0.751572  0.157877  0.323245  1
  O  O23  1  0.745563  0.335406  0.664055  1
  O  O24  1  0.471540  0.707644  0.111410  1
  O  O25  1  0.372425  0.383444  0.171229  1
  O  O26  1  0.512740  0.647589  0.567631  1
  O  O27  1  0.635281  0.924499  0.623145  1
  O  O28  1  0.365943  0.097583  0.068654  1
  O  O29  1  0.635618  0.902297  0.927774  1
  O  O30  1  0.360925  0.067070  0.364605  1
  O  O31  1  0.472779  0.347253  0.426929  1
  O  O32  1  0.611605  0.618491  0.822031  1
  O  O33  1  0.518054  0.257721  0.873240  1
  O  O34  1  0.252934  0.656534  0.321952  1
  O  O35  1  0.252515  0.847166  0.678140  1
  O  O36  1  0.031900  0.150436  0.566671  1
  O  O37  1  0.158555  0.434868  0.652455  1
  O  O38  1  0.155623  0.412170  0.918493  1
  O  O39  1  0.096208  0.119220  0.825533  1
  O  O40  1  0.021962  0.780895  0.869287  1
