# generated using pymatgen
data_Li2V3WO8
_symmetry_space_group_name_H-M   'P 1'
_cell_length_a   8.60667915
_cell_length_b   8.60667915
_cell_length_c   8.60667915
_cell_angle_alpha   90.00000000
_cell_angle_beta   90.00000000
_cell_angle_gamma   90.00000000
_symmetry_Int_Tables_number   1
_chemical_formula_structural   Li2V3WO8
_chemical_formula_sum   'Li8 V12 W4 O32'
_cell_volume   637.53912046
_cell_formula_units_Z   4
loop_
 _symmetry_equiv_pos_site_id
 _symmetry_equiv_pos_as_xyz
  1  'x, y, z'
loop_
 _atom_site_type_symbol
 _atom_site_label
 _atom_site_symmetry_multiplicity
 _atom_site_fract_x
 _atom_site_fract_y
 _atom_site_fract_z
 _atom_site_occupancy
  Li  Li0  1  0.497682  0.497682  0.497682  1
  Li  Li1  1  0.752318  0.752318  0.752318  1
  Li  Li2  1  0.247682  0.252318  0.747682  1
  Li  Li3  1  0.502318  0.997682  0.002318  1
  Li  Li4  1  0.002318  0.502318  0.997682  1
  Li  Li5  1  0.747682  0.247682  0.252318  1
  Li  Li6  1  0.252318  0.747682  0.247682  1
  Li  Li7  1  0.997682  0.002318  0.502318  1
  V  V8  1  0.628941  0.125000  0.621059  1
  V  V9  1  0.878941  0.371059  0.625000  1
  V  V10  1  0.125000  0.621059  0.628941  1
  V  V11  1  0.875000  0.121059  0.871059  1
  V  V12  1  0.121059  0.871059  0.875000  1
  V  V13  1  0.371059  0.625000  0.878941  1
  V  V14  1  0.871059  0.875000  0.121059  1
  V  V15  1  0.621059  0.628941  0.125000  1
  V  V16  1  0.375000  0.378941  0.128941  1
  V  V17  1  0.625000  0.878941  0.371059  1
  V  V18  1  0.378941  0.128941  0.375000  1
  V  V19  1  0.128941  0.375000  0.378941  1
  W  W20  1  0.375000  0.875000  0.625000  1
  W  W21  1  0.625000  0.375000  0.875000  1
  W  W22  1  0.125000  0.125000  0.125000  1
  W  W23  1  0.875000  0.625000  0.375000  1
  O  O24  1  0.605621  0.880282  0.607712  1
  O  O25  1  0.392288  0.105621  0.619718  1
  O  O26  1  0.111494  0.388506  0.611494  1
  O  O27  1  0.642288  0.369718  0.644379  1
  O  O28  1  0.880282  0.607712  0.605621  1
  O  O29  1  0.861494  0.138506  0.638506  1
  O  O30  1  0.144379  0.857712  0.630282  1
  O  O31  1  0.369718  0.644379  0.642288  1
  O  O32  1  0.630282  0.144379  0.857712  1
  O  O33  1  0.855621  0.357712  0.869718  1
  O  O34  1  0.138506  0.638506  0.861494  1
  O  O35  1  0.119718  0.107712  0.894379  1
  O  O36  1  0.357712  0.869718  0.855621  1
  O  O37  1  0.888506  0.888506  0.888506  1
  O  O38  1  0.607712  0.605621  0.880282  1
  O  O39  1  0.394379  0.380282  0.892288  1
  O  O40  1  0.894379  0.119718  0.107712  1
  O  O41  1  0.107712  0.894379  0.119718  1
  O  O42  1  0.388506  0.611494  0.111494  1
  O  O43  1  0.857712  0.630282  0.144379  1
  O  O44  1  0.619718  0.392288  0.105621  1
  O  O45  1  0.638506  0.861494  0.138506  1
  O  O46  1  0.355621  0.142288  0.130282  1
  O  O47  1  0.130282  0.355621  0.142288  1
  O  O48  1  0.869718  0.855621  0.357712  1
  O  O49  1  0.644379  0.642288  0.369718  1
  O  O50  1  0.361494  0.361494  0.361494  1
  O  O51  1  0.380282  0.892288  0.394379  1
  O  O52  1  0.142288  0.130282  0.355621  1
  O  O53  1  0.611494  0.111494  0.388506  1
  O  O54  1  0.892288  0.394379  0.380282  1
  O  O55  1  0.105621  0.619718  0.392288  1
