# generated using pymatgen
data_LiFe4(PO4)3
_symmetry_space_group_name_H-M   'P 1'
_cell_length_a   10.50994511
_cell_length_b   10.50994511
_cell_length_c   10.50994511
_cell_angle_alpha   142.05756491
_cell_angle_beta   142.05756491
_cell_angle_gamma   54.74209759
_symmetry_Int_Tables_number   1
_chemical_formula_structural   LiFe4(PO4)3
_chemical_formula_sum   'Li2 Fe8 P6 O24'
_cell_volume   435.82614032
_cell_formula_units_Z   2
loop_
 _symmetry_equiv_pos_site_id
 _symmetry_equiv_pos_as_xyz
  1  'x, y, z'
loop_
 _atom_site_type_symbol
 _atom_site_label
 _atom_site_symmetry_multiplicity
 _atom_site_fract_x
 _atom_site_fract_y
 _atom_site_fract_z
 _atom_site_occupancy
  Li  Li0  1  0.000000  0.000000  0.000000  1
  Li  Li1  1  0.750000  0.250000  0.500000  1
  Fe  Fe2  1  0.375000  0.385061  0.510061  1
  Fe  Fe3  1  0.474952  0.974952  0.500000  1
  Fe  Fe4  1  0.135061  0.625000  0.010061  1
  Fe  Fe5  1  0.875000  0.864939  0.489939  1
  Fe  Fe6  1  0.025048  0.525048  0.500000  1
  Fe  Fe7  1  0.724952  0.724952  0.000000  1
  Fe  Fe8  1  0.275048  0.275048  0.000000  1
  Fe  Fe9  1  0.614939  0.125000  0.989939  1
  P  P10  1  0.250000  0.750000  0.500000  1
  P  P11  1  0.875000  0.270851  0.895851  1
  P  P12  1  0.375000  0.979149  0.104149  1
  P  P13  1  0.729149  0.625000  0.604149  1
  P  P14  1  0.500000  0.500000  0.000000  1
  P  P15  1  0.020851  0.125000  0.395851  1
  O  O16  1  0.395813  0.654481  0.636116  1
  O  O17  1  0.711377  0.409797  0.828990  1
  O  O18  1  0.038623  0.367613  0.198420  1
  O  O19  1  0.159797  0.961377  0.328990  1
  O  O20  1  0.405965  0.188332  0.213543  1
  O  O21  1  0.344035  0.057578  0.282367  1
  O  O22  1  0.775211  0.061668  0.717633  1
  O  O23  1  0.974789  0.192422  0.786457  1
  O  O24  1  0.632387  0.830807  0.671010  1
  O  O25  1  0.240304  0.604187  0.258669  1
  O  O26  1  0.807578  0.594035  0.782367  1
  O  O27  1  0.169193  0.840203  0.801580  1
  O  O28  1  0.580807  0.882387  0.171010  1
  O  O29  1  0.938332  0.655965  0.713543  1
  O  O30  1  0.404481  0.645813  0.136116  1
  O  O31  1  0.731635  0.595519  0.241331  1
  O  O32  1  0.018365  0.759696  0.363884  1
  O  O33  1  0.590203  0.419193  0.301580  1
  O  O34  1  0.117613  0.288623  0.698420  1
  O  O35  1  0.354187  0.490304  0.758669  1
  O  O36  1  0.509696  0.268365  0.863884  1
  O  O37  1  0.942422  0.224789  0.286457  1
  O  O38  1  0.811668  0.025211  0.217633  1
  O  O39  1  0.345519  0.981635  0.741331  1
