# generated using pymatgen
data_Li2VFe3O8
_symmetry_space_group_name_H-M   'P 1'
_cell_length_a   5.98205939
_cell_length_b   5.98205939
_cell_length_c   5.98205939
_cell_angle_alpha   60.29198002
_cell_angle_beta   60.29198002
_cell_angle_gamma   60.29198002
_symmetry_Int_Tables_number   1
_chemical_formula_structural   Li2VFe3O8
_chemical_formula_sum   'Li2 V1 Fe3 O8'
_cell_volume   152.36926656
_cell_formula_units_Z   1
loop_
 _symmetry_equiv_pos_site_id
 _symmetry_equiv_pos_as_xyz
  1  'x, y, z'
loop_
 _atom_site_type_symbol
 _atom_site_label
 _atom_site_symmetry_multiplicity
 _atom_site_fract_x
 _atom_site_fract_y
 _atom_site_fract_z
 _atom_site_occupancy
  Li  Li0  1  0.870239  0.870239  0.870239  1
  Li  Li1  1  0.129761  0.129761  0.129761  1
  V  V2  1  0.500000  0.500000  0.500000  1
  Fe  Fe3  1  0.500000  0.000000  0.500000  1
  Fe  Fe4  1  0.500000  0.500000  0.000000  1
  Fe  Fe5  1  0.000000  0.500000  0.500000  1
  O  O6  1  0.735528  0.735528  0.735528  1
  O  O7  1  0.285354  0.727654  0.727654  1
  O  O8  1  0.727654  0.727654  0.285354  1
  O  O9  1  0.727654  0.285354  0.727654  1
  O  O10  1  0.272346  0.714646  0.272346  1
  O  O11  1  0.272346  0.272346  0.714646  1
  O  O12  1  0.714646  0.272346  0.272346  1
  O  O13  1  0.264472  0.264472  0.264472  1
