# generated using pymatgen
data_Li24Mn5Cr7O36
_symmetry_space_group_name_H-M   'P 1'
_cell_length_a   5.02761217
_cell_length_b   9.76979861
_cell_length_c   13.27310592
_cell_angle_alpha   96.92629817
_cell_angle_beta   100.50049872
_cell_angle_gamma   94.94423450
_symmetry_Int_Tables_number   1
_chemical_formula_structural   Li24Mn5Cr7O36
_chemical_formula_sum   'Li24 Mn5 Cr7 O36'
_cell_volume   632.44281955
_cell_formula_units_Z   1
loop_
 _symmetry_equiv_pos_site_id
 _symmetry_equiv_pos_as_xyz
  1  'x, y, z'
loop_
 _atom_site_type_symbol
 _atom_site_label
 _atom_site_symmetry_multiplicity
 _atom_site_fract_x
 _atom_site_fract_y
 _atom_site_fract_z
 _atom_site_occupancy
  Li  Li0  1  0.168064  0.999497  0.833096  1
  Li  Li1  1  0.051410  0.000384  0.613152  1
  Li  Li2  1  0.000652  0.750366  0.250623  1
  Li  Li3  1  0.336709  0.750280  0.916795  1
  Li  Li4  1  0.049531  0.498521  0.112012  1
  Li  Li5  1  0.386041  0.499582  0.779955  1
  Li  Li6  1  0.167162  0.499727  0.333421  1
  Li  Li7  1  0.501244  0.499368  0.000351  1
  Li  Li8  1  0.282935  0.499862  0.553505  1
  Li  Li9  1  0.333485  0.249972  0.416607  1
  Li  Li10  1  0.494792  0.001571  0.499154  1
  Li  Li11  1  0.286781  0.000388  0.053949  1
  Li  Li12  1  0.617190  0.999981  0.721301  1
  Li  Li13  1  0.381341  0.000505  0.280169  1
  Li  Li14  1  0.712300  0.999341  0.946315  1
  Li  Li15  1  0.670463  0.749602  0.584042  1
  Li  Li16  1  0.718384  0.499448  0.446116  1
  Li  Li17  1  0.830948  0.500403  0.666102  1
  Li  Li18  1  0.614159  0.499930  0.220647  1
  Li  Li19  1  0.947003  0.501714  0.887703  1
  Li  Li20  1  0.664156  0.250283  0.082099  1
  Li  Li21  1  0.836948  0.999571  0.166384  1
  Li  Li22  1  0.999569  0.249974  0.749902  1
  Li  Li23  1  0.951878  0.999888  0.386474  1
  Mn  Mn24  1  0.108821  0.748535  0.471959  1
  Mn  Mn25  1  0.222624  0.250843  0.194624  1
  Mn  Mn26  1  0.445591  0.250749  0.639196  1
  Mn  Mn27  1  0.554059  0.248807  0.860546  1
  Mn  Mn28  1  0.777027  0.750700  0.805430  1
  Cr  Cr29  1  0.104821  0.249962  0.971170  1
  Cr  Cr30  1  0.228122  0.749641  0.693806  1
  Cr  Cr31  1  0.443322  0.750738  0.141437  1
  Cr  Cr32  1  0.560208  0.751101  0.364182  1
  Cr  Cr33  1  0.772241  0.248443  0.304002  1
  Cr  Cr34  1  0.895235  0.250915  0.528538  1
  Cr  Cr35  1  0.892650  0.749259  0.025863  1
  O  O36  1  0.998142  0.861505  0.928535  1
  O  O37  1  0.066824  0.636806  0.783716  1
  O  O38  1  0.994499  0.361099  0.429771  1
  O  O39  1  0.146139  0.361642  0.643526  1
  O  O40  1  0.265718  0.363056  0.883245  1
  O  O41  1  0.328091  0.860957  0.595914  1
  O  O42  1  0.073922  0.134992  0.283963  1
  O  O43  1  0.193063  0.138141  0.525141  1
  O  O44  1  0.405907  0.135018  0.950921  1
  O  O45  1  0.152562  0.862480  0.142458  1
  O  O46  1  0.259120  0.864623  0.382579  1
  O  O47  1  0.481295  0.862269  0.810733  1
  O  O48  1  0.331612  0.138264  0.737969  1
  O  O49  1  0.180651  0.637705  0.023895  1
  O  O50  1  0.401141  0.636646  0.451073  1
  O  O51  1  0.521245  0.638942  0.690864  1
  O  O52  1  0.338280  0.638857  0.238537  1
  O  O53  1  0.662018  0.637187  0.901814  1
  O  O54  1  0.334563  0.362495  0.096220  1
  O  O55  1  0.668040  0.361090  0.761906  1
  O  O56  1  0.472516  0.362407  0.308964  1
  O  O57  1  0.593614  0.364675  0.549277  1
  O  O58  1  0.806957  0.361798  0.975099  1
  O  O59  1  0.664747  0.862707  0.264412  1
  O  O60  1  0.523091  0.139216  0.190755  1
  O  O61  1  0.733728  0.136298  0.617003  1
  O  O62  1  0.854286  0.138659  0.857041  1
  O  O63  1  0.601697  0.864648  0.048836  1
  O  O64  1  0.810582  0.861104  0.476124  1
  O  O65  1  0.929626  0.864140  0.714958  1
  O  O66  1  0.671844  0.137968  0.403574  1
  O  O67  1  0.731618  0.636454  0.116775  1
  O  O68  1  0.861493  0.637698  0.357292  1
  O  O69  1  0.995985  0.636505  0.569278  1
  O  O70  1  0.932181  0.363405  0.216393  1
  O  O71  1  0.005336  0.138693  0.070816  1
