# generated using pymatgen
data_Co6O5F7
_symmetry_space_group_name_H-M   'P 1'
_cell_length_a   4.62862808
_cell_length_b   5.52889086
_cell_length_c   7.65434790
_cell_angle_alpha   86.42532711
_cell_angle_beta   88.06430186
_cell_angle_gamma   86.76447257
_symmetry_Int_Tables_number   1
_chemical_formula_structural   Co6O5F7
_chemical_formula_sum   'Co6 O5 F7'
_cell_volume   195.10102305
_cell_formula_units_Z   1
loop_
 _symmetry_equiv_pos_site_id
 _symmetry_equiv_pos_as_xyz
  1  'x, y, z'
loop_
 _atom_site_type_symbol
 _atom_site_label
 _atom_site_symmetry_multiplicity
 _atom_site_fract_x
 _atom_site_fract_y
 _atom_site_fract_z
 _atom_site_occupancy
  Co  Co0  1  0.535543  0.520811  0.012568  1
  Co  Co1  1  0.467767  0.177830  0.345858  1
  Co  Co2  1  0.518308  0.830494  0.649043  1
  Co  Co3  1  0.003282  0.338580  0.672798  1
  Co  Co4  1  0.987454  0.660585  0.327444  1
  Co  Co5  1  0.993055  0.986971  0.000678  1
  O  O6  1  0.807172  0.689150  0.111011  1
  O  O7  1  0.710299  0.543423  0.757761  1
  O  O8  1  0.691795  0.866201  0.431907  1
  O  O9  1  0.303789  0.125535  0.574237  1
  O  O10  1  0.289926  0.462483  0.234601  1
  F  F11  1  0.805369  0.374168  0.426749  1
  F  F12  1  0.799642  0.043212  0.770616  1
  F  F13  1  0.688001  0.196540  0.108956  1
  F  F14  1  0.315648  0.801657  0.881632  1
  F  F15  1  0.191782  0.944973  0.236382  1
  F  F16  1  0.204976  0.303685  0.906990  1
  F  F17  1  0.186191  0.633704  0.550770  1
