# generated using pymatgen
data_Li2Ti4Co(PO5)4
_symmetry_space_group_name_H-M   'P 1'
_cell_length_a   7.39010013
_cell_length_b   7.26931289
_cell_length_c   14.86907029
_cell_angle_alpha   90.00000000
_cell_angle_beta   119.34616384
_cell_angle_gamma   90.00000000
_symmetry_Int_Tables_number   1
_chemical_formula_structural   Li2Ti4Co(PO5)4
_chemical_formula_sum   'Li4 Ti8 Co2 P8 O40'
_cell_volume   696.27681700
_cell_formula_units_Z   2
loop_
 _symmetry_equiv_pos_site_id
 _symmetry_equiv_pos_as_xyz
  1  'x, y, z'
loop_
 _atom_site_type_symbol
 _atom_site_label
 _atom_site_symmetry_multiplicity
 _atom_site_fract_x
 _atom_site_fract_y
 _atom_site_fract_z
 _atom_site_occupancy
  Li  Li0  1  0.246526  0.997425  0.251810  1
  Li  Li1  1  0.246526  0.502575  0.751810  1
  Li  Li2  1  0.753474  0.002575  0.748190  1
  Li  Li3  1  0.753474  0.497425  0.248190  1
  Ti  Ti4  1  0.711669  0.216520  0.372434  1
  Ti  Ti5  1  0.226498  0.267308  0.382046  1
  Ti  Ti6  1  0.773502  0.732692  0.617954  1
  Ti  Ti7  1  0.288331  0.783480  0.627566  1
  Ti  Ti8  1  0.226498  0.232692  0.882046  1
  Ti  Ti9  1  0.711669  0.283480  0.872434  1
  Ti  Ti10  1  0.288331  0.716520  0.127566  1
  Ti  Ti11  1  0.773502  0.767308  0.117954  1
  Co  Co12  1  0.000000  0.500000  0.500000  1
  Co  Co13  1  0.000000  0.000000  0.000000  1
  P  P14  1  0.500000  0.629695  0.375376  1
  P  P15  1  0.998905  0.865724  0.371376  1
  P  P16  1  0.001095  0.134276  0.628624  1
  P  P17  1  0.500000  0.370305  0.624624  1
  P  P18  1  0.998905  0.634276  0.871376  1
  P  P19  1  0.500000  0.870305  0.875376  1
  P  P20  1  0.500000  0.129695  0.124624  1
  P  P21  1  0.001095  0.365724  0.128624  1
  O  O22  1  0.400363  0.752951  0.278526  1
  O  O23  1  0.909088  0.740363  0.276749  1
  O  O24  1  0.479155  0.166450  0.366865  1
  O  O25  1  0.996032  0.346311  0.384060  1
  O  O26  1  0.823468  0.978826  0.374443  1
  O  O27  1  0.328637  0.508756  0.376115  1
  O  O28  1  0.674180  0.506886  0.375257  1
  O  O29  1  0.163787  0.995360  0.370315  1
  O  O30  1  0.597505  0.754098  0.471145  1
  O  O31  1  0.101349  0.741910  0.470051  1
  O  O32  1  0.898651  0.258090  0.529949  1
  O  O33  1  0.402495  0.245902  0.528855  1
  O  O34  1  0.836213  0.004640  0.629685  1
  O  O35  1  0.325820  0.493114  0.624743  1
  O  O36  1  0.671363  0.491244  0.623885  1
  O  O37  1  0.176532  0.021174  0.625557  1
  O  O38  1  0.003968  0.653689  0.615940  1
  O  O39  1  0.520845  0.833550  0.633135  1
  O  O40  1  0.090912  0.259637  0.723251  1
  O  O41  1  0.599637  0.247049  0.721474  1
  O  O42  1  0.909088  0.759637  0.776749  1
  O  O43  1  0.400363  0.747049  0.778526  1
  O  O44  1  0.996032  0.153689  0.884060  1
  O  O45  1  0.479155  0.333550  0.866865  1
  O  O46  1  0.328637  0.991244  0.876115  1
  O  O47  1  0.823468  0.521174  0.874443  1
  O  O48  1  0.163787  0.504640  0.870315  1
  O  O49  1  0.674180  0.993114  0.875257  1
  O  O50  1  0.101349  0.758090  0.970051  1
  O  O51  1  0.597505  0.745902  0.971145  1
  O  O52  1  0.402495  0.254098  0.028855  1
  O  O53  1  0.898651  0.241910  0.029949  1
  O  O54  1  0.325820  0.006886  0.124743  1
  O  O55  1  0.836213  0.495360  0.129685  1
  O  O56  1  0.176532  0.478826  0.125557  1
  O  O57  1  0.671363  0.008756  0.123885  1
  O  O58  1  0.520845  0.666450  0.133135  1
  O  O59  1  0.003968  0.846311  0.115940  1
  O  O60  1  0.599637  0.252951  0.221474  1
  O  O61  1  0.090912  0.240363  0.223251  1
