# generated using pymatgen
data_VOF
_symmetry_space_group_name_H-M   'P 1'
_cell_length_a   4.71697177
_cell_length_b   4.73074508
_cell_length_c   9.39317705
_cell_angle_alpha   90.00000000
_cell_angle_beta   90.00000000
_cell_angle_gamma   90.00000000
_symmetry_Int_Tables_number   1
_chemical_formula_structural   VOF
_chemical_formula_sum   'V6 O6 F6'
_cell_volume   209.60678263
_cell_formula_units_Z   6
loop_
 _symmetry_equiv_pos_site_id
 _symmetry_equiv_pos_as_xyz
  1  'x, y, z'
loop_
 _atom_site_type_symbol
 _atom_site_label
 _atom_site_symmetry_multiplicity
 _atom_site_fract_x
 _atom_site_fract_y
 _atom_site_fract_z
 _atom_site_occupancy
  V  V0  1  0.978601  0.720754  0.667448  1
  V  V1  1  0.978601  0.720754  0.332552  1
  V  V2  1  0.046126  0.772169  0.000000  1
  V  V3  1  0.546126  0.227831  0.500000  1
  V  V4  1  0.478601  0.279246  0.832552  1
  V  V5  1  0.478601  0.279246  0.167448  1
  O  O6  1  0.193375  0.568120  0.168321  1
  O  O7  1  0.193375  0.568120  0.831679  1
  O  O8  1  0.315556  0.075614  0.000000  1
  O  O9  1  0.693375  0.431880  0.668321  1
  O  O10  1  0.693375  0.431880  0.331679  1
  O  O11  1  0.815556  0.924386  0.500000  1
  F  F12  1  0.200477  0.521061  0.500000  1
  F  F13  1  0.296945  0.043775  0.665423  1
  F  F14  1  0.296945  0.043775  0.334577  1
  F  F15  1  0.700477  0.478939  0.000000  1
  F  F16  1  0.796945  0.956225  0.834577  1
  F  F17  1  0.796945  0.956225  0.165423  1
