# generated using pymatgen
data_Mg3B2P2(H9O10)2
_symmetry_space_group_name_H-M   'P 1'
_cell_length_a   6.36484259
_cell_length_b   6.36772749
_cell_length_c   9.90827803
_cell_angle_alpha   84.06365283
_cell_angle_beta   85.19211703
_cell_angle_gamma   73.27630399
_symmetry_Int_Tables_number   1
_chemical_formula_structural   Mg3B2P2(H9O10)2
_chemical_formula_sum   'Mg3 B2 P2 H18 O20'
_cell_volume   381.91424478
_cell_formula_units_Z   1
loop_
 _symmetry_equiv_pos_site_id
 _symmetry_equiv_pos_as_xyz
  1  'x, y, z'
loop_
 _atom_site_type_symbol
 _atom_site_label
 _atom_site_symmetry_multiplicity
 _atom_site_fract_x
 _atom_site_fract_y
 _atom_site_fract_z
 _atom_site_occupancy
  Mg  Mg0  1  0.000000  0.000000  0.000000  1
  Mg  Mg1  1  0.683094  0.657814  0.667926  1
  Mg  Mg2  1  0.316906  0.342186  0.332074  1
  B  B3  1  0.772807  0.121164  0.712086  1
  B  B4  1  0.227193  0.878836  0.287914  1
  P  P5  1  0.142999  0.756631  0.721521  1
  P  P6  1  0.857001  0.243369  0.278479  1
  H  H7  1  0.297382  0.694409  0.123233  1
  H  H8  1  0.702618  0.305591  0.876767  1
  H  H9  1  0.504402  0.910265  0.365926  1
  H  H10  1  0.495598  0.089735  0.634074  1
  H  H11  1  0.310234  0.682050  0.462084  1
  H  H12  1  0.689766  0.317950  0.537916  1
  H  H13  1  0.130747  0.349557  0.852301  1
  H  H14  1  0.869253  0.650443  0.147699  1
  H  H15  1  0.331817  0.138183  0.862408  1
  H  H16  1  0.668183  0.861817  0.137592  1
  H  H17  1  0.318608  0.344166  0.054819  1
  H  H18  1  0.681392  0.655834  0.945181  1
  H  H19  1  0.445113  0.661591  0.892721  1
  H  H20  1  0.554887  0.338409  0.107279  1
  H  H21  1  0.156959  0.159494  0.566692  1
  H  H22  1  0.843041  0.840506  0.433308  1
  H  H23  1  0.168924  0.389847  0.600140  1
  H  H24  1  0.831076  0.610153  0.399860  1
  O  O25  1  0.184418  0.772631  0.871386  1
  O  O26  1  0.815582  0.227369  0.128614  1
  O  O27  1  0.018148  0.582056  0.712406  1
  O  O28  1  0.981852  0.417944  0.287594  1
  O  O29  1  0.356038  0.708504  0.631440  1
  O  O30  1  0.643962  0.291496  0.368560  1
  O  O31  1  0.997513  0.988844  0.662791  1
  O  O32  1  0.002487  0.011156  0.337209  1
  O  O33  1  0.775991  0.151030  0.857666  1
  O  O34  1  0.224009  0.848970  0.142334  1
  O  O35  1  0.613048  0.997568  0.691410  1
  O  O36  1  0.386952  0.002432  0.308590  1
  O  O37  1  0.723230  0.333171  0.632360  1
  O  O38  1  0.276770  0.666829  0.367640  1
  O  O39  1  0.205750  0.223932  0.916159  1
  O  O40  1  0.794250  0.776068  0.083841  1
  O  O41  1  0.610049  0.597090  0.878817  1
  O  O42  1  0.389951  0.402910  0.121183  1
  O  O43  1  0.754149  0.734988  0.455848  1
  O  O44  1  0.245851  0.265012  0.544152  1
