# generated using pymatgen
data_Li5CrS4
_symmetry_space_group_name_H-M   'P 1'
_cell_length_a   7.60213233
_cell_length_b   7.60213233
_cell_length_c   7.60213233
_cell_angle_alpha   151.55234534
_cell_angle_beta   127.10689407
_cell_angle_gamma   61.14748694
_symmetry_Int_Tables_number   1
_chemical_formula_structural   Li5CrS4
_chemical_formula_sum   'Li5 Cr1 S4'
_cell_volume   165.57494188
_cell_formula_units_Z   1
loop_
 _symmetry_equiv_pos_site_id
 _symmetry_equiv_pos_as_xyz
  1  'x, y, z'
loop_
 _atom_site_type_symbol
 _atom_site_label
 _atom_site_symmetry_multiplicity
 _atom_site_fract_x
 _atom_site_fract_y
 _atom_site_fract_z
 _atom_site_occupancy
  Li  Li0  1  0.392505  0.177504  0.215001  1
  Li  Li1  1  0.962503  0.177504  0.784999  1
  Li  Li2  1  0.037497  0.822496  0.215001  1
  Li  Li3  1  0.607495  0.822496  0.784999  1
  Li  Li4  1  0.500000  0.500000  0.000000  1
  Cr  Cr5  1  0.000000  0.500000  0.500000  1
  S  S6  1  0.757192  0.000000  0.757192  1
  S  S7  1  0.197997  0.697997  0.500000  1
  S  S8  1  0.802003  0.302003  0.500000  1
  S  S9  1  0.242808  0.000000  0.242808  1
