# generated using pymatgen
data_Li2Fe5B3O13
_symmetry_space_group_name_H-M   'P 1'
_cell_length_a   9.62085773
_cell_length_b   3.16669581
_cell_length_c   15.69930599
_cell_angle_alpha   90.00000000
_cell_angle_beta   107.03130433
_cell_angle_gamma   90.00000000
_symmetry_Int_Tables_number   1
_chemical_formula_structural   Li2Fe5B3O13
_chemical_formula_sum   'Li4 Fe10 B6 O26'
_cell_volume   457.32431713
_cell_formula_units_Z   2
loop_
 _symmetry_equiv_pos_site_id
 _symmetry_equiv_pos_as_xyz
  1  'x, y, z'
loop_
 _atom_site_type_symbol
 _atom_site_label
 _atom_site_symmetry_multiplicity
 _atom_site_fract_x
 _atom_site_fract_y
 _atom_site_fract_z
 _atom_site_occupancy
  Li  Li0  1  0.512925  0.250000  0.239054  1
  Li  Li1  1  0.433559  0.750000  0.048698  1
  Li  Li2  1  0.566441  0.250000  0.951302  1
  Li  Li3  1  0.487075  0.750000  0.760946  1
  Fe  Fe4  1  0.142741  0.250000  0.999412  1
  Fe  Fe5  1  0.665676  0.250000  0.625401  1
  Fe  Fe6  1  0.998807  0.750000  0.805009  1
  Fe  Fe7  1  0.918493  0.750000  0.562553  1
  Fe  Fe8  1  0.793753  0.750000  0.310993  1
  Fe  Fe9  1  0.206247  0.250000  0.689007  1
  Fe  Fe10  1  0.081507  0.250000  0.437447  1
  Fe  Fe11  1  0.001193  0.250000  0.194991  1
  Fe  Fe12  1  0.334324  0.750000  0.374599  1
  Fe  Fe13  1  0.857259  0.750000  0.000588  1
  B  B14  1  0.261365  0.750000  0.181668  1
  B  B15  1  0.631639  0.250000  0.425346  1
  B  B16  1  0.702215  0.750000  0.119916  1
  B  B17  1  0.297785  0.250000  0.880084  1
  B  B18  1  0.368361  0.750000  0.574654  1
  B  B19  1  0.738635  0.250000  0.818332  1
  O  O20  1  0.261430  0.750000  0.092579  1
  O  O21  1  0.484284  0.250000  0.416187  1
  O  O22  1  0.384443  0.750000  0.252240  1
  O  O23  1  0.870800  0.250000  0.798843  1
  O  O24  1  0.803136  0.750000  0.648773  1
  O  O25  1  0.735640  0.250000  0.507959  1
  O  O26  1  0.676806  0.250000  0.348127  1
  O  O27  1  0.022595  0.750000  0.941062  1
  O  O28  1  0.630763  0.750000  0.183435  1
  O  O29  1  0.638827  0.750000  0.028437  1
  O  O30  1  0.146274  0.250000  0.856945  1
  O  O31  1  0.094534  0.750000  0.710467  1
  O  O32  1  0.949129  0.750000  0.432293  1
  O  O33  1  0.050871  0.250000  0.567707  1
  O  O34  1  0.905466  0.250000  0.289533  1
  O  O35  1  0.853726  0.750000  0.143055  1
  O  O36  1  0.361173  0.250000  0.971563  1
  O  O37  1  0.369237  0.250000  0.816565  1
  O  O38  1  0.977405  0.250000  0.058938  1
  O  O39  1  0.323194  0.750000  0.651873  1
  O  O40  1  0.264360  0.750000  0.492041  1
  O  O41  1  0.196864  0.250000  0.351227  1
  O  O42  1  0.129200  0.750000  0.201157  1
  O  O43  1  0.615557  0.250000  0.747760  1
  O  O44  1  0.515716  0.750000  0.583813  1
  O  O45  1  0.738570  0.250000  0.907421  1
