# generated using pymatgen
data_Li2Cr2CoO6
_symmetry_space_group_name_H-M   'P 1'
_cell_length_a   6.57012278
_cell_length_b   6.58285815
_cell_length_c   8.28139105
_cell_angle_alpha   70.76918245
_cell_angle_beta   71.02577266
_cell_angle_gamma   82.81720966
_symmetry_Int_Tables_number   1
_chemical_formula_structural   Li2Cr2CoO6
_chemical_formula_sum   'Li6 Cr6 Co3 O18'
_cell_volume   319.74558850
_cell_formula_units_Z   3
loop_
 _symmetry_equiv_pos_site_id
 _symmetry_equiv_pos_as_xyz
  1  'x, y, z'
loop_
 _atom_site_type_symbol
 _atom_site_label
 _atom_site_symmetry_multiplicity
 _atom_site_fract_x
 _atom_site_fract_y
 _atom_site_fract_z
 _atom_site_occupancy
  Li  Li0  1  0.500129  0.822118  0.668862  1
  Li  Li1  1  0.168422  0.821017  0.003637  1
  Li  Li2  1  0.833448  0.498967  0.665576  1
  Li  Li3  1  0.166552  0.501033  0.334424  1
  Li  Li4  1  0.499871  0.177882  0.331138  1
  Li  Li5  1  0.831578  0.178983  0.996363  1
  Cr  Cr6  1  0.167689  0.833040  0.501940  1
  Cr  Cr7  1  0.506240  0.828474  0.169142  1
  Cr  Cr8  1  0.493760  0.171526  0.830858  1
  Cr  Cr9  1  0.832311  0.166960  0.498060  1
  Cr  Cr10  1  0.835853  0.830884  0.836743  1
  Cr  Cr11  1  0.164147  0.169116  0.163257  1
  Co  Co12  1  0.500000  0.500000  0.500000  1
  Co  Co13  1  0.833281  0.500894  0.165947  1
  Co  Co14  1  0.166719  0.499106  0.834053  1
  O  O15  1  0.150965  0.807332  0.755252  1
  O  O16  1  0.485047  0.808044  0.421089  1
  O  O17  1  0.827559  0.814996  0.072849  1
  O  O18  1  0.481958  0.492745  0.734610  1
  O  O19  1  0.810237  0.484694  0.411821  1
  O  O20  1  0.813384  0.152061  0.750242  1
  O  O21  1  0.189763  0.515306  0.588179  1
  O  O22  1  0.518042  0.507255  0.265390  1
  O  O23  1  0.514953  0.191956  0.578911  1
  O  O24  1  0.141164  0.486450  0.079519  1
  O  O25  1  0.156716  0.158223  0.400743  1
  O  O26  1  0.480652  0.149213  0.084012  1
  O  O27  1  0.858836  0.513550  0.920481  1
  O  O28  1  0.849035  0.192668  0.244748  1
  O  O29  1  0.172441  0.185004  0.927151  1
  O  O30  1  0.843284  0.841777  0.599257  1
  O  O31  1  0.186616  0.847939  0.249758  1
  O  O32  1  0.519348  0.850787  0.915988  1
