# generated using pymatgen
data_Li2MnP2O7
_symmetry_space_group_name_H-M   'P 1'
_cell_length_a   7.35005637
_cell_length_b   7.35005637
_cell_length_c   11.63824679
_cell_angle_alpha   89.06021879
_cell_angle_beta   90.93978121
_cell_angle_gamma   59.92937077
_symmetry_Int_Tables_number   1
_chemical_formula_structural   Li2MnP2O7
_chemical_formula_sum   'Li8 Mn4 P8 O28'
_cell_volume   543.82067790
_cell_formula_units_Z   4
loop_
 _symmetry_equiv_pos_site_id
 _symmetry_equiv_pos_as_xyz
  1  'x, y, z'
loop_
 _atom_site_type_symbol
 _atom_site_label
 _atom_site_symmetry_multiplicity
 _atom_site_fract_x
 _atom_site_fract_y
 _atom_site_fract_z
 _atom_site_occupancy
  Li  Li0  1  0.691754  0.746354  0.991282  1
  Li  Li1  1  0.253646  0.308246  0.491282  1
  Li  Li2  1  0.728805  0.728805  0.750000  1
  Li  Li3  1  0.289272  0.289272  0.750000  1
  Li  Li4  1  0.710728  0.710728  0.250000  1
  Li  Li5  1  0.271195  0.271195  0.250000  1
  Li  Li6  1  0.746354  0.691754  0.508718  1
  Li  Li7  1  0.308246  0.253646  0.008718  1
  Mn  Mn8  1  0.322408  0.674065  0.880752  1
  Mn  Mn9  1  0.325935  0.677592  0.380752  1
  Mn  Mn10  1  0.674065  0.322408  0.619248  1
  Mn  Mn11  1  0.677592  0.325935  0.119248  1
  P  P12  1  0.071487  0.728919  0.621703  1
  P  P13  1  0.271081  0.928513  0.121703  1
  P  P14  1  0.335302  0.906268  0.635171  1
  P  P15  1  0.093732  0.664698  0.135171  1
  P  P16  1  0.906268  0.335302  0.864829  1
  P  P17  1  0.664698  0.093732  0.364829  1
  P  P18  1  0.728919  0.071487  0.878297  1
  P  P19  1  0.928513  0.271081  0.378297  1
  O  O20  1  0.097423  0.938371  0.623314  1
  O  O21  1  0.061629  0.902577  0.123314  1
  O  O22  1  0.153842  0.617491  0.507135  1
  O  O23  1  0.382509  0.846158  0.007135  1
  O  O24  1  0.422893  0.820155  0.757419  1
  O  O25  1  0.179845  0.577107  0.257419  1
  O  O26  1  0.210036  0.589043  0.724470  1
  O  O27  1  0.410957  0.789964  0.224470  1
  O  O28  1  0.461879  0.737549  0.544834  1
  O  O29  1  0.262451  0.538121  0.044834  1
  O  O30  1  0.121467  0.310757  0.883185  1
  O  O31  1  0.689243  0.878533  0.383185  1
  O  O32  1  0.813881  0.837509  0.871889  1
  O  O33  1  0.162491  0.186119  0.371889  1
  O  O34  1  0.837509  0.813881  0.628111  1
  O  O35  1  0.186119  0.162491  0.128111  1
  O  O36  1  0.310757  0.121467  0.616815  1
  O  O37  1  0.878533  0.689243  0.116815  1
  O  O38  1  0.737549  0.461879  0.955166  1
  O  O39  1  0.538121  0.262451  0.455166  1
  O  O40  1  0.589043  0.210036  0.775530  1
  O  O41  1  0.789964  0.410957  0.275530  1
  O  O42  1  0.820155  0.422893  0.742581  1
  O  O43  1  0.577107  0.179845  0.242581  1
  O  O44  1  0.617491  0.153842  0.992865  1
  O  O45  1  0.846158  0.382509  0.492865  1
  O  O46  1  0.938371  0.097423  0.876686  1
  O  O47  1  0.902577  0.061629  0.376686  1
