# generated using pymatgen
data_Li2VSiO4
_symmetry_space_group_name_H-M   'P 1'
_cell_length_a   4.85416569
_cell_length_b   5.00294712
_cell_length_c   11.93175063
_cell_angle_alpha   88.09745624
_cell_angle_beta   89.09403651
_cell_angle_gamma   62.56540347
_symmetry_Int_Tables_number   1
_chemical_formula_structural   Li2VSiO4
_chemical_formula_sum   'Li6 V3 Si3 O12'
_cell_volume   257.03470466
_cell_formula_units_Z   3
loop_
 _symmetry_equiv_pos_site_id
 _symmetry_equiv_pos_as_xyz
  1  'x, y, z'
loop_
 _atom_site_type_symbol
 _atom_site_label
 _atom_site_symmetry_multiplicity
 _atom_site_fract_x
 _atom_site_fract_y
 _atom_site_fract_z
 _atom_site_occupancy
  Li  Li0  1  0.693447  0.405125  0.587993  1
  Li  Li1  1  0.889907  0.673426  0.937159  1
  Li  Li2  1  0.438076  0.888001  0.232881  1
  Li  Li3  1  0.546617  0.354504  0.061017  1
  Li  Li4  1  0.336962  0.111525  0.753838  1
  Li  Li5  1  0.114105  0.550980  0.425878  1
  V  V6  1  0.073716  0.512570  0.197726  1
  V  V7  1  0.489581  0.894995  0.472392  1
  V  V8  1  0.609566  0.493852  0.804537  1
  Si  Si9  1  0.000559  0.781164  0.672221  1
  Si  Si10  1  0.767773  0.232415  0.331587  1
  Si  Si11  1  0.185636  0.011186  0.000175  1
  O  O12  1  0.855680  0.282178  0.953653  1
  O  O13  1  0.903988  0.660296  0.560140  1
  O  O14  1  0.624326  0.449552  0.218228  1
  O  O15  1  0.789788  0.890984  0.324942  1
  O  O16  1  0.728932  0.120382  0.699569  1
  O  O17  1  0.334981  0.790109  0.647603  1
  O  O18  1  0.440666  0.889153  0.897836  1
  O  O19  1  0.321097  0.131359  0.102777  1
  O  O20  1  0.550030  0.410001  0.439412  1
  O  O21  1  0.125475  0.190947  0.347027  1
  O  O22  1  0.123376  0.734488  0.053073  1
  O  O23  1  0.055715  0.540808  0.778303  1
