# generated using pymatgen
data_MoH6NO3F2
_symmetry_space_group_name_H-M   'P 1'
_cell_length_a   8.59078864
_cell_length_b   8.59078864
_cell_length_c   7.99098595
_cell_angle_alpha   77.39712264
_cell_angle_beta   102.60287736
_cell_angle_gamma   66.81489988
_symmetry_Int_Tables_number   1
_chemical_formula_structural   MoH6NO3F2
_chemical_formula_sum   'Mo4 H24 N4 O12 F8'
_cell_volume   497.73316026
_cell_formula_units_Z   4
loop_
 _symmetry_equiv_pos_site_id
 _symmetry_equiv_pos_as_xyz
  1  'x, y, z'
loop_
 _atom_site_type_symbol
 _atom_site_label
 _atom_site_symmetry_multiplicity
 _atom_site_fract_x
 _atom_site_fract_y
 _atom_site_fract_z
 _atom_site_occupancy
  Mo  Mo0  1  0.010574  0.275952  0.263195  1
  Mo  Mo1  1  0.275952  0.010574  0.236805  1
  Mo  Mo2  1  0.989426  0.724048  0.736805  1
  Mo  Mo3  1  0.724048  0.989426  0.763195  1
  H  H4  1  0.371026  0.467005  0.133846  1
  H  H5  1  0.467005  0.371026  0.366154  1
  H  H6  1  0.628974  0.532995  0.866154  1
  H  H7  1  0.532995  0.628974  0.633846  1
  H  H8  1  0.415567  0.586977  0.261431  1
  H  H9  1  0.586977  0.415567  0.238569  1
  H  H10  1  0.584433  0.413023  0.738569  1
  H  H11  1  0.413023  0.584433  0.761431  1
  H  H12  1  0.879810  0.704540  0.338882  1
  H  H13  1  0.704540  0.879810  0.161118  1
  H  H14  1  0.120190  0.295460  0.661118  1
  H  H15  1  0.295460  0.120190  0.838882  1
  H  H16  1  0.129608  0.759274  0.342596  1
  H  H17  1  0.759274  0.129608  0.157404  1
  H  H18  1  0.870392  0.240726  0.657404  1
  H  H19  1  0.240726  0.870392  0.842596  1
  H  H20  1  0.077930  0.808498  0.122378  1
  H  H21  1  0.808498  0.077930  0.377622  1
  H  H22  1  0.922070  0.191502  0.877622  1
  H  H23  1  0.191502  0.922070  0.622378  1
  H  H24  1  0.751153  0.665839  0.175125  1
  H  H25  1  0.665839  0.751153  0.324875  1
  H  H26  1  0.248847  0.334161  0.824875  1
  H  H27  1  0.334161  0.248847  0.675125  1
  N  N28  1  0.460473  0.460473  0.250000  1
  N  N29  1  0.539527  0.539527  0.750000  1
  N  N30  1  0.750884  0.750884  0.250000  1
  N  N31  1  0.249116  0.249116  0.750000  1
  O  O32  1  0.105164  0.418058  0.267284  1
  O  O33  1  0.418058  0.105164  0.232716  1
  O  O34  1  0.894836  0.581942  0.732716  1
  O  O35  1  0.581942  0.894836  0.767284  1
  O  O36  1  0.041171  0.195127  0.054428  1
  O  O37  1  0.195127  0.041171  0.445572  1
  O  O38  1  0.958829  0.804873  0.945572  1
  O  O39  1  0.804873  0.958829  0.554428  1
  O  O40  1  0.808517  0.158351  0.263904  1
  O  O41  1  0.158351  0.808517  0.236096  1
  O  O42  1  0.191483  0.841649  0.736096  1
  O  O43  1  0.841649  0.191483  0.763904  1
  F  F44  1  0.918601  0.328892  0.475100  1
  F  F45  1  0.328892  0.918601  0.024900  1
  F  F46  1  0.081399  0.671108  0.524900  1
  F  F47  1  0.671108  0.081399  0.975100  1
  F  F48  1  0.759350  0.485735  0.092084  1
  F  F49  1  0.485735  0.759350  0.407916  1
  F  F50  1  0.240650  0.514265  0.907916  1
  F  F51  1  0.514265  0.240650  0.592084  1
