# generated using pymatgen
data_Mg17(As3O16)2
_symmetry_space_group_name_H-M   'P 1'
_cell_length_a   9.95552561
_cell_length_b   6.12438092
_cell_length_c   10.52715850
_cell_angle_alpha   90.00000000
_cell_angle_beta   110.74106873
_cell_angle_gamma   90.00000000
_symmetry_Int_Tables_number   1
_chemical_formula_structural   Mg17(As3O16)2
_chemical_formula_sum   'Mg17 As6 O32'
_cell_volume   600.25751008
_cell_formula_units_Z   1
loop_
 _symmetry_equiv_pos_site_id
 _symmetry_equiv_pos_as_xyz
  1  'x, y, z'
loop_
 _atom_site_type_symbol
 _atom_site_label
 _atom_site_symmetry_multiplicity
 _atom_site_fract_x
 _atom_site_fract_y
 _atom_site_fract_z
 _atom_site_occupancy
  Mg  Mg0  1  0.265423  0.253071  0.004698  1
  Mg  Mg1  1  0.736087  0.500000  0.246435  1
  Mg  Mg2  1  0.265423  0.746929  0.004698  1
  Mg  Mg3  1  0.269473  0.000000  0.257698  1
  Mg  Mg4  1  0.744728  0.241084  0.495658  1
  Mg  Mg5  1  0.999277  0.240451  0.260904  1
  Mg  Mg6  1  0.255272  0.241084  0.504342  1
  Mg  Mg7  1  0.730527  0.000000  0.742302  1
  Mg  Mg8  1  0.999277  0.759549  0.260904  1
  Mg  Mg9  1  0.744728  0.758916  0.495658  1
  Mg  Mg10  1  0.255272  0.758916  0.504342  1
  Mg  Mg11  1  0.000723  0.240451  0.739096  1
  Mg  Mg12  1  0.263913  0.500000  0.753565  1
  Mg  Mg13  1  0.734577  0.253071  0.995302  1
  Mg  Mg14  1  0.734577  0.746929  0.995302  1
  Mg  Mg15  1  0.000723  0.759549  0.739096  1
  Mg  Mg16  1  0.000000  0.500000  0.000000  1
  As  As17  1  0.577927  0.000000  0.192739  1
  As  As18  1  0.424435  0.500000  0.310617  1
  As  As19  1  0.575565  0.500000  0.689383  1
  As  As20  1  0.422073  0.000000  0.807261  1
  As  As21  1  0.000000  0.500000  0.500000  1
  As  As22  1  0.000000  0.000000  0.000000  1
  O  O23  1  0.883772  0.000000  0.108156  1
  O  O24  1  0.388232  0.000000  0.128152  1
  O  O25  1  0.631913  0.231413  0.132919  1
  O  O26  1  0.866805  0.500000  0.120414  1
  O  O27  1  0.116073  0.217653  0.109796  1
  O  O28  1  0.630363  0.000000  0.365289  1
  O  O29  1  0.367400  0.500000  0.135148  1
  O  O30  1  0.631913  0.768587  0.132919  1
  O  O31  1  0.880328  0.291728  0.385419  1
  O  O32  1  0.612847  0.500000  0.371588  1
  O  O33  1  0.116073  0.782347  0.109796  1
  O  O34  1  0.880328  0.708272  0.385419  1
  O  O35  1  0.857941  0.000000  0.631738  1
  O  O36  1  0.142059  0.000000  0.368262  1
  O  O37  1  0.367800  0.269402  0.367189  1
  O  O38  1  0.883771  0.500000  0.609442  1
  O  O39  1  0.367800  0.730598  0.367189  1
  O  O40  1  0.369637  0.000000  0.634711  1
  O  O41  1  0.632200  0.269402  0.632811  1
  O  O42  1  0.116229  0.500000  0.390558  1
  O  O43  1  0.387153  0.500000  0.628412  1
  O  O44  1  0.883927  0.217653  0.890204  1
  O  O45  1  0.119672  0.291728  0.614581  1
  O  O46  1  0.632200  0.730598  0.632811  1
  O  O47  1  0.611768  0.000000  0.871848  1
  O  O48  1  0.119672  0.708272  0.614581  1
  O  O49  1  0.632600  0.500000  0.864852  1
  O  O50  1  0.368087  0.231413  0.867081  1
  O  O51  1  0.883927  0.782347  0.890204  1
  O  O52  1  0.116228  0.000000  0.891844  1
  O  O53  1  0.133195  0.500000  0.879586  1
  O  O54  1  0.368087  0.768587  0.867081  1
