# generated using pymatgen
data_Tb2Zr2O7
_symmetry_space_group_name_H-M   'P 1'
_cell_length_a   10.48744804
_cell_length_b   10.48744804
_cell_length_c   5.45720105
_cell_angle_alpha   90.00000000
_cell_angle_beta   90.00000000
_cell_angle_gamma   90.00000000
_symmetry_Int_Tables_number   1
_chemical_formula_structural   Tb2Zr2O7
_chemical_formula_sum   'Tb8 Zr8 O28'
_cell_volume   600.21880560
_cell_formula_units_Z   4
loop_
 _symmetry_equiv_pos_site_id
 _symmetry_equiv_pos_as_xyz
  1  'x, y, z'
loop_
 _atom_site_type_symbol
 _atom_site_label
 _atom_site_symmetry_multiplicity
 _atom_site_fract_x
 _atom_site_fract_y
 _atom_site_fract_z
 _atom_site_occupancy
  Tb  Tb0  1  0.374721  0.374721  0.250000  1
  Tb  Tb1  1  0.625279  0.374721  0.750000  1
  Tb  Tb2  1  0.374721  0.625279  0.750000  1
  Tb  Tb3  1  0.625279  0.625279  0.250000  1
  Tb  Tb4  1  0.874721  0.874721  0.250000  1
  Tb  Tb5  1  0.125279  0.874721  0.750000  1
  Tb  Tb6  1  0.874721  0.125279  0.750000  1
  Tb  Tb7  1  0.125279  0.125279  0.250000  1
  Zr  Zr8  1  0.861314  0.361314  0.230238  1
  Zr  Zr9  1  0.138686  0.361314  0.730238  1
  Zr  Zr10  1  0.861314  0.638686  0.730238  1
  Zr  Zr11  1  0.138686  0.638686  0.230238  1
  Zr  Zr12  1  0.361314  0.861314  0.269762  1
  Zr  Zr13  1  0.638686  0.861314  0.769762  1
  Zr  Zr14  1  0.361314  0.138686  0.769762  1
  Zr  Zr15  1  0.638686  0.138686  0.269762  1
  O  O16  1  0.494370  0.211083  0.033813  1
  O  O17  1  0.505630  0.211083  0.533813  1
  O  O18  1  0.754580  0.254580  0.482449  1
  O  O19  1  0.245420  0.254580  0.982449  1
  O  O20  1  0.211083  0.494370  0.466187  1
  O  O21  1  0.788917  0.494370  0.966187  1
  O  O22  1  0.500000  0.500000  0.000000  1
  O  O23  1  0.500000  0.500000  0.500000  1
  O  O24  1  0.211083  0.505630  0.966187  1
  O  O25  1  0.788917  0.505630  0.466187  1
  O  O26  1  0.754580  0.745420  0.982449  1
  O  O27  1  0.245420  0.745420  0.482449  1
  O  O28  1  0.494370  0.788917  0.533813  1
  O  O29  1  0.505630  0.788917  0.033813  1
  O  O30  1  0.994370  0.711083  0.466187  1
  O  O31  1  0.005630  0.711083  0.966187  1
  O  O32  1  0.745420  0.754580  0.517551  1
  O  O33  1  0.254580  0.754580  0.017551  1
  O  O34  1  0.711083  0.994370  0.033813  1
  O  O35  1  0.288917  0.994370  0.533813  1
  O  O36  1  0.000000  0.000000  0.000000  1
  O  O37  1  0.000000  0.000000  0.500000  1
  O  O38  1  0.711083  0.005630  0.533813  1
  O  O39  1  0.288917  0.005630  0.033813  1
  O  O40  1  0.745420  0.245420  0.017551  1
  O  O41  1  0.254580  0.245420  0.517551  1
  O  O42  1  0.994370  0.288917  0.966187  1
  O  O43  1  0.005630  0.288917  0.466187  1
