# generated using pymatgen
data_Li5MnO3F
_symmetry_space_group_name_H-M   'P 1'
_cell_length_a   6.35478743
_cell_length_b   7.03464023
_cell_length_c   9.51022441
_cell_angle_alpha   90.00000000
_cell_angle_beta   90.00000000
_cell_angle_gamma   90.00000000
_symmetry_Int_Tables_number   1
_chemical_formula_structural   Li5MnO3F
_chemical_formula_sum   'Li20 Mn4 O12 F4'
_cell_volume   425.14167981
_cell_formula_units_Z   4
loop_
 _symmetry_equiv_pos_site_id
 _symmetry_equiv_pos_as_xyz
  1  'x, y, z'
loop_
 _atom_site_type_symbol
 _atom_site_label
 _atom_site_symmetry_multiplicity
 _atom_site_fract_x
 _atom_site_fract_y
 _atom_site_fract_z
 _atom_site_occupancy
  Li  Li0  1  0.000562  0.925308  0.382923  1
  Li  Li1  1  0.506735  0.959560  0.376024  1
  Li  Li2  1  0.993265  0.959560  0.876024  1
  Li  Li3  1  0.499438  0.925308  0.882923  1
  Li  Li4  1  0.243902  0.750000  0.106742  1
  Li  Li5  1  0.256098  0.750000  0.606742  1
  Li  Li6  1  0.000562  0.574692  0.382923  1
  Li  Li7  1  0.506735  0.540440  0.376024  1
  Li  Li8  1  0.993265  0.540440  0.876024  1
  Li  Li9  1  0.499438  0.574692  0.882923  1
  Li  Li10  1  0.006735  0.459560  0.123976  1
  Li  Li11  1  0.999438  0.425308  0.617077  1
  Li  Li12  1  0.500562  0.425308  0.117077  1
  Li  Li13  1  0.493265  0.459560  0.623976  1
  Li  Li14  1  0.743902  0.250000  0.393258  1
  Li  Li15  1  0.756098  0.250000  0.893258  1
  Li  Li16  1  0.999438  0.074692  0.617077  1
  Li  Li17  1  0.006735  0.040440  0.123976  1
  Li  Li18  1  0.493265  0.040440  0.623976  1
  Li  Li19  1  0.500562  0.074692  0.117077  1
  Mn  Mn20  1  0.756310  0.750000  0.097165  1
  Mn  Mn21  1  0.743690  0.750000  0.597165  1
  Mn  Mn22  1  0.256310  0.250000  0.402835  1
  Mn  Mn23  1  0.243690  0.250000  0.902835  1
  O  O24  1  0.745532  0.004749  0.998881  1
  O  O25  1  0.754468  0.004749  0.498881  1
  O  O26  1  0.001401  0.750000  0.228938  1
  O  O27  1  0.498599  0.750000  0.728938  1
  O  O28  1  0.745532  0.495251  0.998881  1
  O  O29  1  0.754468  0.495251  0.498881  1
  O  O30  1  0.254468  0.504749  0.001119  1
  O  O31  1  0.245532  0.504749  0.501119  1
  O  O32  1  0.998599  0.250000  0.771062  1
  O  O33  1  0.501401  0.250000  0.271062  1
  O  O34  1  0.245532  0.995251  0.501119  1
  O  O35  1  0.254468  0.995251  0.001119  1
  F  F36  1  0.009504  0.750000  0.741768  1
  F  F37  1  0.490496  0.750000  0.241768  1
  F  F38  1  0.990496  0.250000  0.258232  1
  F  F39  1  0.509504  0.250000  0.758232  1
