# generated using pymatgen
data_Ni3OF5
_symmetry_space_group_name_H-M   'P 1'
_cell_length_a   4.70737083
_cell_length_b   5.63291568
_cell_length_c   7.78142846
_cell_angle_alpha   86.10635024
_cell_angle_beta   89.37565805
_cell_angle_gamma   89.12283265
_symmetry_Int_Tables_number   1
_chemical_formula_structural   Ni3OF5
_chemical_formula_sum   'Ni6 O2 F10'
_cell_volume   205.82366138
_cell_formula_units_Z   2
loop_
 _symmetry_equiv_pos_site_id
 _symmetry_equiv_pos_as_xyz
  1  'x, y, z'
loop_
 _atom_site_type_symbol
 _atom_site_label
 _atom_site_symmetry_multiplicity
 _atom_site_fract_x
 _atom_site_fract_y
 _atom_site_fract_z
 _atom_site_occupancy
  Ni  Ni0  1  0.500000  0.500000  0.000000  1
  Ni  Ni1  1  0.507351  0.825583  0.666633  1
  Ni  Ni2  1  0.492649  0.174417  0.333367  1
  Ni  Ni3  1  0.987267  0.339731  0.670730  1
  Ni  Ni4  1  0.012733  0.660269  0.329270  1
  Ni  Ni5  1  0.000000  0.000000  0.000000  1
  O  O6  1  0.693617  0.535608  0.770093  1
  O  O7  1  0.306383  0.464392  0.229907  1
  F  F8  1  0.803897  0.368526  0.434342  1
  F  F9  1  0.802480  0.034511  0.767575  1
  F  F10  1  0.804214  0.702945  0.101378  1
  F  F11  1  0.700121  0.200307  0.102293  1
  F  F12  1  0.698150  0.868687  0.429939  1
  F  F13  1  0.301850  0.131313  0.570061  1
  F  F14  1  0.299879  0.799693  0.897707  1
  F  F15  1  0.197520  0.965489  0.232425  1
  F  F16  1  0.195786  0.297055  0.898622  1
  F  F17  1  0.196103  0.631474  0.565658  1
