# generated using pymatgen
data_K(CoO2)2
_symmetry_space_group_name_H-M   'P 1'
_cell_length_a   4.93524589
_cell_length_b   5.70645894
_cell_length_c   12.59067309
_cell_angle_alpha   90.00000000
_cell_angle_beta   90.00000000
_cell_angle_gamma   90.00000000
_symmetry_Int_Tables_number   1
_chemical_formula_structural   K(CoO2)2
_chemical_formula_sum   'K4 Co8 O16'
_cell_volume   354.58833139
_cell_formula_units_Z   4
loop_
 _symmetry_equiv_pos_site_id
 _symmetry_equiv_pos_as_xyz
  1  'x, y, z'
loop_
 _atom_site_type_symbol
 _atom_site_label
 _atom_site_symmetry_multiplicity
 _atom_site_fract_x
 _atom_site_fract_y
 _atom_site_fract_z
 _atom_site_occupancy
  K  K0  1  0.963247  0.000000  0.500000  1
  K  K1  1  0.636113  0.000000  0.000000  1
  K  K2  1  0.363887  0.500000  0.500000  1
  K  K3  1  0.036753  0.500000  0.000000  1
  Co  Co4  1  0.000454  0.000000  0.752896  1
  Co  Co5  1  0.000454  0.000000  0.247104  1
  Co  Co6  1  0.500000  0.750000  0.750000  1
  Co  Co7  1  0.500000  0.750000  0.250000  1
  Co  Co8  1  0.999546  0.500000  0.747104  1
  Co  Co9  1  0.999546  0.500000  0.252896  1
  Co  Co10  1  0.500000  0.250000  0.250000  1
  Co  Co11  1  0.500000  0.250000  0.750000  1
  O  O12  1  0.663641  0.000000  0.326805  1
  O  O13  1  0.663641  0.000000  0.673195  1
  O  O14  1  0.334759  0.000000  0.173719  1
  O  O15  1  0.334759  0.000000  0.826281  1
  O  O16  1  0.168185  0.749502  0.329168  1
  O  O17  1  0.168185  0.749502  0.670832  1
  O  O18  1  0.831815  0.750498  0.170832  1
  O  O19  1  0.831815  0.750498  0.829168  1
  O  O20  1  0.665241  0.500000  0.326281  1
  O  O21  1  0.665241  0.500000  0.673719  1
  O  O22  1  0.336359  0.500000  0.173195  1
  O  O23  1  0.336359  0.500000  0.826805  1
  O  O24  1  0.168185  0.250498  0.329168  1
  O  O25  1  0.168185  0.250498  0.670832  1
  O  O26  1  0.831815  0.249502  0.170832  1
  O  O27  1  0.831815  0.249502  0.829168  1
