# generated using pymatgen
data_Li3Mn4(BO3)4
_symmetry_space_group_name_H-M   'P 1'
_cell_length_a   5.28492462
_cell_length_b   9.13789196
_cell_length_c   11.61330055
_cell_angle_alpha   113.04390803
_cell_angle_beta   101.37420625
_cell_angle_gamma   90.04958589
_symmetry_Int_Tables_number   1
_chemical_formula_structural   Li3Mn4(BO3)4
_chemical_formula_sum   'Li6 Mn8 B8 O24'
_cell_volume   504.05589133
_cell_formula_units_Z   2
loop_
 _symmetry_equiv_pos_site_id
 _symmetry_equiv_pos_as_xyz
  1  'x, y, z'
loop_
 _atom_site_type_symbol
 _atom_site_label
 _atom_site_symmetry_multiplicity
 _atom_site_fract_x
 _atom_site_fract_y
 _atom_site_fract_z
 _atom_site_occupancy
  Li  Li0  1  0.085034  0.908944  0.834018  1
  Li  Li1  1  0.301748  0.184602  0.329485  1
  Li  Li2  1  0.575518  0.407333  0.839635  1
  Li  Li3  1  0.390764  0.554734  0.091832  1
  Li  Li4  1  0.666245  0.806392  0.647911  1
  Li  Li5  1  0.824536  0.670081  0.327965  1
  Mn  Mn6  1  0.090675  0.597737  0.867205  1
  Mn  Mn7  1  0.161174  0.980889  0.614677  1
  Mn  Mn8  1  0.346156  0.540540  0.380379  1
  Mn  Mn9  1  0.596885  0.094829  0.872635  1
  Mn  Mn10  1  0.384703  0.909953  0.112093  1
  Mn  Mn11  1  0.651664  0.461315  0.614274  1
  Mn  Mn12  1  0.827204  0.003210  0.362378  1
  Mn  Mn13  1  0.911199  0.374319  0.123864  1
  B  B14  1  0.119048  0.271330  0.885269  1
  B  B15  1  0.152035  0.647236  0.628630  1
  B  B16  1  0.351097  0.860023  0.363506  1
  B  B17  1  0.595835  0.761928  0.867197  1
  B  B18  1  0.386650  0.253272  0.128590  1
  B  B19  1  0.661604  0.128846  0.622293  1
  B  B20  1  0.829752  0.339817  0.360579  1
  B  B21  1  0.900144  0.728200  0.131625  1
  O  O22  1  0.028899  0.783869  0.638463  1
  O  O23  1  0.050087  0.536360  0.664176  1
  O  O24  1  0.189455  0.116981  0.827384  1
  O  O25  1  0.261676  0.404179  0.898956  1
  O  O26  1  0.107531  0.862789  0.395766  1
  O  O27  1  0.361403  0.799062  0.908778  1
  O  O28  1  0.125442  0.717015  0.085393  1
  O  O29  1  0.384071  0.625329  0.583451  1
  O  O30  1  0.264378  0.134422  0.143434  1
  O  O31  1  0.292202  0.406726  0.164055  1
  O  O32  1  0.567368  0.015977  0.661100  1
  O  O33  1  0.434181  0.983295  0.332835  1
  O  O34  1  0.584741  0.277903  0.664017  1
  O  O35  1  0.682245  0.611912  0.842608  1
  O  O36  1  0.502261  0.740254  0.366738  1
  O  O37  1  0.732741  0.875761  0.847530  1
  O  O38  1  0.598667  0.370403  0.403350  1
  O  O39  1  0.888987  0.288298  0.934053  1
  O  O40  1  0.603068  0.230579  0.074769  1
  O  O41  1  0.849189  0.083365  0.546507  1
  O  O42  1  0.789211  0.877255  0.176359  1
  O  O43  1  0.778676  0.598931  0.138199  1
  O  O44  1  0.929423  0.450646  0.315658  1
  O  O45  1  0.960069  0.212832  0.359725  1
