# generated using pymatgen
data_KNb2PO8
_symmetry_space_group_name_H-M   'P 1'
_cell_length_a   8.52236377
_cell_length_b   8.52236377
_cell_length_c   8.52236377
_cell_angle_alpha   104.13102894
_cell_angle_beta   104.13102894
_cell_angle_gamma   104.13102894
_symmetry_Int_Tables_number   1
_chemical_formula_structural   KNb2PO8
_chemical_formula_sum   'K3 Nb6 P3 O24'
_cell_volume   550.89083032
_cell_formula_units_Z   3
loop_
 _symmetry_equiv_pos_site_id
 _symmetry_equiv_pos_as_xyz
  1  'x, y, z'
loop_
 _atom_site_type_symbol
 _atom_site_label
 _atom_site_symmetry_multiplicity
 _atom_site_fract_x
 _atom_site_fract_y
 _atom_site_fract_z
 _atom_site_occupancy
  K  K0  1  0.908652  0.595521  0.310961  1
  K  K1  1  0.310961  0.908652  0.595521  1
  K  K2  1  0.595521  0.310961  0.908652  1
  Nb  Nb3  1  0.159499  0.353206  0.036187  1
  Nb  Nb4  1  0.353206  0.036187  0.159499  1
  Nb  Nb5  1  0.841849  0.966561  0.649762  1
  Nb  Nb6  1  0.036187  0.159499  0.353206  1
  Nb  Nb7  1  0.966561  0.649762  0.841849  1
  Nb  Nb8  1  0.649762  0.841849  0.966561  1
  P  P9  1  0.500294  0.723517  0.275527  1
  P  P10  1  0.723517  0.275527  0.500294  1
  P  P11  1  0.275527  0.500294  0.723517  1
  O  O12  1  0.499181  0.974405  0.024173  1
  O  O13  1  0.153217  0.846550  0.999883  1
  O  O14  1  0.584121  0.707692  0.132345  1
  O  O15  1  0.315322  0.206232  0.063003  1
  O  O16  1  0.846550  0.999883  0.153217  1
  O  O17  1  0.417054  0.867167  0.291800  1
  O  O18  1  0.357913  0.552909  0.233833  1
  O  O19  1  0.642166  0.764347  0.446150  1
  O  O20  1  0.063003  0.315322  0.206232  1
  O  O21  1  0.867167  0.291800  0.417054  1
  O  O22  1  0.552909  0.233833  0.357913  1
  O  O23  1  0.206232  0.063003  0.315322  1
  O  O24  1  0.974405  0.024173  0.499181  1
  O  O25  1  0.936582  0.792948  0.682854  1
  O  O26  1  0.764347  0.446150  0.642166  1
  O  O27  1  0.707692  0.132345  0.584121  1
  O  O28  1  0.682854  0.936582  0.792948  1
  O  O29  1  0.233833  0.357913  0.552909  1
  O  O30  1  0.446150  0.642166  0.764347  1
  O  O31  1  0.132345  0.584121  0.707692  1
  O  O32  1  0.792948  0.682854  0.936582  1
  O  O33  1  0.291800  0.417054  0.867167  1
  O  O34  1  0.999883  0.153217  0.846550  1
  O  O35  1  0.024173  0.499181  0.974405  1
