# generated using pymatgen
data_WOF4
_symmetry_space_group_name_H-M   'P 1'
_cell_length_a   5.68591406
_cell_length_b   17.60980151
_cell_length_c   8.10748233
_cell_angle_alpha   90.00000000
_cell_angle_beta   91.57381495
_cell_angle_gamma   90.00000000
_symmetry_Int_Tables_number   1
_chemical_formula_structural   WOF4
_chemical_formula_sum   'W8 O8 F32'
_cell_volume   811.47828634
_cell_formula_units_Z   8
loop_
 _symmetry_equiv_pos_site_id
 _symmetry_equiv_pos_as_xyz
  1  'x, y, z'
loop_
 _atom_site_type_symbol
 _atom_site_label
 _atom_site_symmetry_multiplicity
 _atom_site_fract_x
 _atom_site_fract_y
 _atom_site_fract_z
 _atom_site_occupancy
  W  W0  1  0.255225  0.141394  0.982663  1
  W  W1  1  0.263020  0.612466  0.900097  1
  W  W2  1  0.255225  0.358606  0.482663  1
  W  W3  1  0.263020  0.887534  0.400097  1
  W  W4  1  0.736980  0.112466  0.599903  1
  W  W5  1  0.744775  0.641394  0.517337  1
  W  W6  1  0.736980  0.387534  0.099903  1
  W  W7  1  0.744775  0.858606  0.017337  1
  O  O8  1  0.100795  0.921104  0.558728  1
  O  O9  1  0.100795  0.578896  0.058728  1
  O  O10  1  0.436137  0.363472  0.654182  1
  O  O11  1  0.436137  0.136528  0.154182  1
  O  O12  1  0.563863  0.863472  0.845818  1
  O  O13  1  0.563863  0.636528  0.345818  1
  O  O14  1  0.899205  0.421104  0.941272  1
  O  O15  1  0.899205  0.078896  0.441272  1
  F  F16  1  0.004615  0.650651  0.753067  1
  F  F17  1  0.004615  0.849349  0.253067  1
  F  F18  1  0.036438  0.871931  0.919336  1
  F  F19  1  0.036438  0.628069  0.419336  1
  F  F20  1  0.206245  0.247108  0.961976  1
  F  F21  1  0.206245  0.252892  0.461976  1
  F  F22  1  0.255871  0.040317  0.905717  1
  F  F23  1  0.258820  0.528316  0.755669  1
  F  F24  1  0.255871  0.459683  0.405717  1
  F  F25  1  0.258820  0.971684  0.255669  1
  F  F26  1  0.300486  0.715304  0.960425  1
  F  F27  1  0.300486  0.784696  0.460425  1
  F  F28  1  0.433301  0.087111  0.521339  1
  F  F29  1  0.433301  0.412889  0.021339  1
  F  F30  1  0.498591  0.157510  0.814531  1
  F  F31  1  0.501409  0.657510  0.685469  1
  F  F32  1  0.498591  0.342490  0.314531  1
  F  F33  1  0.501409  0.842490  0.185469  1
  F  F34  1  0.566699  0.587111  0.978661  1
  F  F35  1  0.566699  0.912889  0.478661  1
  F  F36  1  0.699514  0.215304  0.539575  1
  F  F37  1  0.699514  0.284696  0.039575  1
  F  F38  1  0.741180  0.028316  0.744331  1
  F  F39  1  0.744129  0.540317  0.594283  1
  F  F40  1  0.741180  0.471684  0.244331  1
  F  F41  1  0.744129  0.959683  0.094283  1
  F  F42  1  0.793755  0.747108  0.538024  1
  F  F43  1  0.793755  0.752892  0.038024  1
  F  F44  1  0.963562  0.371931  0.580664  1
  F  F45  1  0.963562  0.128069  0.080664  1
  F  F46  1  0.995385  0.150651  0.746933  1
  F  F47  1  0.995385  0.349349  0.246933  1
