# generated using pymatgen
data_Li4TiCrO6
_symmetry_space_group_name_H-M   'P 1'
_cell_length_a   5.07038045
_cell_length_b   8.78286222
_cell_length_c   9.80636218
_cell_angle_alpha   98.55692674
_cell_angle_beta   94.79277046
_cell_angle_gamma   90.17339631
_symmetry_Int_Tables_number   1
_chemical_formula_structural   Li4TiCrO6
_chemical_formula_sum   'Li16 Ti4 Cr4 O24'
_cell_volume   430.27730791
_cell_formula_units_Z   4
loop_
 _symmetry_equiv_pos_site_id
 _symmetry_equiv_pos_as_xyz
  1  'x, y, z'
loop_
 _atom_site_type_symbol
 _atom_site_label
 _atom_site_symmetry_multiplicity
 _atom_site_fract_x
 _atom_site_fract_y
 _atom_site_fract_z
 _atom_site_occupancy
  Li  Li0  1  0.992235  0.169263  0.497135  1
  Li  Li1  1  0.873511  0.375264  0.750142  1
  Li  Li2  1  0.753643  0.251303  0.000445  1
  Li  Li3  1  0.742767  0.920465  0.000245  1
  Li  Li4  1  0.752366  0.577876  0.998585  1
  Li  Li5  1  0.622636  0.125723  0.251331  1
  Li  Li6  1  0.507122  0.331553  0.499773  1
  Li  Li7  1  0.496425  0.001390  0.499948  1
  Li  Li8  1  0.489596  0.668704  0.500743  1
  Li  Li9  1  0.374109  0.873050  0.749656  1
  Li  Li10  1  0.255882  0.748488  0.000060  1
  Li  Li11  1  0.239070  0.418996  0.001135  1
  Li  Li12  1  0.258148  0.081963  0.001455  1
  Li  Li13  1  0.124301  0.623759  0.249563  1
  Li  Li14  1  0.006761  0.829529  0.498777  1
  Li  Li15  1  0.009139  0.497744  0.498510  1
  Ti  Ti16  1  0.871679  0.707731  0.746528  1
  Ti  Ti17  1  0.880566  0.041456  0.748438  1
  Ti  Ti18  1  0.622308  0.461319  0.247279  1
  Ti  Ti19  1  0.380902  0.210974  0.754794  1
  Cr  Cr20  1  0.628855  0.797048  0.250975  1
  Cr  Cr21  1  0.370268  0.540316  0.750178  1
  Cr  Cr22  1  0.129196  0.953062  0.251494  1
  Cr  Cr23  1  0.121470  0.288090  0.249615  1
  O  O24  1  0.967683  0.108253  0.140680  1
  O  O25  1  0.933533  0.791224  0.137544  1
  O  O26  1  0.925136  0.428267  0.133750  1
  O  O27  1  0.815870  0.961954  0.362068  1
  O  O28  1  0.829872  0.321725  0.364377  1
  O  O29  1  0.783514  0.646848  0.362315  1
  O  O30  1  0.711444  0.855587  0.635806  1
  O  O31  1  0.673656  0.532542  0.638440  1
  O  O32  1  0.676949  0.177627  0.634273  1
  O  O33  1  0.464178  0.609587  0.137766  1
  O  O34  1  0.569179  0.713173  0.861771  1
  O  O35  1  0.571151  0.073222  0.866475  1
  O  O36  1  0.435169  0.923753  0.136464  1
  O  O37  1  0.424904  0.283350  0.138245  1
  O  O38  1  0.541416  0.393003  0.864559  1
  O  O39  1  0.316939  0.825784  0.364272  1
  O  O40  1  0.319076  0.462471  0.362127  1
  O  O41  1  0.285035  0.139081  0.361965  1
  O  O42  1  0.214025  0.361941  0.638835  1
  O  O43  1  0.174480  0.678934  0.633619  1
  O  O44  1  0.176796  0.035413  0.636121  1
  O  O45  1  0.080851  0.571086  0.864201  1
  O  O46  1  0.070933  0.216282  0.863795  1
  O  O47  1  0.035254  0.893825  0.863733  1
