# generated using pymatgen
data_Li2VF6
_symmetry_space_group_name_H-M   'P 1'
_cell_length_a   8.73601699
_cell_length_b   8.73601699
_cell_length_c   4.53017552
_cell_angle_alpha   90.00000000
_cell_angle_beta   90.00000000
_cell_angle_gamma   120.00000000
_symmetry_Int_Tables_number   1
_chemical_formula_structural   Li2VF6
_chemical_formula_sum   'Li6 V3 F18'
_cell_volume   299.41434313
_cell_formula_units_Z   3
loop_
 _symmetry_equiv_pos_site_id
 _symmetry_equiv_pos_as_xyz
  1  'x, y, z'
loop_
 _atom_site_type_symbol
 _atom_site_label
 _atom_site_symmetry_multiplicity
 _atom_site_fract_x
 _atom_site_fract_y
 _atom_site_fract_z
 _atom_site_occupancy
  Li  Li0  1  0.656179  0.656179  0.000000  1
  Li  Li1  1  0.343821  0.343821  0.000000  1
  Li  Li2  1  0.000000  0.343821  0.000000  1
  Li  Li3  1  0.656179  0.000000  0.000000  1
  Li  Li4  1  0.000000  0.656179  0.000000  1
  Li  Li5  1  0.343821  0.000000  0.000000  1
  V  V6  1  0.333333  0.666667  0.502516  1
  V  V7  1  0.000000  0.000000  0.000000  1
  V  V8  1  0.666667  0.333333  0.497484  1
  F  F9  1  0.787035  0.893517  0.786102  1
  F  F10  1  0.434768  0.565232  0.746259  1
  F  F11  1  0.533838  0.766919  0.263724  1
  F  F12  1  0.106483  0.212965  0.786102  1
  F  F13  1  0.233081  0.466162  0.263724  1
  F  F14  1  0.434768  0.869537  0.746259  1
  F  F15  1  0.893517  0.106483  0.213898  1
  F  F16  1  0.233081  0.766919  0.263724  1
  F  F17  1  0.130463  0.565232  0.746259  1
  F  F18  1  0.869537  0.434768  0.253741  1
  F  F19  1  0.766919  0.233081  0.736276  1
  F  F20  1  0.106483  0.893517  0.786102  1
  F  F21  1  0.565232  0.130463  0.253741  1
  F  F22  1  0.893517  0.787035  0.213898  1
  F  F23  1  0.766919  0.533838  0.736276  1
  F  F24  1  0.466162  0.233081  0.736276  1
  F  F25  1  0.565232  0.434768  0.253741  1
  F  F26  1  0.212965  0.106483  0.213898  1
