# generated using pymatgen
data_Li2V3CoO8
_symmetry_space_group_name_H-M   'P 1'
_cell_length_a   8.30449079
_cell_length_b   8.31602544
_cell_length_c   8.36145904
_cell_angle_alpha   89.96920858
_cell_angle_beta   89.74922514
_cell_angle_gamma   89.71577680
_symmetry_Int_Tables_number   1
_chemical_formula_structural   Li2V3CoO8
_chemical_formula_sum   'Li8 V12 Co4 O32'
_cell_volume   577.43263030
_cell_formula_units_Z   4
loop_
 _symmetry_equiv_pos_site_id
 _symmetry_equiv_pos_as_xyz
  1  'x, y, z'
loop_
 _atom_site_type_symbol
 _atom_site_label
 _atom_site_symmetry_multiplicity
 _atom_site_fract_x
 _atom_site_fract_y
 _atom_site_fract_z
 _atom_site_occupancy
  Li  Li0  1  0.996783  0.004317  0.998432  1
  Li  Li1  1  0.753494  0.247970  0.752908  1
  Li  Li2  1  0.246737  0.748151  0.747588  1
  Li  Li3  1  0.001696  0.501697  0.504386  1
  Li  Li4  1  0.502384  0.997838  0.498388  1
  Li  Li5  1  0.747031  0.751646  0.253035  1
  Li  Li6  1  0.252554  0.252548  0.245854  1
  Li  Li7  1  0.495192  0.497679  0.002446  1
  V  V8  1  0.882249  0.622407  0.869785  1
  V  V9  1  0.630154  0.880507  0.874331  1
  V  V10  1  0.375826  0.128293  0.878932  1
  V  V11  1  0.628865  0.625722  0.624048  1
  V  V12  1  0.369164  0.385310  0.623390  1
  V  V13  1  0.120825  0.127440  0.632713  1
  V  V14  1  0.622002  0.377834  0.367056  1
  V  V15  1  0.871668  0.121988  0.372300  1
  V  V16  1  0.125198  0.864601  0.381151  1
  V  V17  1  0.876908  0.373894  0.122623  1
  V  V18  1  0.125744  0.620520  0.121127  1
  V  V19  1  0.378431  0.873257  0.130433  1
  Co  Co20  1  0.123010  0.375468  0.873115  1
  Co  Co21  1  0.875591  0.875304  0.626658  1
  Co  Co22  1  0.374080  0.625025  0.376015  1
  Co  Co23  1  0.624542  0.122450  0.127357  1
  O  O24  1  0.887297  0.386967  0.885097  1
  O  O25  1  0.109014  0.611800  0.876828  1
  O  O26  1  0.396816  0.881608  0.884236  1
  O  O27  1  0.859194  0.865134  0.862376  1
  O  O28  1  0.621474  0.112682  0.896007  1
  O  O29  1  0.643388  0.634064  0.864770  1
  O  O30  1  0.358042  0.366763  0.857975  1
  O  O31  1  0.129395  0.142237  0.860637  1
  O  O32  1  0.872546  0.644698  0.637898  1
  O  O33  1  0.640526  0.864113  0.637364  1
  O  O34  1  0.355140  0.141802  0.629787  1
  O  O35  1  0.377392  0.607476  0.611041  1
  O  O36  1  0.132574  0.362481  0.640328  1
  O  O37  1  0.611670  0.380197  0.604140  1
  O  O38  1  0.891027  0.111714  0.611694  1
  O  O39  1  0.110681  0.888364  0.613818  1
  O  O40  1  0.605569  0.611191  0.384939  1
  O  O41  1  0.385005  0.389950  0.385623  1
  O  O42  1  0.107746  0.106645  0.383693  1
  O  O43  1  0.642701  0.133121  0.364316  1
  O  O44  1  0.887646  0.883826  0.394915  1
  O  O45  1  0.863896  0.361840  0.365816  1
  O  O46  1  0.137358  0.643312  0.370517  1
  O  O47  1  0.365229  0.860878  0.364281  1
  O  O48  1  0.627629  0.357036  0.144394  1
  O  O49  1  0.859497  0.134243  0.139192  1
  O  O50  1  0.147048  0.869445  0.136267  1
  O  O51  1  0.121093  0.387032  0.103840  1
  O  O52  1  0.367057  0.639286  0.145787  1
  O  O53  1  0.884844  0.617205  0.110091  1
  O  O54  1  0.610138  0.889310  0.113990  1
  O  O55  1  0.391102  0.111854  0.114271  1
