# generated using pymatgen
data_Mn2O3
_symmetry_space_group_name_H-M   'P 1'
_cell_length_a   5.30426914
_cell_length_b   8.87066960
_cell_length_c   9.56715849
_cell_angle_alpha   90.00000000
_cell_angle_beta   90.00000000
_cell_angle_gamma   90.00000000
_symmetry_Int_Tables_number   1
_chemical_formula_structural   Mn2O3
_chemical_formula_sum   'Mn16 O24'
_cell_volume   450.15795046
_cell_formula_units_Z   8
loop_
 _symmetry_equiv_pos_site_id
 _symmetry_equiv_pos_as_xyz
  1  'x, y, z'
loop_
 _atom_site_type_symbol
 _atom_site_label
 _atom_site_symmetry_multiplicity
 _atom_site_fract_x
 _atom_site_fract_y
 _atom_site_fract_z
 _atom_site_occupancy
  Mn  Mn0  1  0.171157  0.661886  0.871798  1
  Mn  Mn1  1  0.185213  0.348089  0.054437  1
  Mn  Mn2  1  0.165042  0.017844  0.863262  1
  Mn  Mn3  1  0.175305  0.339707  0.643345  1
  Mn  Mn4  1  0.314787  0.848089  0.554437  1
  Mn  Mn5  1  0.334958  0.517844  0.363262  1
  Mn  Mn6  1  0.324695  0.839707  0.143345  1
  Mn  Mn7  1  0.328843  0.161886  0.371798  1
  Mn  Mn8  1  0.675305  0.160293  0.643345  1
  Mn  Mn9  1  0.665042  0.482156  0.863262  1
  Mn  Mn10  1  0.671157  0.838114  0.871798  1
  Mn  Mn11  1  0.685213  0.151911  0.054437  1
  Mn  Mn12  1  0.814787  0.651911  0.554437  1
  Mn  Mn13  1  0.824695  0.660293  0.143345  1
  Mn  Mn14  1  0.834958  0.982156  0.363262  1
  Mn  Mn15  1  0.828843  0.338114  0.371798  1
  O  O16  1  0.967770  0.519199  0.994667  1
  O  O17  1  0.027804  0.819729  0.995987  1
  O  O18  1  0.032230  0.480801  0.494667  1
  O  O19  1  0.032696  0.160062  0.992483  1
  O  O20  1  0.967304  0.839938  0.492483  1
  O  O21  1  0.972196  0.180271  0.495987  1
  O  O22  1  0.163047  0.668874  0.234467  1
  O  O23  1  0.165998  0.001137  0.272166  1
  O  O24  1  0.180813  0.336952  0.264798  1
  O  O25  1  0.334002  0.501137  0.772166  1
  O  O26  1  0.319187  0.836952  0.764798  1
  O  O27  1  0.336953  0.168874  0.734467  1
  O  O28  1  0.527804  0.680271  0.995987  1
  O  O29  1  0.467304  0.660062  0.492483  1
  O  O30  1  0.532696  0.339938  0.992483  1
  O  O31  1  0.472196  0.319729  0.495987  1
  O  O32  1  0.532230  0.019199  0.494667  1
  O  O33  1  0.467770  0.980801  0.994667  1
  O  O34  1  0.665998  0.498863  0.272166  1
  O  O35  1  0.663047  0.831126  0.234467  1
  O  O36  1  0.680813  0.163048  0.264798  1
  O  O37  1  0.819187  0.663048  0.764798  1
  O  O38  1  0.834002  0.998863  0.772166  1
  O  O39  1  0.836953  0.331126  0.734467  1
