# generated using pymatgen
data_Ba7Cu3H17
_symmetry_space_group_name_H-M   'P 1'
_cell_length_a   11.90338714
_cell_length_b   11.90338714
_cell_length_c   7.44798539
_cell_angle_alpha   90.00000000
_cell_angle_beta   90.00000000
_cell_angle_gamma   120.00000000
_symmetry_Int_Tables_number   1
_chemical_formula_structural   Ba7Cu3H17
_chemical_formula_sum   'Ba14 Cu6 H34'
_cell_volume   913.92501655
_cell_formula_units_Z   2
loop_
 _symmetry_equiv_pos_site_id
 _symmetry_equiv_pos_as_xyz
  1  'x, y, z'
loop_
 _atom_site_type_symbol
 _atom_site_label
 _atom_site_symmetry_multiplicity
 _atom_site_fract_x
 _atom_site_fract_y
 _atom_site_fract_z
 _atom_site_occupancy
  Ba  Ba0  1  0.878463  0.153113  0.672817  1
  Ba  Ba1  1  0.846887  0.725350  0.672817  1
  Ba  Ba2  1  0.274650  0.121537  0.672817  1
  Ba  Ba3  1  0.153113  0.878463  0.172817  1
  Ba  Ba4  1  0.725350  0.846887  0.172817  1
  Ba  Ba5  1  0.121537  0.274650  0.172817  1
  Ba  Ba6  1  0.452967  0.557212  0.533063  1
  Ba  Ba7  1  0.442788  0.895755  0.533063  1
  Ba  Ba8  1  0.104245  0.547033  0.533063  1
  Ba  Ba9  1  0.557212  0.452967  0.033063  1
  Ba  Ba10  1  0.895755  0.442788  0.033063  1
  Ba  Ba11  1  0.547033  0.104245  0.033063  1
  Ba  Ba12  1  0.666667  0.333333  0.515387  1
  Ba  Ba13  1  0.333333  0.666667  0.015387  1
  Cu  Cu14  1  0.656316  0.836726  0.758742  1
  Cu  Cu15  1  0.163274  0.819590  0.758742  1
  Cu  Cu16  1  0.180410  0.343684  0.758742  1
  Cu  Cu17  1  0.836726  0.656316  0.258742  1
  Cu  Cu18  1  0.819590  0.163274  0.258742  1
  Cu  Cu19  1  0.343684  0.180410  0.258742  1
  H  H20  1  0.586188  0.907639  0.863344  1
  H  H21  1  0.092361  0.678549  0.863344  1
  H  H22  1  0.321451  0.413812  0.863344  1
  H  H23  1  0.907639  0.586188  0.363344  1
  H  H24  1  0.678549  0.092361  0.363344  1
  H  H25  1  0.413812  0.321451  0.363344  1
  H  H26  1  0.637666  0.819807  0.538544  1
  H  H27  1  0.180193  0.817859  0.538544  1
  H  H28  1  0.182141  0.362334  0.538544  1
  H  H29  1  0.819807  0.637666  0.038544  1
  H  H30  1  0.817859  0.180193  0.038544  1
  H  H31  1  0.362334  0.182141  0.038544  1
  H  H32  1  0.603895  0.692721  0.849192  1
  H  H33  1  0.307279  0.911173  0.849192  1
  H  H34  1  0.088827  0.396105  0.849192  1
  H  H35  1  0.692721  0.603895  0.349192  1
  H  H36  1  0.911173  0.307279  0.349192  1
  H  H37  1  0.396105  0.088827  0.349192  1
  H  H38  1  0.812227  0.914530  0.812525  1
  H  H39  1  0.085470  0.897697  0.812525  1
  H  H40  1  0.102303  0.187773  0.812525  1
  H  H41  1  0.914530  0.812227  0.312525  1
  H  H42  1  0.897697  0.085470  0.312525  1
  H  H43  1  0.187773  0.102303  0.312525  1
  H  H44  1  0.876736  0.376518  0.690053  1
  H  H45  1  0.623482  0.500218  0.690053  1
  H  H46  1  0.499782  0.123264  0.690053  1
  H  H47  1  0.376518  0.876736  0.190053  1
  H  H48  1  0.500218  0.623482  0.190053  1
  H  H49  1  0.123264  0.499782  0.190053  1
  H  H50  1  0.666667  0.333333  0.180065  1
  H  H51  1  0.333333  0.666667  0.680065  1
  H  H52  1  0.666667  0.333333  0.871323  1
  H  H53  1  0.333333  0.666667  0.371323  1
