# generated using pymatgen
data_LiV2(PO3)5
_symmetry_space_group_name_H-M   'P 1'
_cell_length_a   5.36153202
_cell_length_b   8.89918559
_cell_length_c   13.62082135
_cell_angle_alpha   90.00000000
_cell_angle_beta   110.79060928
_cell_angle_gamma   90.00000000
_symmetry_Int_Tables_number   1
_chemical_formula_structural   LiV2(PO3)5
_chemical_formula_sum   'Li2 V4 P10 O30'
_cell_volume   607.57532748
_cell_formula_units_Z   2
loop_
 _symmetry_equiv_pos_site_id
 _symmetry_equiv_pos_as_xyz
  1  'x, y, z'
loop_
 _atom_site_type_symbol
 _atom_site_label
 _atom_site_symmetry_multiplicity
 _atom_site_fract_x
 _atom_site_fract_y
 _atom_site_fract_z
 _atom_site_occupancy
  Li  Li0  1  0.112402  0.993725  0.543359  1
  Li  Li1  1  0.112402  0.006275  0.043359  1
  V  V2  1  0.067376  0.304830  0.942121  1
  V  V3  1  0.926853  0.304583  0.554514  1
  V  V4  1  0.067376  0.695170  0.442121  1
  V  V5  1  0.926853  0.695417  0.054514  1
  P  P6  1  0.319952  0.815277  0.913407  1
  P  P7  1  0.461087  0.511406  0.856523  1
  P  P8  1  0.003036  0.037566  0.749303  1
  P  P9  1  0.537188  0.512938  0.642367  1
  P  P10  1  0.675087  0.819718  0.586186  1
  P  P11  1  0.319952  0.184723  0.413407  1
  P  P12  1  0.461087  0.488594  0.356523  1
  P  P13  1  0.003036  0.962434  0.249303  1
  P  P14  1  0.537188  0.487062  0.142367  1
  P  P15  1  0.675087  0.180282  0.086186  1
  O  O16  1  0.118098  0.827530  0.966610  1
  O  O17  1  0.607563  0.842819  0.976962  1
  O  O18  1  0.738448  0.515242  0.940630  1
  O  O19  1  0.277057  0.649807  0.863218  1
  O  O20  1  0.922138  0.126326  0.825840  1
  O  O21  1  0.296420  0.373526  0.847521  1
  O  O22  1  0.240105  0.919998  0.810455  1
  O  O23  1  0.498672  0.553092  0.749436  1
  O  O24  1  0.755503  0.924097  0.688802  1
  O  O25  1  0.708432  0.377620  0.652141  1
  O  O26  1  0.088679  0.111407  0.666443  1
  O  O27  1  0.715041  0.654146  0.635028  1
  O  O28  1  0.260427  0.515704  0.558023  1
  O  O29  1  0.383195  0.848811  0.526068  1
  O  O30  1  0.871844  0.829503  0.530644  1
  O  O31  1  0.118098  0.172470  0.466610  1
  O  O32  1  0.607563  0.157181  0.476962  1
  O  O33  1  0.738448  0.484758  0.440630  1
  O  O34  1  0.277057  0.350193  0.363218  1
  O  O35  1  0.922138  0.873674  0.325840  1
  O  O36  1  0.296420  0.626474  0.347521  1
  O  O37  1  0.240105  0.080002  0.310455  1
  O  O38  1  0.498672  0.446908  0.249436  1
  O  O39  1  0.755503  0.075903  0.188802  1
  O  O40  1  0.708432  0.622380  0.152141  1
  O  O41  1  0.088679  0.888593  0.166443  1
  O  O42  1  0.715041  0.345854  0.135028  1
  O  O43  1  0.260427  0.484296  0.058023  1
  O  O44  1  0.383195  0.151189  0.026068  1
  O  O45  1  0.871844  0.170497  0.030644  1
