# generated using pymatgen
data_LiV3OF11
_symmetry_space_group_name_H-M   'P 1'
_cell_length_a   5.28681345
_cell_length_b   5.45257560
_cell_length_c   15.46025628
_cell_angle_alpha   80.23247953
_cell_angle_beta   89.90826031
_cell_angle_gamma   89.51882717
_symmetry_Int_Tables_number   1
_chemical_formula_structural   LiV3OF11
_chemical_formula_sum   'Li2 V6 O2 F22'
_cell_volume   439.19313217
_cell_formula_units_Z   2
loop_
 _symmetry_equiv_pos_site_id
 _symmetry_equiv_pos_as_xyz
  1  'x, y, z'
loop_
 _atom_site_type_symbol
 _atom_site_label
 _atom_site_symmetry_multiplicity
 _atom_site_fract_x
 _atom_site_fract_y
 _atom_site_fract_z
 _atom_site_occupancy
  Li  Li0  1  0.812932  0.699880  0.160687  1
  Li  Li1  1  0.230721  0.185655  0.176566  1
  V  V2  1  0.472793  0.858587  0.339696  1
  V  V3  1  0.012966  0.008439  0.998598  1
  V  V4  1  0.000574  0.666453  0.667279  1
  V  V5  1  0.505377  0.506260  0.989502  1
  V  V6  1  0.001612  0.327657  0.344378  1
  V  V7  1  0.500456  0.166324  0.667332  1
  O  O8  1  0.069120  0.959297  0.108768  1
  O  O9  1  0.281483  0.123435  0.312425  1
  F  F10  1  0.199013  0.975663  0.644543  1
  F  F11  1  0.314702  0.811884  0.970757  1
  F  F12  1  0.698824  0.855631  0.690810  1
  F  F13  1  0.087054  0.624445  0.779065  1
  F  F14  1  0.434366  0.761151  0.454978  1
  F  F15  1  0.920438  0.707929  0.554579  1
  F  F16  1  0.576134  0.876710  0.218422  1
  F  F17  1  0.600909  0.539373  0.880265  1
  F  F18  1  0.203237  0.627699  0.315197  1
  F  F19  1  0.302415  0.475950  0.643349  1
  F  F20  1  0.203408  0.325458  0.969948  1
  F  F21  1  0.794608  0.682431  0.027713  1
  F  F22  1  0.710433  0.536676  0.351113  1
  F  F23  1  0.801105  0.358206  0.689250  1
  F  F24  1  0.414260  0.458203  0.108221  1
  F  F25  1  0.085034  0.290623  0.454915  1
  F  F26  1  0.415742  0.128932  0.779083  1
  F  F27  1  0.940855  0.379673  0.220277  1
  F  F28  1  0.583940  0.201141  0.554912  1
  F  F29  1  0.897631  0.026944  0.887324  1
  F  F30  1  0.691150  0.200020  0.019437  1
  F  F31  1  0.788405  0.040381  0.359265  1
