# generated using pymatgen
data_Hf2N2O
_symmetry_space_group_name_H-M   'P 1'
_cell_length_a   14.39928109
_cell_length_b   14.39928109
_cell_length_c   14.39928109
_cell_angle_alpha   154.22856425
_cell_angle_beta   154.22856425
_cell_angle_gamma   36.76747589
_symmetry_Int_Tables_number   1
_chemical_formula_structural   Hf2N2O
_chemical_formula_sum   'Hf16 N16 O8'
_cell_volume   563.59920477
_cell_formula_units_Z   8
loop_
 _symmetry_equiv_pos_site_id
 _symmetry_equiv_pos_as_xyz
  1  'x, y, z'
loop_
 _atom_site_type_symbol
 _atom_site_label
 _atom_site_symmetry_multiplicity
 _atom_site_fract_x
 _atom_site_fract_y
 _atom_site_fract_z
 _atom_site_occupancy
  Hf  Hf0  1  0.875000  0.625000  0.750000  1
  Hf  Hf1  1  0.875000  0.125000  0.250000  1
  Hf  Hf2  1  0.875000  0.125000  0.750000  1
  Hf  Hf3  1  0.043408  0.792439  0.250968  1
  Hf  Hf4  1  0.207561  0.956592  0.749032  1
  Hf  Hf5  1  0.081678  0.581678  0.500000  1
  Hf  Hf6  1  0.207561  0.458529  0.250968  1
  Hf  Hf7  1  0.331678  0.331678  0.000000  1
  Hf  Hf8  1  0.541471  0.792439  0.749032  1
  Hf  Hf9  1  0.375000  0.125000  0.250000  1
  Hf  Hf10  1  0.208529  0.457561  0.750968  1
  Hf  Hf11  1  0.418322  0.918322  0.500000  1
  Hf  Hf12  1  0.668322  0.668322  0.000000  1
  Hf  Hf13  1  0.542439  0.293408  0.750968  1
  Hf  Hf14  1  0.542439  0.791471  0.249032  1
  Hf  Hf15  1  0.706592  0.457561  0.249032  1
  N  N16  1  0.110469  0.873964  0.236506  1
  N  N17  1  0.978041  0.712219  0.265822  1
  N  N18  1  0.287781  0.553603  0.265822  1
  N  N19  1  0.287781  0.021959  0.734178  1
  N  N20  1  0.126036  0.362542  0.236506  1
  N  N21  1  0.126036  0.889531  0.763494  1
  N  N22  1  0.446397  0.712219  0.734178  1
  N  N23  1  0.112542  0.376036  0.736506  1
  N  N24  1  0.637458  0.873964  0.763494  1
  N  N25  1  0.303603  0.537781  0.765822  1
  N  N26  1  0.623964  0.360469  0.736506  1
  N  N27  1  0.462219  0.228041  0.765822  1
  N  N28  1  0.462219  0.696397  0.234178  1
  N  N29  1  0.623964  0.887458  0.263494  1
  N  N30  1  0.771959  0.537781  0.234178  1
  N  N31  1  0.639531  0.376036  0.263494  1
  O  O32  1  0.992767  0.200520  0.792248  1
  O  O33  1  0.950520  0.242767  0.292248  1
  O  O34  1  0.950520  0.658272  0.707752  1
  O  O35  1  0.408272  0.200520  0.207752  1
  O  O36  1  0.341728  0.049480  0.292248  1
  O  O37  1  0.799480  0.591728  0.792248  1
  O  O38  1  0.799480  0.007233  0.207752  1
  O  O39  1  0.757233  0.049480  0.707752  1
