# generated using pymatgen
data_Ho2Sb2O7
_symmetry_space_group_name_H-M   'P 1'
_cell_length_a   7.52883979
_cell_length_b   7.52883979
_cell_length_c   18.52611989
_cell_angle_alpha   90.00000000
_cell_angle_beta   90.00000000
_cell_angle_gamma   120.00000000
_symmetry_Int_Tables_number   1
_chemical_formula_structural   Ho2Sb2O7
_chemical_formula_sum   'Ho12 Sb12 O42'
_cell_volume   909.43405521
_cell_formula_units_Z   6
loop_
 _symmetry_equiv_pos_site_id
 _symmetry_equiv_pos_as_xyz
  1  'x, y, z'
loop_
 _atom_site_type_symbol
 _atom_site_label
 _atom_site_symmetry_multiplicity
 _atom_site_fract_x
 _atom_site_fract_y
 _atom_site_fract_z
 _atom_site_occupancy
  Ho  Ho0  1  0.000000  0.825814  0.666667  1
  Ho  Ho1  1  0.000000  0.836403  0.166667  1
  Ho  Ho2  1  0.182057  0.683628  0.011279  1
  Ho  Ho3  1  0.174186  0.174186  0.000000  1
  Ho  Ho4  1  0.501572  0.817943  0.677945  1
  Ho  Ho5  1  0.163597  0.163597  0.500000  1
  Ho  Ho6  1  0.316372  0.498428  0.344612  1
  Ho  Ho7  1  0.498428  0.316372  0.655388  1
  Ho  Ho8  1  0.683628  0.182057  0.988721  1
  Ho  Ho9  1  0.817943  0.501572  0.322055  1
  Ho  Ho10  1  0.836403  0.000000  0.833333  1
  Ho  Ho11  1  0.825814  0.000000  0.333333  1
  Sb  Sb12  1  0.000000  0.328562  0.166667  1
  Sb  Sb13  1  0.000000  0.300511  0.666667  1
  Sb  Sb14  1  0.167468  0.669164  0.501248  1
  Sb  Sb15  1  0.501696  0.832532  0.167915  1
  Sb  Sb16  1  0.330836  0.498304  0.834582  1
  Sb  Sb17  1  0.300511  0.000000  0.333333  1
  Sb  Sb18  1  0.671438  0.671438  0.500000  1
  Sb  Sb19  1  0.328562  0.000000  0.833333  1
  Sb  Sb20  1  0.699489  0.699489  0.000000  1
  Sb  Sb21  1  0.498304  0.330836  0.165418  1
  Sb  Sb22  1  0.669164  0.167468  0.498752  1
  Sb  Sb23  1  0.832532  0.501696  0.832085  1
  O  O24  1  0.016540  0.851672  0.284496  1
  O  O25  1  0.991365  0.800300  0.803027  1
  O  O26  1  0.106001  0.656409  0.394267  1
  O  O27  1  0.044517  0.426364  0.807442  1
  O  O28  1  0.329323  0.993608  0.956747  1
  O  O29  1  0.233193  0.692514  0.606341  1
  O  O30  1  0.006392  0.335715  0.290080  1
  O  O31  1  0.201225  0.676485  0.139144  1
  O  O32  1  0.381847  0.955483  0.474109  1
  O  O33  1  0.459321  0.766807  0.273008  1
  O  O34  1  0.475260  0.798775  0.805810  1
  O  O35  1  0.343591  0.449592  0.727600  1
  O  O36  1  0.148328  0.164868  0.617830  1
  O  O37  1  0.323515  0.524740  0.472477  1
  O  O38  1  0.199700  0.191065  0.136360  1
  O  O39  1  0.164868  0.148328  0.382170  1
  O  O40  1  0.307486  0.540679  0.939674  1
  O  O41  1  0.191065  0.199700  0.863640  1
  O  O42  1  0.550408  0.893999  0.060933  1
  O  O43  1  0.573636  0.618153  0.140776  1
  O  O44  1  0.808935  0.008635  0.469694  1
  O  O45  1  0.664285  0.670677  0.623414  1
  O  O46  1  0.449592  0.343591  0.272400  1
  O  O47  1  0.618153  0.573636  0.859224  1
  O  O48  1  0.335715  0.006392  0.709920  1
  O  O49  1  0.835132  0.983460  0.951163  1
  O  O50  1  0.540679  0.307486  0.060326  1
  O  O51  1  0.670677  0.664285  0.376586  1
  O  O52  1  0.524740  0.323515  0.527523  1
  O  O53  1  0.426364  0.044517  0.192558  1
  O  O54  1  0.692514  0.233193  0.393659  1
  O  O55  1  0.676485  0.201225  0.860856  1
  O  O56  1  0.893999  0.550408  0.939067  1
  O  O57  1  0.983460  0.835132  0.048837  1
  O  O58  1  0.798775  0.475260  0.194190  1
  O  O59  1  0.008635  0.808935  0.530306  1
  O  O60  1  0.766807  0.459321  0.726992  1
  O  O61  1  0.656409  0.106001  0.605733  1
  O  O62  1  0.955483  0.381847  0.525891  1
  O  O63  1  0.800300  0.991365  0.196973  1
  O  O64  1  0.993608  0.329323  0.043253  1
  O  O65  1  0.851672  0.016540  0.715504  1
