# generated using pymatgen
data_NaBi5O8
_symmetry_space_group_name_H-M   'P 1'
_cell_length_a   7.52857375
_cell_length_b   7.77174988
_cell_length_c   10.10668235
_cell_angle_alpha   71.53933769
_cell_angle_beta   73.72507481
_cell_angle_gamma   81.30096336
_symmetry_Int_Tables_number   1
_chemical_formula_structural   NaBi5O8
_chemical_formula_sum   'Na2 Bi10 O16'
_cell_volume   537.16711295
_cell_formula_units_Z   2
loop_
 _symmetry_equiv_pos_site_id
 _symmetry_equiv_pos_as_xyz
  1  'x, y, z'
loop_
 _atom_site_type_symbol
 _atom_site_label
 _atom_site_symmetry_multiplicity
 _atom_site_fract_x
 _atom_site_fract_y
 _atom_site_fract_z
 _atom_site_occupancy
  Na  Na0  1  0.741522  0.416111  0.973563  1
  Na  Na1  1  0.258478  0.583889  0.026437  1
  Bi  Bi2  1  0.752339  0.936767  0.965360  1
  Bi  Bi3  1  0.548640  0.825559  0.718603  1
  Bi  Bi4  1  0.543271  0.398482  0.678944  1
  Bi  Bi5  1  0.122514  0.753347  0.659082  1
  Bi  Bi6  1  0.048578  0.303015  0.656867  1
  Bi  Bi7  1  0.951422  0.696985  0.343133  1
  Bi  Bi8  1  0.877486  0.246653  0.340918  1
  Bi  Bi9  1  0.456729  0.601518  0.321056  1
  Bi  Bi10  1  0.451360  0.174441  0.281397  1
  Bi  Bi11  1  0.247661  0.063233  0.034640  1
  O  O12  1  0.500700  0.913956  0.911171  1
  O  O13  1  0.842650  0.809258  0.786167  1
  O  O14  1  0.807805  0.203972  0.831737  1
  O  O15  1  0.535588  0.548793  0.832212  1
  O  O16  1  0.236955  0.842456  0.792250  1
  O  O17  1  0.099224  0.466350  0.775146  1
  O  O18  1  0.828270  0.465360  0.565118  1
  O  O19  1  0.451578  0.659990  0.554270  1
  O  O20  1  0.548422  0.340010  0.445730  1
  O  O21  1  0.171730  0.534640  0.434882  1
  O  O22  1  0.900776  0.533650  0.224854  1
  O  O23  1  0.763045  0.157544  0.207750  1
  O  O24  1  0.464412  0.451207  0.167788  1
  O  O25  1  0.192195  0.796028  0.168263  1
  O  O26  1  0.157350  0.190742  0.213833  1
  O  O27  1  0.499300  0.086044  0.088829  1
