# generated using pymatgen
data_V3Cr2Ni(PO4)6
_symmetry_space_group_name_H-M   'P 1'
_cell_length_a   8.46129050
_cell_length_b   8.46129050
_cell_length_c   8.46129050
_cell_angle_alpha   61.12618066
_cell_angle_beta   61.12618066
_cell_angle_gamma   61.12618066
_symmetry_Int_Tables_number   1
_chemical_formula_structural   V3Cr2Ni(PO4)6
_chemical_formula_sum   'V3 Cr2 Ni1 P6 O24'
_cell_volume   439.20267459
_cell_formula_units_Z   1
loop_
 _symmetry_equiv_pos_site_id
 _symmetry_equiv_pos_as_xyz
  1  'x, y, z'
loop_
 _atom_site_type_symbol
 _atom_site_label
 _atom_site_symmetry_multiplicity
 _atom_site_fract_x
 _atom_site_fract_y
 _atom_site_fract_z
 _atom_site_occupancy
  V  V0  1  0.645010  0.645010  0.645010  1
  V  V1  1  0.857044  0.857044  0.857044  1
  V  V2  1  0.356035  0.356035  0.356035  1
  Cr  Cr3  1  0.001415  0.001415  0.001415  1
  Cr  Cr4  1  0.501108  0.501108  0.501108  1
  Ni  Ni5  1  0.143783  0.143783  0.143783  1
  P  P6  1  0.955731  0.248001  0.545492  1
  P  P7  1  0.545492  0.955731  0.248001  1
  P  P8  1  0.248001  0.545492  0.955731  1
  P  P9  1  0.750277  0.454443  0.044178  1
  P  P10  1  0.454443  0.044178  0.750277  1
  P  P11  1  0.044178  0.750277  0.454443  1
  O  O12  1  0.504069  0.113731  0.316580  1
  O  O13  1  0.316580  0.504069  0.113731  1
  O  O14  1  0.113731  0.316580  0.504069  1
  O  O15  1  0.941989  0.092270  0.749701  1
  O  O16  1  0.984541  0.182380  0.395708  1
  O  O17  1  0.754117  0.410606  0.569864  1
  O  O18  1  0.749701  0.941989  0.092270  1
  O  O19  1  0.569864  0.754117  0.410606  1
  O  O20  1  0.817003  0.610096  0.004672  1
  O  O21  1  0.410606  0.569864  0.754117  1
  O  O22  1  0.904592  0.254959  0.051385  1
  O  O23  1  0.610096  0.004672  0.817003  1
  O  O24  1  0.395708  0.984541  0.182380  1
  O  O25  1  0.092270  0.749701  0.941989  1
  O  O26  1  0.589476  0.439571  0.243991  1
  O  O27  1  0.182380  0.395708  0.984541  1
  O  O28  1  0.439571  0.243991  0.589476  1
  O  O29  1  0.254959  0.051385  0.904592  1
  O  O30  1  0.243991  0.589476  0.439571  1
  O  O31  1  0.004672  0.817003  0.610096  1
  O  O32  1  0.051385  0.904592  0.254959  1
  O  O33  1  0.887504  0.673043  0.505633  1
  O  O34  1  0.673043  0.505633  0.887504  1
  O  O35  1  0.505633  0.887504  0.673043  1
