# generated using pymatgen
data_Fe10O9F11
_symmetry_space_group_name_H-M   'P 1'
_cell_length_a   4.75083076
_cell_length_b   4.76354456
_cell_length_c   15.55150873
_cell_angle_alpha   90.34347869
_cell_angle_beta   90.36452132
_cell_angle_gamma   91.30000471
_symmetry_Int_Tables_number   1
_chemical_formula_structural   Fe10O9F11
_chemical_formula_sum   'Fe10 O9 F11'
_cell_volume   351.83864837
_cell_formula_units_Z   1
loop_
 _symmetry_equiv_pos_site_id
 _symmetry_equiv_pos_as_xyz
  1  'x, y, z'
loop_
 _atom_site_type_symbol
 _atom_site_label
 _atom_site_symmetry_multiplicity
 _atom_site_fract_x
 _atom_site_fract_y
 _atom_site_fract_z
 _atom_site_occupancy
  Fe  Fe0  1  0.998943  0.001275  0.000613  1
  Fe  Fe1  1  0.974726  0.956779  0.206274  1
  Fe  Fe2  1  0.048671  0.002204  0.400890  1
  Fe  Fe3  1  0.043183  0.993531  0.597990  1
  Fe  Fe4  1  0.032722  0.013745  0.793989  1
  Fe  Fe5  1  0.515911  0.508539  0.093269  1
  Fe  Fe6  1  0.463161  0.496703  0.499827  1
  Fe  Fe7  1  0.472502  0.519201  0.297831  1
  Fe  Fe8  1  0.457754  0.503143  0.702218  1
  Fe  Fe9  1  0.490444  0.482967  0.907772  1
  O  O10  1  0.186983  0.805769  0.300506  1
  O  O11  1  0.202025  0.810230  0.499230  1
  O  O12  1  0.194244  0.812028  0.699395  1
  O  O13  1  0.307694  0.302789  0.003346  1
  O  O14  1  0.314327  0.315596  0.397045  1
  O  O15  1  0.308184  0.312458  0.600349  1
  O  O16  1  0.310782  0.313131  0.802271  1
  O  O17  1  0.697000  0.691116  0.997569  1
  O  O18  1  0.677826  0.679130  0.200591  1
  F  F19  1  0.190987  0.793300  0.108419  1
  F  F20  1  0.201143  0.803987  0.892428  1
  F  F21  1  0.286155  0.289241  0.200479  1
  F  F22  1  0.700701  0.704943  0.400728  1
  F  F23  1  0.699324  0.702925  0.599270  1
  F  F24  1  0.703643  0.706732  0.797793  1
  F  F25  1  0.799124  0.187690  0.110769  1
  F  F26  1  0.810109  0.199196  0.499141  1
  F  F27  1  0.799326  0.193569  0.301790  1
  F  F28  1  0.807112  0.195682  0.890047  1
  F  F29  1  0.805294  0.202398  0.698162  1
