# generated using pymatgen
data_Ca2FeP2(H2O3)4
_symmetry_space_group_name_H-M   'P 1'
_cell_length_a   5.98505332
_cell_length_b   6.46598752
_cell_length_c   6.89970001
_cell_angle_alpha   70.68889981
_cell_angle_beta   78.08335661
_cell_angle_gamma   75.94755591
_symmetry_Int_Tables_number   1
_chemical_formula_structural   Ca2FeP2(H2O3)4
_chemical_formula_sum   'Ca2 Fe1 P2 H8 O12'
_cell_volume   242.11593397
_cell_formula_units_Z   1
loop_
 _symmetry_equiv_pos_site_id
 _symmetry_equiv_pos_as_xyz
  1  'x, y, z'
loop_
 _atom_site_type_symbol
 _atom_site_label
 _atom_site_symmetry_multiplicity
 _atom_site_fract_x
 _atom_site_fract_y
 _atom_site_fract_z
 _atom_site_occupancy
  Ca  Ca0  1  0.709896  0.654623  0.789791  1
  Ca  Ca1  1  0.290104  0.345377  0.210209  1
  Fe  Fe2  1  0.000000  0.000000  0.000000  1
  P  P3  1  0.770324  0.569246  0.282787  1
  P  P4  1  0.229676  0.430754  0.717213  1
  H  H5  1  0.676314  0.951263  0.319013  1
  H  H6  1  0.236755  0.816222  0.716562  1
  H  H7  1  0.180301  0.856265  0.376295  1
  H  H8  1  0.373261  0.844107  0.189797  1
  H  H9  1  0.626739  0.155893  0.810203  1
  H  H10  1  0.819699  0.143735  0.623705  1
  H  H11  1  0.763245  0.183778  0.283438  1
  H  H12  1  0.323686  0.048737  0.680987  1
  O  O13  1  0.312098  0.896109  0.783564  1
  O  O14  1  0.235636  0.950436  0.233888  1
  O  O15  1  0.680898  0.692170  0.448337  1
  O  O16  1  0.976830  0.670560  0.127308  1
  O  O17  1  0.122631  0.681788  0.624197  1
  O  O18  1  0.426481  0.401884  0.846952  1
  O  O19  1  0.573519  0.598116  0.153048  1
  O  O20  1  0.877369  0.318212  0.375803  1
  O  O21  1  0.023170  0.329440  0.872692  1
  O  O22  1  0.319102  0.307830  0.551663  1
  O  O23  1  0.764364  0.049564  0.766112  1
  O  O24  1  0.687902  0.103891  0.216436  1
