# generated using pymatgen
data_LiVSiO4
_symmetry_space_group_name_H-M   'P 1'
_cell_length_a   5.07411605
_cell_length_b   6.86368870
_cell_length_c   10.50071175
_cell_angle_alpha   90.00000000
_cell_angle_beta   90.00000000
_cell_angle_gamma   90.00000000
_symmetry_Int_Tables_number   1
_chemical_formula_structural   LiVSiO4
_chemical_formula_sum   'Li4 V4 Si4 O16'
_cell_volume   365.70989467
_cell_formula_units_Z   4
loop_
 _symmetry_equiv_pos_site_id
 _symmetry_equiv_pos_as_xyz
  1  'x, y, z'
loop_
 _atom_site_type_symbol
 _atom_site_label
 _atom_site_symmetry_multiplicity
 _atom_site_fract_x
 _atom_site_fract_y
 _atom_site_fract_z
 _atom_site_occupancy
  Li  Li0  1  0.756056  0.996113  0.149643  1
  Li  Li1  1  0.256056  0.496113  0.350357  1
  Li  Li2  1  0.756056  0.503887  0.649643  1
  Li  Li3  1  0.256056  0.003887  0.850357  1
  V  V4  1  0.754518  0.489801  0.166900  1
  V  V5  1  0.254518  0.989801  0.333100  1
  V  V6  1  0.754518  0.010199  0.666900  1
  V  V7  1  0.254518  0.510199  0.833100  1
  Si  Si8  1  0.250243  0.739397  0.095054  1
  Si  Si9  1  0.750243  0.239397  0.404946  1
  Si  Si10  1  0.250243  0.760603  0.595054  1
  Si  Si11  1  0.750243  0.260603  0.904946  1
  O  O12  1  0.810790  0.264221  0.058702  1
  O  O13  1  0.930667  0.732648  0.123915  1
  O  O14  1  0.370172  0.939377  0.159582  1
  O  O15  1  0.381700  0.550202  0.168576  1
  O  O16  1  0.881700  0.050202  0.331424  1
  O  O17  1  0.870172  0.439377  0.340418  1
  O  O18  1  0.430667  0.232648  0.376085  1
  O  O19  1  0.310790  0.764221  0.441298  1
  O  O20  1  0.810790  0.235779  0.558702  1
  O  O21  1  0.930667  0.767352  0.623915  1
  O  O22  1  0.370172  0.560623  0.659582  1
  O  O23  1  0.381700  0.949798  0.668576  1
  O  O24  1  0.881700  0.449798  0.831424  1
  O  O25  1  0.870172  0.060623  0.840418  1
  O  O26  1  0.430667  0.267352  0.876085  1
  O  O27  1  0.310790  0.735779  0.941298  1
