# generated using pymatgen
data_Li2VO2F
_symmetry_space_group_name_H-M   'P 1'
_cell_length_a   8.94934353
_cell_length_b   3.02449526
_cell_length_c   9.10033280
_cell_angle_alpha   90.00000000
_cell_angle_beta   109.64952963
_cell_angle_gamma   90.00000000
_symmetry_Int_Tables_number   1
_chemical_formula_structural   Li2VO2F
_chemical_formula_sum   'Li8 V4 O8 F4'
_cell_volume   231.97697759
_cell_formula_units_Z   4
loop_
 _symmetry_equiv_pos_site_id
 _symmetry_equiv_pos_as_xyz
  1  'x, y, z'
loop_
 _atom_site_type_symbol
 _atom_site_label
 _atom_site_symmetry_multiplicity
 _atom_site_fract_x
 _atom_site_fract_y
 _atom_site_fract_z
 _atom_site_occupancy
  Li  Li0  1  0.255661  0.000000  0.119621  1
  Li  Li1  1  0.736112  0.000000  0.583060  1
  Li  Li2  1  0.256029  0.000000  0.378541  1
  Li  Li3  1  0.750221  0.000000  0.915354  1
  Li  Li4  1  0.473493  0.500000  0.328053  1
  Li  Li5  1  0.026992  0.500000  0.164066  1
  Li  Li6  1  0.506048  0.500000  0.659397  1
  Li  Li7  1  0.002306  0.500000  0.863427  1
  V  V8  1  0.257042  0.000000  0.754911  1
  V  V9  1  0.747000  0.000000  0.247864  1
  V  V10  1  0.002237  0.500000  0.479314  1
  V  V11  1  0.498928  0.500000  0.002824  1
  O  O12  1  0.509405  0.000000  0.158829  1
  O  O13  1  0.991144  0.000000  0.337482  1
  O  O14  1  0.496487  0.000000  0.842928  1
  O  O15  1  0.254365  0.500000  0.904122  1
  O  O16  1  0.232706  0.500000  0.601447  1
  O  O17  1  0.740934  0.500000  0.091657  1
  O  O18  1  0.764794  0.500000  0.412428  1
  O  O19  1  0.249593  0.500000  0.250027  1
  F  F20  1  0.997390  0.000000  0.656719  1
  F  F21  1  0.987693  0.000000  0.988784  1
  F  F22  1  0.507671  0.000000  0.511635  1
  F  F23  1  0.755747  0.500000  0.747511  1
