# generated using pymatgen
data_Li5Mn6(BO3)6
_symmetry_space_group_name_H-M   'P 1'
_cell_length_a   8.83475247
_cell_length_b   8.87872495
_cell_length_c   10.43447635
_cell_angle_alpha   98.22384002
_cell_angle_beta   98.71572299
_cell_angle_gamma   108.44315992
_symmetry_Int_Tables_number   1
_chemical_formula_structural   Li5Mn6(BO3)6
_chemical_formula_sum   'Li10 Mn12 B12 O36'
_cell_volume   751.40130069
_cell_formula_units_Z   2
loop_
 _symmetry_equiv_pos_site_id
 _symmetry_equiv_pos_as_xyz
  1  'x, y, z'
loop_
 _atom_site_type_symbol
 _atom_site_label
 _atom_site_symmetry_multiplicity
 _atom_site_fract_x
 _atom_site_fract_y
 _atom_site_fract_z
 _atom_site_occupancy
  Li  Li0  1  0.810299  0.097670  0.795391  1
  Li  Li1  1  0.466023  0.488765  0.768872  1
  Li  Li2  1  0.224157  0.234811  0.519987  1
  Li  Li3  1  0.832246  0.541289  0.554437  1
  Li  Li4  1  0.561639  0.839532  0.544667  1
  Li  Li5  1  0.591253  0.292068  0.309156  1
  Li  Li6  1  0.973747  0.985366  0.272807  1
  Li  Li7  1  0.343527  0.048357  0.065301  1
  Li  Li8  1  0.066881  0.348455  0.044811  1
  Li  Li9  1  0.718299  0.741701  0.020634  1
  Mn  Mn10  1  0.185692  0.164339  0.824862  1
  Mn  Mn11  1  0.837756  0.484546  0.841084  1
  Mn  Mn12  1  0.471254  0.851236  0.837639  1
  Mn  Mn13  1  0.587067  0.224039  0.595818  1
  Mn  Mn14  1  0.216256  0.601358  0.588552  1
  Mn  Mn15  1  0.935707  0.923437  0.574275  1
  Mn  Mn16  1  0.340088  0.952357  0.350403  1
  Mn  Mn17  1  0.992507  0.350344  0.332165  1
  Mn  Mn18  1  0.681738  0.679307  0.315771  1
  Mn  Mn19  1  0.089499  0.729450  0.087082  1
  Mn  Mn20  1  0.727490  0.106772  0.085469  1
  Mn  Mn21  1  0.435277  0.429584  0.070857  1
  B  B22  1  0.540432  0.210308  0.873127  1
  B  B23  1  0.209417  0.532066  0.867557  1
  B  B24  1  0.738493  0.749889  0.747663  1
  B  B25  1  0.965535  0.293310  0.627259  1
  B  B26  1  0.287168  0.949714  0.615922  1
  B  B27  1  0.500020  0.500193  0.502179  1
  B  B28  1  0.047926  0.711813  0.384574  1
  B  B29  1  0.710340  0.042040  0.371911  1
  B  B30  1  0.250304  0.232837  0.251151  1
  B  B31  1  0.794887  0.465897  0.125321  1
  B  B32  1  0.460753  0.801541  0.126138  1
  B  B33  1  0.996639  0.007561  0.007415  1
  O  O34  1  0.999672  0.126069  0.931533  1
  O  O35  1  0.422357  0.200191  0.948353  1
  O  O36  1  0.090519  0.532638  0.939672  1
  O  O37  1  0.295843  0.428553  0.881384  1
  O  O38  1  0.626799  0.103537  0.876911  1
  O  O39  1  0.573886  0.324635  0.793315  1
  O  O40  1  0.248983  0.639177  0.781810  1
  O  O41  1  0.626799  0.717710  0.830809  1
  O  O42  1  0.052798  0.190013  0.631506  1
  O  O43  1  0.836856  0.277978  0.691330  1
  O  O44  1  0.173876  0.954625  0.688870  1
  O  O45  1  0.827425  0.650466  0.725636  1
  O  O46  1  0.328086  0.058919  0.530281  1
  O  O47  1  0.755654  0.882342  0.685132  1
  O  O48  1  0.367733  0.836501  0.621930  1
  O  O49  1  0.376477  0.464059  0.574947  1
  O  O50  1  0.003348  0.417581  0.554258  1
  O  O51  1  0.577687  0.016741  0.436812  1
  O  O52  1  0.595827  0.401114  0.488612  1
  O  O53  1  0.139324  0.610942  0.402651  1
  O  O54  1  0.532393  0.633828  0.445915  1
  O  O55  1  0.134251  0.204443  0.330943  1
  O  O56  1  0.915407  0.698483  0.442201  1
  O  O57  1  0.095117  0.829100  0.307716  1
  O  O58  1  0.745377  0.165884  0.302847  1
  O  O59  1  0.359932  0.148114  0.254673  1
  O  O60  1  0.802123  0.942655  0.382246  1
  O  O61  1  0.252926  0.341118  0.168862  1
  O  O62  1  0.668939  0.451709  0.193449  1
  O  O63  1  0.339553  0.796392  0.198867  1
  O  O64  1  0.543825  0.693905  0.130051  1
  O  O65  1  0.885348  0.362839  0.134354  1
  O  O66  1  0.111292  0.933180  0.010337  1
  O  O67  1  0.831755  0.582534  0.047631  1
  O  O68  1  0.491151  0.915592  0.047181  1
  O  O69  1  0.876254  0.966720  0.082637  1
