# generated using pymatgen
data_Li4Co7(OF7)2
_symmetry_space_group_name_H-M   'P 1'
_cell_length_a   6.05637059
_cell_length_b   6.19164764
_cell_length_c   10.46647870
_cell_angle_alpha   106.96038805
_cell_angle_beta   89.13423580
_cell_angle_gamma   119.16824214
_symmetry_Int_Tables_number   1
_chemical_formula_structural   Li4Co7(OF7)2
_chemical_formula_sum   'Li4 Co7 O2 F14'
_cell_volume   323.99062151
_cell_formula_units_Z   1
loop_
 _symmetry_equiv_pos_site_id
 _symmetry_equiv_pos_as_xyz
  1  'x, y, z'
loop_
 _atom_site_type_symbol
 _atom_site_label
 _atom_site_symmetry_multiplicity
 _atom_site_fract_x
 _atom_site_fract_y
 _atom_site_fract_z
 _atom_site_occupancy
  Li  Li0  1  0.461842  0.585265  0.321175  1
  Li  Li1  1  0.030189  0.887971  0.188142  1
  Li  Li2  1  0.538158  0.414735  0.678825  1
  Li  Li3  1  0.969811  0.112029  0.811858  1
  Co  Co4  1  0.500000  0.000000  0.000000  1
  Co  Co5  1  0.741275  0.261622  0.245936  1
  Co  Co6  1  0.000000  0.500000  0.000000  1
  Co  Co7  1  0.000000  0.000000  0.500000  1
  Co  Co8  1  0.500000  0.500000  0.000000  1
  Co  Co9  1  0.000000  0.500000  0.500000  1
  Co  Co10  1  0.258725  0.738378  0.754064  1
  O  O11  1  0.162002  0.426563  0.890288  1
  O  O12  1  0.837998  0.573437  0.109712  1
  F  F13  1  0.146530  0.885488  0.878807  1
  F  F14  1  0.371701  0.108787  0.121585  1
  F  F15  1  0.906352  0.149033  0.614718  1
  F  F16  1  0.664949  0.917416  0.368698  1
  F  F17  1  0.617021  0.353967  0.877637  1
  F  F18  1  0.382979  0.646033  0.122363  1
  F  F19  1  0.658438  0.396931  0.372178  1
  F  F20  1  0.118879  0.372405  0.376696  1
  F  F21  1  0.628299  0.891213  0.878415  1
  F  F22  1  0.881121  0.627595  0.623304  1
  F  F23  1  0.341562  0.603069  0.627822  1
  F  F24  1  0.853470  0.114512  0.121193  1
  F  F25  1  0.335051  0.082584  0.631302  1
  F  F26  1  0.093648  0.850967  0.385282  1
