# generated using pymatgen
data_Ti3Fe(PO4)6
_symmetry_space_group_name_H-M   'P 1'
_cell_length_a   8.89232752
_cell_length_b   8.89232752
_cell_length_c   8.89232752
_cell_angle_alpha   58.38575233
_cell_angle_beta   58.38575233
_cell_angle_gamma   58.38575233
_symmetry_Int_Tables_number   1
_chemical_formula_structural   Ti3Fe(PO4)6
_chemical_formula_sum   'Ti3 Fe1 P6 O24'
_cell_volume   478.82828060
_cell_formula_units_Z   1
loop_
 _symmetry_equiv_pos_site_id
 _symmetry_equiv_pos_as_xyz
  1  'x, y, z'
loop_
 _atom_site_type_symbol
 _atom_site_label
 _atom_site_symmetry_multiplicity
 _atom_site_fract_x
 _atom_site_fract_y
 _atom_site_fract_z
 _atom_site_occupancy
  Ti  Ti0  1  0.860628  0.860628  0.860628  1
  Ti  Ti1  1  0.640621  0.640621  0.640621  1
  Ti  Ti2  1  0.359406  0.359406  0.359406  1
  Fe  Fe3  1  0.143170  0.143170  0.143170  1
  P  P4  1  0.251590  0.529744  0.967984  1
  P  P5  1  0.967984  0.251590  0.529744  1
  P  P6  1  0.529744  0.967984  0.251590  1
  P  P7  1  0.464518  0.031404  0.754590  1
  P  P8  1  0.031404  0.754590  0.464518  1
  P  P9  1  0.754590  0.464518  0.031404  1
  O  O10  1  0.720476  0.500824  0.860191  1
  O  O11  1  0.500824  0.860191  0.720476  1
  O  O12  1  0.076329  0.707549  0.939886  1
  O  O13  1  0.860191  0.720476  0.500824  1
  O  O14  1  0.424213  0.565974  0.790026  1
  O  O15  1  0.234648  0.358761  0.986338  1
  O  O16  1  0.939886  0.076329  0.707549  1
  O  O17  1  0.790026  0.424213  0.565974  1
  O  O18  1  0.565974  0.790026  0.424213  1
  O  O19  1  0.636299  0.000830  0.783290  1
  O  O20  1  0.286999  0.051135  0.927204  1
  O  O21  1  0.000830  0.783290  0.636299  1
  O  O22  1  0.986338  0.234648  0.358761  1
  O  O23  1  0.707549  0.939886  0.076329  1
  O  O24  1  0.358761  0.986338  0.234648  1
  O  O25  1  0.434689  0.209940  0.580830  1
  O  O26  1  0.209940  0.580830  0.434689  1
  O  O27  1  0.051135  0.927204  0.286999  1
  O  O28  1  0.783290  0.636299  0.000830  1
  O  O29  1  0.580830  0.434689  0.209940  1
  O  O30  1  0.139323  0.280160  0.500431  1
  O  O31  1  0.927204  0.286999  0.051135  1
  O  O32  1  0.500431  0.139323  0.280160  1
  O  O33  1  0.280160  0.500431  0.139323  1
