# generated using pymatgen
data_LiFe2(BO3)2
_symmetry_space_group_name_H-M   'P 1'
_cell_length_a   5.21721929
_cell_length_b   5.23453052
_cell_length_c   10.29807855
_cell_angle_alpha   90.34066025
_cell_angle_beta   91.45892156
_cell_angle_gamma   119.18352319
_symmetry_Int_Tables_number   1
_chemical_formula_structural   LiFe2(BO3)2
_chemical_formula_sum   'Li2 Fe4 B4 O12'
_cell_volume   245.40384307
_cell_formula_units_Z   2
loop_
 _symmetry_equiv_pos_site_id
 _symmetry_equiv_pos_as_xyz
  1  'x, y, z'
loop_
 _atom_site_type_symbol
 _atom_site_label
 _atom_site_symmetry_multiplicity
 _atom_site_fract_x
 _atom_site_fract_y
 _atom_site_fract_z
 _atom_site_occupancy
  Li  Li0  1  0.667955  0.650589  0.651553  1
  Li  Li1  1  0.346498  0.352246  0.916123  1
  Fe  Fe2  1  0.999225  0.664363  0.366114  1
  Fe  Fe3  1  0.319771  0.005802  0.135890  1
  Fe  Fe4  1  0.679994  0.998922  0.892118  1
  Fe  Fe5  1  0.999815  0.327431  0.628274  1
  B  B6  1  0.998490  0.336611  0.125123  1
  B  B7  1  0.662408  0.001526  0.389898  1
  B  B8  1  0.338307  0.996821  0.627813  1
  B  B9  1  0.008376  0.668119  0.863715  1
  O  O10  1  0.895158  0.278425  0.434082  1
  O  O11  1  0.731581  0.100015  0.088508  1
  O  O12  1  0.001026  0.584740  0.182010  1
  O  O13  1  0.398523  0.985010  0.354283  1
  O  O14  1  0.737794  0.653802  0.849900  1
  O  O15  1  0.706002  0.766583  0.391241  1
  O  O16  1  0.324713  0.252595  0.634266  1
  O  O17  1  0.257127  0.342077  0.102073  1
  O  O18  1  0.601269  0.996203  0.655535  1
  O  O19  1  0.029074  0.415672  0.825320  1
  O  O20  1  0.253407  0.916199  0.909233  1
  O  O21  1  0.084593  0.732293  0.596167  1
