# generated using pymatgen
data_Li3V6O16
_symmetry_space_group_name_H-M   'P 1'
_cell_length_a   6.78231022
_cell_length_b   3.65756253
_cell_length_c   12.03240382
_cell_angle_alpha   90.00000000
_cell_angle_beta   105.00523974
_cell_angle_gamma   90.00000000
_symmetry_Int_Tables_number   1
_chemical_formula_structural   Li3V6O16
_chemical_formula_sum   'Li3 V6 O16'
_cell_volume   288.30683787
_cell_formula_units_Z   1
loop_
 _symmetry_equiv_pos_site_id
 _symmetry_equiv_pos_as_xyz
  1  'x, y, z'
loop_
 _atom_site_type_symbol
 _atom_site_label
 _atom_site_symmetry_multiplicity
 _atom_site_fract_x
 _atom_site_fract_y
 _atom_site_fract_z
 _atom_site_occupancy
  Li  Li0  1  0.816367  0.500000  0.317910  1
  Li  Li1  1  0.184547  0.000000  0.681603  1
  Li  Li2  1  0.526593  0.500000  0.947742  1
  V  V3  1  0.266791  0.500000  0.197383  1
  V  V4  1  0.693172  0.000000  0.535810  1
  V  V5  1  0.117713  0.500000  0.920240  1
  V  V6  1  0.879719  0.000000  0.082625  1
  V  V7  1  0.306616  0.500000  0.463627  1
  V  V8  1  0.737267  0.000000  0.800843  1
  O  O9  1  0.182848  0.000000  0.172373  1
  O  O10  1  0.325924  0.500000  0.043512  1
  O  O11  1  0.608657  0.500000  0.539398  1
  O  O12  1  0.502668  0.500000  0.277954  1
  O  O13  1  0.872378  0.000000  0.671703  1
  O  O14  1  0.823121  0.000000  0.437558  1
  O  O15  1  0.044867  0.000000  0.927262  1
  O  O16  1  0.771503  0.000000  0.189862  1
  O  O17  1  0.241172  0.500000  0.817314  1
  O  O18  1  0.945269  0.500000  0.069764  1
  O  O19  1  0.176771  0.500000  0.562174  1
  O  O20  1  0.129440  0.500000  0.327799  1
  O  O21  1  0.498906  0.000000  0.722191  1
  O  O22  1  0.391831  0.000000  0.460616  1
  O  O23  1  0.666334  0.000000  0.955167  1
  O  O24  1  0.812355  0.500000  0.827400  1
