# generated using pymatgen
data_LiMn3(BO3)3
_symmetry_space_group_name_H-M   'P 1'
_cell_length_a   5.92584551
_cell_length_b   7.98365982
_cell_length_c   9.10609116
_cell_angle_alpha   109.31553116
_cell_angle_beta   107.47079470
_cell_angle_gamma   99.32478224
_symmetry_Int_Tables_number   1
_chemical_formula_structural   LiMn3(BO3)3
_chemical_formula_sum   'Li2 Mn6 B6 O18'
_cell_volume   371.10222499
_cell_formula_units_Z   2
loop_
 _symmetry_equiv_pos_site_id
 _symmetry_equiv_pos_as_xyz
  1  'x, y, z'
loop_
 _atom_site_type_symbol
 _atom_site_label
 _atom_site_symmetry_multiplicity
 _atom_site_fract_x
 _atom_site_fract_y
 _atom_site_fract_z
 _atom_site_occupancy
  Li  Li0  1  0.565648  0.885690  0.056641  1
  Li  Li1  1  0.230676  0.554572  0.389037  1
  Mn  Mn2  1  0.355707  0.117430  0.265865  1
  Mn  Mn3  1  0.944251  0.212283  0.419186  1
  Mn  Mn4  1  0.281560  0.538612  0.060578  1
  Mn  Mn5  1  0.693559  0.440781  0.926194  1
  Mn  Mn6  1  0.047371  0.795993  0.600421  1
  Mn  Mn7  1  0.648727  0.904294  0.743168  1
  B  B8  1  0.053762  0.793163  0.932649  1
  B  B9  1  0.296720  0.540669  0.725055  1
  B  B10  1  0.607766  0.857170  0.386682  1
  B  B11  1  0.387556  0.140368  0.609824  1
  B  B12  1  0.722363  0.459827  0.272462  1
  B  B13  1  0.933171  0.205500  0.073193  1
  O  O14  1  0.253099  0.942515  0.021376  1
  O  O15  1  0.887757  0.765936  0.774409  1
  O  O16  1  0.337106  0.664327  0.653394  1
  O  O17  1  0.656141  0.973158  0.307250  1
  O  O18  1  0.104598  0.384444  0.648685  1
  O  O19  1  0.415391  0.697019  0.305121  1
  O  O20  1  0.451578  0.590878  0.898021  1
  O  O21  1  0.751283  0.913127  0.556020  1
  O  O22  1  0.955409  0.326261  0.993045  1
  O  O23  1  0.015117  0.648227  0.984722  1
  O  O24  1  0.211199  0.091574  0.448624  1
  O  O25  1  0.557195  0.422216  0.106459  1
  O  O26  1  0.566268  0.305117  0.687770  1
  O  O27  1  0.915868  0.613269  0.355718  1
  O  O28  1  0.375276  0.008759  0.678131  1
  O  O29  1  0.681804  0.322688  0.333380  1
  O  O30  1  0.090013  0.268648  0.240563  1
  O  O31  1  0.762256  0.034644  0.989725  1
