# generated using pymatgen
data_Li2CrO3
_symmetry_space_group_name_H-M   'P 1'
_cell_length_a   5.03098945
_cell_length_b   5.03098945
_cell_length_c   9.74544180
_cell_angle_alpha   85.28303034
_cell_angle_beta   94.71696966
_cell_angle_gamma   60.10458284
_symmetry_Int_Tables_number   1
_chemical_formula_structural   Li2CrO3
_chemical_formula_sum   'Li8 Cr4 O12'
_cell_volume   210.94056108
_cell_formula_units_Z   4
loop_
 _symmetry_equiv_pos_site_id
 _symmetry_equiv_pos_as_xyz
  1  'x, y, z'
loop_
 _atom_site_type_symbol
 _atom_site_label
 _atom_site_symmetry_multiplicity
 _atom_site_fract_x
 _atom_site_fract_y
 _atom_site_fract_z
 _atom_site_occupancy
  Li  Li0  1  0.162461  0.679257  0.501514  1
  Li  Li1  1  0.000000  0.500000  0.000000  1
  Li  Li2  1  0.081914  0.081914  0.250000  1
  Li  Li3  1  0.500000  0.000000  0.500000  1
  Li  Li4  1  0.320743  0.837539  0.001514  1
  Li  Li5  1  0.679257  0.162461  0.998486  1
  Li  Li6  1  0.918086  0.918086  0.750000  1
  Li  Li7  1  0.837539  0.320743  0.498486  1
  Cr  Cr8  1  0.414130  0.414130  0.250000  1
  Cr  Cr9  1  0.251174  0.251174  0.750000  1
  Cr  Cr10  1  0.748826  0.748826  0.250000  1
  Cr  Cr11  1  0.585870  0.585870  0.750000  1
  O  O12  1  0.044101  0.767728  0.134098  1
  O  O13  1  0.120649  0.411398  0.361514  1
  O  O14  1  0.411398  0.120649  0.138486  1
  O  O15  1  0.312982  0.520776  0.861706  1
  O  O16  1  0.232272  0.955899  0.634098  1
  O  O17  1  0.520776  0.312982  0.638294  1
  O  O18  1  0.479224  0.687018  0.361706  1
  O  O19  1  0.767728  0.044101  0.365902  1
  O  O20  1  0.687018  0.479224  0.138294  1
  O  O21  1  0.588602  0.879351  0.861514  1
  O  O22  1  0.879351  0.588602  0.638486  1
  O  O23  1  0.955899  0.232272  0.865902  1
