# generated using pymatgen
data_Na2CoH8(CO5)2
_symmetry_space_group_name_H-M   'P 1'
_cell_length_a   5.63782335
_cell_length_b   5.63782335
_cell_length_c   14.41607782
_cell_angle_alpha   84.30782077
_cell_angle_beta   95.69217923
_cell_angle_gamma   100.22550769
_symmetry_Int_Tables_number   1
_chemical_formula_structural   Na2CoH8(CO5)2
_chemical_formula_sum   'Na4 Co2 H16 C4 O20'
_cell_volume   447.15462764
_cell_formula_units_Z   2
loop_
 _symmetry_equiv_pos_site_id
 _symmetry_equiv_pos_as_xyz
  1  'x, y, z'
loop_
 _atom_site_type_symbol
 _atom_site_label
 _atom_site_symmetry_multiplicity
 _atom_site_fract_x
 _atom_site_fract_y
 _atom_site_fract_z
 _atom_site_occupancy
  Na  Na0  1  0.403511  0.244230  0.436422  1
  Na  Na1  1  0.244230  0.403511  0.063578  1
  Na  Na2  1  0.596489  0.755770  0.563578  1
  Na  Na3  1  0.755770  0.596489  0.936422  1
  Co  Co4  1  0.041805  0.041805  0.250000  1
  Co  Co5  1  0.958195  0.958195  0.750000  1
  H  H6  1  0.533980  0.785686  0.371959  1
  H  H7  1  0.785686  0.533980  0.128041  1
  H  H8  1  0.466020  0.214314  0.628041  1
  H  H9  1  0.214314  0.466020  0.871959  1
  H  H10  1  0.742348  0.637720  0.375687  1
  H  H11  1  0.637720  0.742348  0.124313  1
  H  H12  1  0.257652  0.362280  0.624313  1
  H  H13  1  0.362280  0.257652  0.875687  1
  H  H14  1  0.851065  0.236103  0.559246  1
  H  H15  1  0.236103  0.851065  0.940754  1
  H  H16  1  0.148935  0.763897  0.440754  1
  H  H17  1  0.763897  0.148935  0.059246  1
  H  H18  1  0.888773  0.199087  0.454050  1
  H  H19  1  0.199087  0.888773  0.045950  1
  H  H20  1  0.111227  0.800913  0.545950  1
  H  H21  1  0.800913  0.111227  0.954050  1
  C  C22  1  0.484114  0.035656  0.214014  1
  C  C23  1  0.035656  0.484114  0.285986  1
  C  C24  1  0.515886  0.964344  0.785986  1
  C  C25  1  0.964344  0.515886  0.714014  1
  O  O26  1  0.291299  0.041302  0.154626  1
  O  O27  1  0.041302  0.291299  0.345374  1
  O  O28  1  0.708701  0.958699  0.845374  1
  O  O29  1  0.958698  0.708701  0.654626  1
  O  O30  1  0.051454  0.457650  0.199338  1
  O  O31  1  0.457650  0.051454  0.300662  1
  O  O32  1  0.948546  0.542350  0.800662  1
  O  O33  1  0.542350  0.948546  0.699338  1
  O  O34  1  0.686471  0.010806  0.183264  1
  O  O35  1  0.010806  0.686471  0.316736  1
  O  O36  1  0.313529  0.989194  0.816736  1
  O  O37  1  0.989194  0.313529  0.683264  1
  O  O38  1  0.593789  0.644056  0.405998  1
  O  O39  1  0.644056  0.593789  0.094002  1
  O  O40  1  0.406211  0.355944  0.594002  1
  O  O41  1  0.355944  0.406211  0.905998  1
  O  O42  1  0.221511  0.849472  0.495904  1
  O  O43  1  0.849472  0.221511  0.004096  1
  O  O44  1  0.778489  0.150528  0.504096  1
  O  O45  1  0.150528  0.778489  0.995904  1
