# generated using pymatgen
data_Li2Mn2FeO6
_symmetry_space_group_name_H-M   'P 1'
_cell_length_a   5.13645301
_cell_length_b   5.13645301
_cell_length_c   10.25700211
_cell_angle_alpha   90.00000000
_cell_angle_beta   90.00000000
_cell_angle_gamma   118.84308730
_symmetry_Int_Tables_number   1
_chemical_formula_structural   Li2Mn2FeO6
_chemical_formula_sum   'Li4 Mn4 Fe2 O12'
_cell_volume   237.04101485
_cell_formula_units_Z   2
loop_
 _symmetry_equiv_pos_site_id
 _symmetry_equiv_pos_as_xyz
  1  'x, y, z'
loop_
 _atom_site_type_symbol
 _atom_site_label
 _atom_site_symmetry_multiplicity
 _atom_site_fract_x
 _atom_site_fract_y
 _atom_site_fract_z
 _atom_site_occupancy
  Li  Li0  1  0.652133  0.152133  0.750000  1
  Li  Li1  1  0.847867  0.347867  0.250000  1
  Li  Li2  1  0.152133  0.652133  0.750000  1
  Li  Li3  1  0.347867  0.847867  0.250000  1
  Mn  Mn4  1  0.837473  0.162527  0.500000  1
  Mn  Mn5  1  0.662527  0.337473  0.000000  1
  Mn  Mn6  1  0.337473  0.662527  1.000000  1
  Mn  Mn7  1  0.162527  0.837473  0.500000  1
  Fe  Fe8  1  0.000000  0.000000  0.000000  1
  Fe  Fe9  1  0.500000  0.500000  0.500000  1
  O  O10  1  0.666255  0.020066  0.106077  1
  O  O11  1  0.333745  0.979934  0.893923  1
  O  O12  1  0.520066  0.166255  0.393923  1
  O  O13  1  0.833745  0.479934  0.606077  1
  O  O14  1  0.163068  0.163068  0.596102  1
  O  O15  1  0.336932  0.336932  0.096102  1
  O  O16  1  0.663068  0.663068  0.903898  1
  O  O17  1  0.979934  0.333745  0.893923  1
  O  O18  1  0.836932  0.836932  0.403898  1
  O  O19  1  0.166255  0.520066  0.393923  1
  O  O20  1  0.479934  0.833745  0.606077  1
  O  O21  1  0.020066  0.666255  0.106077  1
