# generated using pymatgen
data_TiFe3Sn2(PO4)6
_symmetry_space_group_name_H-M   'P 1'
_cell_length_a   8.92523104
_cell_length_b   8.92523104
_cell_length_c   8.92523104
_cell_angle_alpha   58.14928841
_cell_angle_beta   58.14928841
_cell_angle_gamma   58.14928841
_symmetry_Int_Tables_number   1
_chemical_formula_structural   TiFe3Sn2(PO4)6
_chemical_formula_sum   'Ti1 Fe3 Sn2 P6 O24'
_cell_volume   481.41430111
_cell_formula_units_Z   1
loop_
 _symmetry_equiv_pos_site_id
 _symmetry_equiv_pos_as_xyz
  1  'x, y, z'
loop_
 _atom_site_type_symbol
 _atom_site_label
 _atom_site_symmetry_multiplicity
 _atom_site_fract_x
 _atom_site_fract_y
 _atom_site_fract_z
 _atom_site_occupancy
  Ti  Ti0  1  0.146407  0.146407  0.146407  1
  Fe  Fe1  1  0.850984  0.850984  0.850984  1
  Fe  Fe2  1  0.649292  0.649292  0.649292  1
  Fe  Fe3  1  0.351386  0.351386  0.351386  1
  Sn  Sn4  1  0.995413  0.995413  0.995413  1
  Sn  Sn5  1  0.499291  0.499291  0.499291  1
  P  P6  1  0.249533  0.538468  0.960143  1
  P  P7  1  0.960143  0.249533  0.538468  1
  P  P8  1  0.461564  0.040988  0.751566  1
  P  P9  1  0.040988  0.751566  0.461564  1
  P  P10  1  0.751566  0.461564  0.040988  1
  P  P11  1  0.538468  0.960143  0.249533  1
  O  O12  1  0.702950  0.490291  0.883868  1
  O  O13  1  0.490291  0.883868  0.702950  1
  O  O14  1  0.080904  0.724050  0.938057  1
  O  O15  1  0.883868  0.702950  0.490291  1
  O  O16  1  0.201009  0.374151  0.002317  1
  O  O17  1  0.419529  0.553590  0.768992  1
  O  O18  1  0.938057  0.080904  0.724050  1
  O  O19  1  0.768992  0.419529  0.553590  1
  O  O20  1  0.620903  0.007056  0.797261  1
  O  O21  1  0.553590  0.768992  0.419529  1
  O  O22  1  0.274822  0.066011  0.921813  1
  O  O23  1  0.007056  0.797261  0.620903  1
  O  O24  1  0.002317  0.201009  0.374151  1
  O  O25  1  0.724050  0.938057  0.080904  1
  O  O26  1  0.439886  0.232648  0.581590  1
  O  O27  1  0.374151  0.002317  0.201009  1
  O  O28  1  0.232648  0.581590  0.439886  1
  O  O29  1  0.066011  0.921813  0.274822  1
  O  O30  1  0.581590  0.439886  0.232648  1
  O  O31  1  0.797261  0.620903  0.007056  1
  O  O32  1  0.115961  0.301729  0.505575  1
  O  O33  1  0.921813  0.274822  0.066011  1
  O  O34  1  0.505575  0.115961  0.301729  1
  O  O35  1  0.301729  0.505575  0.115961  1
