# generated using pymatgen
data_Sm2WO6
_symmetry_space_group_name_H-M   'P 1'
_cell_length_a   5.38725798
_cell_length_b   9.31553006
_cell_length_c   10.18690826
_cell_angle_alpha   90.00000000
_cell_angle_beta   90.00000000
_cell_angle_gamma   90.00000000
_symmetry_Int_Tables_number   1
_chemical_formula_structural   Sm2WO6
_chemical_formula_sum   'Sm8 W4 O24'
_cell_volume   511.23165815
_cell_formula_units_Z   4
loop_
 _symmetry_equiv_pos_site_id
 _symmetry_equiv_pos_as_xyz
  1  'x, y, z'
loop_
 _atom_site_type_symbol
 _atom_site_label
 _atom_site_symmetry_multiplicity
 _atom_site_fract_x
 _atom_site_fract_y
 _atom_site_fract_z
 _atom_site_occupancy
  Sm  Sm0  1  0.020699  0.396486  0.035028  1
  Sm  Sm1  1  0.035996  0.281232  0.629547  1
  Sm  Sm2  1  0.464004  0.718768  0.129547  1
  Sm  Sm3  1  0.479301  0.603514  0.535028  1
  Sm  Sm4  1  0.520699  0.103514  0.964972  1
  Sm  Sm5  1  0.535996  0.218768  0.370453  1
  Sm  Sm6  1  0.964004  0.781232  0.870453  1
  Sm  Sm7  1  0.979301  0.896486  0.464972  1
  W  W8  1  0.039987  0.003913  0.151409  1
  W  W9  1  0.460013  0.996087  0.651409  1
  W  W10  1  0.539987  0.496087  0.848591  1
  W  W11  1  0.960013  0.503913  0.348591  1
  O  O12  1  0.080214  0.653800  0.469215  1
  O  O13  1  0.172076  0.548141  0.205946  1
  O  O14  1  0.186846  0.863381  0.680453  1
  O  O15  1  0.189778  0.861936  0.262669  1
  O  O16  1  0.226531  0.387212  0.432455  1
  O  O17  1  0.251978  0.089463  0.509128  1
  O  O18  1  0.248022  0.910537  0.009128  1
  O  O19  1  0.273469  0.612788  0.932455  1
  O  O20  1  0.310222  0.138064  0.762669  1
  O  O21  1  0.313154  0.136619  0.180453  1
  O  O22  1  0.327924  0.451859  0.705946  1
  O  O23  1  0.419786  0.346200  0.969215  1
  O  O24  1  0.580214  0.846200  0.530785  1
  O  O25  1  0.672076  0.951859  0.794054  1
  O  O26  1  0.686846  0.636619  0.319547  1
  O  O27  1  0.689778  0.638064  0.737331  1
  O  O28  1  0.726531  0.112788  0.567545  1
  O  O29  1  0.751978  0.410537  0.490872  1
  O  O30  1  0.748022  0.589463  0.990872  1
  O  O31  1  0.773469  0.887212  0.067545  1
  O  O32  1  0.810222  0.361936  0.237331  1
  O  O33  1  0.813154  0.363381  0.819547  1
  O  O34  1  0.827924  0.048141  0.294054  1
  O  O35  1  0.919786  0.153800  0.030785  1
