# generated using pymatgen
data_Li2Ti2VO6
_symmetry_space_group_name_H-M   'P 1'
_cell_length_a   5.19986075
_cell_length_b   5.19986075
_cell_length_c   10.42233430
_cell_angle_alpha   90.00000000
_cell_angle_beta   90.00000000
_cell_angle_gamma   120.59153435
_symmetry_Int_Tables_number   1
_chemical_formula_structural   Li2Ti2VO6
_chemical_formula_sum   'Li4 Ti4 V2 O12'
_cell_volume   242.58244971
_cell_formula_units_Z   2
loop_
 _symmetry_equiv_pos_site_id
 _symmetry_equiv_pos_as_xyz
  1  'x, y, z'
loop_
 _atom_site_type_symbol
 _atom_site_label
 _atom_site_symmetry_multiplicity
 _atom_site_fract_x
 _atom_site_fract_y
 _atom_site_fract_z
 _atom_site_occupancy
  Li  Li0  1  0.837644  0.337644  0.750000  1
  Li  Li1  1  0.662356  0.162356  0.250000  1
  Li  Li2  1  0.337644  0.837644  0.750000  1
  Li  Li3  1  0.162356  0.662356  0.250000  1
  Ti  Ti4  1  0.660823  0.339177  0.500000  1
  Ti  Ti5  1  0.839177  0.160823  0.000000  1
  Ti  Ti6  1  0.160823  0.839177  0.000000  1
  Ti  Ti7  1  0.339177  0.660823  0.500000  1
  V  V8  1  0.500000  0.500000  0.000000  1
  V  V9  1  0.000000  0.000000  0.500000  1
  O  O10  1  0.859372  0.495607  0.107183  1
  O  O11  1  0.140628  0.504393  0.892817  1
  O  O12  1  0.995607  0.359372  0.392817  1
  O  O13  1  0.640628  0.004393  0.607183  1
  O  O14  1  0.354220  0.354220  0.601351  1
  O  O15  1  0.145780  0.145780  0.101351  1
  O  O16  1  0.854220  0.854220  0.898649  1
  O  O17  1  0.504393  0.140628  0.892817  1
  O  O18  1  0.645780  0.645780  0.398649  1
  O  O19  1  0.359372  0.995607  0.392817  1
  O  O20  1  0.004393  0.640628  0.607183  1
  O  O21  1  0.495607  0.859372  0.107183  1
