# generated using pymatgen
data_Mn3Sn(PO4)6
_symmetry_space_group_name_H-M   'P 1'
_cell_length_a   8.62352239
_cell_length_b   8.62352239
_cell_length_c   8.62352239
_cell_angle_alpha   59.56168614
_cell_angle_beta   59.56168614
_cell_angle_gamma   59.56168614
_symmetry_Int_Tables_number   1
_chemical_formula_structural   Mn3Sn(PO4)6
_chemical_formula_sum   'Mn3 Sn1 P6 O24'
_cell_volume   448.94151770
_cell_formula_units_Z   1
loop_
 _symmetry_equiv_pos_site_id
 _symmetry_equiv_pos_as_xyz
  1  'x, y, z'
loop_
 _atom_site_type_symbol
 _atom_site_label
 _atom_site_symmetry_multiplicity
 _atom_site_fract_x
 _atom_site_fract_y
 _atom_site_fract_z
 _atom_site_occupancy
  Mn  Mn0  1  0.858465  0.858465  0.858465  1
  Mn  Mn1  1  0.642001  0.642001  0.642001  1
  Mn  Mn2  1  0.358516  0.358516  0.358516  1
  Sn  Sn3  1  0.138170  0.138170  0.138170  1
  P  P4  1  0.543326  0.960802  0.250234  1
  P  P5  1  0.250234  0.543326  0.960802  1
  P  P6  1  0.960802  0.250234  0.543326  1
  P  P7  1  0.470958  0.034861  0.741090  1
  P  P8  1  0.034861  0.741090  0.470958  1
  P  P9  1  0.741090  0.470958  0.034861  1
  O  O10  1  0.692425  0.502749  0.871104  1
  O  O11  1  0.502749  0.871104  0.692425  1
  O  O12  1  0.081532  0.734685  0.937499  1
  O  O13  1  0.871104  0.692425  0.502749  1
  O  O14  1  0.209308  0.379926  0.981777  1
  O  O15  1  0.417349  0.571889  0.769728  1
  O  O16  1  0.937499  0.081532  0.734685  1
  O  O17  1  0.769728  0.417349  0.571889  1
  O  O18  1  0.632092  0.007218  0.792297  1
  O  O19  1  0.571889  0.769728  0.417349  1
  O  O20  1  0.279858  0.053525  0.906378  1
  O  O21  1  0.007218  0.792297  0.632092  1
  O  O22  1  0.981777  0.209308  0.379926  1
  O  O23  1  0.734685  0.937499  0.081532  1
  O  O24  1  0.453317  0.224368  0.570717  1
  O  O25  1  0.379926  0.981777  0.209308  1
  O  O26  1  0.224368  0.570717  0.453317  1
  O  O27  1  0.053525  0.906378  0.279858  1
  O  O28  1  0.570717  0.453317  0.224368  1
  O  O29  1  0.792297  0.632092  0.007218  1
  O  O30  1  0.130782  0.290673  0.510379  1
  O  O31  1  0.906378  0.279858  0.053525  1
  O  O32  1  0.510379  0.130782  0.290673  1
  O  O33  1  0.290673  0.510379  0.130782  1
