# generated using pymatgen
data_Ba2La2O5
_symmetry_space_group_name_H-M   'P 1'
_cell_length_a   6.60855015
_cell_length_b   6.67676451
_cell_length_c   17.44935638
_cell_angle_alpha   90.00000000
_cell_angle_beta   90.00000000
_cell_angle_gamma   90.00000000
_symmetry_Int_Tables_number   1
_chemical_formula_structural   Ba2La2O5
_chemical_formula_sum   'Ba8 La8 O20'
_cell_volume   769.93074375
_cell_formula_units_Z   4
loop_
 _symmetry_equiv_pos_site_id
 _symmetry_equiv_pos_as_xyz
  1  'x, y, z'
loop_
 _atom_site_type_symbol
 _atom_site_label
 _atom_site_symmetry_multiplicity
 _atom_site_fract_x
 _atom_site_fract_y
 _atom_site_fract_z
 _atom_site_occupancy
  Ba  Ba0  1  0.465551  0.019699  0.889796  1
  Ba  Ba1  1  0.465551  0.019699  0.610204  1
  Ba  Ba2  1  0.965551  0.480301  0.889796  1
  Ba  Ba3  1  0.965551  0.480301  0.610204  1
  Ba  Ba4  1  0.034449  0.519699  0.389796  1
  Ba  Ba5  1  0.034449  0.519699  0.110204  1
  Ba  Ba6  1  0.534449  0.980301  0.389796  1
  Ba  Ba7  1  0.534449  0.980301  0.110204  1
  La  La8  1  0.000000  0.000000  0.000000  1
  La  La9  1  0.000000  0.000000  0.500000  1
  La  La10  1  0.050840  0.051769  0.250000  1
  La  La11  1  0.550840  0.448231  0.250000  1
  La  La12  1  0.500000  0.500000  0.500000  1
  La  La13  1  0.500000  0.500000  0.000000  1
  La  La14  1  0.449160  0.551769  0.750000  1
  La  La15  1  0.949160  0.948231  0.750000  1
  O  O16  1  0.051971  0.093005  0.860338  1
  O  O17  1  0.051971  0.093005  0.639662  1
  O  O18  1  0.404648  0.128654  0.250000  1
  O  O19  1  0.288063  0.212781  0.476745  1
  O  O20  1  0.288063  0.212781  0.023255  1
  O  O21  1  0.788064  0.287219  0.476745  1
  O  O22  1  0.788064  0.287219  0.023255  1
  O  O23  1  0.904648  0.371346  0.250000  1
  O  O24  1  0.551971  0.406995  0.860338  1
  O  O25  1  0.551971  0.406995  0.639662  1
  O  O26  1  0.448029  0.593005  0.360338  1
  O  O27  1  0.448029  0.593005  0.139662  1
  O  O28  1  0.095352  0.628654  0.750000  1
  O  O29  1  0.211937  0.712781  0.976745  1
  O  O30  1  0.211937  0.712781  0.523255  1
  O  O31  1  0.711936  0.787219  0.976745  1
  O  O32  1  0.711936  0.787219  0.523255  1
  O  O33  1  0.595352  0.871346  0.750000  1
  O  O34  1  0.948029  0.906995  0.360338  1
  O  O35  1  0.948029  0.906995  0.139662  1
