# generated using pymatgen
data_LiVCrP2(O4F)2
_symmetry_space_group_name_H-M   'P 1'
_cell_length_a   7.33360227
_cell_length_b   7.94267753
_cell_length_c   10.27503049
_cell_angle_alpha   112.63328736
_cell_angle_beta   105.17176517
_cell_angle_gamma   87.36012778
_symmetry_Int_Tables_number   1
_chemical_formula_structural   LiVCrP2(O4F)2
_chemical_formula_sum   'Li3 V3 Cr3 P6 O24 F6'
_cell_volume   532.15322085
_cell_formula_units_Z   3
loop_
 _symmetry_equiv_pos_site_id
 _symmetry_equiv_pos_as_xyz
  1  'x, y, z'
loop_
 _atom_site_type_symbol
 _atom_site_label
 _atom_site_symmetry_multiplicity
 _atom_site_fract_x
 _atom_site_fract_y
 _atom_site_fract_z
 _atom_site_occupancy
  Li  Li0  1  0.682736  0.930020  0.501187  1
  Li  Li1  1  0.982957  0.402519  0.163485  1
  Li  Li2  1  0.649473  0.737788  0.833317  1
  V  V3  1  0.009694  0.999252  0.000339  1
  V  V4  1  0.331061  0.666422  0.332692  1
  V  V5  1  0.664052  0.333057  0.665586  1
  Cr  Cr6  1  0.496605  0.499583  0.001945  1
  Cr  Cr7  1  0.167731  0.833302  0.666369  1
  Cr  Cr8  1  0.834616  0.166487  0.333204  1
  P  P9  1  0.431662  0.931306  0.184290  1
  P  P10  1  0.903889  0.737903  0.149127  1
  P  P11  1  0.238220  0.401753  0.482766  1
  P  P12  1  0.758957  0.597352  0.518141  1
  P  P13  1  0.090637  0.266922  0.850145  1
  P  P14  1  0.577444  0.068879  0.815530  1
  O  O15  1  0.457364  0.763612  0.053693  1
  O  O16  1  0.887143  0.782959  0.012170  1
  O  O17  1  0.105938  0.664511  0.193054  1
  O  O18  1  0.442119  0.883440  0.320448  1
  O  O19  1  0.878537  0.902859  0.280335  1
  O  O20  1  0.773593  0.568325  0.110497  1
  O  O21  1  0.225679  0.448660  0.344985  1
  O  O22  1  0.559013  0.672062  0.470174  1
  O  O23  1  0.441757  0.902488  0.775623  1
  O  O24  1  0.224340  0.995074  0.136884  1
  O  O25  1  0.892097  0.765178  0.557424  1
  O  O26  1  0.216873  0.571810  0.612674  1
  O  O27  1  0.788892  0.430560  0.391079  1
  O  O28  1  0.102823  0.239120  0.441635  1
  O  O29  1  0.775339  0.990489  0.862982  1
  O  O30  1  0.564672  0.095259  0.225013  1
  O  O31  1  0.443289  0.334777  0.529494  1
  O  O32  1  0.759084  0.560404  0.656364  1
  O  O33  1  0.229445  0.427674  0.893315  1
  O  O34  1  0.117139  0.095182  0.724526  1
  O  O35  1  0.575581  0.104920  0.676009  1
  O  O36  1  0.887954  0.335307  0.799564  1
  O  O37  1  0.085143  0.226770  0.988133  1
  O  O38  1  0.552054  0.238195  0.941847  1
  F  F39  1  0.225424  0.829101  0.486836  1
  F  F40  1  0.439318  0.502664  0.179841  1
  F  F41  1  0.109842  0.836158  0.844982  1
  F  F42  1  0.895704  0.170563  0.155945  1
  F  F43  1  0.559463  0.503705  0.823513  1
  F  F44  1  0.772886  0.161912  0.510021  1
