# generated using pymatgen
data_Li2TiCrO4
_symmetry_space_group_name_H-M   'P 1'
_cell_length_a   5.08955465
_cell_length_b   2.95353637
_cell_length_c   5.22067210
_cell_angle_alpha   90.00000000
_cell_angle_beta   109.13635319
_cell_angle_gamma   90.00000000
_symmetry_Int_Tables_number   1
_chemical_formula_structural   Li2TiCrO4
_chemical_formula_sum   'Li2 Ti1 Cr1 O4'
_cell_volume   74.14149434
_cell_formula_units_Z   1
loop_
 _symmetry_equiv_pos_site_id
 _symmetry_equiv_pos_as_xyz
  1  'x, y, z'
loop_
 _atom_site_type_symbol
 _atom_site_label
 _atom_site_symmetry_multiplicity
 _atom_site_fract_x
 _atom_site_fract_y
 _atom_site_fract_z
 _atom_site_occupancy
  Li  Li0  1  0.000000  0.000000  0.000000  1
  Li  Li1  1  0.500000  0.500000  0.000000  1
  Ti  Ti2  1  0.500000  0.000000  0.500000  1
  Cr  Cr3  1  0.000000  0.500000  0.500000  1
  O  O4  1  0.759843  0.000000  0.270258  1
  O  O5  1  0.255835  0.500000  0.267627  1
  O  O6  1  0.240157  0.000000  0.729742  1
  O  O7  1  0.744165  0.500000  0.732373  1
