# generated using pymatgen
data_LiVFe(P2O7)2
_symmetry_space_group_name_H-M   'P 1'
_cell_length_a   4.89509404
_cell_length_b   6.99034979
_cell_length_c   8.13681197
_cell_angle_alpha   90.02837394
_cell_angle_beta   90.77656098
_cell_angle_gamma   107.37933823
_symmetry_Int_Tables_number   1
_chemical_formula_structural   LiVFe(P2O7)2
_chemical_formula_sum   'Li1 V1 Fe1 P4 O14'
_cell_volume   265.69062440
_cell_formula_units_Z   1
loop_
 _symmetry_equiv_pos_site_id
 _symmetry_equiv_pos_as_xyz
  1  'x, y, z'
loop_
 _atom_site_type_symbol
 _atom_site_label
 _atom_site_symmetry_multiplicity
 _atom_site_fract_x
 _atom_site_fract_y
 _atom_site_fract_z
 _atom_site_occupancy
  Li  Li0  1  0.158735  0.684978  0.124828  1
  V  V1  1  0.200468  0.729833  0.497952  1
  Fe  Fe2  1  0.775690  0.271821  0.986735  1
  P  P3  1  0.382505  0.519612  0.809169  1
  P  P4  1  0.232526  0.100832  0.218466  1
  P  P5  1  0.771125  0.911136  0.713312  1
  P  P6  1  0.597752  0.490895  0.312596  1
  O  O7  1  0.041836  0.856578  0.662248  1
  O  O8  1  0.138198  0.901572  0.313970  1
  O  O9  1  0.153020  0.500810  0.939287  1
  O  O10  1  0.257576  0.522545  0.633957  1
  O  O11  1  0.379581  0.612270  0.314072  1
  O  O12  1  0.577541  0.905589  0.561485  1
  O  O13  1  0.601616  0.742784  0.841419  1
  O  O14  1  0.425843  0.261165  0.349793  1
  O  O15  1  0.419698  0.075824  0.075714  1
  O  O16  1  0.549831  0.370867  0.820387  1
  O  O17  1  0.736746  0.500856  0.144270  1
  O  O18  1  0.817188  0.551401  0.452583  1
  O  O19  1  0.856806  0.103474  0.810384  1
  O  O20  1  0.981327  0.172049  0.167471  1
