# generated using pymatgen
data_Na5Li3Ti5O14
_symmetry_space_group_name_H-M   'P 1'
_cell_length_a   5.23424331
_cell_length_b   7.04232296
_cell_length_c   8.26604410
_cell_angle_alpha   90.36992223
_cell_angle_beta   101.44270825
_cell_angle_gamma   97.31546440
_symmetry_Int_Tables_number   1
_chemical_formula_structural   Na5Li3Ti5O14
_chemical_formula_sum   'Na5 Li3 Ti5 O14'
_cell_volume   296.05169256
_cell_formula_units_Z   1
loop_
 _symmetry_equiv_pos_site_id
 _symmetry_equiv_pos_as_xyz
  1  'x, y, z'
loop_
 _atom_site_type_symbol
 _atom_site_label
 _atom_site_symmetry_multiplicity
 _atom_site_fract_x
 _atom_site_fract_y
 _atom_site_fract_z
 _atom_site_occupancy
  Na  Na0  1  0.513176  0.000592  0.497475  1
  Na  Na1  1  0.909963  0.846759  0.346692  1
  Na  Na2  1  0.657307  0.309356  0.809408  1
  Na  Na3  1  0.073603  0.136366  0.639946  1
  Na  Na4  1  0.351574  0.712334  0.210987  1
  Li  Li5  1  0.218612  0.442174  0.938630  1
  Li  Li6  1  0.858394  0.706843  0.716719  1
  Li  Li7  1  0.567959  0.151849  0.139832  1
  Ti  Ti8  1  0.008518  0.988013  0.993654  1
  Ti  Ti9  1  0.446739  0.858362  0.866673  1
  Ti  Ti10  1  0.274004  0.576977  0.584646  1
  Ti  Ti11  1  0.698034  0.429788  0.422937  1
  Ti  Ti12  1  0.124228  0.279779  0.266748  1
  O  O13  1  0.126277  0.752742  0.952062  1
  O  O14  1  0.749714  0.981387  0.782291  1
  O  O15  1  0.207789  0.827229  0.620937  1
  O  O16  1  0.484301  0.593028  0.803247  1
  O  O17  1  0.968175  0.448298  0.650740  1
  O  O18  1  0.307717  0.103710  0.901230  1
  O  O19  1  0.597189  0.673228  0.477301  1
  O  O20  1  0.036988  0.536672  0.350244  1
  O  O21  1  0.680320  0.881756  0.072088  1
  O  O22  1  0.404624  0.313167  0.518504  1
  O  O23  1  0.831981  0.179889  0.373735  1
  O  O24  1  0.456853  0.404762  0.212595  1
  O  O25  1  0.945172  0.267427  0.051498  1
  O  O26  1  0.215249  0.025823  0.228099  1
