# generated using pymatgen
data_La4Zn3O9
_symmetry_space_group_name_H-M   'P 1'
_cell_length_a   5.56609143
_cell_length_b   5.79028548
_cell_length_c   28.42317063
_cell_angle_alpha   90.00000000
_cell_angle_beta   90.00000000
_cell_angle_gamma   90.00000000
_symmetry_Int_Tables_number   1
_chemical_formula_structural   La4Zn3O9
_chemical_formula_sum   'La16 Zn12 O36'
_cell_volume   916.05771043
_cell_formula_units_Z   4
loop_
 _symmetry_equiv_pos_site_id
 _symmetry_equiv_pos_as_xyz
  1  'x, y, z'
loop_
 _atom_site_type_symbol
 _atom_site_label
 _atom_site_symmetry_multiplicity
 _atom_site_fract_x
 _atom_site_fract_y
 _atom_site_fract_z
 _atom_site_occupancy
  La  La0  1  0.758739  0.979985  0.172267  1
  La  La1  1  0.758739  0.979985  0.327733  1
  La  La2  1  0.743666  0.516885  0.950507  1
  La  La3  1  0.743666  0.516885  0.549493  1
  La  La4  1  0.756334  0.016885  0.049493  1
  La  La5  1  0.756334  0.016885  0.450507  1
  La  La6  1  0.741261  0.479985  0.672267  1
  La  La7  1  0.741261  0.479985  0.827733  1
  La  La8  1  0.258739  0.520015  0.172267  1
  La  La9  1  0.258739  0.520015  0.327733  1
  La  La10  1  0.243666  0.983115  0.549493  1
  La  La11  1  0.243666  0.983115  0.950507  1
  La  La12  1  0.256334  0.483115  0.049493  1
  La  La13  1  0.256334  0.483115  0.450507  1
  La  La14  1  0.241261  0.020015  0.672267  1
  La  La15  1  0.241261  0.020015  0.827733  1
  Zn  Zn16  1  0.795580  0.442522  0.250000  1
  Zn  Zn17  1  0.748010  0.999034  0.610179  1
  Zn  Zn18  1  0.748010  0.999034  0.889821  1
  Zn  Zn19  1  0.751990  0.499034  0.110179  1
  Zn  Zn20  1  0.751990  0.499034  0.389821  1
  Zn  Zn21  1  0.704420  0.942522  0.750000  1
  Zn  Zn22  1  0.295580  0.057478  0.250000  1
  Zn  Zn23  1  0.248010  0.500966  0.610179  1
  Zn  Zn24  1  0.248010  0.500966  0.889821  1
  Zn  Zn25  1  0.251990  0.000966  0.110179  1
  Zn  Zn26  1  0.251990  0.000966  0.389821  1
  Zn  Zn27  1  0.204420  0.557478  0.750000  1
  O  O28  1  0.999787  0.750502  0.619995  1
  O  O29  1  0.999787  0.750502  0.880005  1
  O  O30  1  0.992547  0.255866  0.601361  1
  O  O31  1  0.992547  0.255866  0.898639  1
  O  O32  1  0.831971  0.612577  0.750000  1
  O  O33  1  0.758960  0.920378  0.529117  1
  O  O34  1  0.758960  0.920378  0.970883  1
  O  O35  1  0.724387  0.584703  0.310560  1
  O  O36  1  0.724387  0.584703  0.189440  1
  O  O37  1  0.775613  0.084703  0.810560  1
  O  O38  1  0.775613  0.084703  0.689440  1
  O  O39  1  0.741040  0.420378  0.029117  1
  O  O40  1  0.741040  0.420378  0.470883  1
  O  O41  1  0.668029  0.112577  0.250000  1
  O  O42  1  0.507453  0.755866  0.101361  1
  O  O43  1  0.507453  0.755866  0.398639  1
  O  O44  1  0.500213  0.250502  0.119995  1
  O  O45  1  0.500213  0.250502  0.380005  1
  O  O46  1  0.499787  0.749498  0.880005  1
  O  O47  1  0.499787  0.749498  0.619995  1
  O  O48  1  0.492547  0.244134  0.601361  1
  O  O49  1  0.492547  0.244134  0.898639  1
  O  O50  1  0.331971  0.887423  0.750000  1
  O  O51  1  0.258960  0.579622  0.529117  1
  O  O52  1  0.258960  0.579622  0.970883  1
  O  O53  1  0.224387  0.915297  0.189440  1
  O  O54  1  0.224387  0.915297  0.310560  1
  O  O55  1  0.275613  0.415297  0.689440  1
  O  O56  1  0.275613  0.415297  0.810560  1
  O  O57  1  0.241040  0.079622  0.029117  1
  O  O58  1  0.241040  0.079622  0.470883  1
  O  O59  1  0.168029  0.387423  0.250000  1
  O  O60  1  0.007453  0.744134  0.101361  1
  O  O61  1  0.007453  0.744134  0.398639  1
  O  O62  1  0.000213  0.249498  0.119995  1
  O  O63  1  0.000213  0.249498  0.380005  1
