# generated using pymatgen
data_Li3Fe8(BO3)8
_symmetry_space_group_name_H-M   'P 1'
_cell_length_a   5.25944485
_cell_length_b   9.17179300
_cell_length_c   10.08322597
_cell_angle_alpha   89.13145771
_cell_angle_beta   89.85873858
_cell_angle_gamma   89.34235095
_symmetry_Int_Tables_number   1
_chemical_formula_structural   Li3Fe8(BO3)8
_chemical_formula_sum   'Li3 Fe8 B8 O24'
_cell_volume   486.31089497
_cell_formula_units_Z   1
loop_
 _symmetry_equiv_pos_site_id
 _symmetry_equiv_pos_as_xyz
  1  'x, y, z'
loop_
 _atom_site_type_symbol
 _atom_site_label
 _atom_site_symmetry_multiplicity
 _atom_site_fract_x
 _atom_site_fract_y
 _atom_site_fract_z
 _atom_site_occupancy
  Li  Li0  1  0.181613  0.169222  0.157822  1
  Li  Li1  1  0.332164  0.325768  0.887945  1
  Li  Li2  1  0.661242  0.670980  0.648024  1
  Fe  Fe3  1  0.164487  0.840233  0.631847  1
  Fe  Fe4  1  0.183835  0.504194  0.133846  1
  Fe  Fe5  1  0.308801  0.995282  0.877280  1
  Fe  Fe6  1  0.333112  0.667304  0.374873  1
  Fe  Fe7  1  0.665500  0.335028  0.625675  1
  Fe  Fe8  1  0.672846  0.997591  0.122734  1
  Fe  Fe9  1  0.826144  0.158399  0.385585  1
  Fe  Fe10  1  0.832830  0.497616  0.880859  1
  B  B11  1  0.166567  0.507635  0.635330  1
  B  B12  1  0.167614  0.838301  0.133075  1
  B  B13  1  0.336401  0.996746  0.373646  1
  B  B14  1  0.326467  0.657898  0.867295  1
  B  B15  1  0.661167  0.992661  0.626518  1
  B  B16  1  0.670149  0.324883  0.121115  1
  B  B17  1  0.838207  0.498233  0.381302  1
  B  B18  1  0.827684  0.174580  0.886844  1
  O  O19  1  0.091185  0.512824  0.342446  1
  O  O20  1  0.086107  0.171583  0.890764  1
  O  O21  1  0.200541  0.784841  0.828308  1
  O  O22  1  0.253437  0.867816  0.432525  1
  O  O23  1  0.174327  0.111820  0.352490  1
  O  O24  1  0.190278  0.539464  0.919296  1
  O  O25  1  0.308489  0.386526  0.650012  1
  O  O26  1  0.309906  0.960495  0.092533  1
  O  O27  1  0.274316  0.639838  0.584038  1
  O  O28  1  0.295717  0.714434  0.179117  1
  O  O29  1  0.409993  0.325172  0.111728  1
  O  O30  1  0.408270  0.992509  0.667994  1
  O  O31  1  0.587935  0.005654  0.329024  1
  O  O32  1  0.583031  0.643752  0.850026  1
  O  O33  1  0.698228  0.302094  0.841966  1
  O  O34  1  0.751541  0.359938  0.417584  1
  O  O35  1  0.678787  0.615903  0.390121  1
  O  O36  1  0.677676  0.059451  0.930159  1
  O  O37  1  0.814859  0.441626  0.076695  1
  O  O38  1  0.803725  0.866274  0.632794  1
  O  O39  1  0.766432  0.121072  0.577643  1
  O  O40  1  0.803034  0.199258  0.170626  1
  O  O41  1  0.910201  0.845723  0.125680  1
  O  O42  1  0.910888  0.513862  0.676222  1
