# generated using pymatgen
data_LiNbTe2WO12
_symmetry_space_group_name_H-M   'P 1'
_cell_length_a   5.17831622
_cell_length_b   5.40523490
_cell_length_c   7.49189892
_cell_angle_alpha   93.07172404
_cell_angle_beta   90.04331768
_cell_angle_gamma   90.01752983
_symmetry_Int_Tables_number   1
_chemical_formula_structural   LiNbTe2WO12
_chemical_formula_sum   'Li1 Nb1 Te2 W1 O12'
_cell_volume   209.39700822
_cell_formula_units_Z   1
loop_
 _symmetry_equiv_pos_site_id
 _symmetry_equiv_pos_as_xyz
  1  'x, y, z'
loop_
 _atom_site_type_symbol
 _atom_site_label
 _atom_site_symmetry_multiplicity
 _atom_site_fract_x
 _atom_site_fract_y
 _atom_site_fract_z
 _atom_site_occupancy
  Li  Li0  1  0.500698  0.930936  0.282951  1
  Nb  Nb1  1  0.505753  0.503219  0.506411  1
  Te  Te2  1  0.004034  0.007341  0.495333  1
  Te  Te3  1  0.496310  0.505240  0.998649  1
  W  W4  1  0.995075  0.006649  0.991337  1
  O  O5  1  0.303514  0.812799  0.056433  1
  O  O6  1  0.698042  0.821236  0.539823  1
  O  O7  1  0.202127  0.715519  0.440231  1
  O  O8  1  0.796329  0.708878  0.943404  1
  O  O9  1  0.601566  0.518442  0.241214  1
  O  O10  1  0.388862  0.507222  0.754758  1
  O  O11  1  0.200943  0.299711  0.050375  1
  O  O12  1  0.816736  0.310096  0.548991  1
  O  O13  1  0.307776  0.191269  0.433874  1
  O  O14  1  0.698366  0.207700  0.946072  1
  O  O15  1  0.880904  0.011400  0.245014  1
  O  O16  1  0.101606  0.003481  0.747699  1
