# generated using pymatgen
data_NaVSiO4
_symmetry_space_group_name_H-M   'P 1'
_cell_length_a   5.05594313
_cell_length_b   5.05594313
_cell_length_c   6.72326340
_cell_angle_alpha   90.00000000
_cell_angle_beta   90.00000000
_cell_angle_gamma   115.09221395
_symmetry_Int_Tables_number   1
_chemical_formula_structural   NaVSiO4
_chemical_formula_sum   'Na2 V2 Si2 O8'
_cell_volume   155.64442832
_cell_formula_units_Z   2
loop_
 _symmetry_equiv_pos_site_id
 _symmetry_equiv_pos_as_xyz
  1  'x, y, z'
loop_
 _atom_site_type_symbol
 _atom_site_label
 _atom_site_symmetry_multiplicity
 _atom_site_fract_x
 _atom_site_fract_y
 _atom_site_fract_z
 _atom_site_occupancy
  Na  Na0  1  0.683880  0.316120  0.250000  1
  Na  Na1  1  0.316120  0.683880  0.750000  1
  V  V2  1  0.000000  0.000000  0.000000  1
  V  V3  1  0.000000  0.000000  0.500000  1
  Si  Si4  1  0.661055  0.338945  0.750000  1
  Si  Si5  1  0.338945  0.661055  0.250000  1
  O  O6  1  0.775024  0.224976  0.556245  1
  O  O7  1  0.775024  0.224976  0.943755  1
  O  O8  1  0.296024  0.205796  0.750000  1
  O  O9  1  0.205796  0.296024  0.250000  1
  O  O10  1  0.794204  0.703976  0.750000  1
  O  O11  1  0.703976  0.794204  0.250000  1
  O  O12  1  0.224976  0.775024  0.056245  1
  O  O13  1  0.224976  0.775024  0.443755  1
