# generated using pymatgen
data_Sr3(AsO4)2
_symmetry_space_group_name_H-M   'P 1'
_cell_length_a   7.15942360
_cell_length_b   12.35355353
_cell_length_c   9.96206493
_cell_angle_alpha   90.00000000
_cell_angle_beta   97.09400463
_cell_angle_gamma   90.00000000
_symmetry_Int_Tables_number   1
_chemical_formula_structural   Sr3(AsO4)2
_chemical_formula_sum   'Sr12 As8 O32'
_cell_volume   874.34323760
_cell_formula_units_Z   4
loop_
 _symmetry_equiv_pos_site_id
 _symmetry_equiv_pos_as_xyz
  1  'x, y, z'
loop_
 _atom_site_type_symbol
 _atom_site_label
 _atom_site_symmetry_multiplicity
 _atom_site_fract_x
 _atom_site_fract_y
 _atom_site_fract_z
 _atom_site_occupancy
  Sr  Sr0  1  0.320414  0.378507  0.947140  1
  Sr  Sr1  1  0.820414  0.121493  0.947140  1
  Sr  Sr2  1  0.334701  0.100898  0.702606  1
  Sr  Sr3  1  0.371897  0.671550  0.668597  1
  Sr  Sr4  1  0.834701  0.399102  0.702606  1
  Sr  Sr5  1  0.871897  0.828450  0.668597  1
  Sr  Sr6  1  0.128103  0.171550  0.331403  1
  Sr  Sr7  1  0.165299  0.600898  0.297394  1
  Sr  Sr8  1  0.628103  0.328450  0.331403  1
  Sr  Sr9  1  0.665299  0.899102  0.297394  1
  Sr  Sr10  1  0.179586  0.878507  0.052860  1
  Sr  Sr11  1  0.679586  0.621493  0.052860  1
  As  As12  1  0.105721  0.637031  0.921238  1
  As  As13  1  0.605721  0.862969  0.921238  1
  As  As14  1  0.313990  0.397157  0.600757  1
  As  As15  1  0.813990  0.102843  0.600757  1
  As  As16  1  0.186010  0.897157  0.399243  1
  As  As17  1  0.686010  0.602843  0.399243  1
  As  As18  1  0.394279  0.137031  0.078762  1
  As  As19  1  0.894279  0.362969  0.078762  1
  O  O20  1  0.448839  0.189023  0.927597  1
  O  O21  1  0.325628  0.577799  0.931193  1
  O  O22  1  0.948839  0.310977  0.927597  1
  O  O23  1  0.424827  0.945032  0.857289  1
  O  O24  1  0.825628  0.922201  0.931193  1
  O  O25  1  0.131579  0.748668  0.820012  1
  O  O26  1  0.924827  0.554968  0.857289  1
  O  O27  1  0.000437  0.062135  0.716612  1
  O  O28  1  0.631579  0.751332  0.820012  1
  O  O29  1  0.165489  0.333692  0.699872  1
  O  O30  1  0.500437  0.437865  0.716612  1
  O  O31  1  0.665489  0.166308  0.699872  1
  O  O32  1  0.223042  0.515849  0.528672  1
  O  O33  1  0.135698  0.803731  0.519192  1
  O  O34  1  0.723042  0.984151  0.528672  1
  O  O35  1  0.635698  0.696269  0.519192  1
  O  O36  1  0.364302  0.303731  0.480808  1
  O  O37  1  0.276958  0.015849  0.471328  1
  O  O38  1  0.864302  0.196269  0.480808  1
  O  O39  1  0.776958  0.484151  0.471328  1
  O  O40  1  0.334511  0.833692  0.300128  1
  O  O41  1  0.499563  0.562135  0.283388  1
  O  O42  1  0.834511  0.666308  0.300128  1
  O  O43  1  0.368421  0.248668  0.179988  1
  O  O44  1  0.999563  0.937865  0.283388  1
  O  O45  1  0.075173  0.445032  0.142711  1
  O  O46  1  0.868421  0.251332  0.179988  1
  O  O47  1  0.174372  0.077799  0.068807  1
  O  O48  1  0.575173  0.054968  0.142711  1
  O  O49  1  0.051161  0.689023  0.072403  1
  O  O50  1  0.674372  0.422201  0.068807  1
  O  O51  1  0.551161  0.810977  0.072403  1
