# generated using pymatgen
data_Na2Cr7O14
_symmetry_space_group_name_H-M   'P 1'
_cell_length_a   9.94830972
_cell_length_b   9.94830972
_cell_length_c   9.94830972
_cell_angle_alpha   33.62609021
_cell_angle_beta   33.62609021
_cell_angle_gamma   33.62609021
_symmetry_Int_Tables_number   1
_chemical_formula_structural   Na2Cr7O14
_chemical_formula_sum   'Na2 Cr7 O14'
_cell_volume   268.96765192
_cell_formula_units_Z   1
loop_
 _symmetry_equiv_pos_site_id
 _symmetry_equiv_pos_as_xyz
  1  'x, y, z'
loop_
 _atom_site_type_symbol
 _atom_site_label
 _atom_site_symmetry_multiplicity
 _atom_site_fract_x
 _atom_site_fract_y
 _atom_site_fract_z
 _atom_site_occupancy
  Na  Na0  1  0.301646  0.301646  0.301646  1
  Na  Na1  1  0.698354  0.698354  0.698354  1
  Cr  Cr2  1  0.000000  0.000000  0.500000  1
  Cr  Cr3  1  0.060350  0.060350  0.060350  1
  Cr  Cr4  1  0.000000  0.500000  0.000000  1
  Cr  Cr5  1  0.500000  0.000000  0.000000  1
  Cr  Cr6  1  0.576024  0.576024  0.576024  1
  Cr  Cr7  1  0.423976  0.423976  0.423976  1
  Cr  Cr8  1  0.939650  0.939650  0.939650  1
  O  O9  1  0.128474  0.128474  0.128474  1
  O  O10  1  0.116370  0.636998  0.636998  1
  O  O11  1  0.363002  0.363002  0.883630  1
  O  O12  1  0.298998  0.778037  0.778037  1
  O  O13  1  0.221963  0.221963  0.701002  1
  O  O14  1  0.221963  0.701002  0.221963  1
  O  O15  1  0.363002  0.883630  0.363002  1
  O  O16  1  0.636998  0.116370  0.636998  1
  O  O17  1  0.778037  0.298998  0.778037  1
  O  O18  1  0.778037  0.778037  0.298998  1
  O  O19  1  0.701002  0.221963  0.221963  1
  O  O20  1  0.636998  0.636998  0.116370  1
  O  O21  1  0.883630  0.363002  0.363002  1
  O  O22  1  0.871526  0.871526  0.871526  1
