# generated using pymatgen
data_LiVSO4F3
_symmetry_space_group_name_H-M   'P 1'
_cell_length_a   7.16557380
_cell_length_b   7.87958996
_cell_length_c   10.26152715
_cell_angle_alpha   88.61916743
_cell_angle_beta   88.91219140
_cell_angle_gamma   86.97486061
_symmetry_Int_Tables_number   1
_chemical_formula_structural   LiVSO4F3
_chemical_formula_sum   'Li4 V4 S4 O16 F12'
_cell_volume   578.31767085
_cell_formula_units_Z   4
loop_
 _symmetry_equiv_pos_site_id
 _symmetry_equiv_pos_as_xyz
  1  'x, y, z'
loop_
 _atom_site_type_symbol
 _atom_site_label
 _atom_site_symmetry_multiplicity
 _atom_site_fract_x
 _atom_site_fract_y
 _atom_site_fract_z
 _atom_site_occupancy
  Li  Li0  1  0.194354  0.111255  0.272715  1
  Li  Li1  1  0.707910  0.885182  0.257818  1
  Li  Li2  1  0.866414  0.414568  0.796362  1
  Li  Li3  1  0.865737  0.899827  0.718173  1
  V  V4  1  0.001713  0.494701  0.490074  1
  V  V5  1  0.992094  0.995863  0.998074  1
  V  V6  1  0.501255  0.499952  0.499932  1
  V  V7  1  0.491573  0.998690  0.991135  1
  S  S8  1  0.220748  0.326847  0.007814  1
  S  S9  1  0.220872  0.829936  0.509324  1
  S  S10  1  0.764485  0.159737  0.500344  1
  S  S11  1  0.768955  0.664167  0.009447  1
  O  O12  1  0.098785  0.193070  0.081223  1
  O  O13  1  0.092763  0.712243  0.437242  1
  O  O14  1  0.113177  0.405561  0.902773  1
  O  O15  1  0.116182  0.902825  0.618109  1
  O  O16  1  0.298904  0.430712  0.103008  1
  O  O17  1  0.288109  0.951365  0.411775  1
  O  O18  1  0.382249  0.215040  0.943923  1
  O  O19  1  0.385215  0.719900  0.560106  1
  O  O20  1  0.600562  0.273391  0.450510  1
  O  O21  1  0.614242  0.784387  0.067950  1
  O  O22  1  0.700857  0.045831  0.603541  1
  O  O23  1  0.696745  0.558266  0.910358  1
  O  O24  1  0.848107  0.072631  0.387318  1
  O  O25  1  0.866398  0.582372  0.116551  1
  O  O26  1  0.901523  0.277063  0.561283  1
  O  O27  1  0.902496  0.787194  0.932081  1
  F  F28  1  0.991999  0.086552  0.833618  1
  F  F29  1  0.991756  0.557302  0.663142  1
  F  F30  1  0.258947  0.400828  0.512704  1
  F  F31  1  0.246572  0.898905  0.987011  1
  F  F32  1  0.456932  0.044129  0.169110  1
  F  F33  1  0.484906  0.572656  0.334016  1
  F  F34  1  0.562291  0.451943  0.667053  1
  F  F35  1  0.552670  0.921960  0.833103  1
  F  F36  1  0.736494  0.100495  0.004441  1
  F  F37  1  0.752731  0.601089  0.478627  1
  F  F38  1  0.010934  0.403277  0.332948  1
  F  F39  1  0.957208  0.918911  0.166745  1
