# generated using pymatgen
data_Li4Cr2Ni3Te3O16
_symmetry_space_group_name_H-M   'P 1'
_cell_length_a   6.10967694
_cell_length_b   6.12330045
_cell_length_c   9.64499527
_cell_angle_alpha   89.46443174
_cell_angle_beta   91.32431446
_cell_angle_gamma   118.81210624
_symmetry_Int_Tables_number   1
_chemical_formula_structural   Li4Cr2Ni3Te3O16
_chemical_formula_sum   'Li4 Cr2 Ni3 Te3 O16'
_cell_volume   316.07821979
_cell_formula_units_Z   1
loop_
 _symmetry_equiv_pos_site_id
 _symmetry_equiv_pos_as_xyz
  1  'x, y, z'
loop_
 _atom_site_type_symbol
 _atom_site_label
 _atom_site_symmetry_multiplicity
 _atom_site_fract_x
 _atom_site_fract_y
 _atom_site_fract_z
 _atom_site_occupancy
  Li  Li0  1  0.342556  0.662871  0.127662  1
  Li  Li1  1  0.024953  0.975899  0.015479  1
  Li  Li2  1  0.009742  0.978720  0.493482  1
  Li  Li3  1  0.684838  0.336191  0.594061  1
  Cr  Cr4  1  0.320949  0.680418  0.502590  1
  Cr  Cr5  1  0.641599  0.331303  0.027120  1
  Ni  Ni6  1  0.169827  0.833846  0.783549  1
  Ni  Ni7  1  0.827360  0.663474  0.285102  1
  Ni  Ni8  1  0.337012  0.173256  0.286993  1
  Te  Te9  1  0.659170  0.830365  0.785738  1
  Te  Te10  1  0.164381  0.339708  0.787743  1
  Te  Te11  1  0.828538  0.173102  0.287660  1
  O  O12  1  0.674697  0.862985  0.399417  1
  O  O13  1  0.504547  0.538117  0.657910  1
  O  O14  1  0.363028  0.694231  0.901415  1
  O  O15  1  0.970925  0.980249  0.682359  1
  O  O16  1  0.987182  0.011490  0.194166  1
  O  O17  1  0.142058  0.327944  0.402779  1
  O  O18  1  0.495153  0.962928  0.661065  1
  O  O19  1  0.046168  0.532715  0.649415  1
  O  O20  1  0.808315  0.133661  0.898963  1
  O  O21  1  0.169584  0.837413  0.398091  1
  O  O22  1  0.955321  0.458912  0.155909  1
  O  O23  1  0.534815  0.041339  0.159156  1
  O  O24  1  0.676763  0.328362  0.394361  1
  O  O25  1  0.819355  0.677781  0.897347  1
  O  O26  1  0.517603  0.477409  0.156359  1
  O  O27  1  0.323859  0.155611  0.906272  1
