# generated using pymatgen
data_Na6Cr2P(CO4)4
_symmetry_space_group_name_H-M   'P 1'
_cell_length_a   9.90528961
_cell_length_b   9.90528961
_cell_length_c   9.90528961
_cell_angle_alpha   60.00000000
_cell_angle_beta   60.00000000
_cell_angle_gamma   60.00000000
_symmetry_Int_Tables_number   1
_chemical_formula_structural   Na6Cr2P(CO4)4
_chemical_formula_sum   'Na12 Cr4 P2 C8 O32'
_cell_volume   687.20535674
_cell_formula_units_Z   2
loop_
 _symmetry_equiv_pos_site_id
 _symmetry_equiv_pos_as_xyz
  1  'x, y, z'
loop_
 _atom_site_type_symbol
 _atom_site_label
 _atom_site_symmetry_multiplicity
 _atom_site_fract_x
 _atom_site_fract_y
 _atom_site_fract_z
 _atom_site_occupancy
  Na  Na0  1  0.544356  0.955644  0.955644  1
  Na  Na1  1  0.544356  0.544356  0.955644  1
  Na  Na2  1  0.955644  0.544356  0.955644  1
  Na  Na3  1  0.294356  0.705644  0.705644  1
  Na  Na4  1  0.544356  0.955644  0.544356  1
  Na  Na5  1  0.955644  0.955644  0.544356  1
  Na  Na6  1  0.294356  0.294356  0.705644  1
  Na  Na7  1  0.705644  0.294356  0.705644  1
  Na  Na8  1  0.955644  0.544356  0.544356  1
  Na  Na9  1  0.705644  0.705644  0.294356  1
  Na  Na10  1  0.294356  0.705644  0.294356  1
  Na  Na11  1  0.705644  0.294356  0.294356  1
  Cr  Cr12  1  0.125000  0.125000  0.125000  1
  Cr  Cr13  1  0.625000  0.125000  0.125000  1
  Cr  Cr14  1  0.125000  0.625000  0.125000  1
  Cr  Cr15  1  0.125000  0.125000  0.625000  1
  P  P16  1  0.500000  0.500000  0.500000  1
  P  P17  1  0.750000  0.750000  0.750000  1
  C  C18  1  0.340741  0.340741  0.977777  1
  C  C19  1  0.909259  0.909259  0.909259  1
  C  C20  1  0.272223  0.909259  0.909259  1
  C  C21  1  0.909259  0.272223  0.909259  1
  C  C22  1  0.340741  0.977777  0.340741  1
  C  C23  1  0.340741  0.340741  0.340741  1
  C  C24  1  0.977777  0.340741  0.340741  1
  C  C25  1  0.909259  0.909259  0.272223  1
  O  O26  1  0.316169  0.224841  0.975484  1
  O  O27  1  0.483506  0.316169  0.975484  1
  O  O28  1  0.224841  0.483506  0.975484  1
  O  O29  1  0.933831  0.766494  0.025159  1
  O  O30  1  0.564373  0.306880  0.564373  1
  O  O31  1  0.274516  0.766494  0.933831  1
  O  O32  1  0.274516  0.933831  0.025159  1
  O  O33  1  0.306880  0.564373  0.564373  1
  O  O34  1  0.564373  0.564373  0.564373  1
  O  O35  1  0.766494  0.025159  0.933831  1
  O  O36  1  0.025159  0.933831  0.766494  1
  O  O37  1  0.564373  0.564373  0.306880  1
  O  O38  1  0.766494  0.274516  0.025159  1
  O  O39  1  0.274516  0.025159  0.766494  1
  O  O40  1  0.025159  0.274516  0.933831  1
  O  O41  1  0.316169  0.975484  0.483506  1
  O  O42  1  0.933831  0.274516  0.766494  1
  O  O43  1  0.224841  0.975484  0.316169  1
  O  O44  1  0.975484  0.224841  0.483506  1
  O  O45  1  0.483506  0.975484  0.224841  1
  O  O46  1  0.685627  0.685627  0.943120  1
  O  O47  1  0.224841  0.316169  0.483506  1
  O  O48  1  0.483506  0.224841  0.316169  1
  O  O49  1  0.685627  0.685627  0.685627  1
  O  O50  1  0.943120  0.685627  0.685627  1
  O  O51  1  0.975484  0.316169  0.224841  1
  O  O52  1  0.975484  0.483506  0.316169  1
  O  O53  1  0.685627  0.943120  0.685627  1
  O  O54  1  0.316169  0.483506  0.224841  1
  O  O55  1  0.025159  0.766494  0.274516  1
  O  O56  1  0.766494  0.933831  0.274516  1
  O  O57  1  0.933831  0.025159  0.274516  1
