# generated using pymatgen
data_Ba5B20(H2O19)2
_symmetry_space_group_name_H-M   'P 1'
_cell_length_a   9.63173925
_cell_length_b   6.79687763
_cell_length_c   11.82095002
_cell_angle_alpha   90.00000000
_cell_angle_beta   94.96457492
_cell_angle_gamma   90.00000000
_symmetry_Int_Tables_number   1
_chemical_formula_structural   Ba5B20(H2O19)2
_chemical_formula_sum   'Ba5 B20 H4 O38'
_cell_volume   770.96415031
_cell_formula_units_Z   1
loop_
 _symmetry_equiv_pos_site_id
 _symmetry_equiv_pos_as_xyz
  1  'x, y, z'
loop_
 _atom_site_type_symbol
 _atom_site_label
 _atom_site_symmetry_multiplicity
 _atom_site_fract_x
 _atom_site_fract_y
 _atom_site_fract_z
 _atom_site_occupancy
  Ba  Ba0  1  0.000000  0.993888  0.000000  1
  Ba  Ba1  1  0.384233  0.233259  0.301999  1
  Ba  Ba2  1  0.615767  0.233259  0.698001  1
  Ba  Ba3  1  0.618553  0.747335  0.175592  1
  Ba  Ba4  1  0.381447  0.747335  0.824408  1
  B  B5  1  0.285092  0.730066  0.142645  1
  B  B6  1  0.714908  0.730066  0.857355  1
  B  B7  1  0.364422  0.060103  0.034069  1
  B  B8  1  0.635578  0.060103  0.965931  1
  B  B9  1  0.954250  0.217071  0.309834  1
  B  B10  1  0.045750  0.217071  0.690166  1
  B  B11  1  0.069719  0.718828  0.245155  1
  B  B12  1  0.930281  0.718828  0.754845  1
  B  B13  1  0.321410  0.422916  0.007780  1
  B  B14  1  0.678590  0.422916  0.992220  1
  B  B15  1  0.296650  0.693834  0.357162  1
  B  B16  1  0.703350  0.693834  0.642838  1
  B  B17  1  0.657698  0.925769  0.483638  1
  B  B18  1  0.342302  0.925769  0.516362  1
  B  B19  1  0.757504  0.195538  0.154621  1
  B  B20  1  0.242496  0.195538  0.845379  1
  B  B21  1  0.712992  0.226874  0.360774  1
  B  B22  1  0.287008  0.226874  0.639226  1
  B  B23  1  0.670408  0.573070  0.445338  1
  B  B24  1  0.329592  0.573070  0.554662  1
  H  H25  1  0.111772  0.231280  0.426141  1
  H  H26  1  0.888228  0.231280  0.573859  1
  H  H27  1  0.896225  0.731153  0.318357  1
  H  H28  1  0.103775  0.731153  0.681643  1
  O  O29  1  0.129414  0.721880  0.143465  1
  O  O30  1  0.870586  0.721880  0.856535  1
  O  O31  1  0.097440  0.219384  0.343448  1
  O  O32  1  0.902560  0.219384  0.656552  1
  O  O33  1  0.365746  0.270029  0.077248  1
  O  O34  1  0.634254  0.270029  0.922752  1
  O  O35  1  0.909999  0.198750  0.196787  1
  O  O36  1  0.090001  0.198750  0.803213  1
  O  O37  1  0.351391  0.643746  0.249705  1
  O  O38  1  0.648609  0.643746  0.750295  1
  O  O39  1  0.686341  0.771494  0.409660  1
  O  O40  1  0.313659  0.771494  0.590340  1
  O  O41  1  0.741357  0.045234  0.064472  1
  O  O42  1  0.258643  0.045234  0.935528  1
  O  O43  1  0.500000  0.992675  0.000000  1
  O  O44  1  0.327718  0.938855  0.132134  1
  O  O45  1  0.672282  0.938855  0.867866  1
  O  O46  1  0.863336  0.229326  0.392992  1
  O  O47  1  0.136664  0.229326  0.607008  1
  O  O48  1  0.923562  0.730240  0.241011  1
  O  O49  1  0.076438  0.730240  0.758989  1
  O  O50  1  0.144540  0.713838  0.347379  1
  O  O51  1  0.855460  0.713838  0.652621  1
  O  O52  1  0.329537  0.617624  0.043472  1
  O  O53  1  0.670463  0.617624  0.956528  1
  O  O54  1  0.718270  0.392708  0.105855  1
  O  O55  1  0.281730  0.392708  0.894145  1
  O  O56  1  0.334717  0.533877  0.442413  1
  O  O57  1  0.665283  0.533877  0.557587  1
  O  O58  1  0.360911  0.880500  0.405758  1
  O  O59  1  0.639089  0.880500  0.594242  1
  O  O60  1  0.643094  0.117671  0.449704  1
  O  O61  1  0.356906  0.117671  0.550296  1
  O  O62  1  0.673908  0.143246  0.249186  1
  O  O63  1  0.326092  0.143246  0.750814  1
  O  O64  1  0.657677  0.437299  0.359825  1
  O  O65  1  0.342323  0.437299  0.640175  1
  O  O66  1  0.000000  0.403243  0.000000  1
