# generated using pymatgen
data_Li2MnO2F
_symmetry_space_group_name_H-M   'P 1'
_cell_length_a   5.21426311
_cell_length_b   5.21426311
_cell_length_c   9.32272334
_cell_angle_alpha   80.00571915
_cell_angle_beta   99.99428085
_cell_angle_gamma   68.76454288
_symmetry_Int_Tables_number   1
_chemical_formula_structural   Li2MnO2F
_chemical_formula_sum   'Li8 Mn4 O8 F4'
_cell_volume   224.82659654
_cell_formula_units_Z   4
loop_
 _symmetry_equiv_pos_site_id
 _symmetry_equiv_pos_as_xyz
  1  'x, y, z'
loop_
 _atom_site_type_symbol
 _atom_site_label
 _atom_site_symmetry_multiplicity
 _atom_site_fract_x
 _atom_site_fract_y
 _atom_site_fract_z
 _atom_site_occupancy
  Li  Li0  1  0.380790  0.876496  0.272026  1
  Li  Li1  1  0.123504  0.619210  0.772026  1
  Li  Li2  1  0.459540  0.323845  0.389769  1
  Li  Li3  1  0.297422  0.457143  0.089518  1
  Li  Li4  1  0.676155  0.540460  0.889769  1
  Li  Li5  1  0.542857  0.702578  0.589518  1
  Li  Li6  1  0.885537  0.372544  0.256033  1
  Li  Li7  1  0.627456  0.114463  0.756033  1
  Mn  Mn8  1  0.792614  0.957147  0.085237  1
  Mn  Mn9  1  0.952352  0.794151  0.409785  1
  Mn  Mn10  1  0.042853  0.207386  0.585237  1
  Mn  Mn11  1  0.205849  0.047648  0.909785  1
  O  O12  1  0.625698  0.105586  0.241593  1
  O  O13  1  0.168669  0.024380  0.427929  1
  O  O14  1  0.755690  0.541041  0.426917  1
  O  O15  1  0.894414  0.374302  0.741593  1
  O  O16  1  0.113411  0.656000  0.242227  1
  O  O17  1  0.975620  0.831331  0.927929  1
  O  O18  1  0.458959  0.244310  0.926917  1
  O  O19  1  0.344000  0.886589  0.742227  1
  F  F20  1  0.548975  0.680982  0.077910  1
  F  F21  1  0.041288  0.232672  0.081055  1
  F  F22  1  0.319018  0.451025  0.577910  1
  F  F23  1  0.767328  0.958712  0.581055  1
