# generated using pymatgen
data_Li3V3P8O29
_symmetry_space_group_name_H-M   'P 1'
_cell_length_a   9.74742872
_cell_length_b   9.75773193
_cell_length_c   14.25629852
_cell_angle_alpha   89.62550117
_cell_angle_beta   89.52556047
_cell_angle_gamma   60.17172821
_symmetry_Int_Tables_number   1
_chemical_formula_structural   Li3V3P8O29
_chemical_formula_sum   'Li6 V6 P16 O58'
_cell_volume   1176.27458446
_cell_formula_units_Z   2
loop_
 _symmetry_equiv_pos_site_id
 _symmetry_equiv_pos_as_xyz
  1  'x, y, z'
loop_
 _atom_site_type_symbol
 _atom_site_label
 _atom_site_symmetry_multiplicity
 _atom_site_fract_x
 _atom_site_fract_y
 _atom_site_fract_z
 _atom_site_occupancy
  Li  Li0  1  0.323462  0.906653  0.047861  1
  Li  Li1  1  0.908570  0.770334  0.051513  1
  Li  Li2  1  0.216257  0.082235  0.449470  1
  Li  Li3  1  0.772765  0.914800  0.566971  1
  Li  Li4  1  0.087070  0.692088  0.453100  1
  Li  Li5  1  0.972841  0.047307  0.986388  1
  V  V6  1  0.438319  0.996862  0.249728  1
  V  V7  1  0.562417  0.008508  0.754650  1
  V  V8  1  0.999350  0.430146  0.751994  1
  V  V9  1  0.001353  0.559041  0.245726  1
  V  V10  1  0.567095  0.435325  0.249210  1
  V  V11  1  0.437657  0.561154  0.748463  1
  P  P12  1  0.775397  0.304142  0.840146  1
  P  P13  1  0.912391  0.312269  0.339767  1
  P  P14  1  0.313188  0.770254  0.342712  1
  P  P15  1  0.665708  0.668827  0.131539  1
  P  P16  1  0.669800  0.670483  0.632319  1
  P  P17  1  0.313423  0.907996  0.838382  1
  P  P18  1  0.228000  0.089475  0.660473  1
  P  P19  1  0.912517  0.774566  0.841680  1
  P  P20  1  0.085863  0.218421  0.156175  1
  P  P21  1  0.773183  0.906116  0.344673  1
  P  P22  1  0.694188  0.085767  0.164338  1
  P  P23  1  0.331987  0.332762  0.365684  1
  P  P24  1  0.328608  0.337159  0.869319  1
  P  P25  1  0.691192  0.226579  0.654911  1
  P  P26  1  0.091549  0.681060  0.662986  1
  P  P27  1  0.226667  0.691796  0.158470  1
  O  O28  1  0.769453  0.226924  0.566655  1
  O  O29  1  0.741211  0.343043  0.332796  1
  O  O30  1  0.010770  0.203789  0.070627  1
  O  O31  1  0.911050  0.345113  0.831386  1
  O  O32  1  0.615192  0.459481  0.830072  1
  O  O33  1  0.670795  0.519701  0.176320  1
  O  O34  1  0.474002  0.617849  0.322804  1
  O  O35  1  0.218640  0.788471  0.075843  1
  O  O36  1  0.348296  0.736176  0.830183  1
  O  O37  1  0.819871  0.527544  0.679428  1
  O  O38  1  0.904972  0.474654  0.317268  1
  O  O39  1  0.528886  0.658324  0.678744  1
  O  O40  1  0.657648  0.682076  0.027986  1
  O  O41  1  0.674897  0.667893  0.528315  1
  O  O42  1  0.511275  0.815332  0.175197  1
  O  O43  1  0.915607  0.616327  0.831078  1
  O  O44  1  0.814757  0.675140  0.170334  1
  O  O45  1  0.338266  0.916403  0.338867  1
  O  O46  1  0.206064  0.997652  0.749025  1
  O  O47  1  0.236580  0.008880  0.571366  1
  O  O48  1  0.228216  0.983305  0.927442  1
  O  O49  1  0.470579  0.911238  0.825811  1
  O  O50  1  0.664154  0.823461  0.671534  1
  O  O51  1  0.261324  0.081320  0.165142  1
  O  O52  1  0.620625  0.898437  0.319555  1
  O  O53  1  0.921148  0.738675  0.333430  1
  O  O54  1  0.000306  0.202644  0.249464  1
  O  O55  1  0.002763  0.237476  0.425218  1
  O  O56  1  0.001971  0.762031  0.575551  1
  O  O57  1  0.083920  0.258687  0.668572  1
  O  O58  1  0.380266  0.097468  0.680716  1
  O  O59  1  0.740184  0.913967  0.829922  1
  O  O60  1  0.335410  0.180442  0.324656  1
  O  O61  1  0.534561  0.084105  0.175972  1
  O  O62  1  0.791720  0.993982  0.083067  1
  O  O63  1  0.762506  0.976214  0.437563  1
  O  O64  1  0.788194  0.010043  0.261434  1
  O  O65  1  0.658638  0.084316  0.663682  1
  O  O66  1  0.184071  0.332077  0.825510  1
  O  O67  1  0.083874  0.379608  0.170796  1
  O  O68  1  0.480846  0.186709  0.825372  1
  O  O69  1  0.331962  0.331999  0.973046  1
  O  O70  1  0.321292  0.339235  0.469077  1
  O  O71  1  0.475824  0.338048  0.320215  1
  O  O72  1  0.096598  0.522787  0.679458  1
  O  O73  1  0.181704  0.479580  0.319756  1
  O  O74  1  0.657014  0.258985  0.167332  1
  O  O75  1  0.796963  0.202483  0.747003  1
  O  O76  1  0.794394  0.208263  0.924657  1
  O  O77  1  0.530734  0.380485  0.676290  1
  O  O78  1  0.330804  0.481670  0.822674  1
  O  O79  1  0.385053  0.534547  0.172231  1
  O  O80  1  0.086206  0.657174  0.160720  1
  O  O81  1  0.981651  0.793249  0.930397  1
  O  O82  1  0.003005  0.793762  0.751551  1
  O  O83  1  0.260864  0.655300  0.664933  1
  O  O84  1  0.231155  0.763455  0.428649  1
  O  O85  1  0.204265  0.792471  0.252553  1
