# generated using pymatgen
data_HoLuO3
_symmetry_space_group_name_H-M   'P 1'
_cell_length_a   5.57601775
_cell_length_b   5.84943113
_cell_length_c   8.25877054
_cell_angle_alpha   90.00000000
_cell_angle_beta   90.00000000
_cell_angle_gamma   90.00000000
_symmetry_Int_Tables_number   1
_chemical_formula_structural   HoLuO3
_chemical_formula_sum   'Ho4 Lu4 O12'
_cell_volume   269.37245202
_cell_formula_units_Z   4
loop_
 _symmetry_equiv_pos_site_id
 _symmetry_equiv_pos_as_xyz
  1  'x, y, z'
loop_
 _atom_site_type_symbol
 _atom_site_label
 _atom_site_symmetry_multiplicity
 _atom_site_fract_x
 _atom_site_fract_y
 _atom_site_fract_z
 _atom_site_occupancy
  Ho  Ho0  1  0.018842  0.943270  0.750000  1
  Ho  Ho1  1  0.481158  0.443270  0.750000  1
  Ho  Ho2  1  0.518842  0.556730  0.250000  1
  Ho  Ho3  1  0.981158  0.056730  0.250000  1
  Lu  Lu4  1  0.000000  0.500000  0.000000  1
  Lu  Lu5  1  0.000000  0.500000  0.500000  1
  Lu  Lu6  1  0.500000  0.000000  0.000000  1
  Lu  Lu7  1  0.500000  0.000000  0.500000  1
  O  O8  1  0.144602  0.430172  0.250000  1
  O  O9  1  0.183788  0.186973  0.576549  1
  O  O10  1  0.183788  0.186973  0.923451  1
  O  O11  1  0.316212  0.686973  0.923451  1
  O  O12  1  0.316212  0.686973  0.576549  1
  O  O13  1  0.355398  0.930172  0.250000  1
  O  O14  1  0.644602  0.069828  0.750000  1
  O  O15  1  0.683788  0.313027  0.076549  1
  O  O16  1  0.683788  0.313027  0.423451  1
  O  O17  1  0.816212  0.813027  0.076549  1
  O  O18  1  0.816212  0.813027  0.423451  1
  O  O19  1  0.855398  0.569828  0.750000  1
