# generated using pymatgen
data_K4MoO8
_symmetry_space_group_name_H-M   'P 1'
_cell_length_a   6.26027714
_cell_length_b   6.34168387
_cell_length_c   7.17010875
_cell_angle_alpha   88.98773274
_cell_angle_beta   89.12340225
_cell_angle_gamma   65.41485434
_symmetry_Int_Tables_number   1
_chemical_formula_structural   K4MoO8
_chemical_formula_sum   'K4 Mo1 O8'
_cell_volume   258.80205273
_cell_formula_units_Z   1
loop_
 _symmetry_equiv_pos_site_id
 _symmetry_equiv_pos_as_xyz
  1  'x, y, z'
loop_
 _atom_site_type_symbol
 _atom_site_label
 _atom_site_symmetry_multiplicity
 _atom_site_fract_x
 _atom_site_fract_y
 _atom_site_fract_z
 _atom_site_occupancy
  K  K0  1  0.908288  0.015828  0.951696  1
  K  K1  1  0.973019  0.004115  0.427801  1
  K  K2  1  0.212632  0.406712  0.745591  1
  K  K3  1  0.602147  0.659935  0.316465  1
  Mo  Mo4  1  0.532590  0.766885  0.810170  1
  O  O5  1  0.194594  0.687193  0.165792  1
  O  O6  1  0.458967  0.949242  0.010053  1
  O  O7  1  0.701307  0.878570  0.670079  1
  O  O8  1  0.058709  0.546379  0.191152  1
  O  O9  1  0.070739  0.456710  0.383504  1
  O  O10  1  0.265139  0.820659  0.692608  1
  O  O11  1  0.687860  0.468957  0.947133  1
  O  O12  1  0.730610  0.419515  0.736956  1
