# generated using pymatgen
data_Dy2Ge2O7
_symmetry_space_group_name_H-M   'P 1'
_cell_length_a   5.80222107
_cell_length_b   5.80222107
_cell_length_c   5.01305189
_cell_angle_alpha   82.57376656
_cell_angle_beta   97.42623344
_cell_angle_gamma   74.70859740
_symmetry_Int_Tables_number   1
_chemical_formula_structural   Dy2Ge2O7
_chemical_formula_sum   'Dy2 Ge2 O7'
_cell_volume   159.05680272
_cell_formula_units_Z   1
loop_
 _symmetry_equiv_pos_site_id
 _symmetry_equiv_pos_as_xyz
  1  'x, y, z'
loop_
 _atom_site_type_symbol
 _atom_site_label
 _atom_site_symmetry_multiplicity
 _atom_site_fract_x
 _atom_site_fract_y
 _atom_site_fract_z
 _atom_site_occupancy
  Dy  Dy0  1  0.302419  0.302419  0.000000  1
  Dy  Dy1  1  0.689821  0.689821  0.000000  1
  Ge  Ge2  1  0.765470  0.223982  0.591184  1
  Ge  Ge3  1  0.223982  0.765470  0.408816  1
  O  O4  1  0.915015  0.391301  0.787677  1
  O  O5  1  0.594535  0.078624  0.787638  1
  O  O6  1  0.597783  0.395529  0.276053  1
  O  O7  1  0.984704  0.984704  0.500000  1
  O  O8  1  0.395529  0.597783  0.723947  1
  O  O9  1  0.078624  0.594535  0.212362  1
  O  O10  1  0.391301  0.915015  0.212323  1
