# generated using pymatgen
data_Li3Cu3(PO4)2
_symmetry_space_group_name_H-M   'P 1'
_cell_length_a   5.12094567
_cell_length_b   5.45820486
_cell_length_c   6.23484859
_cell_angle_alpha   88.14540041
_cell_angle_beta   89.26264948
_cell_angle_gamma   89.35903441
_symmetry_Int_Tables_number   1
_chemical_formula_structural   Li3Cu3(PO4)2
_chemical_formula_sum   'Li3 Cu3 P2 O8'
_cell_volume   174.15549105
_cell_formula_units_Z   1
loop_
 _symmetry_equiv_pos_site_id
 _symmetry_equiv_pos_as_xyz
  1  'x, y, z'
loop_
 _atom_site_type_symbol
 _atom_site_label
 _atom_site_symmetry_multiplicity
 _atom_site_fract_x
 _atom_site_fract_y
 _atom_site_fract_z
 _atom_site_occupancy
  Li  Li0  1  0.500382  0.156554  0.002341  1
  Li  Li1  1  0.995835  0.332025  0.249658  1
  Li  Li2  1  0.499636  0.675121  0.253435  1
  Cu  Cu3  1  0.011026  0.764241  0.515286  1
  Cu  Cu4  1  0.544954  0.652516  0.722542  1
  Cu  Cu5  1  0.986663  0.349789  0.729866  1
  P  P6  1  0.002786  0.841441  0.013167  1
  P  P7  1  0.496050  0.179462  0.490635  1
  O  O8  1  0.106195  0.108253  0.014182  1
  O  O9  1  0.699512  0.835838  0.008153  1
  O  O10  1  0.105469  0.689445  0.213992  1
  O  O11  1  0.606698  0.323034  0.289837  1
  O  O12  1  0.193546  0.186899  0.489694  1
  O  O13  1  0.595595  0.909090  0.483416  1
  O  O14  1  0.589643  0.289374  0.708411  1
  O  O15  1  0.123417  0.706917  0.815386  1
