# generated using pymatgen
data_Ti3NiSn2(PO4)6
_symmetry_space_group_name_H-M   'P 1'
_cell_length_a   9.02905740
_cell_length_b   9.02905740
_cell_length_c   9.02905740
_cell_angle_alpha   57.00993405
_cell_angle_beta   57.00993405
_cell_angle_gamma   57.00993405
_symmetry_Int_Tables_number   1
_chemical_formula_structural   Ti3NiSn2(PO4)6
_chemical_formula_sum   'Ti3 Ni1 Sn2 P6 O24'
_cell_volume   484.60691011
_cell_formula_units_Z   1
loop_
 _symmetry_equiv_pos_site_id
 _symmetry_equiv_pos_as_xyz
  1  'x, y, z'
loop_
 _atom_site_type_symbol
 _atom_site_label
 _atom_site_symmetry_multiplicity
 _atom_site_fract_x
 _atom_site_fract_y
 _atom_site_fract_z
 _atom_site_occupancy
  Ti  Ti0  1  0.855598  0.855598  0.855598  1
  Ti  Ti1  1  0.647964  0.647964  0.647964  1
  Ti  Ti2  1  0.348025  0.348025  0.348025  1
  Ni  Ni3  1  0.150279  0.150279  0.150279  1
  Sn  Sn4  1  0.014100  0.014100  0.014100  1
  Sn  Sn5  1  0.496576  0.496576  0.496576  1
  P  P6  1  0.249836  0.535418  0.958005  1
  P  P7  1  0.958005  0.249836  0.535418  1
  P  P8  1  0.465994  0.038061  0.747097  1
  P  P9  1  0.038061  0.747097  0.465994  1
  P  P10  1  0.747097  0.465994  0.038061  1
  P  P11  1  0.535418  0.958005  0.249836  1
  O  O12  1  0.703479  0.503749  0.875161  1
  O  O13  1  0.503749  0.875161  0.703479  1
  O  O14  1  0.073760  0.717611  0.936731  1
  O  O15  1  0.875161  0.703479  0.503749  1
  O  O16  1  0.232647  0.370647  0.973906  1
  O  O17  1  0.421868  0.577535  0.778134  1
  O  O18  1  0.936731  0.073760  0.717611  1
  O  O19  1  0.778134  0.421868  0.577535  1
  O  O20  1  0.630696  0.006008  0.783469  1
  O  O21  1  0.577535  0.778134  0.421868  1
  O  O22  1  0.281499  0.057745  0.919002  1
  O  O23  1  0.006008  0.783469  0.630696  1
  O  O24  1  0.973906  0.232647  0.370647  1
  O  O25  1  0.717611  0.936731  0.073760  1
  O  O26  1  0.441972  0.222318  0.571069  1
  O  O27  1  0.370647  0.973906  0.232647  1
  O  O28  1  0.222318  0.571069  0.441972  1
  O  O29  1  0.057745  0.919002  0.281499  1
  O  O30  1  0.571069  0.441972  0.222318  1
  O  O31  1  0.783469  0.630696  0.006008  1
  O  O32  1  0.131364  0.279730  0.502944  1
  O  O33  1  0.919002  0.281499  0.057745  1
  O  O34  1  0.502944  0.131364  0.279730  1
  O  O35  1  0.279730  0.502944  0.131364  1
