# generated using pymatgen
data_Na4Bi2C4SO16
_symmetry_space_group_name_H-M   'P 1'
_cell_length_a   10.20944061
_cell_length_b   10.28107208
_cell_length_c   10.28996452
_cell_angle_alpha   118.93272588
_cell_angle_beta   118.77426727
_cell_angle_gamma   90.97597992
_symmetry_Int_Tables_number   1
_chemical_formula_structural   Na4Bi2C4SO16
_chemical_formula_sum   'Na8 Bi4 C8 S2 O32'
_cell_volume   783.35196177
_cell_formula_units_Z   2
loop_
 _symmetry_equiv_pos_site_id
 _symmetry_equiv_pos_as_xyz
  1  'x, y, z'
loop_
 _atom_site_type_symbol
 _atom_site_label
 _atom_site_symmetry_multiplicity
 _atom_site_fract_x
 _atom_site_fract_y
 _atom_site_fract_z
 _atom_site_occupancy
  Na  Na0  1  0.834392  0.080049  0.760915  1
  Na  Na1  1  0.836021  0.081185  0.154270  1
  Na  Na2  1  0.426233  0.076621  0.750959  1
  Na  Na3  1  0.566737  0.328324  0.252205  1
  Na  Na4  1  0.826482  0.671955  0.750782  1
  Na  Na5  1  0.419590  0.662271  0.734962  1
  Na  Na6  1  0.569615  0.924295  0.253728  1
  Na  Na7  1  0.185586  0.922894  0.252251  1
  Bi  Bi8  1  0.004012  0.502890  0.499085  1
  Bi  Bi9  1  0.006606  0.495805  0.005997  1
  Bi  Bi10  1  0.495307  0.499893  0.998364  1
  Bi  Bi11  1  0.004119  0.999952  0.506186  1
  C  C12  1  0.836518  0.276162  0.556989  1
  C  C13  1  0.770946  0.326071  0.056551  1
  C  C14  1  0.771239  0.716357  0.438677  1
  C  C15  1  0.782694  0.733757  0.061867  1
  C  C16  1  0.218830  0.278516  0.559058  1
  C  C17  1  0.218865  0.272496  0.934832  1
  C  C18  1  0.220556  0.665725  0.936763  1
  C  C19  1  0.169870  0.730362  0.444111  1
  S  S20  1  0.377181  0.123379  0.251683  1
  S  S21  1  0.629942  0.878470  0.757602  1
  O  O22  1  0.825682  0.144935  0.428489  1
  O  O23  1  0.889022  0.322020  0.039475  1
  O  O24  1  0.852578  0.284403  0.693208  1
  O  O25  1  0.782874  0.324060  0.187706  1
  O  O26  1  0.832381  0.398482  0.546678  1
  O  O27  1  0.434724  0.057880  0.366008  1
  O  O28  1  0.445741  0.068446  0.139695  1
  O  O29  1  0.640033  0.327729  0.941350  1
  O  O30  1  0.886919  0.710721  0.564863  1
  O  O31  1  0.797960  0.617199  0.947599  1
  O  O32  1  0.201586  0.059728  0.135189  1
  O  O33  1  0.436350  0.297989  0.366804  1
  O  O34  1  0.351055  0.270684  0.943208  1
  O  O35  1  0.221581  0.146351  0.549123  1
  O  O36  1  0.899347  0.866542  0.189390  1
  O  O37  1  0.652085  0.588946  0.301055  1
  O  O38  1  0.339085  0.404815  0.687375  1
  O  O39  1  0.092191  0.150621  0.806863  1
  O  O40  1  0.648535  0.721842  0.049683  1
  O  O41  1  0.775762  0.848698  0.450002  1
  O  O42  1  0.575684  0.703613  0.646059  1
  O  O43  1  0.808189  0.937715  0.875574  1
  O  O44  1  0.090777  0.280064  0.439692  1
  O  O45  1  0.217114  0.398703  0.053807  1
  O  O46  1  0.352925  0.678672  0.064166  1
  O  O47  1  0.575472  0.944167  0.646908  1
  O  O48  1  0.568623  0.934959  0.875780  1
  O  O49  1  0.178106  0.612178  0.458980  1
  O  O50  1  0.211688  0.651311  0.799880  1
  O  O51  1  0.148047  0.719022  0.303367  1
  O  O52  1  0.097462  0.666356  0.946167  1
  O  O53  1  0.182634  0.863722  0.571567  1
