# generated using pymatgen
data_Li4Mn3Ni3(SbO8)2
_symmetry_space_group_name_H-M   'P 1'
_cell_length_a   5.92199558
_cell_length_b   5.92199558
_cell_length_c   9.60297825
_cell_angle_alpha   88.82535486
_cell_angle_beta   91.17464514
_cell_angle_gamma   120.35606745
_symmetry_Int_Tables_number   1
_chemical_formula_structural   Li4Mn3Ni3(SbO8)2
_chemical_formula_sum   'Li4 Mn3 Ni3 Sb2 O16'
_cell_volume   290.52400024
_cell_formula_units_Z   1
loop_
 _symmetry_equiv_pos_site_id
 _symmetry_equiv_pos_as_xyz
  1  'x, y, z'
loop_
 _atom_site_type_symbol
 _atom_site_label
 _atom_site_symmetry_multiplicity
 _atom_site_fract_x
 _atom_site_fract_y
 _atom_site_fract_z
 _atom_site_occupancy
  Li  Li0  1  0.660737  0.339263  0.898272  1
  Li  Li1  1  0.999262  0.000738  0.986688  1
  Li  Li2  1  0.002172  0.997828  0.493147  1
  Li  Li3  1  0.328635  0.671365  0.406311  1
  Mn  Mn4  1  0.339769  0.167950  0.213846  1
  Mn  Mn5  1  0.832050  0.660231  0.213846  1
  Mn  Mn6  1  0.172157  0.827843  0.715312  1
  Ni  Ni7  1  0.830404  0.169596  0.213745  1
  Ni  Ni8  1  0.169879  0.337937  0.712309  1
  Ni  Ni9  1  0.662063  0.830121  0.712309  1
  Sb  Sb10  1  0.671589  0.328411  0.490531  1
  Sb  Sb11  1  0.339385  0.660615  0.984457  1
  O  O12  1  0.335870  0.155790  0.596531  1
  O  O13  1  0.516974  0.483026  0.342011  1
  O  O14  1  0.655520  0.344480  0.109902  1
  O  O15  1  0.009301  0.990699  0.303761  1
  O  O16  1  0.008230  0.991770  0.800931  1
  O  O17  1  0.844210  0.664130  0.596531  1
  O  O18  1  0.506430  0.037323  0.343911  1
  O  O19  1  0.962677  0.493570  0.343911  1
  O  O20  1  0.168812  0.831188  0.100266  1
  O  O21  1  0.840143  0.159857  0.588755  1
  O  O22  1  0.031552  0.529764  0.846188  1
  O  O23  1  0.470236  0.968448  0.846188  1
  O  O24  1  0.325330  0.674670  0.609757  1
  O  O25  1  0.169830  0.325903  0.095668  1
  O  O26  1  0.480796  0.519204  0.847364  1
  O  O27  1  0.674097  0.830170  0.095668  1
