# generated using pymatgen
data_Li2Mn2CoO6
_symmetry_space_group_name_H-M   'P 1'
_cell_length_a   5.08687224
_cell_length_b   5.08687224
_cell_length_c   10.27505938
_cell_angle_alpha   90.00000000
_cell_angle_beta   90.00000000
_cell_angle_gamma   120.26211738
_symmetry_Int_Tables_number   1
_chemical_formula_structural   Li2Mn2CoO6
_chemical_formula_sum   'Li4 Mn4 Co2 O12'
_cell_volume   229.64842675
_cell_formula_units_Z   2
loop_
 _symmetry_equiv_pos_site_id
 _symmetry_equiv_pos_as_xyz
  1  'x, y, z'
loop_
 _atom_site_type_symbol
 _atom_site_label
 _atom_site_symmetry_multiplicity
 _atom_site_fract_x
 _atom_site_fract_y
 _atom_site_fract_z
 _atom_site_occupancy
  Li  Li0  1  0.330488  0.830488  0.750000  1
  Li  Li1  1  0.169512  0.669512  0.250000  1
  Li  Li2  1  0.830488  0.330488  0.750000  1
  Li  Li3  1  0.669512  0.169512  0.250000  1
  Mn  Mn4  1  0.163310  0.836690  0.500000  1
  Mn  Mn5  1  0.336690  0.663310  1.000000  1
  Mn  Mn6  1  0.663310  0.336690  0.000000  1
  Mn  Mn7  1  0.836690  0.163310  0.500000  1
  Co  Co8  1  0.000000  0.000000  0.000000  1
  Co  Co9  1  0.500000  0.500000  0.500000  1
  O  O10  1  0.360941  0.996516  0.105193  1
  O  O11  1  0.639059  0.003484  0.894807  1
  O  O12  1  0.496516  0.860941  0.394807  1
  O  O13  1  0.139059  0.503484  0.605193  1
  O  O14  1  0.852278  0.852278  0.599130  1
  O  O15  1  0.647722  0.647722  0.099130  1
  O  O16  1  0.352278  0.352278  0.900870  1
  O  O17  1  0.003484  0.639059  0.894807  1
  O  O18  1  0.147722  0.147722  0.400870  1
  O  O19  1  0.860941  0.496516  0.394807  1
  O  O20  1  0.503484  0.139059  0.605193  1
  O  O21  1  0.996516  0.360941  0.105193  1
