# generated using pymatgen
data_Ti3VCu2(PO4)6
_symmetry_space_group_name_H-M   'P 1'
_cell_length_a   8.60763130
_cell_length_b   8.60763130
_cell_length_c   8.60763130
_cell_angle_alpha   59.96833413
_cell_angle_beta   59.96833413
_cell_angle_gamma   59.96833413
_symmetry_Int_Tables_number   1
_chemical_formula_structural   Ti3VCu2(PO4)6
_chemical_formula_sum   'Ti3 V1 Cu2 P6 O24'
_cell_volume   450.63404300
_cell_formula_units_Z   1
loop_
 _symmetry_equiv_pos_site_id
 _symmetry_equiv_pos_as_xyz
  1  'x, y, z'
loop_
 _atom_site_type_symbol
 _atom_site_label
 _atom_site_symmetry_multiplicity
 _atom_site_fract_x
 _atom_site_fract_y
 _atom_site_fract_z
 _atom_site_occupancy
  Ti  Ti0  1  0.641939  0.641939  0.641939  1
  Ti  Ti1  1  0.858104  0.858104  0.858104  1
  Ti  Ti2  1  0.358084  0.358084  0.358084  1
  V  V3  1  0.142394  0.142394  0.142394  1
  Cu  Cu4  1  0.999220  0.999220  0.999220  1
  Cu  Cu5  1  0.500038  0.500038  0.500038  1
  P  P6  1  0.249742  0.538097  0.961134  1
  P  P7  1  0.961134  0.249742  0.538097  1
  P  P8  1  0.538097  0.961134  0.249742  1
  P  P9  1  0.459124  0.039767  0.751936  1
  P  P10  1  0.039767  0.751936  0.459123  1
  P  P11  1  0.751936  0.459124  0.039767  1
  O  O12  1  0.125963  0.302870  0.499723  1
  O  O13  1  0.499723  0.125963  0.302870  1
  O  O14  1  0.302870  0.499723  0.125963  1
  O  O15  1  0.083348  0.729223  0.942610  1
  O  O16  1  0.196945  0.376147  0.996067  1
  O  O17  1  0.417015  0.557756  0.770776  1
  O  O18  1  0.942610  0.083348  0.729223  1
  O  O19  1  0.770776  0.417015  0.557756  1
  O  O20  1  0.625421  0.000437  0.803326  1
  O  O21  1  0.557756  0.770776  0.417015  1
  O  O22  1  0.268981  0.058270  0.918350  1
  O  O23  1  0.000437  0.803326  0.625421  1
  O  O24  1  0.996067  0.196945  0.376147  1
  O  O25  1  0.729223  0.942610  0.083348  1
  O  O26  1  0.441197  0.229651  0.584486  1
  O  O27  1  0.376147  0.996067  0.196945  1
  O  O28  1  0.229651  0.584486  0.441197  1
  O  O29  1  0.058270  0.918350  0.268981  1
  O  O30  1  0.584486  0.441197  0.229651  1
  O  O31  1  0.803326  0.625421  0.000437  1
  O  O32  1  0.918350  0.268981  0.058270  1
  O  O33  1  0.698928  0.498521  0.874385  1
  O  O34  1  0.498521  0.874385  0.698928  1
  O  O35  1  0.874385  0.698928  0.498521  1
