# generated using pymatgen
data_LiVCrP2(HO5)2
_symmetry_space_group_name_H-M   'P 1'
_cell_length_a   5.20596810
_cell_length_b   5.31462852
_cell_length_c   7.36458096
_cell_angle_alpha   110.16377008
_cell_angle_beta   105.45513759
_cell_angle_gamma   98.19618151
_symmetry_Int_Tables_number   1
_chemical_formula_structural   LiVCrP2(HO5)2
_chemical_formula_sum   'Li1 V1 Cr1 P2 H2 O10'
_cell_volume   178.06130603
_cell_formula_units_Z   1
loop_
 _symmetry_equiv_pos_site_id
 _symmetry_equiv_pos_as_xyz
  1  'x, y, z'
loop_
 _atom_site_type_symbol
 _atom_site_label
 _atom_site_symmetry_multiplicity
 _atom_site_fract_x
 _atom_site_fract_y
 _atom_site_fract_z
 _atom_site_occupancy
  Li  Li0  1  0.776716  0.410925  0.151123  1
  V  V1  1  0.998239  0.996460  0.505958  1
  Cr  Cr2  1  0.999508  0.004603  0.998775  1
  P  P3  1  0.319246  0.647758  0.228515  1
  P  P4  1  0.673460  0.351304  0.775409  1
  H  H5  1  0.645130  0.940484  0.346240  1
  H  H6  1  0.351854  0.031169  0.662247  1
  O  O7  1  0.143326  0.974401  0.717838  1
  O  O8  1  0.279236  0.809165  0.380248  1
  O  O9  1  0.724581  0.656938  0.650055  1
  O  O10  1  0.628606  0.749199  0.071605  1
  O  O11  1  0.104371  0.669881  0.128204  1
  O  O12  1  0.873376  0.329809  0.889394  1
  O  O13  1  0.368262  0.241588  0.930136  1
  O  O14  1  0.287689  0.342585  0.342080  1
  O  O15  1  0.728832  0.195215  0.619090  1
  O  O16  1  0.845764  0.047088  0.280525  1
