# generated using pymatgen
data_Cr(PO3)5
_symmetry_space_group_name_H-M   'P 1'
_cell_length_a   5.21512426
_cell_length_b   9.72838691
_cell_length_c   13.11563812
_cell_angle_alpha   90.00000000
_cell_angle_beta   109.90417670
_cell_angle_gamma   90.00000000
_symmetry_Int_Tables_number   1
_chemical_formula_structural   Cr(PO3)5
_chemical_formula_sum   'Cr2 P10 O30'
_cell_volume   625.66867368
_cell_formula_units_Z   2
loop_
 _symmetry_equiv_pos_site_id
 _symmetry_equiv_pos_as_xyz
  1  'x, y, z'
loop_
 _atom_site_type_symbol
 _atom_site_label
 _atom_site_symmetry_multiplicity
 _atom_site_fract_x
 _atom_site_fract_y
 _atom_site_fract_z
 _atom_site_occupancy
  Cr  Cr0  1  0.009466  0.997256  0.004191  1
  Cr  Cr1  1  0.009466  0.002744  0.504191  1
  P  P2  1  0.472393  0.529896  0.857327  1
  P  P3  1  0.430246  0.822912  0.919556  1
  P  P4  1  0.522051  0.532291  0.639704  1
  P  P5  1  0.010604  0.983236  0.753868  1
  P  P6  1  0.010604  0.016764  0.253868  1
  P  P7  1  0.587562  0.173863  0.086415  1
  P  P8  1  0.430246  0.177088  0.419556  1
  P  P9  1  0.587562  0.826137  0.586415  1
  P  P10  1  0.522051  0.467709  0.139704  1
  P  P11  1  0.472393  0.470104  0.357327  1
  O  O12  1  0.730789  0.155052  0.445106  1
  O  O13  1  0.247359  0.486292  0.563949  1
  O  O14  1  0.045777  0.939250  0.160146  1
  O  O15  1  0.745757  0.479136  0.930910  1
  O  O16  1  0.757385  0.877234  0.707361  1
  O  O17  1  0.641672  0.663502  0.598938  1
  O  O18  1  0.278530  0.589443  0.339127  1
  O  O19  1  0.362701  0.661688  0.901395  1
  O  O20  1  0.301216  0.868578  0.000378  1
  O  O21  1  0.714961  0.873820  0.505576  1
  O  O22  1  0.362701  0.338312  0.401395  1
  O  O23  1  0.970262  0.942588  0.347972  1
  O  O24  1  0.496200  0.404238  0.248702  1
  O  O25  1  0.278530  0.410557  0.839127  1
  O  O26  1  0.301216  0.131422  0.500378  1
  O  O27  1  0.730789  0.844948  0.945106  1
  O  O28  1  0.289374  0.852420  0.563734  1
  O  O29  1  0.641672  0.336498  0.098938  1
  O  O30  1  0.710297  0.589244  0.156638  1
  O  O31  1  0.289374  0.147580  0.063734  1
  O  O32  1  0.714961  0.126180  0.005576  1
  O  O33  1  0.970262  0.057412  0.847972  1
  O  O34  1  0.710297  0.410756  0.656638  1
  O  O35  1  0.247359  0.513708  0.063949  1
  O  O36  1  0.757385  0.122766  0.207361  1
  O  O37  1  0.045777  0.060750  0.660146  1
  O  O38  1  0.745757  0.520864  0.430910  1
  O  O39  1  0.496200  0.595762  0.748702  1
  O  O40  1  0.270823  0.118327  0.299764  1
  O  O41  1  0.270823  0.881673  0.799764  1
