# generated using pymatgen
data_Na3Ni2P2(CO7)2
_symmetry_space_group_name_H-M   'P 1'
_cell_length_a   8.91187844
_cell_length_b   6.48675964
_cell_length_c   10.26454812
_cell_angle_alpha   90.00000000
_cell_angle_beta   91.60723442
_cell_angle_gamma   90.00000000
_symmetry_Int_Tables_number   1
_chemical_formula_structural   Na3Ni2P2(CO7)2
_chemical_formula_sum   'Na6 Ni4 P4 C4 O28'
_cell_volume   593.15200367
_cell_formula_units_Z   2
loop_
 _symmetry_equiv_pos_site_id
 _symmetry_equiv_pos_as_xyz
  1  'x, y, z'
loop_
 _atom_site_type_symbol
 _atom_site_label
 _atom_site_symmetry_multiplicity
 _atom_site_fract_x
 _atom_site_fract_y
 _atom_site_fract_z
 _atom_site_occupancy
  Na  Na0  1  0.746507  0.216057  0.122968  1
  Na  Na1  1  0.746507  0.783943  0.622968  1
  Na  Na2  1  0.250493  0.736378  0.379904  1
  Na  Na3  1  0.248659  0.264015  0.377952  1
  Na  Na4  1  0.248659  0.735985  0.877952  1
  Na  Na5  1  0.250493  0.263622  0.879904  1
  Ni  Ni6  1  0.656006  0.499518  0.392304  1
  Ni  Ni7  1  0.656006  0.500482  0.892304  1
  Ni  Ni8  1  0.348725  0.998096  0.109024  1
  Ni  Ni9  1  0.348725  0.001904  0.609024  1
  P  P10  1  0.576473  0.001353  0.358170  1
  P  P11  1  0.576473  0.998647  0.858170  1
  P  P12  1  0.428184  0.498632  0.141018  1
  P  P13  1  0.428184  0.501368  0.641018  1
  C  C14  1  0.925649  0.503445  0.355644  1
  C  C15  1  0.925649  0.496555  0.855644  1
  C  C16  1  0.077631  0.997720  0.141634  1
  C  C17  1  0.077631  0.002280  0.641634  1
  O  O18  1  0.939990  0.999031  0.160475  1
  O  O19  1  0.939990  0.000969  0.660475  1
  O  O20  1  0.868016  0.510124  0.470267  1
  O  O21  1  0.868016  0.489876  0.970267  1
  O  O22  1  0.823957  0.497044  0.262092  1
  O  O23  1  0.823957  0.502956  0.762092  1
  O  O24  1  0.677468  0.189086  0.389003  1
  O  O25  1  0.672822  0.813757  0.398863  1
  O  O26  1  0.672822  0.186243  0.898863  1
  O  O27  1  0.677468  0.810914  0.889003  1
  O  O28  1  0.577022  0.491439  0.069765  1
  O  O29  1  0.577022  0.508561  0.569765  1
  O  O30  1  0.536504  0.003239  0.209374  1
  O  O31  1  0.536504  0.996761  0.709374  1
  O  O32  1  0.460270  0.499287  0.291974  1
  O  O33  1  0.460270  0.500713  0.791974  1
  O  O34  1  0.425280  0.004042  0.429699  1
  O  O35  1  0.425280  0.995958  0.929699  1
  O  O36  1  0.328933  0.686458  0.103041  1
  O  O37  1  0.325688  0.311870  0.105242  1
  O  O38  1  0.325688  0.688130  0.605242  1
  O  O39  1  0.328933  0.313542  0.603041  1
  O  O40  1  0.178725  0.996816  0.237251  1
  O  O41  1  0.178725  0.003184  0.737251  1
  O  O42  1  0.136783  0.997935  0.026852  1
  O  O43  1  0.136783  0.002065  0.526852  1
  O  O44  1  0.064929  0.501938  0.336977  1
  O  O45  1  0.064929  0.498062  0.836977  1
