# generated using pymatgen
data_Li3Bi3P8O29
_symmetry_space_group_name_H-M   'P 1'
_cell_length_a   10.09480909
_cell_length_b   10.09480909
_cell_length_c   14.36756148
_cell_angle_alpha   89.38601161
_cell_angle_beta   90.61398839
_cell_angle_gamma   119.72826860
_symmetry_Int_Tables_number   1
_chemical_formula_structural   Li3Bi3P8O29
_chemical_formula_sum   'Li6 Bi6 P16 O58'
_cell_volume   1271.33275643
_cell_formula_units_Z   2
loop_
 _symmetry_equiv_pos_site_id
 _symmetry_equiv_pos_as_xyz
  1  'x, y, z'
loop_
 _atom_site_type_symbol
 _atom_site_label
 _atom_site_symmetry_multiplicity
 _atom_site_fract_x
 _atom_site_fract_y
 _atom_site_fract_z
 _atom_site_occupancy
  Li  Li0  1  0.000000  0.000000  0.000000  1
  Li  Li1  1  0.000000  0.000000  0.500000  1
  Li  Li2  1  0.912673  0.678787  0.553840  1
  Li  Li3  1  0.321213  0.087327  0.053840  1
  Li  Li4  1  0.678787  0.912673  0.946160  1
  Li  Li5  1  0.087327  0.321213  0.446160  1
  Bi  Bi6  1  0.999287  0.435023  0.240263  1
  Bi  Bi7  1  0.000713  0.564977  0.759737  1
  Bi  Bi8  1  0.564977  0.000713  0.740263  1
  Bi  Bi9  1  0.435023  0.999287  0.259737  1
  Bi  Bi10  1  0.561146  0.561146  0.250000  1
  Bi  Bi11  1  0.438854  0.438854  0.750000  1
  P  P12  1  0.921105  0.212048  0.843677  1
  P  P13  1  0.787952  0.078895  0.343677  1
  P  P14  1  0.916307  0.690316  0.344602  1
  P  P15  1  0.670423  0.338897  0.623155  1
  P  P16  1  0.661103  0.329577  0.123155  1
  P  P17  1  0.780014  0.702951  0.847015  1
  P  P18  1  0.702951  0.780014  0.652985  1
  P  P19  1  0.309684  0.083693  0.844602  1
  P  P20  1  0.690316  0.916307  0.155398  1
  P  P21  1  0.297049  0.219986  0.347015  1
  P  P22  1  0.219986  0.297049  0.152985  1
  P  P23  1  0.329577  0.661103  0.376845  1
  P  P24  1  0.338897  0.670423  0.876845  1
  P  P25  1  0.083693  0.309684  0.655398  1
  P  P26  1  0.212048  0.921105  0.656323  1
  P  P27  1  0.078895  0.787952  0.156323  1
  O  O28  1  0.989161  0.208223  0.743166  1
  O  O29  1  0.008339  0.226493  0.567312  1
  O  O30  1  0.925338  0.246660  0.342324  1
  O  O31  1  0.791777  0.010839  0.243166  1
  O  O32  1  0.773507  0.991661  0.067312  1
  O  O33  1  0.753340  0.074662  0.842324  1
  O  O34  1  0.914661  0.362762  0.849812  1
  O  O35  1  0.792118  0.300632  0.159862  1
  O  O36  1  0.902782  0.530933  0.337104  1
  O  O37  1  0.995174  0.817934  0.080586  1
  O  O38  1  0.010839  0.791777  0.256834  1
  O  O39  1  0.923578  0.683873  0.851137  1
  O  O40  1  0.699368  0.207882  0.659862  1
  O  O41  1  0.637238  0.085339  0.349812  1
  O  O42  1  0.807403  0.495983  0.660050  1
  O  O43  1  0.672181  0.350065  0.519275  1
  O  O44  1  0.649935  0.327819  0.019275  1
  O  O45  1  0.689677  0.481964  0.168927  1
  O  O46  1  0.469067  0.097218  0.837104  1
  O  O47  1  0.504017  0.192597  0.160050  1
  O  O48  1  0.755168  0.675117  0.341241  1
  O  O49  1  0.787579  0.787579  0.750000  1
  O  O50  1  0.805912  0.788723  0.576389  1
  O  O51  1  0.788723  0.805912  0.923611  1
  O  O52  1  0.635285  0.541909  0.844480  1
  O  O53  1  0.518036  0.310323  0.668927  1
  O  O54  1  0.675117  0.755168  0.158759  1
  O  O55  1  0.458091  0.364715  0.344480  1
  O  O56  1  0.316127  0.076422  0.351137  1
  O  O57  1  0.817934  0.995174  0.419414  1
  O  O58  1  0.182066  0.004826  0.580586  1
  O  O59  1  0.208223  0.989161  0.756834  1
  O  O60  1  0.683873  0.923578  0.648863  1
  O  O61  1  0.541909  0.635285  0.655520  1
  O  O62  1  0.324883  0.244832  0.841241  1
  O  O63  1  0.481964  0.689677  0.331073  1
  O  O64  1  0.364715  0.458091  0.155520  1
  O  O65  1  0.211277  0.194088  0.076389  1
  O  O66  1  0.194088  0.211277  0.423611  1
  O  O67  1  0.212421  0.212421  0.250000  1
  O  O68  1  0.244832  0.324883  0.658759  1
  O  O69  1  0.495983  0.807403  0.839950  1
  O  O70  1  0.530933  0.902782  0.162896  1
  O  O71  1  0.310323  0.518036  0.831073  1
  O  O72  1  0.327819  0.649935  0.480725  1
  O  O73  1  0.350065  0.672181  0.980725  1
  O  O74  1  0.192597  0.504017  0.339950  1
  O  O75  1  0.362762  0.914661  0.650188  1
  O  O76  1  0.300632  0.792118  0.340138  1
  O  O77  1  0.076422  0.316127  0.148863  1
  O  O78  1  0.004826  0.182066  0.919414  1
  O  O79  1  0.097218  0.469067  0.662896  1
  O  O80  1  0.207882  0.699368  0.840138  1
  O  O81  1  0.085339  0.637238  0.150188  1
  O  O82  1  0.246660  0.925338  0.157676  1
  O  O83  1  0.226493  0.008339  0.932688  1
  O  O84  1  0.074662  0.753340  0.657676  1
  O  O85  1  0.991661  0.773507  0.432688  1
