# generated using pymatgen
data_NiSn3(PO4)4
_symmetry_space_group_name_H-M   'P 1'
_cell_length_a   5.07893228
_cell_length_b   6.18707518
_cell_length_c   10.33607116
_cell_angle_alpha   90.00000000
_cell_angle_beta   90.27640209
_cell_angle_gamma   90.00000000
_symmetry_Int_Tables_number   1
_chemical_formula_structural   NiSn3(PO4)4
_chemical_formula_sum   'Ni1 Sn3 P4 O16'
_cell_volume   324.79419081
_cell_formula_units_Z   1
loop_
 _symmetry_equiv_pos_site_id
 _symmetry_equiv_pos_as_xyz
  1  'x, y, z'
loop_
 _atom_site_type_symbol
 _atom_site_label
 _atom_site_symmetry_multiplicity
 _atom_site_fract_x
 _atom_site_fract_y
 _atom_site_fract_z
 _atom_site_occupancy
  Ni  Ni0  1  0.943867  0.500000  0.727835  1
  Sn  Sn1  1  0.542677  0.500000  0.216074  1
  Sn  Sn2  1  0.455014  0.000000  0.782222  1
  Sn  Sn3  1  0.043092  0.000000  0.281784  1
  P  P4  1  0.891591  0.000000  0.613201  1
  P  P5  1  0.566159  0.000000  0.082035  1
  P  P6  1  0.420622  0.500000  0.900320  1
  P  P7  1  0.123684  0.500000  0.405588  1
  O  O8  1  0.817346  0.000000  0.472353  1
  O  O9  1  0.756666  0.195119  0.687763  1
  O  O10  1  0.756666  0.804881  0.687763  1
  O  O11  1  0.837205  0.500000  0.352193  1
  O  O12  1  0.716824  0.500000  0.886594  1
  O  O13  1  0.691223  0.198982  0.157592  1
  O  O14  1  0.691223  0.801018  0.157592  1
  O  O15  1  0.683585  0.000000  0.943364  1
  O  O16  1  0.334261  0.500000  0.045367  1
  O  O17  1  0.278124  0.697042  0.830172  1
  O  O18  1  0.278124  0.302958  0.830172  1
  O  O19  1  0.270307  0.000000  0.080102  1
  O  O20  1  0.195825  0.000000  0.631451  1
  O  O21  1  0.289021  0.689519  0.338908  1
  O  O22  1  0.289021  0.310481  0.338908  1
  O  O23  1  0.127875  0.500000  0.550643  1
