# generated using pymatgen
data_LiFe23O32
_symmetry_space_group_name_H-M   'P 1'
_cell_length_a   8.57177907
_cell_length_b   8.57177907
_cell_length_c   8.57177907
_cell_angle_alpha   89.98407210
_cell_angle_beta   89.98407210
_cell_angle_gamma   89.98407210
_symmetry_Int_Tables_number   1
_chemical_formula_structural   LiFe23O32
_chemical_formula_sum   'Li1 Fe23 O32'
_cell_volume   629.81479127
_cell_formula_units_Z   1
loop_
 _symmetry_equiv_pos_site_id
 _symmetry_equiv_pos_as_xyz
  1  'x, y, z'
loop_
 _atom_site_type_symbol
 _atom_site_label
 _atom_site_symmetry_multiplicity
 _atom_site_fract_x
 _atom_site_fract_y
 _atom_site_fract_z
 _atom_site_occupancy
  Li  Li0  1  0.000000  0.000000  0.000000  1
  Fe  Fe1  1  0.623487  0.123069  0.123069  1
  Fe  Fe2  1  0.753726  0.753726  0.005268  1
  Fe  Fe3  1  0.500000  0.500000  1.000000  1
  Fe  Fe4  1  0.246274  0.246274  0.994732  1
  Fe  Fe5  1  0.876931  0.376513  0.876931  1
  Fe  Fe6  1  0.376513  0.876931  0.876931  1
  Fe  Fe7  1  0.005268  0.753726  0.753726  1
  Fe  Fe8  1  0.251402  0.500000  0.748598  1
  Fe  Fe9  1  0.753726  0.005268  0.753726  1
  Fe  Fe10  1  0.500000  0.251402  0.748598  1
  Fe  Fe11  1  0.629846  0.629846  0.629846  1
  Fe  Fe12  1  0.123069  0.123069  0.623487  1
  Fe  Fe13  1  1.000000  0.500000  0.500000  1
  Fe  Fe14  1  0.251402  0.748598  0.500000  1
  Fe  Fe15  1  0.748598  0.251402  0.500000  1
  Fe  Fe16  1  0.500000  0.000000  0.500000  1
  Fe  Fe17  1  0.876931  0.876931  0.376513  1
  Fe  Fe18  1  0.370154  0.370154  0.370154  1
  Fe  Fe19  1  0.748598  0.500000  0.251402  1
  Fe  Fe20  1  0.500000  0.748598  0.251402  1
  Fe  Fe21  1  0.994732  0.246274  0.246274  1
  Fe  Fe22  1  0.246274  0.994732  0.246274  1
  Fe  Fe23  1  0.123069  0.623487  0.123069  1
  O  O24  1  0.739045  0.511037  0.000818  1
  O  O25  1  0.010234  0.253521  0.010234  1
  O  O26  1  0.253521  0.010234  0.010234  1
  O  O27  1  0.260955  0.488963  0.999182  1
  O  O28  1  0.511037  0.739045  0.000818  1
  O  O29  1  0.989766  0.746479  0.989766  1
  O  O30  1  0.746479  0.989766  0.989766  1
  O  O31  1  0.488963  0.260955  0.999182  1
  O  O32  1  0.761735  0.761735  0.761735  1
  O  O33  1  0.500178  0.500178  0.759878  1
  O  O34  1  0.247361  0.247361  0.760120  1
  O  O35  1  0.752639  0.239880  0.752639  1
  O  O36  1  0.989766  0.989766  0.746479  1
  O  O37  1  0.000818  0.511037  0.739045  1
  O  O38  1  0.239880  0.752639  0.752639  1
  O  O39  1  0.511037  0.000818  0.739045  1
  O  O40  1  0.000818  0.739045  0.511037  1
  O  O41  1  0.739045  0.000818  0.511037  1
  O  O42  1  0.499822  0.240122  0.499822  1
  O  O43  1  0.500178  0.759878  0.500178  1
  O  O44  1  0.240122  0.499822  0.499822  1
  O  O45  1  0.759878  0.500178  0.500178  1
  O  O46  1  0.999182  0.260955  0.488963  1
  O  O47  1  0.260955  0.999182  0.488963  1
  O  O48  1  0.999182  0.488963  0.260955  1
  O  O49  1  0.247361  0.760120  0.247361  1
  O  O50  1  0.488963  0.999182  0.260955  1
  O  O51  1  0.010234  0.010234  0.253521  1
  O  O52  1  0.760120  0.247361  0.247361  1
  O  O53  1  0.752639  0.752639  0.239880  1
  O  O54  1  0.499822  0.499822  0.240122  1
  O  O55  1  0.238265  0.238265  0.238265  1
