# generated using pymatgen
data_CeZr9O20
_symmetry_space_group_name_H-M   'P 1'
_cell_length_a   6.46175074
_cell_length_b   7.43153012
_cell_length_c   8.20935709
_cell_angle_alpha   77.23293735
_cell_angle_beta   75.28285104
_cell_angle_gamma   72.06122157
_symmetry_Int_Tables_number   1
_chemical_formula_structural   CeZr9O20
_chemical_formula_sum   'Ce1 Zr9 O20'
_cell_volume   358.35855939
_cell_formula_units_Z   1
loop_
 _symmetry_equiv_pos_site_id
 _symmetry_equiv_pos_as_xyz
  1  'x, y, z'
loop_
 _atom_site_type_symbol
 _atom_site_label
 _atom_site_symmetry_multiplicity
 _atom_site_fract_x
 _atom_site_fract_y
 _atom_site_fract_z
 _atom_site_occupancy
  Ce  Ce0  1  0.200595  0.301044  0.600190  1
  Zr  Zr1  1  0.398145  0.603717  0.199686  1
  Zr  Zr2  1  0.199263  0.801648  0.595783  1
  Zr  Zr3  1  0.600852  0.895459  0.802271  1
  Zr  Zr4  1  0.403377  0.099266  0.195742  1
  Zr  Zr5  1  0.796054  0.701686  0.399081  1
  Zr  Zr6  1  0.601927  0.397373  0.802824  1
  Zr  Zr7  1  0.803381  0.197061  0.399130  1
  Zr  Zr8  1  0.997508  0.000062  0.002276  1
  Zr  Zr9  1  0.999451  0.502393  0.002315  1
  O  O10  1  0.383826  0.920561  0.040227  1
  O  O11  1  0.085310  0.720992  0.133165  1
  O  O12  1  0.217839  0.974727  0.763556  1
  O  O13  1  0.316978  0.375910  0.059394  1
  O  O14  1  0.017532  0.177102  0.161494  1
  O  O15  1  0.118586  0.594864  0.452093  1
  O  O16  1  0.718153  0.978876  0.261633  1
  O  O17  1  0.427698  0.772739  0.361984  1
  O  O18  1  0.281579  0.524373  0.741653  1
  O  O19  1  0.879382  0.921369  0.541752  1
  O  O20  1  0.582940  0.722004  0.638968  1
  O  O21  1  0.486496  0.320851  0.335028  1
  O  O22  1  0.179948  0.108605  0.433921  1
  O  O23  1  0.784403  0.522366  0.238916  1
  O  O24  1  0.533915  0.176548  0.665170  1
  O  O25  1  0.814724  0.383705  0.557249  1
  O  O26  1  0.609440  0.582889  0.959714  1
  O  O27  1  0.915874  0.776795  0.861122  1
  O  O28  1  0.965419  0.323898  0.848978  1
  O  O29  1  0.679403  0.121115  0.944687  1
