# generated using pymatgen
data_LiMo2P3O13
_symmetry_space_group_name_H-M   'P 1'
_cell_length_a   8.92902353
_cell_length_b   8.92902353
_cell_length_c   8.82088710
_cell_angle_alpha   69.34921260
_cell_angle_beta   110.65078740
_cell_angle_gamma   74.35429543
_symmetry_Int_Tables_number   1
_chemical_formula_structural   LiMo2P3O13
_chemical_formula_sum   'Li2 Mo4 P6 O26'
_cell_volume   549.91173907
_cell_formula_units_Z   2
loop_
 _symmetry_equiv_pos_site_id
 _symmetry_equiv_pos_as_xyz
  1  'x, y, z'
loop_
 _atom_site_type_symbol
 _atom_site_label
 _atom_site_symmetry_multiplicity
 _atom_site_fract_x
 _atom_site_fract_y
 _atom_site_fract_z
 _atom_site_occupancy
  Li  Li0  1  0.000000  0.500000  0.000000  1
  Li  Li1  1  0.500000  0.000000  0.500000  1
  Mo  Mo2  1  0.172258  0.662403  0.328246  1
  Mo  Mo3  1  0.337597  0.827742  0.828246  1
  Mo  Mo4  1  0.827742  0.337597  0.671754  1
  Mo  Mo5  1  0.662403  0.172258  0.171754  1
  P  P6  1  0.740069  0.848624  0.059101  1
  P  P7  1  0.848624  0.740069  0.440899  1
  P  P8  1  0.151376  0.259931  0.559101  1
  P  P9  1  0.488345  0.488345  0.250000  1
  P  P10  1  0.259931  0.151376  0.940899  1
  P  P11  1  0.511655  0.511655  0.750000  1
  O  O12  1  0.254120  0.069557  0.592942  1
  O  O13  1  0.500100  0.602199  0.081403  1
  O  O14  1  0.962876  0.297730  0.533114  1
  O  O15  1  0.600369  0.849773  0.900431  1
  O  O16  1  0.150227  0.399631  0.400431  1
  O  O17  1  0.702270  0.037124  0.033114  1
  O  O18  1  0.738995  0.738995  0.250000  1
  O  O19  1  0.197215  0.853185  0.268740  1
  O  O20  1  0.802785  0.146815  0.731260  1
  O  O21  1  0.397801  0.499900  0.581403  1
  O  O22  1  0.557522  0.289202  0.296710  1
  O  O23  1  0.853185  0.197215  0.231260  1
  O  O24  1  0.930443  0.745880  0.092942  1
  O  O25  1  0.710798  0.442478  0.796710  1
  O  O26  1  0.037124  0.702270  0.466886  1
  O  O27  1  0.745880  0.930443  0.407058  1
  O  O28  1  0.602199  0.500100  0.418597  1
  O  O29  1  0.499900  0.397801  0.918597  1
  O  O30  1  0.146815  0.802785  0.768740  1
  O  O31  1  0.297730  0.962876  0.966886  1
  O  O32  1  0.442478  0.710798  0.703290  1
  O  O33  1  0.399631  0.150227  0.099569  1
  O  O34  1  0.069557  0.254120  0.907058  1
  O  O35  1  0.289202  0.557522  0.203290  1
  O  O36  1  0.261005  0.261005  0.750000  1
  O  O37  1  0.849773  0.600369  0.599569  1
