# generated using pymatgen
data_LiV4O5F7
_symmetry_space_group_name_H-M   'P 1'
_cell_length_a   5.37875225
_cell_length_b   9.09816681
_cell_length_c   9.12873762
_cell_angle_alpha   69.83469040
_cell_angle_beta   88.00557278
_cell_angle_gamma   87.64552735
_symmetry_Int_Tables_number   1
_chemical_formula_structural   LiV4O5F7
_chemical_formula_sum   'Li2 V8 O10 F14'
_cell_volume   418.89182560
_cell_formula_units_Z   2
loop_
 _symmetry_equiv_pos_site_id
 _symmetry_equiv_pos_as_xyz
  1  'x, y, z'
loop_
 _atom_site_type_symbol
 _atom_site_label
 _atom_site_symmetry_multiplicity
 _atom_site_fract_x
 _atom_site_fract_y
 _atom_site_fract_z
 _atom_site_occupancy
  Li  Li0  1  0.973974  0.377884  0.869903  1
  Li  Li1  1  0.512248  0.885740  0.880094  1
  V  V2  1  0.997680  0.483325  0.494259  1
  V  V3  1  0.029019  0.240194  0.254868  1
  V  V4  1  0.458272  0.250096  0.748809  1
  V  V5  1  0.022766  0.019250  0.001259  1
  V  V6  1  0.529040  0.740106  0.255669  1
  V  V7  1  0.959925  0.749287  0.748947  1
  V  V8  1  0.520229  0.520446  0.001085  1
  V  V9  1  0.497588  0.982902  0.495157  1
  O  O10  1  0.000061  0.175585  0.069010  1
  O  O11  1  0.280626  0.128568  0.334730  1
  O  O12  1  0.998732  0.341055  0.415355  1
  O  O13  1  0.307747  0.067577  0.875048  1
  O  O14  1  0.781323  0.628653  0.334644  1
  O  O15  1  0.200946  0.372378  0.680680  1
  O  O16  1  0.500158  0.676255  0.069548  1
  O  O17  1  0.806427  0.568132  0.874916  1
  O  O18  1  0.499211  0.840983  0.415451  1
  O  O19  1  0.702523  0.872636  0.680422  1
  F  F20  1  0.792616  0.081990  0.374570  1
  F  F21  1  0.797455  0.127533  0.825192  1
  F  F22  1  0.501037  0.166993  0.578894  1
  F  F23  1  0.710281  0.372714  0.170970  1
  F  F24  1  0.710165  0.417410  0.638285  1
  F  F25  1  0.201857  0.422842  0.113892  1
  F  F26  1  0.501682  0.327380  0.924485  1
  F  F27  1  0.293593  0.581373  0.374951  1
  F  F28  1  0.699214  0.923024  0.112226  1
  F  F29  1  0.296616  0.627681  0.825304  1
  F  F30  1  0.000992  0.666476  0.578409  1
  F  F31  1  0.209773  0.871987  0.171872  1
  F  F32  1  0.208094  0.917851  0.636078  1
  F  F33  1  0.993048  0.828326  0.925110  1
