# generated using pymatgen
data_Li5(NiN)3
_symmetry_space_group_name_H-M   'P 1'
_cell_length_a   6.52463495
_cell_length_b   6.52463495
_cell_length_c   3.47237487
_cell_angle_alpha   90.00000000
_cell_angle_beta   90.00000000
_cell_angle_gamma   120.00000000
_symmetry_Int_Tables_number   1
_chemical_formula_structural   Li5(NiN)3
_chemical_formula_sum   'Li5 Ni3 N3'
_cell_volume   128.01759758
_cell_formula_units_Z   1
loop_
 _symmetry_equiv_pos_site_id
 _symmetry_equiv_pos_as_xyz
  1  'x, y, z'
loop_
 _atom_site_type_symbol
 _atom_site_label
 _atom_site_symmetry_multiplicity
 _atom_site_fract_x
 _atom_site_fract_y
 _atom_site_fract_z
 _atom_site_occupancy
  Li  Li0  1  0.666667  0.333333  0.500000  1
  Li  Li1  1  0.333333  0.666667  0.500000  1
  Li  Li2  1  0.000000  0.263129  0.500000  1
  Li  Li3  1  0.263129  0.000000  0.500000  1
  Li  Li4  1  0.736871  0.736871  0.500000  1
  Ni  Ni5  1  0.000000  0.632867  0.000000  1
  Ni  Ni6  1  0.367133  0.367133  0.000000  1
  Ni  Ni7  1  0.632867  0.000000  0.000000  1
  N  N8  1  0.000000  0.634565  0.500000  1
  N  N9  1  0.634565  0.000000  0.500000  1
  N  N10  1  0.365435  0.365435  0.500000  1
