# generated using pymatgen
data_CaH8(ClO2)2
_symmetry_space_group_name_H-M   'P 1'
_cell_length_a   6.42707000
_cell_length_b   6.51560587
_cell_length_c   8.59198070
_cell_angle_alpha   92.38536061
_cell_angle_beta   97.85631872
_cell_angle_gamma   110.41019749
_symmetry_Int_Tables_number   1
_chemical_formula_structural   CaH8(ClO2)2
_chemical_formula_sum   'Ca2 H16 Cl4 O8'
_cell_volume   332.49819766
_cell_formula_units_Z   2
loop_
 _symmetry_equiv_pos_site_id
 _symmetry_equiv_pos_as_xyz
  1  'x, y, z'
loop_
 _atom_site_type_symbol
 _atom_site_label
 _atom_site_symmetry_multiplicity
 _atom_site_fract_x
 _atom_site_fract_y
 _atom_site_fract_z
 _atom_site_occupancy
  Ca  Ca0  1  0.988385  0.123042  0.255981  1
  Ca  Ca1  1  0.011615  0.876958  0.744019  1
  H  H2  1  0.811362  0.673864  0.077044  1
  H  H3  1  0.188638  0.326136  0.922956  1
  H  H4  1  0.651575  0.793382  0.009955  1
  H  H5  1  0.348425  0.206618  0.990045  1
  H  H6  1  0.441548  0.077811  0.322890  1
  H  H7  1  0.558452  0.922189  0.677110  1
  H  H8  1  0.298175  0.899485  0.180674  1
  H  H9  1  0.701825  0.100515  0.819326  1
  H  H10  1  0.406772  0.546186  0.341208  1
  H  H11  1  0.593228  0.453814  0.658792  1
  H  H12  1  0.298038  0.537492  0.165117  1
  H  H13  1  0.701962  0.462508  0.834883  1
  H  H14  1  0.757017  0.401914  0.403960  1
  H  H15  1  0.242983  0.598086  0.596040  1
  H  H16  1  0.768590  0.223026  0.521505  1
  H  H17  1  0.231410  0.776974  0.478495  1
  Cl  Cl18  1  0.704216  0.290565  0.045299  1
  Cl  Cl19  1  0.295784  0.709435  0.954701  1
  Cl  Cl20  1  0.771292  0.742410  0.420868  1
  Cl  Cl21  1  0.228708  0.257590  0.579132  1
  O  O22  1  0.813062  0.818267  0.045775  1
  O  O23  1  0.186938  0.181733  0.954225  1
  O  O24  1  0.286725  0.977162  0.278388  1
  O  O25  1  0.713275  0.022838  0.721612  1
  O  O26  1  0.269504  0.470566  0.265135  1
  O  O27  1  0.730496  0.529434  0.734865  1
  O  O28  1  0.739468  0.244670  0.408892  1
  O  O29  1  0.260532  0.755329  0.591108  1
