# generated using pymatgen
data_Li2MnF6
_symmetry_space_group_name_H-M   'P 1'
_cell_length_a   8.46784345
_cell_length_b   8.47621180
_cell_length_c   10.12806156
_cell_angle_alpha   85.24553928
_cell_angle_beta   85.82743185
_cell_angle_gamma   61.39281006
_symmetry_Int_Tables_number   1
_chemical_formula_structural   Li2MnF6
_chemical_formula_sum   'Li12 Mn6 F36'
_cell_volume   635.55012975
_cell_formula_units_Z   6
loop_
 _symmetry_equiv_pos_site_id
 _symmetry_equiv_pos_as_xyz
  1  'x, y, z'
loop_
 _atom_site_type_symbol
 _atom_site_label
 _atom_site_symmetry_multiplicity
 _atom_site_fract_x
 _atom_site_fract_y
 _atom_site_fract_z
 _atom_site_occupancy
  Li  Li0  1  0.474303  0.854872  0.456010  1
  Li  Li1  1  0.376070  0.687006  0.963661  1
  Li  Li2  1  0.333620  0.622627  0.530408  1
  Li  Li3  1  0.992228  0.715137  0.769106  1
  Li  Li4  1  0.984395  0.294010  0.229491  1
  Li  Li5  1  0.813214  0.194787  0.745983  1
  Li  Li6  1  0.639834  0.328900  0.036080  1
  Li  Li7  1  0.111401  0.543058  0.049949  1
  Li  Li8  1  0.546778  0.128456  0.552545  1
  Li  Li9  1  0.047522  0.354433  0.565084  1
  Li  Li10  1  0.725597  0.992350  0.273681  1
  Li  Li11  1  0.356902  0.048604  0.060770  1
  Mn  Mn12  1  0.664972  0.667239  0.707144  1
  Mn  Mn13  1  0.004076  0.994680  0.496962  1
  Mn  Mn14  1  0.663754  0.665660  0.206472  1
  Mn  Mn15  1  0.997372  0.000813  0.000187  1
  Mn  Mn16  1  0.336324  0.332746  0.797084  1
  Mn  Mn17  1  0.331903  0.334961  0.295768  1
  F  F18  1  0.927107  0.933750  0.661114  1
  F  F19  1  0.925994  0.925408  0.155987  1
  F  F20  1  0.584923  0.888593  0.609872  1
  F  F21  1  0.760690  0.739889  0.829471  1
  F  F22  1  0.586055  0.884905  0.113329  1
  F  F23  1  0.729344  0.764766  0.333591  1
  F  F24  1  0.233138  0.915369  0.553509  1
  F  F25  1  0.886189  0.584496  0.617096  1
  F  F26  1  0.451378  0.751277  0.801816  1
  F  F27  1  0.230417  0.914510  0.055822  1
  F  F28  1  0.889446  0.575048  0.122777  1
  F  F29  1  0.447146  0.749031  0.298629  1
  F  F30  1  0.565612  0.608241  0.572362  1
  F  F31  1  0.080344  0.768248  0.938492  1
  F  F32  1  0.741187  0.443519  0.791961  1
  F  F33  1  0.582772  0.576220  0.076945  1
  F  F34  1  0.089183  0.768576  0.443905  1
  F  F35  1  0.751120  0.449171  0.299661  1
  F  F36  1  0.246067  0.553556  0.699439  1
  F  F37  1  0.922636  0.219324  0.567861  1
  F  F38  1  0.407994  0.426775  0.929951  1
  F  F39  1  0.251056  0.547474  0.199340  1
  F  F40  1  0.921350  0.222226  0.068585  1
  F  F41  1  0.417703  0.403961  0.427863  1
  F  F42  1  0.557820  0.250296  0.705069  1
  F  F43  1  0.115754  0.424252  0.884222  1
  F  F44  1  0.768875  0.097759  0.937042  1
  F  F45  1  0.551051  0.242963  0.198817  1
  F  F46  1  0.116916  0.405281  0.387041  1
  F  F47  1  0.773878  0.066213  0.437809  1
  F  F48  1  0.267921  0.245869  0.663783  1
  F  F49  1  0.413801  0.121551  0.892876  1
  F  F50  1  0.235543  0.261560  0.165051  1
  F  F51  1  0.426369  0.108546  0.386974  1
  F  F52  1  0.059269  0.075644  0.841798  1
  F  F53  1  0.066269  0.078900  0.341248  1
