# generated using pymatgen
data_Li2AlCoO4
_symmetry_space_group_name_H-M   'P 1'
_cell_length_a   5.01138726
_cell_length_b   6.31050363
_cell_length_c   10.87501178
_cell_angle_alpha   90.00000000
_cell_angle_beta   90.00000000
_cell_angle_gamma   90.00000000
_symmetry_Int_Tables_number   1
_chemical_formula_structural   Li2AlCoO4
_chemical_formula_sum   'Li8 Al4 Co4 O16'
_cell_volume   343.91547810
_cell_formula_units_Z   4
loop_
 _symmetry_equiv_pos_site_id
 _symmetry_equiv_pos_as_xyz
  1  'x, y, z'
loop_
 _atom_site_type_symbol
 _atom_site_label
 _atom_site_symmetry_multiplicity
 _atom_site_fract_x
 _atom_site_fract_y
 _atom_site_fract_z
 _atom_site_occupancy
  Li  Li0  1  0.757731  0.004034  0.164400  1
  Li  Li1  1  0.755735  0.246309  0.917708  1
  Li  Li2  1  0.755735  0.253691  0.417708  1
  Li  Li3  1  0.757731  0.495966  0.664400  1
  Li  Li4  1  0.257731  0.504034  0.335600  1
  Li  Li5  1  0.255735  0.746309  0.582292  1
  Li  Li6  1  0.255735  0.753691  0.082292  1
  Li  Li7  1  0.257731  0.995966  0.835600  1
  Al  Al8  1  0.260938  0.242336  0.587192  1
  Al  Al9  1  0.260938  0.257664  0.087192  1
  Al  Al10  1  0.760938  0.742336  0.912808  1
  Al  Al11  1  0.760938  0.757664  0.412808  1
  Co  Co12  1  0.259066  0.010533  0.332775  1
  Co  Co13  1  0.259066  0.489467  0.832775  1
  Co  Co14  1  0.759066  0.510533  0.167225  1
  Co  Co15  1  0.759066  0.989467  0.667225  1
  O  O16  1  0.134415  0.013464  0.663444  1
  O  O17  1  0.160670  0.023246  0.166563  1
  O  O18  1  0.158225  0.257160  0.930353  1
  O  O19  1  0.616342  0.231213  0.591103  1
  O  O20  1  0.616342  0.268787  0.091103  1
  O  O21  1  0.158225  0.242840  0.430353  1
  O  O22  1  0.160670  0.476754  0.666563  1
  O  O23  1  0.134415  0.486536  0.163444  1
  O  O24  1  0.634415  0.513464  0.836556  1
  O  O25  1  0.660670  0.523246  0.333437  1
  O  O26  1  0.658225  0.757160  0.569647  1
  O  O27  1  0.116342  0.731213  0.908897  1
  O  O28  1  0.116342  0.768787  0.408897  1
  O  O29  1  0.658225  0.742840  0.069647  1
  O  O30  1  0.660670  0.976754  0.833437  1
  O  O31  1  0.634415  0.986536  0.336556  1
