# generated using pymatgen
data_LaTa3O9
_symmetry_space_group_name_H-M   'P 1'
_cell_length_a   8.84288342
_cell_length_b   8.84288342
_cell_length_c   9.74773271
_cell_angle_alpha   57.02799850
_cell_angle_beta   122.97200150
_cell_angle_gamma   143.10983009
_symmetry_Int_Tables_number   1
_chemical_formula_structural   LaTa3O9
_chemical_formula_sum   'La2 Ta6 O18'
_cell_volume   374.77055873
_cell_formula_units_Z   2
loop_
 _symmetry_equiv_pos_site_id
 _symmetry_equiv_pos_as_xyz
  1  'x, y, z'
loop_
 _atom_site_type_symbol
 _atom_site_label
 _atom_site_symmetry_multiplicity
 _atom_site_fract_x
 _atom_site_fract_y
 _atom_site_fract_z
 _atom_site_occupancy
  La  La0  1  0.667024  0.332976  0.000629  1
  La  La1  1  0.332976  0.667024  0.999371  1
  Ta  Ta2  1  0.415579  0.584421  0.746990  1
  Ta  Ta3  1  0.251199  0.748801  0.262842  1
  Ta  Ta4  1  0.076787  0.923213  0.741043  1
  Ta  Ta5  1  0.923213  0.076787  0.258957  1
  Ta  Ta6  1  0.748801  0.251199  0.737158  1
  Ta  Ta7  1  0.584421  0.415579  0.253010  1
  O  O8  1  0.905548  0.575045  0.233936  1
  O  O9  1  0.334937  0.665063  0.502030  1
  O  O10  1  0.500000  0.500000  0.000000  1
  O  O11  1  0.075430  0.424553  0.226540  1
  O  O12  1  0.424955  0.094452  0.233936  1
  O  O13  1  0.269362  0.250389  0.766975  1
  O  O14  1  0.250389  0.269362  0.233025  1
  O  O15  1  0.575447  0.924570  0.226540  1
  O  O16  1  0.749611  0.730638  0.766975  1
  O  O17  1  0.000000  1.000000  0.500000  1
  O  O18  1  0.424553  0.075430  0.773460  1
  O  O19  1  0.825976  0.174024  0.999764  1
  O  O20  1  0.174024  0.825976  0.000236  1
  O  O21  1  0.730638  0.749611  0.233025  1
  O  O22  1  0.575045  0.905548  0.766064  1
  O  O23  1  0.924570  0.575447  0.773460  1
  O  O24  1  0.094452  0.424955  0.766064  1
  O  O25  1  0.665063  0.334937  0.497970  1
