# generated using pymatgen
data_Li3V(CoO2)4
_symmetry_space_group_name_H-M   'P 1'
_cell_length_a   5.90106272
_cell_length_b   5.90106272
_cell_length_c   5.99557809
_cell_angle_alpha   59.51750017
_cell_angle_beta   120.48249983
_cell_angle_gamma   118.93185293
_symmetry_Int_Tables_number   1
_chemical_formula_structural   Li3V(CoO2)4
_chemical_formula_sum   'Li3 V1 Co4 O8'
_cell_volume   147.67287500
_cell_formula_units_Z   1
loop_
 _symmetry_equiv_pos_site_id
 _symmetry_equiv_pos_as_xyz
  1  'x, y, z'
loop_
 _atom_site_type_symbol
 _atom_site_label
 _atom_site_symmetry_multiplicity
 _atom_site_fract_x
 _atom_site_fract_y
 _atom_site_fract_z
 _atom_site_occupancy
  Li  Li0  1  0.000000  0.500000  0.000000  1
  Li  Li1  1  0.000000  0.000000  0.500000  1
  Li  Li2  1  0.500000  0.000000  0.000000  1
  V  V3  1  0.500000  0.500000  0.000000  1
  Co  Co4  1  0.500000  0.500000  0.500000  1
  Co  Co5  1  0.000000  0.000000  0.000000  1
  Co  Co6  1  0.000000  0.500000  0.500000  1
  Co  Co7  1  0.500000  1.000000  0.500000  1
  O  O8  1  0.269651  0.730349  0.769189  1
  O  O9  1  0.256884  0.263799  0.235042  1
  O  O10  1  0.736201  0.743116  0.235042  1
  O  O11  1  0.749714  0.250286  0.738284  1
  O  O12  1  0.250286  0.749714  0.261716  1
  O  O13  1  0.263799  0.256884  0.764958  1
  O  O14  1  0.743116  0.736201  0.764958  1
  O  O15  1  0.730349  0.269651  0.230811  1
