# generated using pymatgen
data_LiV2O5F
_symmetry_space_group_name_H-M   'P 1'
_cell_length_a   4.98633020
_cell_length_b   5.63665881
_cell_length_c   14.06815042
_cell_angle_alpha   90.00000000
_cell_angle_beta   90.00000000
_cell_angle_gamma   90.00000000
_symmetry_Int_Tables_number   1
_chemical_formula_structural   LiV2O5F
_chemical_formula_sum   'Li4 V8 O20 F4'
_cell_volume   395.40284092
_cell_formula_units_Z   4
loop_
 _symmetry_equiv_pos_site_id
 _symmetry_equiv_pos_as_xyz
  1  'x, y, z'
loop_
 _atom_site_type_symbol
 _atom_site_label
 _atom_site_symmetry_multiplicity
 _atom_site_fract_x
 _atom_site_fract_y
 _atom_site_fract_z
 _atom_site_occupancy
  Li  Li0  1  0.500000  0.950194  0.000000  1
  Li  Li1  1  0.000000  0.570748  0.000000  1
  Li  Li2  1  0.000000  0.049806  0.500000  1
  Li  Li3  1  0.500000  0.429252  0.500000  1
  V  V4  1  0.479674  0.392346  0.827698  1
  V  V5  1  0.945287  0.065117  0.842854  1
  V  V6  1  0.445287  0.934883  0.657146  1
  V  V7  1  0.979674  0.607654  0.672302  1
  V  V8  1  0.554713  0.934883  0.342854  1
  V  V9  1  0.020326  0.607654  0.327698  1
  V  V10  1  0.054713  0.065117  0.157146  1
  V  V11  1  0.520326  0.392346  0.172302  1
  O  O12  1  0.812815  0.866471  0.915722  1
  O  O13  1  0.755971  0.342358  0.900229  1
  O  O14  1  0.247293  0.137926  0.896316  1
  O  O15  1  0.094654  0.393570  0.750259  1
  O  O16  1  0.588075  0.120780  0.757288  1
  O  O17  1  0.088075  0.879220  0.742712  1
  O  O18  1  0.594654  0.606430  0.749741  1
  O  O19  1  0.747293  0.862074  0.603684  1
  O  O20  1  0.255971  0.657642  0.599771  1
  O  O21  1  0.312815  0.133529  0.584278  1
  O  O22  1  0.687185  0.133529  0.415722  1
  O  O23  1  0.252707  0.862074  0.396316  1
  O  O24  1  0.744029  0.657642  0.400229  1
  O  O25  1  0.911925  0.879220  0.257288  1
  O  O26  1  0.405346  0.606430  0.250259  1
  O  O27  1  0.411925  0.120780  0.242712  1
  O  O28  1  0.905346  0.393570  0.249741  1
  O  O29  1  0.752707  0.137926  0.103684  1
  O  O30  1  0.244029  0.342358  0.099771  1
  O  O31  1  0.187185  0.866471  0.084278  1
  F  F32  1  0.301768  0.594458  0.911534  1
  F  F33  1  0.801768  0.405542  0.588466  1
  F  F34  1  0.198232  0.405542  0.411534  1
  F  F35  1  0.698232  0.594458  0.088466  1
