# generated using pymatgen
data_Li2VBO4
_symmetry_space_group_name_H-M   'P 1'
_cell_length_a   4.71419018
_cell_length_b   5.88922547
_cell_length_c   10.90393708
_cell_angle_alpha   90.00000000
_cell_angle_beta   90.00000000
_cell_angle_gamma   90.00000000
_symmetry_Int_Tables_number   1
_chemical_formula_structural   Li2VBO4
_chemical_formula_sum   'Li8 V4 B4 O16'
_cell_volume   302.72522965
_cell_formula_units_Z   4
loop_
 _symmetry_equiv_pos_site_id
 _symmetry_equiv_pos_as_xyz
  1  'x, y, z'
loop_
 _atom_site_type_symbol
 _atom_site_label
 _atom_site_symmetry_multiplicity
 _atom_site_fract_x
 _atom_site_fract_y
 _atom_site_fract_z
 _atom_site_occupancy
  Li  Li0  1  0.694701  0.995691  0.581523  1
  Li  Li1  1  0.805299  0.995691  0.081523  1
  Li  Li2  1  0.805299  0.504309  0.081523  1
  Li  Li3  1  0.694701  0.504309  0.581523  1
  Li  Li4  1  0.194701  0.495691  0.918477  1
  Li  Li5  1  0.305299  0.495691  0.418477  1
  Li  Li6  1  0.305299  0.004309  0.418477  1
  Li  Li7  1  0.194701  0.004309  0.918477  1
  V  V8  1  0.695327  0.250000  0.820069  1
  V  V9  1  0.804673  0.250000  0.320069  1
  V  V10  1  0.195327  0.750000  0.679931  1
  V  V11  1  0.304673  0.750000  0.179931  1
  B  B12  1  0.173173  0.250000  0.661781  1
  B  B13  1  0.326827  0.250000  0.161781  1
  B  B14  1  0.826827  0.750000  0.338219  1
  B  B15  1  0.673173  0.750000  0.838219  1
  O  O16  1  0.274034  0.039921  0.596822  1
  O  O17  1  0.225966  0.039921  0.096822  1
  O  O18  1  0.857312  0.250000  0.661312  1
  O  O19  1  0.229037  0.250000  0.294983  1
  O  O20  1  0.642688  0.250000  0.161312  1
  O  O21  1  0.270963  0.250000  0.794983  1
  O  O22  1  0.225966  0.460079  0.096822  1
  O  O23  1  0.274034  0.460079  0.596822  1
  O  O24  1  0.774034  0.539921  0.903178  1
  O  O25  1  0.725966  0.539921  0.403178  1
  O  O26  1  0.142688  0.750000  0.338688  1
  O  O27  1  0.357312  0.750000  0.838688  1
  O  O28  1  0.770963  0.750000  0.705017  1
  O  O29  1  0.729037  0.750000  0.205017  1
  O  O30  1  0.725966  0.960079  0.403178  1
  O  O31  1  0.774034  0.960079  0.903178  1
