# generated using pymatgen
data_Li3Fe4(BO3)4
_symmetry_space_group_name_H-M   'P 1'
_cell_length_a   5.23972122
_cell_length_b   9.02723787
_cell_length_c   10.25711498
_cell_angle_alpha   90.29003800
_cell_angle_beta   91.50471332
_cell_angle_gamma   90.01276213
_symmetry_Int_Tables_number   1
_chemical_formula_structural   Li3Fe4(BO3)4
_chemical_formula_sum   'Li6 Fe8 B8 O24'
_cell_volume   484.99014676
_cell_formula_units_Z   2
loop_
 _symmetry_equiv_pos_site_id
 _symmetry_equiv_pos_as_xyz
  1  'x, y, z'
loop_
 _atom_site_type_symbol
 _atom_site_label
 _atom_site_symmetry_multiplicity
 _atom_site_fract_x
 _atom_site_fract_y
 _atom_site_fract_z
 _atom_site_occupancy
  Li  Li0  1  0.664337  0.008917  0.167372  1
  Li  Li1  1  0.340961  0.005650  0.911207  1
  Li  Li2  1  0.836871  0.500922  0.898307  1
  Li  Li3  1  0.163266  0.511267  0.156541  1
  Li  Li4  1  0.660155  0.991087  0.662513  1
  Li  Li5  1  0.341161  0.995458  0.415427  1
  Fe  Fe6  1  0.840115  0.163878  0.885391  1
  Fe  Fe7  1  0.151358  0.176432  0.636245  1
  Fe  Fe8  1  0.663353  0.343970  0.131811  1
  Fe  Fe9  1  0.338870  0.335079  0.379428  1
  Fe  Fe10  1  0.668094  0.660210  0.632419  1
  Fe  Fe11  1  0.852142  0.822403  0.378153  1
  Fe  Fe12  1  0.332804  0.657714  0.877068  1
  Fe  Fe13  1  0.159189  0.840164  0.127008  1
  B  B14  1  0.829217  0.165473  0.373147  1
  B  B15  1  0.658705  0.329317  0.628338  1
  B  B16  1  0.165620  0.168278  0.129857  1
  B  B17  1  0.336285  0.331008  0.883739  1
  B  B18  1  0.664482  0.670732  0.123597  1
  B  B19  1  0.347946  0.669216  0.379315  1
  B  B20  1  0.837286  0.832316  0.872643  1
  B  B21  1  0.177140  0.835914  0.629273  1
  O  O22  1  0.701581  0.032090  0.368414  1
  O  O23  1  0.905181  0.162170  0.098823  1
  O  O24  1  0.315579  0.043545  0.114412  1
  O  O25  1  0.778917  0.198571  0.666779  1
  O  O26  1  0.697834  0.294927  0.340664  1
  O  O27  1  0.225553  0.195592  0.845210  1
  O  O28  1  0.089380  0.172217  0.406484  1
  O  O29  1  0.595100  0.334646  0.920379  1
  O  O30  1  0.774343  0.463243  0.651009  1
  O  O31  1  0.417542  0.320746  0.568997  1
  O  O32  1  0.276944  0.300968  0.173395  1
  O  O33  1  0.812289  0.545072  0.110305  1
  O  O34  1  0.190263  0.455871  0.888118  1
  O  O35  1  0.724579  0.696573  0.838304  1
  O  O36  1  0.585689  0.677804  0.440983  1
  O  O37  1  0.236282  0.534849  0.349995  1
  O  O38  1  0.404664  0.666613  0.091881  1
  O  O39  1  0.913479  0.826742  0.603991  1
  O  O40  1  0.778004  0.802876  0.166298  1
  O  O41  1  0.311569  0.711375  0.669642  1
  O  O42  1  0.223780  0.800416  0.343846  1
  O  O43  1  0.691606  0.959806  0.862709  1
  O  O44  1  0.092138  0.838122  0.913512  1
  O  O45  1  0.302514  0.968543  0.610092  1
