# generated using pymatgen
data_NdZrO3
_symmetry_space_group_name_H-M   'P 1'
_cell_length_a   5.86120560
_cell_length_b   5.86120560
_cell_length_c   5.63108377
_cell_angle_alpha   61.40901016
_cell_angle_beta   118.59098984
_cell_angle_gamma   90.56706026
_symmetry_Int_Tables_number   1
_chemical_formula_structural   NdZrO3
_chemical_formula_sum   'Nd2 Zr2 O6'
_cell_volume   142.99613167
_cell_formula_units_Z   2
loop_
 _symmetry_equiv_pos_site_id
 _symmetry_equiv_pos_as_xyz
  1  'x, y, z'
loop_
 _atom_site_type_symbol
 _atom_site_label
 _atom_site_symmetry_multiplicity
 _atom_site_fract_x
 _atom_site_fract_y
 _atom_site_fract_z
 _atom_site_occupancy
  Nd  Nd0  1  0.244057  0.755943  0.031268  1
  Nd  Nd1  1  0.755943  0.244057  0.968732  1
  Zr  Zr2  1  0.000000  0.500000  0.500000  1
  Zr  Zr3  1  0.500000  0.000000  0.500000  1
  O  O4  1  0.180046  0.180046  0.000000  1
  O  O5  1  0.819954  0.819954  0.000000  1
  O  O6  1  0.321978  0.321978  0.500000  1
  O  O7  1  0.678022  0.678022  0.500000  1
  O  O8  1  0.244217  0.755783  0.610893  1
  O  O9  1  0.755783  0.244217  0.389107  1
