# generated using pymatgen
data_Mg7Cu2O9
_symmetry_space_group_name_H-M   'P 1'
_cell_length_a   7.95303456
_cell_length_b   7.95303456
_cell_length_c   7.35498341
_cell_angle_alpha   89.90326665
_cell_angle_beta   90.09673335
_cell_angle_gamma   158.15822386
_symmetry_Int_Tables_number   1
_chemical_formula_structural   Mg7Cu2O9
_chemical_formula_sum   'Mg7 Cu2 O9'
_cell_volume   173.07803080
_cell_formula_units_Z   1
loop_
 _symmetry_equiv_pos_site_id
 _symmetry_equiv_pos_as_xyz
  1  'x, y, z'
loop_
 _atom_site_type_symbol
 _atom_site_label
 _atom_site_symmetry_multiplicity
 _atom_site_fract_x
 _atom_site_fract_y
 _atom_site_fract_z
 _atom_site_occupancy
  Mg  Mg0  1  0.723634  0.276366  0.669047  1
  Mg  Mg1  1  0.276366  0.723634  0.330953  1
  Mg  Mg2  1  0.055301  0.944699  0.665838  1
  Mg  Mg3  1  0.834115  0.165885  0.997061  1
  Mg  Mg4  1  0.944699  0.055301  0.334162  1
  Mg  Mg5  1  0.500000  0.500000  0.000000  1
  Mg  Mg6  1  0.165885  0.834115  0.002939  1
  Cu  Cu7  1  0.388698  0.611302  0.665880  1
  Cu  Cu8  1  0.611302  0.388698  0.334120  1
  O  O9  1  0.276070  0.723930  0.835875  1
  O  O10  1  0.831987  0.168013  0.496317  1
  O  O11  1  0.946042  0.053958  0.836744  1
  O  O12  1  0.723930  0.276070  0.164125  1
  O  O13  1  0.610681  0.389319  0.833525  1
  O  O14  1  0.500000  0.500000  0.500000  1
  O  O15  1  0.389319  0.610681  0.166475  1
  O  O16  1  0.168013  0.831987  0.503683  1
  O  O17  1  0.053958  0.946042  0.163256  1
