# generated using pymatgen
data_Na3Li3Fe2P2(CO7)2
_symmetry_space_group_name_H-M   'P 1'
_cell_length_a   5.12572334
_cell_length_b   6.50194011
_cell_length_c   8.81815498
_cell_angle_alpha   90.71612304
_cell_angle_beta   91.24314911
_cell_angle_gamma   90.13900687
_symmetry_Int_Tables_number   1
_chemical_formula_structural   Na3Li3Fe2P2(CO7)2
_chemical_formula_sum   'Na3 Li3 Fe2 P2 C2 O14'
_cell_volume   293.79074945
_cell_formula_units_Z   1
loop_
 _symmetry_equiv_pos_site_id
 _symmetry_equiv_pos_as_xyz
  1  'x, y, z'
loop_
 _atom_site_type_symbol
 _atom_site_label
 _atom_site_symmetry_multiplicity
 _atom_site_fract_x
 _atom_site_fract_y
 _atom_site_fract_z
 _atom_site_occupancy
  Na  Na0  1  0.239872  0.253895  0.081981  1
  Na  Na1  1  0.752894  0.000911  0.258624  1
  Na  Na2  1  0.760149  0.748333  0.916172  1
  Li  Li3  1  0.756036  0.494248  0.267647  1
  Li  Li4  1  0.242150  0.504835  0.733352  1
  Li  Li5  1  0.242922  0.995502  0.733022  1
  Fe  Fe6  1  0.213178  0.747722  0.356093  1
  Fe  Fe7  1  0.787781  0.249285  0.646014  1
  P  P8  1  0.302934  0.253938  0.416842  1
  P  P9  1  0.699348  0.745592  0.588104  1
  C  C10  1  0.268687  0.746491  0.052240  1
  C  C11  1  0.728797  0.255583  0.943128  1
  O  O12  1  0.715152  0.268293  0.090368  1
  O  O13  1  0.043323  0.748356  0.118801  1
  O  O14  1  0.480429  0.741258  0.137195  1
  O  O15  1  0.218634  0.058999  0.322894  1
  O  O16  1  0.195145  0.436699  0.321514  1
  O  O17  1  0.606993  0.266542  0.425412  1
  O  O18  1  0.807033  0.734668  0.425438  1
  O  O19  1  0.194613  0.252011  0.579375  1
  O  O20  1  0.393313  0.750378  0.580919  1
  O  O21  1  0.794397  0.560368  0.684302  1
  O  O22  1  0.802386  0.938009  0.677647  1
  O  O23  1  0.517596  0.248129  0.858107  1
  O  O24  1  0.955803  0.249834  0.879470  1
  O  O25  1  0.280435  0.750121  0.905339  1
