# generated using pymatgen
data_VOF2
_symmetry_space_group_name_H-M   'P 1'
_cell_length_a   5.22295602
_cell_length_b   5.22332345
_cell_length_c   13.37940260
_cell_angle_alpha   89.43109380
_cell_angle_beta   89.34120709
_cell_angle_gamma   60.25325573
_symmetry_Int_Tables_number   1
_chemical_formula_structural   VOF2
_chemical_formula_sum   'V6 O6 F12'
_cell_volume   316.88337356
_cell_formula_units_Z   6
loop_
 _symmetry_equiv_pos_site_id
 _symmetry_equiv_pos_as_xyz
  1  'x, y, z'
loop_
 _atom_site_type_symbol
 _atom_site_label
 _atom_site_symmetry_multiplicity
 _atom_site_fract_x
 _atom_site_fract_y
 _atom_site_fract_z
 _atom_site_occupancy
  V  V0  1  0.007709  0.030046  0.492579  1
  V  V1  1  0.970226  0.009272  0.993492  1
  V  V2  1  0.365011  0.303842  0.826288  1
  V  V3  1  0.693893  0.683338  0.660487  1
  V  V4  1  0.351858  0.344366  0.325487  1
  V  V5  1  0.663241  0.684226  0.159327  1
  O  O6  1  0.574557  0.009341  0.752950  1
  O  O7  1  0.678789  0.229187  0.920842  1
  O  O8  1  0.903980  0.762022  0.585804  1
  O  O9  1  0.564305  0.422077  0.250001  1
  O  O10  1  0.086666  0.241641  0.418310  1
  O  O11  1  0.752807  0.894243  0.085900  1
  F  F12  1  0.993235  0.412668  0.754383  1
  F  F13  1  0.667830  0.071498  0.415713  1
  F  F14  1  0.929955  0.316216  0.087801  1
  F  F15  1  0.736244  0.338134  0.584937  1
  F  F16  1  0.390488  0.007843  0.248443  1
  F  F17  1  0.978656  0.601905  0.257883  1
  F  F18  1  0.261934  0.072055  0.920074  1
  F  F19  1  0.418118  0.592341  0.749679  1
  F  F20  1  0.265149  0.655809  0.423638  1
  F  F21  1  0.328298  0.737876  0.080370  1
  F  F22  1  0.096778  0.647425  0.915916  1
  F  F23  1  0.320274  0.932630  0.589696  1
