# generated using pymatgen
data_LiMn2(CO3)4
_symmetry_space_group_name_H-M   'P 1'
_cell_length_a   5.21385280
_cell_length_b   6.69075222
_cell_length_c   7.58371534
_cell_angle_alpha   91.72632615
_cell_angle_beta   89.84927617
_cell_angle_gamma   112.07749471
_symmetry_Int_Tables_number   1
_chemical_formula_structural   LiMn2(CO3)4
_chemical_formula_sum   'Li1 Mn2 C4 O12'
_cell_volume   245.03466250
_cell_formula_units_Z   1
loop_
 _symmetry_equiv_pos_site_id
 _symmetry_equiv_pos_as_xyz
  1  'x, y, z'
loop_
 _atom_site_type_symbol
 _atom_site_label
 _atom_site_symmetry_multiplicity
 _atom_site_fract_x
 _atom_site_fract_y
 _atom_site_fract_z
 _atom_site_occupancy
  Li  Li0  1  0.216188  0.831477  0.442468  1
  Mn  Mn1  1  0.004538  0.003324  0.002732  1
  Mn  Mn2  1  0.505509  0.483508  0.498632  1
  C  C3  1  0.248544  0.115065  0.737465  1
  C  C4  1  0.236990  0.368817  0.232185  1
  C  C5  1  0.774036  0.644593  0.761040  1
  C  C6  1  0.735497  0.879940  0.263385  1
  O  O7  1  0.989132  0.093498  0.761268  1
  O  O8  1  0.364012  0.081776  0.879456  1
  O  O9  1  0.364601  0.154871  0.588535  1
  O  O10  1  0.092321  0.294900  0.091153  1
  O  O11  1  0.140183  0.443115  0.365817  1
  O  O12  1  0.488533  0.375682  0.251449  1
  O  O13  1  0.506751  0.583616  0.747651  1
  O  O14  1  0.898043  0.622336  0.616450  1
  O  O15  1  0.904135  0.711886  0.908023  1
  O  O16  1  0.592633  0.819989  0.400486  1
  O  O17  1  0.640566  0.925734  0.118310  1
  O  O18  1  0.998917  0.902880  0.252505  1
