# generated using pymatgen
data_V3O5F
_symmetry_space_group_name_H-M   'P 1'
_cell_length_a   5.51122992
_cell_length_b   5.51122992
_cell_length_c   7.26460576
_cell_angle_alpha   72.03566153
_cell_angle_beta   107.96433847
_cell_angle_gamma   109.19013861
_symmetry_Int_Tables_number   1
_chemical_formula_structural   V3O5F
_chemical_formula_sum   'V6 O10 F2'
_cell_volume   192.89612302
_cell_formula_units_Z   2
loop_
 _symmetry_equiv_pos_site_id
 _symmetry_equiv_pos_as_xyz
  1  'x, y, z'
loop_
 _atom_site_type_symbol
 _atom_site_label
 _atom_site_symmetry_multiplicity
 _atom_site_fract_x
 _atom_site_fract_y
 _atom_site_fract_z
 _atom_site_occupancy
  V  V0  1  0.330797  0.669203  0.844020  1
  V  V1  1  0.649762  0.350238  0.667718  1
  V  V2  1  0.350238  0.649762  0.332282  1
  V  V3  1  0.669203  0.330797  0.155980  1
  V  V4  1  0.000000  0.000000  0.500000  1
  V  V5  1  0.000000  0.000000  0.000000  1
  O  O6  1  0.962598  0.631039  0.670606  1
  O  O7  1  0.631039  0.962598  0.329394  1
  O  O8  1  0.765392  0.234608  0.967762  1
  O  O9  1  0.429965  0.570035  0.628219  1
  O  O10  1  0.234608  0.765392  0.032238  1
  O  O11  1  0.570035  0.429965  0.371781  1
  O  O12  1  0.693196  0.693196  0.000000  1
  O  O13  1  0.368961  0.037402  0.670606  1
  O  O14  1  0.037402  0.368961  0.329394  1
  O  O15  1  0.306804  0.306804  0.000000  1
  F  F16  1  0.109361  0.890639  0.302337  1
  F  F17  1  0.890639  0.109361  0.697663  1
