# generated using pymatgen
data_Rb3FeO3
_symmetry_space_group_name_H-M   'P 1'
_cell_length_a   7.20855216
_cell_length_b   12.20823895
_cell_length_c   7.92239544
_cell_angle_alpha   90.00000000
_cell_angle_beta   116.74055247
_cell_angle_gamma   90.00000000
_symmetry_Int_Tables_number   1
_chemical_formula_structural   Rb3FeO3
_chemical_formula_sum   'Rb12 Fe4 O12'
_cell_volume   622.63694773
_cell_formula_units_Z   4
loop_
 _symmetry_equiv_pos_site_id
 _symmetry_equiv_pos_as_xyz
  1  'x, y, z'
loop_
 _atom_site_type_symbol
 _atom_site_label
 _atom_site_symmetry_multiplicity
 _atom_site_fract_x
 _atom_site_fract_y
 _atom_site_fract_z
 _atom_site_occupancy
  Rb  Rb0  1  0.519760  0.939496  0.730416  1
  Rb  Rb1  1  0.433880  0.655320  0.517880  1
  Rb  Rb2  1  0.632881  0.192902  0.926997  1
  Rb  Rb3  1  0.019760  0.560504  0.730416  1
  Rb  Rb4  1  0.933880  0.844680  0.517880  1
  Rb  Rb5  1  0.132881  0.307098  0.926997  1
  Rb  Rb6  1  0.367119  0.807098  0.073003  1
  Rb  Rb7  1  0.566120  0.344680  0.482120  1
  Rb  Rb8  1  0.480240  0.060504  0.269584  1
  Rb  Rb9  1  0.867119  0.692902  0.073003  1
  Rb  Rb10  1  0.066120  0.155320  0.482120  1
  Rb  Rb11  1  0.980240  0.439496  0.269584  1
  Fe  Fe12  1  0.508637  0.451738  0.846584  1
  Fe  Fe13  1  0.008637  0.048262  0.846584  1
  Fe  Fe14  1  0.491363  0.548262  0.153416  1
  Fe  Fe15  1  0.991363  0.951738  0.153416  1
  O  O16  1  0.454931  0.604151  0.901489  1
  O  O17  1  0.221639  0.883867  0.352025  1
  O  O18  1  0.954931  0.895849  0.901489  1
  O  O19  1  0.721639  0.616133  0.352025  1
  O  O20  1  0.243008  0.563423  0.170336  1
  O  O21  1  0.743008  0.936577  0.170336  1
  O  O22  1  0.756992  0.436577  0.829664  1
  O  O23  1  0.256992  0.063423  0.829664  1
  O  O24  1  0.778361  0.116133  0.647975  1
  O  O25  1  0.545069  0.395849  0.098511  1
  O  O26  1  0.278361  0.383867  0.647975  1
  O  O27  1  0.045069  0.104151  0.098511  1
