# generated using pymatgen
data_LiTiP2O7
_symmetry_space_group_name_H-M   'P 1'
_cell_length_a   6.85965646
_cell_length_b   8.17657431
_cell_length_c   9.65019053
_cell_angle_alpha   90.00000000
_cell_angle_beta   108.64724204
_cell_angle_gamma   90.00000000
_symmetry_Int_Tables_number   1
_chemical_formula_structural   LiTiP2O7
_chemical_formula_sum   'Li4 Ti4 P8 O28'
_cell_volume   512.85098839
_cell_formula_units_Z   4
loop_
 _symmetry_equiv_pos_site_id
 _symmetry_equiv_pos_as_xyz
  1  'x, y, z'
loop_
 _atom_site_type_symbol
 _atom_site_label
 _atom_site_symmetry_multiplicity
 _atom_site_fract_x
 _atom_site_fract_y
 _atom_site_fract_z
 _atom_site_occupancy
  Li  Li0  1  0.793486  0.131367  0.962707  1
  Li  Li1  1  0.793486  0.368633  0.462707  1
  Li  Li2  1  0.206514  0.631367  0.537293  1
  Li  Li3  1  0.206514  0.868633  0.037293  1
  Ti  Ti4  1  0.714705  0.773492  0.506169  1
  Ti  Ti5  1  0.714705  0.726508  0.006169  1
  Ti  Ti6  1  0.285295  0.273492  0.993831  1
  Ti  Ti7  1  0.285295  0.226508  0.493831  1
  P  P8  1  0.944107  0.536994  0.793600  1
  P  P9  1  0.944107  0.963006  0.293600  1
  P  P10  1  0.465403  0.918824  0.706271  1
  P  P11  1  0.534597  0.418824  0.793729  1
  P  P12  1  0.465403  0.581176  0.206271  1
  P  P13  1  0.534597  0.081176  0.293729  1
  P  P14  1  0.055893  0.036994  0.706400  1
  P  P15  1  0.055893  0.463006  0.206400  1
  O  O16  1  0.908675  0.586558  0.633460  1
  O  O17  1  0.857631  0.937910  0.650392  1
  O  O18  1  0.934416  0.677342  0.896011  1
  O  O19  1  0.768116  0.399815  0.788442  1
  O  O20  1  0.908675  0.913442  0.133460  1
  O  O21  1  0.857631  0.562090  0.150392  1
  O  O22  1  0.934416  0.822658  0.396011  1
  O  O23  1  0.486794  0.770812  0.614450  1
  O  O24  1  0.608582  0.916334  0.866685  1
  O  O25  1  0.768116  0.100185  0.288442  1
  O  O26  1  0.481073  0.081974  0.637096  1
  O  O27  1  0.518927  0.581974  0.862904  1
  O  O28  1  0.391418  0.416334  0.633315  1
  O  O29  1  0.513206  0.270812  0.885550  1
  O  O30  1  0.486794  0.729188  0.114450  1
  O  O31  1  0.608582  0.583666  0.366685  1
  O  O32  1  0.481073  0.418026  0.137096  1
  O  O33  1  0.518927  0.918026  0.362904  1
  O  O34  1  0.231884  0.899815  0.711558  1
  O  O35  1  0.391418  0.083666  0.133315  1
  O  O36  1  0.513206  0.229188  0.385550  1
  O  O37  1  0.065584  0.177342  0.603989  1
  O  O38  1  0.142369  0.437910  0.849608  1
  O  O39  1  0.091325  0.086558  0.866540  1
  O  O40  1  0.231884  0.600185  0.211558  1
  O  O41  1  0.065584  0.322658  0.103989  1
  O  O42  1  0.142369  0.062090  0.349608  1
  O  O43  1  0.091325  0.413442  0.366540  1
