# generated using pymatgen
data_K3Li2Ta6(PO8)3
_symmetry_space_group_name_H-M   'P 1'
_cell_length_a   8.47735973
_cell_length_b   8.47735973
_cell_length_c   8.47735973
_cell_angle_alpha   103.34322062
_cell_angle_beta   103.34322062
_cell_angle_gamma   103.34322062
_symmetry_Int_Tables_number   1
_chemical_formula_structural   K3Li2Ta6(PO8)3
_chemical_formula_sum   'K3 Li2 Ta6 P3 O24'
_cell_volume   550.21092567
_cell_formula_units_Z   1
loop_
 _symmetry_equiv_pos_site_id
 _symmetry_equiv_pos_as_xyz
  1  'x, y, z'
loop_
 _atom_site_type_symbol
 _atom_site_label
 _atom_site_symmetry_multiplicity
 _atom_site_fract_x
 _atom_site_fract_y
 _atom_site_fract_z
 _atom_site_occupancy
  K  K0  1  0.914523  0.603767  0.300714  1
  K  K1  1  0.300714  0.914523  0.603767  1
  K  K2  1  0.603767  0.300714  0.914523  1
  Li  Li3  1  0.361713  0.361713  0.361713  1
  Li  Li4  1  0.637765  0.637765  0.637765  1
  Ta  Ta5  1  0.156971  0.347081  0.024788  1
  Ta  Ta6  1  0.347081  0.024788  0.156971  1
  Ta  Ta7  1  0.843220  0.975796  0.653388  1
  Ta  Ta8  1  0.024788  0.156971  0.347081  1
  Ta  Ta9  1  0.975796  0.653388  0.843220  1
  Ta  Ta10  1  0.653388  0.843220  0.975796  1
  P  P11  1  0.499765  0.716853  0.281393  1
  P  P12  1  0.716853  0.281393  0.499765  1
  P  P13  1  0.281393  0.499765  0.716853  1
  O  O14  1  0.499624  0.974456  0.024210  1
  O  O15  1  0.154588  0.845538  0.999539  1
  O  O16  1  0.583262  0.702105  0.136015  1
  O  O17  1  0.315512  0.208903  0.070624  1
  O  O18  1  0.845538  0.999539  0.154588  1
  O  O19  1  0.418792  0.863989  0.297766  1
  O  O20  1  0.362243  0.546332  0.247294  1
  O  O21  1  0.637954  0.750249  0.452529  1
  O  O22  1  0.070624  0.315512  0.208903  1
  O  O23  1  0.863989  0.297766  0.418792  1
  O  O24  1  0.546332  0.247294  0.362243  1
  O  O25  1  0.208903  0.070624  0.315512  1
  O  O26  1  0.974456  0.024210  0.499624  1
  O  O27  1  0.929316  0.790540  0.683262  1
  O  O28  1  0.750249  0.452529  0.637954  1
  O  O29  1  0.702105  0.136015  0.583262  1
  O  O30  1  0.683262  0.929316  0.790540  1
  O  O31  1  0.247294  0.362243  0.546332  1
  O  O32  1  0.452529  0.637954  0.750249  1
  O  O33  1  0.136015  0.583262  0.702105  1
  O  O34  1  0.790540  0.683262  0.929316  1
  O  O35  1  0.297766  0.418792  0.863989  1
  O  O36  1  0.999539  0.154588  0.845538  1
  O  O37  1  0.024210  0.499624  0.974456  1
