# generated using pymatgen
data_V9O22
_symmetry_space_group_name_H-M   'P 1'
_cell_length_a   5.61139632
_cell_length_b   9.71175619
_cell_length_c   13.97734213
_cell_angle_alpha   90.23493079
_cell_angle_beta   90.19924341
_cell_angle_gamma   90.37298461
_symmetry_Int_Tables_number   1
_chemical_formula_structural   V9O22
_chemical_formula_sum   'V18 O44'
_cell_volume   761.68918651
_cell_formula_units_Z   2
loop_
 _symmetry_equiv_pos_site_id
 _symmetry_equiv_pos_as_xyz
  1  'x, y, z'
loop_
 _atom_site_type_symbol
 _atom_site_label
 _atom_site_symmetry_multiplicity
 _atom_site_fract_x
 _atom_site_fract_y
 _atom_site_fract_z
 _atom_site_occupancy
  V  V0  1  0.972002  0.006987  0.143239  1
  V  V1  1  0.518493  0.019171  0.509001  1
  V  V2  1  0.502190  0.167918  0.782386  1
  V  V3  1  0.242966  0.224572  0.990565  1
  V  V4  1  0.214290  0.278966  0.482058  1
  V  V5  1  0.009740  0.333705  0.213242  1
  V  V6  1  0.509144  0.495015  0.135544  1
  V  V7  1  0.504663  0.486251  0.637340  1
  V  V8  1  0.475393  0.503304  0.355751  1
  V  V9  1  0.967640  0.507244  0.983613  1
  V  V10  1  0.480382  0.521005  0.855493  1
  V  V11  1  0.985096  0.665796  0.721165  1
  V  V12  1  0.754996  0.721144  0.501808  1
  V  V13  1  0.279877  0.771231  0.021934  1
  V  V14  1  0.514678  0.832441  0.287584  1
  V  V15  1  0.989531  0.972802  0.860136  1
  V  V16  1  0.002717  0.993251  0.362893  1
  V  V17  1  0.023043  0.014374  0.641937  1
  O  O18  1  0.759147  0.071194  0.417218  1
  O  O19  1  0.753880  0.072302  0.085437  1
  O  O20  1  0.237602  0.078890  0.745988  1
  O  O21  1  0.765502  0.082550  0.749680  1
  O  O22  1  0.257914  0.086220  0.425828  1
  O  O23  1  0.232352  0.098481  0.079985  1
  O  O24  1  0.511237  0.161948  0.571989  1
  O  O25  1  0.014434  0.156558  0.245082  1
  O  O26  1  0.025040  0.156898  0.916979  1
  O  O27  1  0.018228  0.160933  0.579439  1
  O  O28  1  0.486155  0.172123  0.907855  1
  O  O29  1  0.004551  0.327550  0.409773  1
  O  O30  1  0.484242  0.344949  0.077565  1
  O  O31  1  0.475784  0.339180  0.412687  1
  O  O32  1  0.020960  0.336107  0.088144  1
  O  O33  1  0.485693  0.341575  0.751854  1
  O  O34  1  0.230332  0.409781  0.930338  1
  O  O35  1  0.250243  0.406390  0.575332  1
  O  O36  1  0.747164  0.417428  0.241366  1
  O  O37  1  0.730368  0.410432  0.589632  1
  O  O38  1  0.744633  0.427753  0.918033  1
  O  O39  1  0.278852  0.426760  0.245551  1
  O  O40  1  0.239253  0.572621  0.751864  1
  O  O41  1  0.758428  0.568383  0.083732  1
  O  O42  1  0.712831  0.579479  0.751195  1
  O  O43  1  0.264429  0.582288  0.410144  1
  O  O44  1  0.261004  0.590714  0.079865  1
  O  O45  1  0.743341  0.589363  0.417114  1
  O  O46  1  0.513824  0.658689  0.252923  1
  O  O47  1  0.000096  0.657985  0.928884  1
  O  O48  1  0.515119  0.652814  0.582476  1
  O  O49  1  0.467758  0.665686  0.921134  1
  O  O50  1  0.986393  0.672139  0.599189  1
  O  O51  1  0.496821  0.831523  0.086623  1
  O  O52  1  0.002213  0.844307  0.421994  1
  O  O53  1  0.028887  0.843793  0.087372  1
  O  O54  1  0.524676  0.834840  0.413308  1
  O  O55  1  0.991728  0.847349  0.748846  1
  O  O56  1  0.231428  0.900702  0.920255  1
  O  O57  1  0.747467  0.919188  0.574215  1
  O  O58  1  0.758398  0.917953  0.915622  1
  O  O59  1  0.790488  0.923717  0.254922  1
  O  O60  1  0.252541  0.934521  0.582533  1
  O  O61  1  0.258695  0.922329  0.262653  1
