# generated using pymatgen
data_Na5LiMn2P2(CO7)2
_symmetry_space_group_name_H-M   'P 1'
_cell_length_a   5.16002037
_cell_length_b   8.96060734
_cell_length_c   13.62493298
_cell_angle_alpha   90.23518257
_cell_angle_beta   90.11956625
_cell_angle_gamma   90.20035758
_symmetry_Int_Tables_number   1
_chemical_formula_structural   Na5LiMn2P2(CO7)2
_chemical_formula_sum   'Na10 Li2 Mn4 P4 C4 O28'
_cell_volume   629.96433797
_cell_formula_units_Z   2
loop_
 _symmetry_equiv_pos_site_id
 _symmetry_equiv_pos_as_xyz
  1  'x, y, z'
loop_
 _atom_site_type_symbol
 _atom_site_label
 _atom_site_symmetry_multiplicity
 _atom_site_fract_x
 _atom_site_fract_y
 _atom_site_fract_z
 _atom_site_occupancy
  Na  Na0  1  0.239791  0.083059  0.875038  1
  Na  Na1  1  0.239796  0.082050  0.375753  1
  Na  Na2  1  0.751835  0.258592  0.999337  1
  Na  Na3  1  0.752323  0.258922  0.750813  1
  Na  Na4  1  0.751986  0.258754  0.498814  1
  Na  Na5  1  0.752256  0.258524  0.250979  1
  Na  Na6  1  0.247328  0.741074  0.747625  1
  Na  Na7  1  0.247655  0.741824  0.250173  1
  Na  Na8  1  0.247724  0.741556  0.001214  1
  Na  Na9  1  0.760146  0.915850  0.623110  1
  Li  Li10  1  0.240131  0.733162  0.503489  1
  Li  Li11  1  0.755761  0.914566  0.125114  1
  Mn  Mn12  1  0.221884  0.361913  0.624831  1
  Mn  Mn13  1  0.222475  0.361548  0.125315  1
  Mn  Mn14  1  0.777543  0.639785  0.875142  1
  Mn  Mn15  1  0.778753  0.640821  0.376117  1
  P  P16  1  0.299016  0.413282  0.376469  1
  P  P17  1  0.297814  0.410850  0.875166  1
  P  P18  1  0.702785  0.590899  0.623520  1
  P  P19  1  0.702529  0.593530  0.125291  1
  C  C20  1  0.263625  0.056822  0.622449  1
  C  C21  1  0.265240  0.054967  0.125220  1
  C  C22  1  0.734784  0.939141  0.376297  1
  C  C23  1  0.735546  0.940123  0.874731  1
  O  O24  1  0.714455  0.084707  0.874750  1
  O  O25  1  0.713232  0.083822  0.374811  1
  O  O26  1  0.029312  0.107205  0.125007  1
  O  O27  1  0.037331  0.120433  0.624623  1
  O  O28  1  0.462678  0.146596  0.125361  1
  O  O29  1  0.470542  0.140810  0.625182  1
  O  O30  1  0.214667  0.318591  0.966631  1
  O  O31  1  0.215174  0.318698  0.783071  1
  O  O32  1  0.216643  0.318639  0.466916  1
  O  O33  1  0.211068  0.323400  0.283918  1
  O  O34  1  0.599411  0.428014  0.875462  1
  O  O35  1  0.600923  0.428282  0.374935  1
  O  O36  1  0.818112  0.430948  0.625149  1
  O  O37  1  0.824658  0.434870  0.124945  1
  O  O38  1  0.177290  0.569116  0.875034  1
  O  O39  1  0.183363  0.573431  0.380575  1
  O  O40  1  0.399437  0.577345  0.618546  1
  O  O41  1  0.401545  0.572878  0.125240  1
  O  O42  1  0.780816  0.681550  0.716696  1
  O  O43  1  0.799770  0.682001  0.533871  1
  O  O44  1  0.785131  0.687992  0.216365  1
  O  O45  1  0.783471  0.687959  0.034488  1
  O  O46  1  0.528918  0.856240  0.874336  1
  O  O47  1  0.528321  0.854865  0.377849  1
  O  O48  1  0.962637  0.877900  0.874785  1
  O  O49  1  0.962380  0.877436  0.376349  1
  O  O50  1  0.306738  0.912554  0.125324  1
  O  O51  1  0.283256  0.912105  0.617779  1
