# generated using pymatgen
data_Li4Ni3SnO8
_symmetry_space_group_name_H-M   'P 1'
_cell_length_a   5.97670638
_cell_length_b   5.97670638
_cell_length_c   5.97670638
_cell_angle_alpha   59.88224024
_cell_angle_beta   59.88224024
_cell_angle_gamma   59.88224024
_symmetry_Int_Tables_number   1
_chemical_formula_structural   Li4Ni3SnO8
_chemical_formula_sum   'Li4 Ni3 Sn1 O8'
_cell_volume   150.55973036
_cell_formula_units_Z   1
loop_
 _symmetry_equiv_pos_site_id
 _symmetry_equiv_pos_as_xyz
  1  'x, y, z'
loop_
 _atom_site_type_symbol
 _atom_site_label
 _atom_site_symmetry_multiplicity
 _atom_site_fract_x
 _atom_site_fract_y
 _atom_site_fract_z
 _atom_site_occupancy
  Li  Li0  1  0.500000  0.500000  0.500000  1
  Li  Li1  1  0.500000  0.000000  0.000000  1
  Li  Li2  1  0.000000  0.500000  0.000000  1
  Li  Li3  1  0.000000  0.000000  0.500000  1
  Ni  Ni4  1  0.000000  0.500000  0.500000  1
  Ni  Ni5  1  0.500000  0.000000  0.500000  1
  Ni  Ni6  1  0.500000  0.500000  0.000000  1
  Sn  Sn7  1  0.000000  0.000000  0.000000  1
  O  O8  1  0.265195  0.265195  0.265195  1
  O  O9  1  0.252562  0.753547  0.753547  1
  O  O10  1  0.753547  0.252562  0.753547  1
  O  O11  1  0.734805  0.734805  0.734805  1
  O  O12  1  0.753547  0.753547  0.252562  1
  O  O13  1  0.747438  0.246453  0.246453  1
  O  O14  1  0.246453  0.747438  0.246453  1
  O  O15  1  0.246453  0.246453  0.747438  1
