# generated using pymatgen
data_Li6Cr3Cu(PO4)6
_symmetry_space_group_name_H-M   'P 1'
_cell_length_a   8.50907809
_cell_length_b   8.53902148
_cell_length_c   8.54965988
_cell_angle_alpha   61.44214907
_cell_angle_beta   61.58280881
_cell_angle_gamma   61.60235928
_symmetry_Int_Tables_number   1
_chemical_formula_structural   Li6Cr3Cu(PO4)6
_chemical_formula_sum   'Li6 Cr3 Cu1 P6 O24'
_cell_volume   454.46523184
_cell_formula_units_Z   1
loop_
 _symmetry_equiv_pos_site_id
 _symmetry_equiv_pos_as_xyz
  1  'x, y, z'
loop_
 _atom_site_type_symbol
 _atom_site_label
 _atom_site_symmetry_multiplicity
 _atom_site_fract_x
 _atom_site_fract_y
 _atom_site_fract_z
 _atom_site_occupancy
  Li  Li0  1  0.020684  0.999225  0.989068  1
  Li  Li1  1  0.756347  0.144641  0.349407  1
  Li  Li2  1  0.475422  0.509266  0.499575  1
  Li  Li3  1  0.215294  0.850103  0.661600  1
  Li  Li4  1  0.665761  0.210634  0.849036  1
  Li  Li5  1  0.847885  0.668002  0.209936  1
  Cr  Cr6  1  0.139769  0.143825  0.137987  1
  Cr  Cr7  1  0.360029  0.361875  0.355897  1
  Cr  Cr8  1  0.642328  0.645620  0.645224  1
  Cu  Cu9  1  0.853638  0.850894  0.848681  1
  P  P10  1  0.049549  0.750358  0.452301  1
  P  P11  1  0.450733  0.050908  0.751159  1
  P  P12  1  0.750493  0.456517  0.046612  1
  P  P13  1  0.253723  0.538005  0.959245  1
  P  P14  1  0.540732  0.964073  0.253651  1
  P  P15  1  0.956346  0.252879  0.534439  1
  O  O16  1  0.118859  0.316586  0.481003  1
  O  O17  1  0.330411  0.494308  0.108623  1
  O  O18  1  0.041409  0.924807  0.270344  1
  O  O19  1  0.523267  0.112662  0.319041  1
  O  O20  1  0.243855  0.597886  0.416751  1
  O  O21  1  0.035393  0.797205  0.613994  1
  O  O22  1  0.261773  0.062338  0.913567  1
  O  O23  1  0.436352  0.240785  0.586091  1
  O  O24  1  0.598110  0.422837  0.245441  1
  O  O25  1  0.200338  0.377987  0.987739  1
  O  O26  1  0.082936  0.726547  0.960881  1
  O  O27  1  0.366296  0.004521  0.215261  1
  O  O28  1  0.614087  0.029846  0.801553  1
  O  O29  1  0.908471  0.261171  0.063962  1
  O  O30  1  0.803810  0.615344  0.027736  1
  O  O31  1  0.400934  0.580144  0.756948  1
  O  O32  1  0.577462  0.762592  0.402981  1
  O  O33  1  0.725557  0.958797  0.078815  1
  O  O34  1  0.965034  0.206487  0.377019  1
  O  O35  1  0.758470  0.402947  0.582484  1
  O  O36  1  0.490886  0.887045  0.694156  1
  O  O37  1  0.961383  0.079406  0.720993  1
  O  O38  1  0.692094  0.497196  0.884977  1
  O  O39  1  0.884079  0.692731  0.496821  1
