# generated using pymatgen
data_LiFeP2O7
_symmetry_space_group_name_H-M   'P 1'
_cell_length_a   6.27873574
_cell_length_b   6.70797707
_cell_length_c   7.08641480
_cell_angle_alpha   75.44267428
_cell_angle_beta   65.08853263
_cell_angle_gamma   81.03527151
_symmetry_Int_Tables_number   1
_chemical_formula_structural   LiFeP2O7
_chemical_formula_sum   'Li2 Fe2 P4 O14'
_cell_volume   261.57908702
_cell_formula_units_Z   2
loop_
 _symmetry_equiv_pos_site_id
 _symmetry_equiv_pos_as_xyz
  1  'x, y, z'
loop_
 _atom_site_type_symbol
 _atom_site_label
 _atom_site_symmetry_multiplicity
 _atom_site_fract_x
 _atom_site_fract_y
 _atom_site_fract_z
 _atom_site_occupancy
  Li  Li0  1  0.937720  0.327129  0.186009  1
  Li  Li1  1  0.062280  0.672871  0.813991  1
  Fe  Fe2  1  0.742166  0.187898  0.901105  1
  Fe  Fe3  1  0.257834  0.812102  0.098895  1
  P  P4  1  0.225731  0.177128  0.758495  1
  P  P5  1  0.364927  0.366361  0.300563  1
  P  P6  1  0.635073  0.633639  0.699437  1
  P  P7  1  0.774269  0.822872  0.241505  1
  O  O8  1  0.945852  0.972969  0.232444  1
  O  O9  1  0.385347  0.068905  0.875580  1
  O  O10  1  0.402294  0.256767  0.519928  1
  O  O11  1  0.187048  0.258820  0.280777  1
  O  O12  1  0.063277  0.353968  0.854713  1
  O  O13  1  0.620408  0.345471  0.132748  1
  O  O14  1  0.699013  0.403287  0.683200  1
  O  O15  1  0.300987  0.596713  0.316800  1
  O  O16  1  0.379592  0.654529  0.867252  1
  O  O17  1  0.936723  0.646032  0.145287  1
  O  O18  1  0.812952  0.741180  0.719223  1
  O  O19  1  0.597706  0.743233  0.480072  1
  O  O20  1  0.614653  0.931095  0.124420  1
  O  O21  1  0.054148  0.027031  0.767556  1
