# generated using pymatgen
data_Li10Ti3Mn5O16
_symmetry_space_group_name_H-M   'P 1'
_cell_length_a   6.03194765
_cell_length_b   6.22191522
_cell_length_c   10.10876330
_cell_angle_alpha   91.71333451
_cell_angle_beta   90.15371987
_cell_angle_gamma   118.74026494
_symmetry_Int_Tables_number   1
_chemical_formula_structural   Li10Ti3Mn5O16
_chemical_formula_sum   'Li10 Ti3 Mn5 O16'
_cell_volume   332.43590319
_cell_formula_units_Z   1
loop_
 _symmetry_equiv_pos_site_id
 _symmetry_equiv_pos_as_xyz
  1  'x, y, z'
loop_
 _atom_site_type_symbol
 _atom_site_label
 _atom_site_symmetry_multiplicity
 _atom_site_fract_x
 _atom_site_fract_y
 _atom_site_fract_z
 _atom_site_occupancy
  Li  Li0  1  0.819043  0.629134  0.561618  1
  Li  Li1  1  0.420626  0.257642  0.546901  1
  Li  Li2  1  0.684238  0.358714  0.777954  1
  Li  Li3  1  0.177935  0.813838  0.076576  1
  Li  Li4  1  0.857737  0.253895  0.546801  1
  Li  Li5  1  0.356684  0.697686  0.269013  1
  Li  Li6  1  0.645713  0.812049  0.075069  1
  Li  Li7  1  0.237489  0.459571  0.052846  1
  Li  Li8  1  0.025120  0.044890  0.991150  1
  Li  Li9  1  0.007437  0.988235  0.485839  1
  Ti  Ti10  1  0.835359  0.654291  0.290365  1
  Ti  Ti11  1  0.163015  0.845603  0.791585  1
  Ti  Ti12  1  0.669571  0.865173  0.780870  1
  Mn  Mn13  1  0.655487  0.300385  0.035925  1
  Mn  Mn14  1  0.343048  0.671445  0.520064  1
  Mn  Mn15  1  0.340426  0.171812  0.285798  1
  Mn  Mn16  1  0.848004  0.171246  0.285848  1
  Mn  Mn17  1  0.188017  0.356954  0.780161  1
  O  O18  1  0.982979  0.953640  0.170532  1
  O  O19  1  0.876619  0.728213  0.897138  1
  O  O20  1  0.521108  0.504213  0.165215  1
  O  O21  1  0.692642  0.365077  0.409983  1
  O  O22  1  0.996413  0.502477  0.163882  1
  O  O23  1  0.332974  0.162935  0.896010  1
  O  O24  1  0.506726  0.999518  0.162617  1
  O  O25  1  0.145716  0.808886  0.398399  1
  O  O26  1  0.840001  0.164892  0.894072  1
  O  O27  1  0.513067  0.001162  0.672847  1
  O  O28  1  0.684783  0.809545  0.401424  1
  O  O29  1  0.030202  0.547898  0.674777  1
  O  O30  1  0.367666  0.717878  0.896657  1
  O  O31  1  0.532385  0.547523  0.675611  1
  O  O32  1  0.163197  0.305301  0.434151  1
  O  O33  1  0.996872  0.981650  0.675002  1
