# generated using pymatgen
data_Li11V4F24
_symmetry_space_group_name_H-M   'P 1'
_cell_length_a   11.38667758
_cell_length_b   11.38667758
_cell_length_c   11.38667758
_cell_angle_alpha   128.22036550
_cell_angle_beta   128.22036550
_cell_angle_gamma   76.26831579
_symmetry_Int_Tables_number   1
_chemical_formula_structural   Li11V4F24
_chemical_formula_sum   'Li22 V8 F48'
_cell_volume   885.60005302
_cell_formula_units_Z   2
loop_
 _symmetry_equiv_pos_site_id
 _symmetry_equiv_pos_as_xyz
  1  'x, y, z'
loop_
 _atom_site_type_symbol
 _atom_site_label
 _atom_site_symmetry_multiplicity
 _atom_site_fract_x
 _atom_site_fract_y
 _atom_site_fract_z
 _atom_site_occupancy
  Li  Li0  1  0.750000  0.250000  0.500000  1
  Li  Li1  1  0.276109  0.276109  0.000000  1
  Li  Li2  1  0.510454  0.487656  0.492646  1
  Li  Li3  1  0.558466  0.815663  0.735258  1
  Li  Li4  1  0.723891  0.723891  0.000000  1
  Li  Li5  1  0.754991  0.232192  0.992646  1
  Li  Li6  1  0.565663  0.330405  0.757198  1
  Li  Li7  1  0.176793  0.441534  0.257198  1
  Li  Li8  1  0.080405  0.823207  0.264742  1
  Li  Li9  1  0.512344  0.004991  0.022798  1
  Li  Li10  1  0.982192  0.489546  0.977202  1
  Li  Li11  1  0.767808  0.760454  0.522798  1
  Li  Li12  1  0.237656  0.245010  0.477202  1
  Li  Li13  1  0.669595  0.426793  0.235258  1
  Li  Li14  1  0.573207  0.808466  0.242802  1
  Li  Li15  1  0.184337  0.919595  0.742802  1
  Li  Li16  1  0.995009  0.017808  0.507354  1
  Li  Li17  1  0.026109  0.526109  0.500000  1
  Li  Li18  1  0.191534  0.434337  0.764742  1
  Li  Li19  1  0.239546  0.762344  0.007354  1
  Li  Li20  1  0.473891  0.973891  0.500000  1
  Li  Li21  1  0.000000  0.000000  0.000000  1
  V  V22  1  0.375000  0.125000  0.750000  1
  V  V23  1  0.375000  0.625000  0.250000  1
  V  V24  1  0.875000  0.125000  0.250000  1
  V  V25  1  0.375000  0.125000  0.250000  1
  V  V26  1  0.875000  0.625000  0.750000  1
  V  V27  1  0.375000  0.625000  0.750000  1
  V  V28  1  0.875000  0.125000  0.750000  1
  V  V29  1  0.875000  0.625000  0.250000  1
  F  F30  1  0.858689  0.292625  0.740644  1
  F  F31  1  0.707375  0.448019  0.566063  1
  F  F32  1  0.485286  0.462282  0.216223  1
  F  F33  1  0.737118  0.754664  0.744687  1
  F  F34  1  0.246059  0.269063  0.783777  1
  F  F35  1  0.412421  0.640878  0.452605  1
  F  F36  1  0.695643  0.161698  0.754787  1
  F  F37  1  0.690856  0.945643  0.033945  1
  F  F38  1  0.881956  0.141311  0.433937  1
  F  F39  1  0.343089  0.309144  0.254787  1
  F  F40  1  0.730937  0.514714  0.976996  1
  F  F41  1  0.188035  0.458173  0.072849  1
  F  F42  1  0.504664  0.259977  0.517546  1
  F  F43  1  0.541827  0.614676  0.729861  1
  F  F44  1  0.865186  0.438035  0.229861  1
  F  F45  1  0.537718  0.753941  0.023004  1
  F  F46  1  0.911698  0.656911  0.966055  1
  F  F47  1  0.709816  0.662421  0.271543  1
  F  F48  1  0.198019  0.131956  0.240644  1
  F  F49  1  0.385324  0.115186  0.927151  1
  F  F50  1  0.009977  0.992431  0.255313  1
  F  F51  1  0.188273  0.959816  0.547395  1
  F  F52  1  0.359122  0.811727  0.771543  1
  F  F53  1  0.007569  0.262882  0.017546  1
  F  F54  1  0.742431  0.987118  0.482454  1
  F  F55  1  0.390878  0.438273  0.728457  1
  F  F56  1  0.561727  0.290184  0.952605  1
  F  F57  1  0.740023  0.257569  0.244687  1
  F  F58  1  0.364676  0.134814  0.572849  1
  F  F59  1  0.551981  0.118044  0.259356  1
  F  F60  1  0.040184  0.587579  0.228457  1
  F  F61  1  0.838302  0.593089  0.533945  1
  F  F62  1  0.212282  0.496059  0.476996  1
  F  F63  1  0.884814  0.811965  0.270139  1
  F  F64  1  0.208173  0.635324  0.770139  1
  F  F65  1  0.245336  0.990023  0.982454  1
  F  F66  1  0.561965  0.791827  0.427151  1
  F  F67  1  0.019063  0.735286  0.523004  1
  F  F68  1  0.406911  0.940856  0.245213  1
  F  F69  1  0.868044  0.108689  0.066063  1
  F  F70  1  0.059144  0.304357  0.466055  1
  F  F71  1  0.054357  0.088302  0.745213  1
  F  F72  1  0.337579  0.609122  0.047395  1
  F  F73  1  0.503941  0.980937  0.716223  1
  F  F74  1  0.012882  0.495336  0.755313  1
  F  F75  1  0.264714  0.787718  0.283777  1
  F  F76  1  0.042625  0.801981  0.933937  1
  F  F77  1  0.891311  0.957375  0.759356  1
