# generated using pymatgen
data_Mn2NbV3(PO4)6
_symmetry_space_group_name_H-M   'P 1'
_cell_length_a   8.73006896
_cell_length_b   8.73006896
_cell_length_c   8.73006896
_cell_angle_alpha   59.97171939
_cell_angle_beta   59.97171939
_cell_angle_gamma   59.97171939
_symmetry_Int_Tables_number   1
_chemical_formula_structural   Mn2NbV3(PO4)6
_chemical_formula_sum   'Mn2 Nb1 V3 P6 O24'
_cell_volume   470.17487811
_cell_formula_units_Z   1
loop_
 _symmetry_equiv_pos_site_id
 _symmetry_equiv_pos_as_xyz
  1  'x, y, z'
loop_
 _atom_site_type_symbol
 _atom_site_label
 _atom_site_symmetry_multiplicity
 _atom_site_fract_x
 _atom_site_fract_y
 _atom_site_fract_z
 _atom_site_occupancy
  Mn  Mn0  1  0.995725  0.995725  0.995725  1
  Mn  Mn1  1  0.499450  0.499450  0.499450  1
  Nb  Nb2  1  0.143754  0.143754  0.143754  1
  V  V3  1  0.643216  0.643216  0.643216  1
  V  V4  1  0.854744  0.854744  0.854744  1
  V  V5  1  0.356881  0.356881  0.356881  1
  P  P6  1  0.252598  0.548178  0.956304  1
  P  P7  1  0.956304  0.252598  0.548178  1
  P  P8  1  0.548178  0.956304  0.252598  1
  P  P9  1  0.462040  0.041565  0.744699  1
  P  P10  1  0.041565  0.744699  0.462040  1
  P  P11  1  0.744699  0.462040  0.041565  1
  O  O12  1  0.114889  0.307558  0.506246  1
  O  O13  1  0.506246  0.114889  0.307558  1
  O  O14  1  0.307558  0.506246  0.114889  1
  O  O15  1  0.086544  0.736015  0.939936  1
  O  O16  1  0.191371  0.382800  0.001060  1
  O  O17  1  0.411933  0.556542  0.764466  1
  O  O18  1  0.939936  0.086544  0.736015  1
  O  O19  1  0.764466  0.411933  0.556542  1
  O  O20  1  0.614882  0.005802  0.808371  1
  O  O21  1  0.556542  0.764466  0.411933  1
  O  O22  1  0.265019  0.061416  0.912799  1
  O  O23  1  0.005802  0.808371  0.614882  1
  O  O24  1  0.001060  0.191371  0.382800  1
  O  O25  1  0.736015  0.939936  0.086544  1
  O  O26  1  0.440034  0.235756  0.587559  1
  O  O27  1  0.382800  0.001060  0.191371  1
  O  O28  1  0.235756  0.587559  0.440034  1
  O  O29  1  0.061416  0.912799  0.265019  1
  O  O30  1  0.587559  0.440034  0.235756  1
  O  O31  1  0.808371  0.614882  0.005802  1
  O  O32  1  0.912799  0.265019  0.061416  1
  O  O33  1  0.694569  0.492056  0.883200  1
  O  O34  1  0.492056  0.883200  0.694569  1
  O  O35  1  0.883200  0.694569  0.492056  1
