# generated using pymatgen
data_Rb4PbO4
_symmetry_space_group_name_H-M   'P 1'
_cell_length_a   11.51072144
_cell_length_b   7.21497395
_cell_length_c   11.52555573
_cell_angle_alpha   90.00000000
_cell_angle_beta   111.01656589
_cell_angle_gamma   90.00000000
_symmetry_Int_Tables_number   1
_chemical_formula_structural   Rb4PbO4
_chemical_formula_sum   'Rb16 Pb4 O16'
_cell_volume   893.51675859
_cell_formula_units_Z   4
loop_
 _symmetry_equiv_pos_site_id
 _symmetry_equiv_pos_as_xyz
  1  'x, y, z'
loop_
 _atom_site_type_symbol
 _atom_site_label
 _atom_site_symmetry_multiplicity
 _atom_site_fract_x
 _atom_site_fract_y
 _atom_site_fract_z
 _atom_site_occupancy
  Rb  Rb0  1  0.070568  0.583339  0.700118  1
  Rb  Rb1  1  0.158005  0.109765  0.582164  1
  Rb  Rb2  1  0.070568  0.916661  0.200118  1
  Rb  Rb3  1  0.372187  0.333390  0.893801  1
  Rb  Rb4  1  0.158005  0.390235  0.082164  1
  Rb  Rb5  1  0.423423  0.817262  0.789592  1
  Rb  Rb6  1  0.372187  0.166610  0.393801  1
  Rb  Rb7  1  0.423423  0.682738  0.289592  1
  Rb  Rb8  1  0.576577  0.317262  0.710408  1
  Rb  Rb9  1  0.627813  0.833390  0.606199  1
  Rb  Rb10  1  0.576577  0.182738  0.210408  1
  Rb  Rb11  1  0.841995  0.609765  0.917836  1
  Rb  Rb12  1  0.627813  0.666610  0.106199  1
  Rb  Rb13  1  0.929432  0.083339  0.799882  1
  Rb  Rb14  1  0.841995  0.890235  0.417836  1
  Rb  Rb15  1  0.929432  0.416661  0.299882  1
  Pb  Pb16  1  0.241777  0.877471  0.990241  1
  Pb  Pb17  1  0.241777  0.622529  0.490241  1
  Pb  Pb18  1  0.758223  0.377471  0.509759  1
  Pb  Pb19  1  0.758223  0.122529  0.009759  1
  O  O20  1  0.070630  0.759696  0.973376  1
  O  O21  1  0.070630  0.740304  0.473376  1
  O  O22  1  0.215059  0.021929  0.825794  1
  O  O23  1  0.315119  0.457364  0.652496  1
  O  O24  1  0.215059  0.478071  0.325794  1
  O  O25  1  0.369232  0.839093  0.512623  1
  O  O26  1  0.315119  0.042636  0.152496  1
  O  O27  1  0.630768  0.339093  0.987377  1
  O  O28  1  0.369232  0.660907  0.012623  1
  O  O29  1  0.684881  0.957364  0.847504  1
  O  O30  1  0.630768  0.160907  0.487377  1
  O  O31  1  0.784941  0.521929  0.674206  1
  O  O32  1  0.684881  0.542636  0.347504  1
  O  O33  1  0.784941  0.978071  0.174206  1
  O  O34  1  0.929370  0.259696  0.526624  1
  O  O35  1  0.929370  0.240304  0.026624  1
