# generated using pymatgen
data_Li2Co3SnO8
_symmetry_space_group_name_H-M   'P 1'
_cell_length_a   5.76104432
_cell_length_b   5.76104432
_cell_length_c   9.47280781
_cell_angle_alpha   90.00000000
_cell_angle_beta   90.00000000
_cell_angle_gamma   120.00000000
_symmetry_Int_Tables_number   1
_chemical_formula_structural   Li2Co3SnO8
_chemical_formula_sum   'Li4 Co6 Sn2 O16'
_cell_volume   272.27752278
_cell_formula_units_Z   2
loop_
 _symmetry_equiv_pos_site_id
 _symmetry_equiv_pos_as_xyz
  1  'x, y, z'
loop_
 _atom_site_type_symbol
 _atom_site_label
 _atom_site_symmetry_multiplicity
 _atom_site_fract_x
 _atom_site_fract_y
 _atom_site_fract_z
 _atom_site_occupancy
  Li  Li0  1  0.333333  0.666667  0.890699  1
  Li  Li1  1  0.000000  0.000000  0.996288  1
  Li  Li2  1  0.000000  0.000000  0.496288  1
  Li  Li3  1  0.666667  0.333333  0.390699  1
  Co  Co4  1  0.172928  0.827072  0.215762  1
  Co  Co5  1  0.172928  0.345855  0.215762  1
  Co  Co6  1  0.654145  0.827072  0.215762  1
  Co  Co7  1  0.345855  0.172928  0.715762  1
  Co  Co8  1  0.827072  0.654145  0.715762  1
  Co  Co9  1  0.827072  0.172928  0.715762  1
  Sn  Sn10  1  0.333333  0.666667  0.492854  1
  Sn  Sn11  1  0.666667  0.333333  0.992854  1
  O  O12  1  0.160824  0.839176  0.603505  1
  O  O13  1  0.031447  0.506228  0.329813  1
  O  O14  1  0.333333  0.666667  0.112449  1
  O  O15  1  0.000000  0.000000  0.308549  1
  O  O16  1  0.000000  0.000000  0.808549  1
  O  O17  1  0.160824  0.321648  0.603505  1
  O  O18  1  0.474781  0.968553  0.329813  1
  O  O19  1  0.493772  0.525219  0.329813  1
  O  O20  1  0.321648  0.160824  0.103505  1
  O  O21  1  0.678352  0.839176  0.603505  1
  O  O22  1  0.506228  0.474781  0.829813  1
  O  O23  1  0.525219  0.031447  0.829813  1
  O  O24  1  0.666667  0.333333  0.612449  1
  O  O25  1  0.839176  0.678352  0.103505  1
  O  O26  1  0.968553  0.474781  0.829813  1
  O  O27  1  0.839176  0.160824  0.103505  1
