# generated using pymatgen
data_MnP2O7
_symmetry_space_group_name_H-M   'P 1'
_cell_length_a   7.98518340
_cell_length_b   7.98518340
_cell_length_c   7.98518340
_cell_angle_alpha   90.00000000
_cell_angle_beta   90.00000000
_cell_angle_gamma   90.00000000
_symmetry_Int_Tables_number   1
_chemical_formula_structural   MnP2O7
_chemical_formula_sum   'Mn4 P8 O28'
_cell_volume   509.16047831
_cell_formula_units_Z   4
loop_
 _symmetry_equiv_pos_site_id
 _symmetry_equiv_pos_as_xyz
  1  'x, y, z'
loop_
 _atom_site_type_symbol
 _atom_site_label
 _atom_site_symmetry_multiplicity
 _atom_site_fract_x
 _atom_site_fract_y
 _atom_site_fract_z
 _atom_site_occupancy
  Mn  Mn0  1  0.000000  0.000000  0.000000  1
  Mn  Mn1  1  0.000000  0.500000  0.500000  1
  Mn  Mn2  1  0.500000  0.000000  0.500000  1
  Mn  Mn3  1  0.500000  0.500000  0.000000  1
  P  P4  1  0.116279  0.883721  0.383721  1
  P  P5  1  0.116279  0.616279  0.883721  1
  P  P6  1  0.383721  0.116279  0.883721  1
  P  P7  1  0.383721  0.383721  0.383721  1
  P  P8  1  0.616279  0.616279  0.616279  1
  P  P9  1  0.616279  0.883721  0.116279  1
  P  P10  1  0.883721  0.116279  0.616279  1
  P  P11  1  0.883721  0.383721  0.116279  1
  O  O12  1  0.000000  0.000000  0.500000  1
  O  O13  1  0.000000  0.500000  0.000000  1
  O  O14  1  0.056704  0.703216  0.389179  1
  O  O15  1  0.056704  0.796784  0.889179  1
  O  O16  1  0.110821  0.943296  0.203216  1
  O  O17  1  0.110821  0.556704  0.703216  1
  O  O18  1  0.203216  0.110821  0.943296  1
  O  O19  1  0.203216  0.389179  0.443296  1
  O  O20  1  0.296784  0.610821  0.943296  1
  O  O21  1  0.296784  0.889179  0.443296  1
  O  O22  1  0.389179  0.056704  0.703216  1
  O  O23  1  0.389179  0.443296  0.203216  1
  O  O24  1  0.443296  0.296784  0.889179  1
  O  O25  1  0.443296  0.203216  0.389179  1
  O  O26  1  0.500000  0.500000  0.500000  1
  O  O27  1  0.500000  0.000000  0.000000  1
  O  O28  1  0.556704  0.703216  0.110821  1
  O  O29  1  0.556704  0.796784  0.610821  1
  O  O30  1  0.610821  0.556704  0.796784  1
  O  O31  1  0.610821  0.943296  0.296784  1
  O  O32  1  0.703216  0.110821  0.556704  1
  O  O33  1  0.703216  0.389179  0.056704  1
  O  O34  1  0.796784  0.610821  0.556704  1
  O  O35  1  0.796784  0.889179  0.056704  1
  O  O36  1  0.889179  0.056704  0.796784  1
  O  O37  1  0.889179  0.443296  0.296784  1
  O  O38  1  0.943296  0.203216  0.110821  1
  O  O39  1  0.943296  0.296784  0.610821  1
