# generated using pymatgen
data_TbH12S2NO12
_symmetry_space_group_name_H-M   'P 1'
_cell_length_a   6.58484457
_cell_length_b   19.18964033
_cell_length_c   8.63336075
_cell_angle_alpha   90.00000000
_cell_angle_beta   96.12467517
_cell_angle_gamma   90.00000000
_symmetry_Int_Tables_number   1
_chemical_formula_structural   TbH12S2NO12
_chemical_formula_sum   'Tb4 H48 S8 N4 O48'
_cell_volume   1084.69149454
_cell_formula_units_Z   4
loop_
 _symmetry_equiv_pos_site_id
 _symmetry_equiv_pos_as_xyz
  1  'x, y, z'
loop_
 _atom_site_type_symbol
 _atom_site_label
 _atom_site_symmetry_multiplicity
 _atom_site_fract_x
 _atom_site_fract_y
 _atom_site_fract_z
 _atom_site_occupancy
  Tb  Tb0  1  0.153751  0.622798  0.290634  1
  Tb  Tb1  1  0.846249  0.122798  0.209366  1
  Tb  Tb2  1  0.846249  0.377202  0.709366  1
  Tb  Tb3  1  0.153751  0.877202  0.790634  1
  H  H4  1  0.276805  0.526396  0.011888  1
  H  H5  1  0.723195  0.026396  0.488112  1
  H  H6  1  0.723195  0.473604  0.988112  1
  H  H7  1  0.276805  0.973604  0.511888  1
  H  H8  1  0.136272  0.589384  0.956073  1
  H  H9  1  0.863728  0.089384  0.543927  1
  H  H10  1  0.863728  0.410616  0.043927  1
  H  H11  1  0.136272  0.910616  0.456073  1
  H  H12  1  0.185873  0.637850  0.651725  1
  H  H13  1  0.814127  0.137850  0.848275  1
  H  H14  1  0.814127  0.362150  0.348275  1
  H  H15  1  0.185873  0.862150  0.151725  1
  H  H16  1  0.291322  0.567438  0.616387  1
  H  H17  1  0.708678  0.067438  0.883613  1
  H  H18  1  0.708678  0.432562  0.383613  1
  H  H19  1  0.291322  0.932562  0.116387  1
  H  H20  1  0.528526  0.589666  0.842195  1
  H  H21  1  0.471474  0.089666  0.657805  1
  H  H22  1  0.471474  0.410334  0.157805  1
  H  H23  1  0.528526  0.910334  0.342195  1
  H  H24  1  0.735033  0.609604  0.939733  1
  H  H25  1  0.264967  0.109604  0.560267  1
  H  H26  1  0.264967  0.390396  0.060267  1
  H  H27  1  0.735033  0.890396  0.439733  1
  H  H28  1  0.245251  0.468100  0.267812  1
  H  H29  1  0.754749  0.968100  0.232188  1
  H  H30  1  0.754749  0.531900  0.732188  1
  H  H31  1  0.245251  0.031900  0.767812  1
  H  H32  1  0.176983  0.478023  0.435994  1
  H  H33  1  0.823017  0.978023  0.064006  1
  H  H34  1  0.823017  0.521977  0.564006  1
  H  H35  1  0.176983  0.021977  0.935994  1
  H  H36  1  0.663141  0.676237  0.689029  1
  H  H37  1  0.336859  0.176237  0.810971  1
  H  H38  1  0.336859  0.323763  0.310971  1
  H  H39  1  0.663141  0.823763  0.189029  1
  H  H40  1  0.616048  0.761377  0.704149  1
  H  H41  1  0.383952  0.261377  0.795851  1
  H  H42  1  0.383952  0.238623  0.295851  1
  H  H43  1  0.616048  0.738623  0.204149  1
  H  H44  1  0.788046  0.734821  0.586376  1
  H  H45  1  0.211954  0.234821  0.913624  1
  H  H46  1  0.211954  0.265179  0.413624  1
  H  H47  1  0.788046  0.765179  0.086376  1
  H  H48  1  0.535430  0.722073  0.535007  1
  H  H49  1  0.464570  0.222073  0.964993  1
  H  H50  1  0.464570  0.277927  0.464993  1
  H  H51  1  0.535430  0.777927  0.035007  1
  S  S52  1  0.134417  0.775382  0.419613  1
  S  S53  1  0.865583  0.275382  0.080387  1
  S  S54  1  0.865583  0.224618  0.580387  1
  S  S55  1  0.134417  0.724618  0.919613  1
  S  S56  1  0.695338  0.576003  0.264043  1
  S  S57  1  0.304662  0.076003  0.235957  1
  S  S58  1  0.304662  0.423997  0.735957  1
  S  S59  1  0.695338  0.923997  0.764043  1
  N  N60  1  0.651359  0.723201  0.627765  1
  N  N61  1  0.348641  0.223201  0.872235  1
  N  N62  1  0.348641  0.276799  0.372235  1
  N  N63  1  0.651359  0.776799  0.127765  1
  O  O64  1  0.095645  0.838757  0.322400  1
  O  O65  1  0.904355  0.338757  0.177600  1
  O  O66  1  0.904355  0.161243  0.677600  1
  O  O67  1  0.095645  0.661243  0.822400  1
  O  O68  1  0.142097  0.794444  0.586456  1
  O  O69  1  0.857903  0.294444  0.913544  1
  O  O70  1  0.857903  0.205556  0.413544  1
  O  O71  1  0.142097  0.705556  0.086456  1
  O  O72  1  0.967420  0.722589  0.383171  1
  O  O73  1  0.032580  0.222589  0.116829  1
  O  O74  1  0.032580  0.277411  0.616829  1
  O  O75  1  0.967420  0.777411  0.883171  1
  O  O76  1  0.327712  0.739667  0.387192  1
  O  O77  1  0.672288  0.239667  0.112808  1
  O  O78  1  0.672288  0.260333  0.612808  1
  O  O79  1  0.327712  0.760333  0.887192  1
  O  O80  1  0.510237  0.618673  0.280849  1
  O  O81  1  0.489763  0.118673  0.219151  1
  O  O82  1  0.489763  0.381327  0.719151  1
  O  O83  1  0.510237  0.881327  0.780849  1
  O  O84  1  0.641551  0.503409  0.221642  1
  O  O85  1  0.358449  0.003409  0.278358  1
  O  O86  1  0.358449  0.496591  0.778358  1
  O  O87  1  0.641551  0.996591  0.721642  1
  O  O88  1  0.812893  0.609695  0.143088  1
  O  O89  1  0.187107  0.109695  0.356912  1
  O  O90  1  0.187107  0.390305  0.856912  1
  O  O91  1  0.812893  0.890305  0.643088  1
  O  O92  1  0.839830  0.579112  0.410597  1
  O  O93  1  0.160170  0.079112  0.089403  1
  O  O94  1  0.160170  0.420888  0.589403  1
  O  O95  1  0.839830  0.920888  0.910597  1
  O  O96  1  0.186375  0.561562  0.048773  1
  O  O97  1  0.813625  0.061562  0.451227  1
  O  O98  1  0.813625  0.438438  0.951227  1
  O  O99  1  0.186375  0.938438  0.548773  1
  O  O100  1  0.253252  0.613079  0.569414  1
  O  O101  1  0.746748  0.113079  0.930586  1
  O  O102  1  0.746748  0.386921  0.430586  1
  O  O103  1  0.253252  0.886921  0.069414  1
  O  O104  1  0.669737  0.602843  0.831409  1
  O  O105  1  0.330263  0.102843  0.668591  1
  O  O106  1  0.330263  0.397157  0.168591  1
  O  O107  1  0.669737  0.897157  0.331409  1
  O  O108  1  0.203149  0.504026  0.341021  1
  O  O109  1  0.796851  0.004026  0.158979  1
  O  O110  1  0.796851  0.495974  0.658979  1
  O  O111  1  0.203149  0.995974  0.841021  1
