# generated using pymatgen
data_Na2H5RuN5O12
_symmetry_space_group_name_H-M   'P 1'
_cell_length_a   9.87516376
_cell_length_b   9.87516376
_cell_length_c   7.52287600
_cell_angle_alpha   69.58645646
_cell_angle_beta   110.41354354
_cell_angle_gamma   82.88985440
_symmetry_Int_Tables_number   1
_chemical_formula_structural   Na2H5RuN5O12
_chemical_formula_sum   'Na4 H10 Ru2 N10 O24'
_cell_volume   618.70441239
_cell_formula_units_Z   2
loop_
 _symmetry_equiv_pos_site_id
 _symmetry_equiv_pos_as_xyz
  1  'x, y, z'
loop_
 _atom_site_type_symbol
 _atom_site_label
 _atom_site_symmetry_multiplicity
 _atom_site_fract_x
 _atom_site_fract_y
 _atom_site_fract_z
 _atom_site_occupancy
  Na  Na0  1  0.000000  0.500000  0.500000  1
  Na  Na1  1  0.500000  1.000000  0.500000  1
  Na  Na2  1  0.891339  0.891339  0.500000  1
  Na  Na3  1  0.108661  0.108661  0.500000  1
  H  H4  1  0.043621  0.956379  0.856754  1
  H  H5  1  0.956379  0.043621  0.143246  1
  H  H6  1  0.797434  0.783494  0.186745  1
  H  H7  1  0.216506  0.202566  0.186745  1
  H  H8  1  0.202566  0.216506  0.813255  1
  H  H9  1  0.783494  0.797434  0.813255  1
  H  H10  1  0.678162  0.756675  0.273705  1
  H  H11  1  0.243325  0.321838  0.273705  1
  H  H12  1  0.321838  0.243325  0.726295  1
  H  H13  1  0.756675  0.678162  0.726295  1
  Ru  Ru14  1  0.263175  0.736825  0.003236  1
  Ru  Ru15  1  0.736825  0.263175  0.996764  1
  N  N16  1  0.419731  0.580269  0.189106  1
  N  N17  1  0.580269  0.419731  0.810894  1
  N  N18  1  0.130348  0.668294  0.171075  1
  N  N19  1  0.331706  0.869652  0.171075  1
  N  N20  1  0.869652  0.331706  0.828925  1
  N  N21  1  0.668294  0.130348  0.828925  1
  N  N22  1  0.180897  0.612541  0.827412  1
  N  N23  1  0.387459  0.819103  0.827412  1
  N  N24  1  0.819103  0.387459  0.172588  1
  N  N25  1  0.612541  0.180897  0.172588  1
  O  O26  1  0.088789  0.911211  0.786102  1
  O  O27  1  0.911211  0.088789  0.213898  1
  O  O28  1  0.522658  0.477342  0.310979  1
  O  O29  1  0.477342  0.522658  0.689021  1
  O  O30  1  0.017952  0.761786  0.139831  1
  O  O31  1  0.238214  0.982048  0.139831  1
  O  O32  1  0.982048  0.238214  0.860169  1
  O  O33  1  0.761786  0.017952  0.860169  1
  O  O34  1  0.167540  0.534513  0.302926  1
  O  O35  1  0.465487  0.832460  0.302926  1
  O  O36  1  0.832460  0.465487  0.697074  1
  O  O37  1  0.534513  0.167540  0.697074  1
  O  O38  1  0.099885  0.678334  0.634173  1
  O  O39  1  0.321666  0.900115  0.634173  1
  O  O40  1  0.900115  0.321666  0.365827  1
  O  O41  1  0.678334  0.099885  0.365827  1
  O  O42  1  0.214707  0.473041  0.919095  1
  O  O43  1  0.526959  0.785293  0.919095  1
  O  O44  1  0.785293  0.526959  0.080905  1
  O  O45  1  0.473041  0.214707  0.080905  1
  O  O46  1  0.785132  0.751830  0.316965  1
  O  O47  1  0.248170  0.214868  0.316965  1
  O  O48  1  0.214868  0.248170  0.683035  1
  O  O49  1  0.751830  0.785132  0.683035  1
