# generated using pymatgen
data_Hf2N2O
_symmetry_space_group_name_H-M   'P 1'
_cell_length_a   5.49390793
_cell_length_b   5.49390793
_cell_length_c   10.31758965
_cell_angle_alpha   73.91979703
_cell_angle_beta   106.08020297
_cell_angle_gamma   120.70649674
_symmetry_Int_Tables_number   1
_chemical_formula_structural   Hf2N2O
_chemical_formula_sum   'Hf8 N8 O4'
_cell_volume   253.79159833
_cell_formula_units_Z   4
loop_
 _symmetry_equiv_pos_site_id
 _symmetry_equiv_pos_as_xyz
  1  'x, y, z'
loop_
 _atom_site_type_symbol
 _atom_site_label
 _atom_site_symmetry_multiplicity
 _atom_site_fract_x
 _atom_site_fract_y
 _atom_site_fract_z
 _atom_site_occupancy
  Hf  Hf0  1  0.570470  0.165970  0.089901  1
  Hf  Hf1  1  0.075528  0.654504  0.587436  1
  Hf  Hf2  1  0.654504  0.075528  0.412564  1
  Hf  Hf3  1  0.798704  0.917802  0.840333  1
  Hf  Hf4  1  0.165970  0.570470  0.910099  1
  Hf  Hf5  1  0.917802  0.798704  0.159667  1
  Hf  Hf6  1  0.314476  0.427073  0.339104  1
  Hf  Hf7  1  0.427073  0.314476  0.660896  1
  N  N8  1  0.887884  0.584245  0.005156  1
  N  N9  1  0.633606  0.423235  0.257089  1
  N  N10  1  0.423235  0.633606  0.742911  1
  N  N11  1  0.584245  0.887884  0.994844  1
  N  N12  1  0.372324  0.077783  0.502046  1
  N  N13  1  0.337483  0.830859  0.248923  1
  N  N14  1  0.830859  0.337483  0.751077  1
  N  N15  1  0.077783  0.372324  0.497954  1
  O  O16  1  0.937111  0.129557  0.241350  1
  O  O17  1  0.195562  0.195562  0.000000  1
  O  O18  1  0.682544  0.682544  0.500000  1
  O  O19  1  0.129557  0.937111  0.758650  1
