# generated using pymatgen
data_Li10Zn3(GeO4)4
_symmetry_space_group_name_H-M   'P 1'
_cell_length_a   5.37418950
_cell_length_b   6.49135790
_cell_length_c   11.05642464
_cell_angle_alpha   91.97588393
_cell_angle_beta   91.86255726
_cell_angle_gamma   91.49985190
_symmetry_Int_Tables_number   1
_chemical_formula_structural   Li10Zn3(GeO4)4
_chemical_formula_sum   'Li10 Zn3 Ge4 O16'
_cell_volume   385.13521505
_cell_formula_units_Z   1
loop_
 _symmetry_equiv_pos_site_id
 _symmetry_equiv_pos_as_xyz
  1  'x, y, z'
loop_
 _atom_site_type_symbol
 _atom_site_label
 _atom_site_symmetry_multiplicity
 _atom_site_fract_x
 _atom_site_fract_y
 _atom_site_fract_z
 _atom_site_occupancy
  Li  Li0  1  0.352130  0.742856  0.921714  1
  Li  Li1  1  0.853397  0.546868  0.825141  1
  Li  Li2  1  0.827318  0.264145  0.568012  1
  Li  Li3  1  0.176342  0.925904  0.509780  1
  Li  Li4  1  0.826708  0.034941  0.342896  1
  Li  Li5  1  0.390311  0.948043  0.185546  1
  Li  Li6  1  0.075837  0.201727  0.197522  1
  Li  Li7  1  0.374889  0.543136  0.169092  1
  Li  Li8  1  0.633196  0.257275  0.064745  1
  Li  Li9  1  0.010989  0.474499  0.055052  1
  Zn  Zn10  1  0.680160  0.028499  0.819736  1
  Zn  Zn11  1  0.225036  0.496210  0.655502  1
  Zn  Zn12  1  0.851671  0.548161  0.334681  1
  Ge  Ge13  1  0.188840  0.239396  0.907377  1
  Ge  Ge14  1  0.707531  0.762213  0.582288  1
  Ge  Ge15  1  0.339876  0.275567  0.399923  1
  Ge  Ge16  1  0.851976  0.808636  0.081170  1
  O  O17  1  0.732850  0.777148  0.929208  1
  O  O18  1  0.852768  0.262444  0.920304  1
  O  O19  1  0.316327  0.016057  0.848645  1
  O  O20  1  0.249206  0.477109  0.834751  1
  O  O21  1  0.844939  0.546725  0.652137  1
  O  O22  1  0.788138  0.004639  0.655908  1
  O  O23  1  0.382682  0.720052  0.573948  1
  O  O24  1  0.217140  0.246622  0.545829  1
  O  O25  1  0.672248  0.298805  0.400285  1
  O  O26  1  0.836851  0.796691  0.437450  1
  O  O27  1  0.227325  0.042625  0.323499  1
  O  O28  1  0.194378  0.458443  0.304722  1
  O  O29  1  0.733649  0.574940  0.153811  1
  O  O30  1  0.753443  0.030200  0.161762  1
  O  O31  1  0.176964  0.755628  0.082428  1
  O  O32  1  0.279316  0.284008  0.065108  1
