# generated using pymatgen
data_TaFeO4
_symmetry_space_group_name_H-M   'P 1'
_cell_length_a   5.65229987
_cell_length_b   5.65229987
_cell_length_c   5.65229987
_cell_angle_alpha   107.22733208
_cell_angle_beta   107.22733208
_cell_angle_gamma   114.05871261
_symmetry_Int_Tables_number   1
_chemical_formula_structural   TaFeO4
_chemical_formula_sum   'Ta2 Fe2 O8'
_cell_volume   138.33852939
_cell_formula_units_Z   2
loop_
 _symmetry_equiv_pos_site_id
 _symmetry_equiv_pos_as_xyz
  1  'x, y, z'
loop_
 _atom_site_type_symbol
 _atom_site_label
 _atom_site_symmetry_multiplicity
 _atom_site_fract_x
 _atom_site_fract_y
 _atom_site_fract_z
 _atom_site_occupancy
  Ta  Ta0  1  0.259996  0.759996  0.500000  1
  Ta  Ta1  1  0.009996  0.009996  0.000000  1
  Fe  Fe2  1  0.750717  0.250717  0.500000  1
  Fe  Fe3  1  0.500717  0.500717  0.000000  1
  O  O4  1  0.556643  0.753760  0.802884  1
  O  O5  1  0.043712  0.240883  0.802829  1
  O  O6  1  0.490883  0.188055  0.697171  1
  O  O7  1  0.003760  0.700876  0.697116  1
  O  O8  1  0.003760  0.306643  0.302884  1
  O  O9  1  0.490883  0.793712  0.302829  1
  O  O10  1  0.950876  0.753760  0.197116  1
  O  O11  1  0.438055  0.240883  0.197171  1
