# generated using pymatgen
data_K4GeH4N2O3
_symmetry_space_group_name_H-M   'P 1'
_cell_length_a   11.11296368
_cell_length_b   6.53551672
_cell_length_c   12.44277345
_cell_angle_alpha   90.00000000
_cell_angle_beta   106.28081080
_cell_angle_gamma   90.00000000
_symmetry_Int_Tables_number   1
_chemical_formula_structural   K4GeH4N2O3
_chemical_formula_sum   'K16 Ge4 H16 N8 O12'
_cell_volume   867.46640727
_cell_formula_units_Z   4
loop_
 _symmetry_equiv_pos_site_id
 _symmetry_equiv_pos_as_xyz
  1  'x, y, z'
loop_
 _atom_site_type_symbol
 _atom_site_label
 _atom_site_symmetry_multiplicity
 _atom_site_fract_x
 _atom_site_fract_y
 _atom_site_fract_z
 _atom_site_occupancy
  K  K0  1  0.632549  0.605779  0.614386  1
  K  K1  1  0.367451  0.105779  0.885614  1
  K  K2  1  0.367451  0.394221  0.385614  1
  K  K3  1  0.632549  0.894221  0.114386  1
  K  K4  1  0.512043  0.622478  0.853201  1
  K  K5  1  0.487957  0.122478  0.646799  1
  K  K6  1  0.487957  0.377522  0.146799  1
  K  K7  1  0.512043  0.877522  0.353201  1
  K  K8  1  0.848487  0.679243  0.902428  1
  K  K9  1  0.151513  0.179243  0.597572  1
  K  K10  1  0.151513  0.320757  0.097572  1
  K  K11  1  0.848487  0.820757  0.402428  1
  K  K12  1  0.194004  0.620827  0.821976  1
  K  K13  1  0.805996  0.120827  0.678024  1
  K  K14  1  0.805996  0.379173  0.178024  1
  K  K15  1  0.194004  0.879173  0.321976  1
  Ge  Ge16  1  0.303145  0.694729  0.598987  1
  Ge  Ge17  1  0.696855  0.194729  0.901013  1
  Ge  Ge18  1  0.696855  0.305271  0.401013  1
  Ge  Ge19  1  0.303145  0.805271  0.098987  1
  H  H20  1  0.071412  0.681313  0.559982  1
  H  H21  1  0.928588  0.181313  0.940018  1
  H  H22  1  0.928588  0.318687  0.440018  1
  H  H23  1  0.071412  0.818687  0.059982  1
  H  H24  1  0.112000  0.572530  0.457712  1
  H  H25  1  0.888000  0.072530  0.042288  1
  H  H26  1  0.888000  0.427470  0.542288  1
  H  H27  1  0.112000  0.927470  0.957712  1
  H  H28  1  0.974194  0.694204  0.170911  1
  H  H29  1  0.025806  0.194204  0.329089  1
  H  H30  1  0.025806  0.305796  0.829089  1
  H  H31  1  0.974194  0.805796  0.670911  1
  H  H32  1  0.926673  0.581104  0.691957  1
  H  H33  1  0.073327  0.081104  0.808043  1
  H  H34  1  0.073327  0.418896  0.308043  1
  H  H35  1  0.926673  0.918896  0.191957  1
  N  N36  1  0.127871  0.701214  0.507923  1
  N  N37  1  0.872129  0.201214  0.992077  1
  N  N38  1  0.872129  0.298786  0.492077  1
  N  N39  1  0.127871  0.798786  0.007923  1
  N  N40  1  0.892910  0.724652  0.665903  1
  N  N41  1  0.107090  0.224652  0.834097  1
  N  N42  1  0.107090  0.275348  0.334097  1
  N  N43  1  0.892910  0.775348  0.165903  1
  O  O44  1  0.390789  0.731924  0.005999  1
  O  O45  1  0.609211  0.231924  0.494001  1
  O  O46  1  0.609211  0.268076  0.994001  1
  O  O47  1  0.390789  0.768076  0.505999  1
  O  O48  1  0.308141  0.622227  0.204929  1
  O  O49  1  0.691859  0.122227  0.295071  1
  O  O50  1  0.691859  0.377773  0.795071  1
  O  O51  1  0.308141  0.877773  0.704929  1
  O  O52  1  0.657135  0.551586  0.342646  1
  O  O53  1  0.342865  0.051586  0.157354  1
  O  O54  1  0.342865  0.448414  0.657354  1
  O  O55  1  0.657135  0.948414  0.842646  1
