# generated using pymatgen
data_Li6MnSn3(PO4)6
_symmetry_space_group_name_H-M   'P 1'
_cell_length_a   8.60685868
_cell_length_b   8.64029249
_cell_length_c   8.65457816
_cell_angle_alpha   64.13619205
_cell_angle_beta   64.45725451
_cell_angle_gamma   64.26855974
_symmetry_Int_Tables_number   1
_chemical_formula_structural   Li6MnSn3(PO4)6
_chemical_formula_sum   'Li6 Mn1 Sn3 P6 O24'
_cell_volume   497.95901240
_cell_formula_units_Z   1
loop_
 _symmetry_equiv_pos_site_id
 _symmetry_equiv_pos_as_xyz
  1  'x, y, z'
loop_
 _atom_site_type_symbol
 _atom_site_label
 _atom_site_symmetry_multiplicity
 _atom_site_fract_x
 _atom_site_fract_y
 _atom_site_fract_z
 _atom_site_occupancy
  Li  Li0  1  0.978451  0.018990  0.014603  1
  Li  Li1  1  0.252747  0.628523  0.844485  1
  Li  Li2  1  0.523837  0.477824  0.478762  1
  Li  Li3  1  0.778405  0.319066  0.141256  1
  Li  Li4  1  0.309587  0.136425  0.780525  1
  Li  Li5  1  0.141142  0.779849  0.314098  1
  Mn  Mn6  1  0.160668  0.162095  0.159579  1
  Sn  Sn7  1  0.853514  0.856079  0.851829  1
  Sn  Sn8  1  0.640723  0.645695  0.637526  1
  Sn  Sn9  1  0.336137  0.337298  0.338989  1
  P  P10  1  0.925657  0.582222  0.254104  1
  P  P11  1  0.583031  0.254644  0.928734  1
  P  P12  1  0.251753  0.933633  0.576168  1
  P  P13  1  0.756950  0.041278  0.445937  1
  P  P14  1  0.440310  0.755408  0.033984  1
  P  P15  1  0.045578  0.450919  0.758629  1
  O  O16  1  0.878512  0.512309  0.696984  1
  O  O17  1  0.680091  0.891250  0.484466  1
  O  O18  1  0.900827  0.761855  0.094044  1
  O  O19  1  0.454197  0.684560  0.887675  1
  O  O20  1  0.737070  0.582600  0.401525  1
  O  O21  1  0.986894  0.415651  0.195874  1
  O  O22  1  0.762390  0.097670  0.896585  1
  O  O23  1  0.575741  0.407484  0.742281  1
  O  O24  1  0.394614  0.739078  0.586425  1
  O  O25  1  0.829065  0.990702  0.601993  1
  O  O26  1  0.914281  0.049108  0.266415  1
  O  O27  1  0.614221  0.806821  0.966990  1
  O  O28  1  0.412618  0.200923  0.990049  1
  O  O29  1  0.101084  0.896648  0.762211  1
  O  O30  1  0.194885  0.990673  0.410583  1
  O  O31  1  0.614734  0.231755  0.423765  1
  O  O32  1  0.420878  0.615721  0.224346  1
  O  O33  1  0.268906  0.922317  0.043268  1
  O  O34  1  0.031518  0.605989  0.816528  1
  O  O35  1  0.230461  0.414895  0.613082  1
  O  O36  1  0.598532  0.318708  0.059413  1
  O  O37  1  0.043438  0.274259  0.919467  1
  O  O38  1  0.318216  0.065393  0.586594  1
  O  O39  1  0.058339  0.592690  0.321230  1
