# generated using pymatgen
data_Li2FePCO7
_symmetry_space_group_name_H-M   'P 1'
_cell_length_a   9.37369777
_cell_length_b   6.49902042
_cell_length_c   10.19769890
_cell_angle_alpha   90.00000000
_cell_angle_beta   117.53108417
_cell_angle_gamma   90.00000000
_symmetry_Int_Tables_number   1
_chemical_formula_structural   Li2FePCO7
_chemical_formula_sum   'Li8 Fe4 P4 C4 O28'
_cell_volume   550.89296074
_cell_formula_units_Z   4
loop_
 _symmetry_equiv_pos_site_id
 _symmetry_equiv_pos_as_xyz
  1  'x, y, z'
loop_
 _atom_site_type_symbol
 _atom_site_label
 _atom_site_symmetry_multiplicity
 _atom_site_fract_x
 _atom_site_fract_y
 _atom_site_fract_z
 _atom_site_occupancy
  Li  Li0  1  0.098805  0.255809  0.684544  1
  Li  Li1  1  0.098805  0.244191  0.184544  1
  Li  Li2  1  0.279218  0.036754  0.516123  1
  Li  Li3  1  0.279218  0.463246  0.016123  1
  Li  Li4  1  0.720782  0.963246  0.483877  1
  Li  Li5  1  0.720782  0.536754  0.983877  1
  Li  Li6  1  0.901195  0.744191  0.315456  1
  Li  Li7  1  0.901195  0.755809  0.815456  1
  Fe  Fe8  1  0.329276  0.745624  0.314307  1
  Fe  Fe9  1  0.329276  0.754376  0.814307  1
  Fe  Fe10  1  0.670724  0.254376  0.685693  1
  Fe  Fe11  1  0.670724  0.245624  0.185693  1
  P  P12  1  0.418505  0.247537  0.322237  1
  P  P13  1  0.418505  0.252463  0.822237  1
  P  P14  1  0.581495  0.752463  0.677763  1
  P  P15  1  0.581495  0.747537  0.177763  1
  C  C16  1  0.042310  0.763643  0.617712  1
  C  C17  1  0.042310  0.736357  0.117712  1
  C  C18  1  0.957690  0.236357  0.382288  1
  C  C19  1  0.957690  0.263643  0.882288  1
  O  O20  1  0.074929  0.746778  0.258194  1
  O  O21  1  0.074929  0.753222  0.758194  1
  O  O22  1  0.101054  0.213792  0.488916  1
  O  O23  1  0.169224  0.764097  0.595183  1
  O  O24  1  0.101054  0.286208  0.988916  1
  O  O25  1  0.169224  0.735903  0.095183  1
  O  O26  1  0.299041  0.067384  0.300854  1
  O  O27  1  0.321303  0.440604  0.319464  1
  O  O28  1  0.321303  0.059396  0.819464  1
  O  O29  1  0.299041  0.432616  0.800854  1
  O  O30  1  0.422144  0.784842  0.531122  1
  O  O31  1  0.462966  0.233339  0.693023  1
  O  O32  1  0.422144  0.715158  0.031122  1
  O  O33  1  0.462966  0.266661  0.193023  1
  O  O34  1  0.537034  0.766661  0.306977  1
  O  O35  1  0.577856  0.215158  0.468878  1
  O  O36  1  0.537034  0.733339  0.806977  1
  O  O37  1  0.577856  0.284842  0.968878  1
  O  O38  1  0.678697  0.559396  0.680536  1
  O  O39  1  0.700959  0.932616  0.699146  1
  O  O40  1  0.678697  0.940604  0.180536  1
  O  O41  1  0.700959  0.567384  0.199146  1
  O  O42  1  0.830776  0.235903  0.404817  1
  O  O43  1  0.898946  0.786208  0.511084  1
  O  O44  1  0.830776  0.264097  0.904817  1
  O  O45  1  0.898946  0.713792  0.011084  1
  O  O46  1  0.925071  0.253222  0.741806  1
  O  O47  1  0.925071  0.246778  0.241806  1
