# generated using pymatgen
data_Li2CdGeO4
_symmetry_space_group_name_H-M   'P 1'
_cell_length_a   5.24069989
_cell_length_b   5.57503721
_cell_length_c   6.70555514
_cell_angle_alpha   90.00000000
_cell_angle_beta   90.00000000
_cell_angle_gamma   90.00000000
_symmetry_Int_Tables_number   1
_chemical_formula_structural   Li2CdGeO4
_chemical_formula_sum   'Li4 Cd2 Ge2 O8'
_cell_volume   195.91685425
_cell_formula_units_Z   2
loop_
 _symmetry_equiv_pos_site_id
 _symmetry_equiv_pos_as_xyz
  1  'x, y, z'
loop_
 _atom_site_type_symbol
 _atom_site_label
 _atom_site_symmetry_multiplicity
 _atom_site_fract_x
 _atom_site_fract_y
 _atom_site_fract_z
 _atom_site_occupancy
  Li  Li0  1  0.987815  0.330279  0.250390  1
  Li  Li1  1  0.487815  0.669721  0.750390  1
  Li  Li2  1  0.987815  0.330279  0.749610  1
  Li  Li3  1  0.487815  0.669721  0.249610  1
  Cd  Cd4  1  0.490816  0.175751  0.500000  1
  Cd  Cd5  1  0.990816  0.824249  0.000000  1
  Ge  Ge6  1  0.481939  0.184523  0.000000  1
  Ge  Ge7  1  0.981939  0.815477  0.500000  1
  O  O8  1  0.563384  0.871714  0.000000  1
  O  O9  1  0.142301  0.203221  0.000000  1
  O  O10  1  0.063384  0.128286  0.500000  1
  O  O11  1  0.642301  0.796779  0.500000  1
  O  O12  1  0.108965  0.665643  0.287097  1
  O  O13  1  0.608965  0.334357  0.212903  1
  O  O14  1  0.608965  0.334357  0.787097  1
  O  O15  1  0.108965  0.665643  0.712903  1
