# generated using pymatgen
data_V4O7F5
_symmetry_space_group_name_H-M   'P 1'
_cell_length_a   5.28055808
_cell_length_b   5.28777459
_cell_length_c   9.03957068
_cell_angle_alpha   106.33478229
_cell_angle_beta   89.15866693
_cell_angle_gamma   119.20607243
_symmetry_Int_Tables_number   1
_chemical_formula_structural   V4O7F5
_chemical_formula_sum   'V4 O7 F5'
_cell_volume   209.14984971
_cell_formula_units_Z   1
loop_
 _symmetry_equiv_pos_site_id
 _symmetry_equiv_pos_as_xyz
  1  'x, y, z'
loop_
 _atom_site_type_symbol
 _atom_site_label
 _atom_site_symmetry_multiplicity
 _atom_site_fract_x
 _atom_site_fract_y
 _atom_site_fract_z
 _atom_site_occupancy
  V  V0  1  0.315223  0.761371  0.756671  1
  V  V1  1  0.541809  0.493310  0.522125  1
  V  V2  1  0.726323  0.265520  0.258766  1
  V  V3  1  0.035821  0.984007  0.017015  1
  O  O4  1  0.432405  0.124249  0.621679  1
  O  O5  1  0.591000  0.850389  0.902198  1
  O  O6  1  0.578248  0.409850  0.335495  1
  O  O7  1  0.409243  0.594863  0.657892  1
  O  O8  1  0.397287  0.159409  0.082528  1
  O  O9  1  0.942262  0.634789  0.118991  1
  O  O10  1  0.894269  0.649626  0.588447  1
  F  F11  1  0.066276  0.314527  0.408152  1
  F  F12  1  0.085357  0.922959  0.832618  1
  F  F13  1  0.054917  0.391776  0.873246  1
  F  F14  1  0.528349  0.853821  0.370914  1
  F  F15  1  0.901211  0.089533  0.153263  1
