# generated using pymatgen
data_Hf2N2O
_symmetry_space_group_name_H-M   'P 1'
_cell_length_a   8.70888246
_cell_length_b   8.72202611
_cell_length_c   8.73070569
_cell_angle_alpha   109.31461828
_cell_angle_beta   109.46606308
_cell_angle_gamma   109.40706316
_symmetry_Int_Tables_number   1
_chemical_formula_structural   Hf2N2O
_chemical_formula_sum   'Hf16 N16 O8'
_cell_volume   511.93129030
_cell_formula_units_Z   8
loop_
 _symmetry_equiv_pos_site_id
 _symmetry_equiv_pos_as_xyz
  1  'x, y, z'
loop_
 _atom_site_type_symbol
 _atom_site_label
 _atom_site_symmetry_multiplicity
 _atom_site_fract_x
 _atom_site_fract_y
 _atom_site_fract_z
 _atom_site_occupancy
  Hf  Hf0  1  0.495876  0.002722  0.007970  1
  Hf  Hf1  1  0.282205  0.242126  0.025928  1
  Hf  Hf2  1  0.243304  0.027403  0.283780  1
  Hf  Hf3  1  0.751191  0.456500  0.213001  1
  Hf  Hf4  1  0.523081  0.279163  0.746263  1
  Hf  Hf5  1  0.034171  0.788600  0.757207  1
  Hf  Hf6  1  0.505795  0.513465  0.516294  1
  Hf  Hf7  1  0.014433  0.505760  0.003513  1
  Hf  Hf8  1  0.792090  0.251519  0.532662  1
  Hf  Hf9  1  0.001216  0.008271  0.500564  1
  Hf  Hf10  1  0.216804  0.747219  0.456905  1
  Hf  Hf11  1  0.464822  0.718054  0.249168  1
  Hf  Hf12  1  0.964958  0.217502  0.255121  1
  Hf  Hf13  1  0.250531  0.534034  0.790556  1
  Hf  Hf14  1  0.750429  0.961897  0.707258  1
  Hf  Hf15  1  0.714140  0.751462  0.965814  1
  N  N16  1  0.273440  0.031301  0.544903  1
  N  N17  1  0.492818  0.232875  0.958513  1
  N  N18  1  0.008169  0.463966  0.235494  1
  N  N19  1  0.034671  0.045054  0.770909  1
  N  N20  1  0.229715  0.454752  0.992089  1
  N  N21  1  0.965192  0.953176  0.222566  1
  N  N22  1  0.462227  0.733870  0.510670  1
  N  N23  1  0.724821  0.235480  0.271358  1
  N  N24  1  0.987747  0.532903  0.761463  1
  N  N25  1  0.771054  0.729044  0.738016  1
  N  N26  1  0.237450  0.771393  0.224224  1
  N  N27  1  0.047855  0.273306  0.531818  1
  N  N28  1  0.453555  0.483439  0.724829  1
  N  N29  1  0.261503  0.987421  0.034505  1
  N  N30  1  0.727762  0.968466  0.457225  1
  N  N31  1  0.512389  0.775065  0.042729  1
  O  O32  1  0.737273  0.013680  0.962115  1
  O  O33  1  0.551119  0.512277  0.278830  1
  O  O34  1  0.755227  0.226588  0.773407  1
  O  O35  1  0.950279  0.722276  0.464793  1
  O  O36  1  0.232418  0.275258  0.262963  1
  O  O37  1  0.773015  0.546336  0.011594  1
  O  O38  1  0.534864  0.261832  0.487335  1
  O  O39  1  0.270392  0.764543  0.725654  1
