# generated using pymatgen
data_LiMn5O10
_symmetry_space_group_name_H-M   'P 1'
_cell_length_a   5.02582518
_cell_length_b   7.67437830
_cell_length_c   10.16950801
_cell_angle_alpha   74.40899665
_cell_angle_beta   81.97945766
_cell_angle_gamma   71.88313429
_symmetry_Int_Tables_number   1
_chemical_formula_structural   LiMn5O10
_chemical_formula_sum   'Li2 Mn10 O20'
_cell_volume   358.40490138
_cell_formula_units_Z   2
loop_
 _symmetry_equiv_pos_site_id
 _symmetry_equiv_pos_as_xyz
  1  'x, y, z'
loop_
 _atom_site_type_symbol
 _atom_site_label
 _atom_site_symmetry_multiplicity
 _atom_site_fract_x
 _atom_site_fract_y
 _atom_site_fract_z
 _atom_site_occupancy
  Li  Li0  1  0.691856  0.459525  0.752104  1
  Li  Li1  1  0.308144  0.540475  0.247896  1
  Mn  Mn2  1  0.895738  0.688986  0.500775  1
  Mn  Mn3  1  0.998904  0.996849  0.750486  1
  Mn  Mn4  1  0.886073  0.686746  0.002777  1
  Mn  Mn5  1  0.308644  0.893156  0.995149  1
  Mn  Mn6  1  0.001096  0.003151  0.249514  1
  Mn  Mn7  1  0.312630  0.891435  0.495972  1
  Mn  Mn8  1  0.687370  0.108565  0.504028  1
  Mn  Mn9  1  0.691356  0.106844  0.004851  1
  Mn  Mn10  1  0.113927  0.313254  0.997223  1
  Mn  Mn11  1  0.104262  0.311014  0.499225  1
  O  O12  1  0.966327  0.870414  0.607745  1
  O  O13  1  0.886415  0.530756  0.892750  1
  O  O14  1  0.649805  0.936124  0.896536  1
  O  O15  1  0.969153  0.867693  0.110425  1
  O  O16  1  0.911029  0.535906  0.386314  1
  O  O17  1  0.651206  0.940179  0.395304  1
  O  O18  1  0.794293  0.224478  0.623035  1
  O  O19  1  0.555284  0.679719  0.596453  1
  O  O20  1  0.801432  0.225206  0.119503  1
  O  O21  1  0.542664  0.682633  0.099895  1
  O  O22  1  0.457336  0.317367  0.900105  1
  O  O23  1  0.198568  0.774794  0.880497  1
  O  O24  1  0.444716  0.320281  0.403547  1
  O  O25  1  0.205707  0.775522  0.376965  1
  O  O26  1  0.348794  0.059821  0.604696  1
  O  O27  1  0.088971  0.464094  0.613686  1
  O  O28  1  0.030847  0.132307  0.889575  1
  O  O29  1  0.350195  0.063876  0.103464  1
  O  O30  1  0.113585  0.469244  0.107250  1
  O  O31  1  0.033673  0.129586  0.392255  1
