# generated using pymatgen
data_LiSbWO6
_symmetry_space_group_name_H-M   'P 1'
_cell_length_a   7.33310860
_cell_length_b   7.33310860
_cell_length_c   10.32179305
_cell_angle_alpha   90.00000000
_cell_angle_beta   90.00000000
_cell_angle_gamma   90.00000000
_symmetry_Int_Tables_number   1
_chemical_formula_structural   LiSbWO6
_chemical_formula_sum   'Li4 Sb4 W4 O24'
_cell_volume   555.04907226
_cell_formula_units_Z   4
loop_
 _symmetry_equiv_pos_site_id
 _symmetry_equiv_pos_as_xyz
  1  'x, y, z'
loop_
 _atom_site_type_symbol
 _atom_site_label
 _atom_site_symmetry_multiplicity
 _atom_site_fract_x
 _atom_site_fract_y
 _atom_site_fract_z
 _atom_site_occupancy
  Li  Li0  1  0.500000  0.232512  0.000000  1
  Li  Li1  1  0.767488  0.500000  0.250000  1
  Li  Li2  1  0.500000  0.767488  0.500000  1
  Li  Li3  1  0.232512  0.500000  0.750000  1
  Sb  Sb4  1  0.500000  0.742400  0.000000  1
  Sb  Sb5  1  0.257600  0.500000  0.250000  1
  Sb  Sb6  1  0.500000  0.257600  0.500000  1
  Sb  Sb7  1  0.742400  0.500000  0.750000  1
  W  W8  1  0.000000  0.742681  0.000000  1
  W  W9  1  0.257319  0.000000  0.250000  1
  W  W10  1  0.000000  0.257319  0.500000  1
  W  W11  1  0.742681  0.000000  0.750000  1
  O  O12  1  0.539452  0.539452  0.875000  1
  O  O13  1  0.926584  0.926584  0.875000  1
  O  O14  1  0.557271  0.947531  0.879275  1
  O  O15  1  0.947531  0.557271  0.870725  1
  O  O16  1  0.734117  0.244706  0.817749  1
  O  O17  1  0.265883  0.244706  0.182251  1
  O  O18  1  0.052469  0.557271  0.129275  1
  O  O19  1  0.460548  0.539452  0.125000  1
  O  O20  1  0.073416  0.926584  0.125000  1
  O  O21  1  0.442729  0.947531  0.120725  1
  O  O22  1  0.755294  0.734117  0.067749  1
  O  O23  1  0.755294  0.265883  0.432251  1
  O  O24  1  0.073416  0.073416  0.375000  1
  O  O25  1  0.052469  0.442729  0.370725  1
  O  O26  1  0.460548  0.460548  0.375000  1
  O  O27  1  0.442729  0.052469  0.379275  1
  O  O28  1  0.265883  0.755294  0.317749  1
  O  O29  1  0.734117  0.755294  0.682251  1
  O  O30  1  0.926584  0.073416  0.625000  1
  O  O31  1  0.557271  0.052469  0.620725  1
  O  O32  1  0.539452  0.460548  0.625000  1
  O  O33  1  0.947531  0.442729  0.629275  1
  O  O34  1  0.244706  0.265883  0.567749  1
  O  O35  1  0.244706  0.734117  0.932251  1
