# generated using pymatgen
data_Ga3NO3
_symmetry_space_group_name_H-M   'P 1'
_cell_length_a   5.95426540
_cell_length_b   5.95426540
_cell_length_c   10.35389148
_cell_angle_alpha   72.95917462
_cell_angle_beta   107.04082538
_cell_angle_gamma   120.40923728
_symmetry_Int_Tables_number   1
_chemical_formula_structural   Ga3NO3
_chemical_formula_sum   'Ga12 N4 O12'
_cell_volume   297.98373524
_cell_formula_units_Z   4
loop_
 _symmetry_equiv_pos_site_id
 _symmetry_equiv_pos_as_xyz
  1  'x, y, z'
loop_
 _atom_site_type_symbol
 _atom_site_label
 _atom_site_symmetry_multiplicity
 _atom_site_fract_x
 _atom_site_fract_y
 _atom_site_fract_z
 _atom_site_occupancy
  Ga  Ga0  1  0.000000  0.000000  0.500000  1
  Ga  Ga1  1  0.439650  0.560350  0.308594  1
  Ga  Ga2  1  1.000000  0.500000  0.500000  1
  Ga  Ga3  1  0.249729  0.750271  0.756159  1
  Ga  Ga4  1  0.750271  0.249729  0.243841  1
  Ga  Ga5  1  0.560350  0.439650  0.691406  1
  Ga  Ga6  1  1.000000  0.500000  0.000000  1
  Ga  Ga7  1  0.500000  1.000000  0.500000  1
  Ga  Ga8  1  0.948993  0.051007  0.803624  1
  Ga  Ga9  1  0.500000  1.000000  0.000000  1
  Ga  Ga10  1  0.051007  0.948993  0.196376  1
  Ga  Ga11  1  0.500000  0.500000  0.000000  1
  N  N12  1  0.131054  0.868946  0.397438  1
  N  N13  1  0.147732  0.852268  0.884736  1
  N  N14  1  0.868946  0.131054  0.602562  1
  N  N15  1  0.852268  0.147732  0.115264  1
  O  O16  1  0.114719  0.373219  0.373191  1
  O  O17  1  0.626781  0.885281  0.373191  1
  O  O18  1  0.885281  0.626781  0.626809  1
  O  O19  1  0.634847  0.365153  0.370053  1
  O  O20  1  0.141707  0.383351  0.876931  1
  O  O21  1  0.373219  0.114719  0.626809  1
  O  O22  1  0.624721  0.375279  0.884297  1
  O  O23  1  0.365153  0.634847  0.629947  1
  O  O24  1  0.616649  0.858293  0.876931  1
  O  O25  1  0.375279  0.624721  0.115703  1
  O  O26  1  0.858293  0.616649  0.123069  1
  O  O27  1  0.383351  0.141707  0.123069  1
