# generated using pymatgen
data_Re6H12Pb3C2S2(N2O13)2
_symmetry_space_group_name_H-M   'P 1'
_cell_length_a   16.50933344
_cell_length_b   16.50933344
_cell_length_c   5.90155747
_cell_angle_alpha   90.00000000
_cell_angle_beta   90.00000000
_cell_angle_gamma   90.00000000
_symmetry_Int_Tables_number   1
_chemical_formula_structural   Re6H12Pb3C2S2(N2O13)2
_chemical_formula_sum   'Re12 H24 Pb6 C4 S4 N8 O52'
_cell_volume   1608.51723578
_cell_formula_units_Z   2
loop_
 _symmetry_equiv_pos_site_id
 _symmetry_equiv_pos_as_xyz
  1  'x, y, z'
loop_
 _atom_site_type_symbol
 _atom_site_label
 _atom_site_symmetry_multiplicity
 _atom_site_fract_x
 _atom_site_fract_y
 _atom_site_fract_z
 _atom_site_occupancy
  Re  Re0  1  0.027981  0.819693  0.468695  1
  Re  Re1  1  0.472019  0.319693  0.531305  1
  Re  Re2  1  0.972019  0.180307  0.468695  1
  Re  Re3  1  0.527981  0.680307  0.531305  1
  Re  Re4  1  0.819693  0.972019  0.531305  1
  Re  Re5  1  0.680307  0.472019  0.468695  1
  Re  Re6  1  0.180307  0.027981  0.531305  1
  Re  Re7  1  0.319693  0.527981  0.468695  1
  Re  Re8  1  0.608862  0.891138  0.995632  1
  Re  Re9  1  0.891138  0.391138  0.004368  1
  Re  Re10  1  0.391138  0.108862  0.995632  1
  Re  Re11  1  0.108862  0.608862  0.004368  1
  H  H12  1  0.788839  0.812020  0.008981  1
  H  H13  1  0.711161  0.312020  0.991019  1
  H  H14  1  0.211161  0.187980  0.008981  1
  H  H15  1  0.288839  0.687980  0.991019  1
  H  H16  1  0.812020  0.211161  0.991019  1
  H  H17  1  0.687980  0.711161  0.008981  1
  H  H18  1  0.187980  0.788839  0.991019  1
  H  H19  1  0.312020  0.288839  0.008981  1
  H  H20  1  0.891052  0.782792  0.010383  1
  H  H21  1  0.608948  0.282792  0.989617  1
  H  H22  1  0.108948  0.217208  0.010383  1
  H  H23  1  0.391052  0.717208  0.989617  1
  H  H24  1  0.782792  0.108948  0.989617  1
  H  H25  1  0.717208  0.608948  0.010383  1
  H  H26  1  0.217208  0.891052  0.989617  1
  H  H27  1  0.282792  0.391052  0.010383  1
  H  H28  1  0.817283  0.750243  0.513121  1
  H  H29  1  0.682717  0.250243  0.486879  1
  H  H30  1  0.182717  0.249757  0.513121  1
  H  H31  1  0.317283  0.749757  0.486879  1
  H  H32  1  0.750243  0.182717  0.486879  1
  H  H33  1  0.749757  0.682717  0.513121  1
  H  H34  1  0.249757  0.817283  0.486879  1
  H  H35  1  0.250243  0.317283  0.513121  1
  Pb  Pb36  1  0.000000  0.000000  0.000000  1
  Pb  Pb37  1  0.500000  0.500000  0.000000  1
  Pb  Pb38  1  0.916144  0.583856  0.514009  1
  Pb  Pb39  1  0.583856  0.083856  0.485991  1
  Pb  Pb40  1  0.083856  0.416144  0.514009  1
  Pb  Pb41  1  0.416144  0.916144  0.485991  1
  C  C42  1  0.811284  0.688716  0.013314  1
  C  C43  1  0.688716  0.188716  0.986686  1
  C  C44  1  0.188716  0.311284  0.013314  1
  C  C45  1  0.311284  0.811284  0.986686  1
  S  S46  1  0.885559  0.614441  0.012221  1
  S  S47  1  0.614441  0.114441  0.987779  1
  S  S48  1  0.114441  0.385559  0.012221  1
  S  S49  1  0.385559  0.885559  0.987779  1
  N  N50  1  0.831641  0.766826  0.013184  1
  N  N51  1  0.668359  0.266826  0.986816  1
  N  N52  1  0.168359  0.233174  0.013184  1
  N  N53  1  0.331641  0.733174  0.986816  1
  N  N54  1  0.766826  0.168359  0.986816  1
  N  N55  1  0.733174  0.668359  0.013184  1
  N  N56  1  0.233174  0.831641  0.986816  1
  N  N57  1  0.266826  0.331641  0.013184  1
  O  O58  1  0.995177  0.857756  0.205155  1
  O  O59  1  0.504823  0.357756  0.794845  1
  O  O60  1  0.004823  0.142244  0.205155  1
  O  O61  1  0.495177  0.642244  0.794845  1
  O  O62  1  0.857756  0.004823  0.794845  1
  O  O63  1  0.642244  0.504823  0.205155  1
  O  O64  1  0.142244  0.995177  0.794845  1
  O  O65  1  0.357756  0.495177  0.205155  1
  O  O66  1  0.995549  0.886898  0.680958  1
  O  O67  1  0.504451  0.386898  0.319042  1
  O  O68  1  0.004451  0.113102  0.680958  1
  O  O69  1  0.495549  0.613102  0.319042  1
  O  O70  1  0.886898  0.004451  0.319042  1
  O  O71  1  0.613102  0.504451  0.680958  1
  O  O72  1  0.113102  0.995549  0.319042  1
  O  O73  1  0.386898  0.495549  0.680958  1
  O  O74  1  0.983042  0.724976  0.515228  1
  O  O75  1  0.516958  0.224976  0.484772  1
  O  O76  1  0.016958  0.275024  0.515228  1
  O  O77  1  0.483042  0.775024  0.484772  1
  O  O78  1  0.724976  0.016958  0.484772  1
  O  O79  1  0.775024  0.516958  0.515228  1
  O  O80  1  0.275024  0.983042  0.484772  1
  O  O81  1  0.224976  0.483042  0.515228  1
  O  O82  1  0.133436  0.810704  0.479289  1
  O  O83  1  0.366564  0.310704  0.520711  1
  O  O84  1  0.866564  0.189296  0.479289  1
  O  O85  1  0.633436  0.689296  0.520711  1
  O  O86  1  0.810704  0.866564  0.520711  1
  O  O87  1  0.689296  0.366564  0.479289  1
  O  O88  1  0.189296  0.133436  0.520711  1
  O  O89  1  0.310704  0.633436  0.479289  1
  O  O90  1  0.566819  0.933181  0.747820  1
  O  O91  1  0.933181  0.433181  0.252180  1
  O  O92  1  0.433181  0.066819  0.747820  1
  O  O93  1  0.066819  0.566819  0.252180  1
  O  O94  1  0.565336  0.934664  0.240474  1
  O  O95  1  0.934664  0.434664  0.759526  1
  O  O96  1  0.434664  0.065336  0.240474  1
  O  O97  1  0.065336  0.565336  0.759526  1
  O  O98  1  0.093187  0.713757  0.003404  1
  O  O99  1  0.406813  0.213757  0.996596  1
  O  O100  1  0.906813  0.286243  0.003404  1
  O  O101  1  0.593187  0.786243  0.996596  1
  O  O102  1  0.713757  0.906813  0.996596  1
  O  O103  1  0.786243  0.406813  0.003404  1
  O  O104  1  0.286243  0.093187  0.996596  1
  O  O105  1  0.213757  0.593187  0.003404  1
  O  O106  1  0.808562  0.691438  0.508945  1
  O  O107  1  0.691438  0.191438  0.491055  1
  O  O108  1  0.191438  0.308562  0.508945  1
  O  O109  1  0.308562  0.808562  0.491055  1
