# generated using pymatgen
data_LiBi3(P3O10)2
_symmetry_space_group_name_H-M   'P 1'
_cell_length_a   8.65019963
_cell_length_b   8.65019963
_cell_length_c   12.94974307
_cell_angle_alpha   90.00000000
_cell_angle_beta   90.00000000
_cell_angle_gamma   105.84169083
_symmetry_Int_Tables_number   1
_chemical_formula_structural   LiBi3(P3O10)2
_chemical_formula_sum   'Li2 Bi6 P12 O40'
_cell_volume   932.17476084
_cell_formula_units_Z   2
loop_
 _symmetry_equiv_pos_site_id
 _symmetry_equiv_pos_as_xyz
  1  'x, y, z'
loop_
 _atom_site_type_symbol
 _atom_site_label
 _atom_site_symmetry_multiplicity
 _atom_site_fract_x
 _atom_site_fract_y
 _atom_site_fract_z
 _atom_site_occupancy
  Li  Li0  1  0.566481  0.566481  1.000000  1
  Li  Li1  1  0.433519  0.433519  0.500000  1
  Bi  Bi2  1  0.124285  0.124285  0.500000  1
  Bi  Bi3  1  0.717929  0.282071  0.250000  1
  Bi  Bi4  1  0.282071  0.717929  0.750000  1
  Bi  Bi5  1  0.757501  0.242499  0.750000  1
  Bi  Bi6  1  0.242499  0.757501  0.250000  1
  Bi  Bi7  1  0.875715  0.875715  0.000000  1
  P  P8  1  0.129571  0.391036  0.167262  1
  P  P9  1  0.391036  0.129571  0.832738  1
  P  P10  1  0.202358  0.300128  0.714831  1
  P  P11  1  0.300128  0.202358  0.285169  1
  P  P12  1  0.136411  0.717386  0.518453  1
  P  P13  1  0.717386  0.136411  0.481547  1
  P  P14  1  0.863589  0.282614  0.018453  1
  P  P15  1  0.282614  0.863589  0.981547  1
  P  P16  1  0.797642  0.699872  0.214831  1
  P  P17  1  0.699872  0.797642  0.785169  1
  P  P18  1  0.870429  0.608964  0.667262  1
  P  P19  1  0.608964  0.870429  0.332738  1
  O  O20  1  0.165706  0.224302  0.201891  1
  O  O21  1  0.224302  0.165706  0.798109  1
  O  O22  1  0.052983  0.347350  0.055631  1
  O  O23  1  0.347350  0.052983  0.944369  1
  O  O24  1  0.300874  0.288445  0.614234  1
  O  O25  1  0.288445  0.300874  0.385766  1
  O  O26  1  0.990098  0.574366  0.742398  1
  O  O27  1  0.574366  0.990098  0.257602  1
  O  O28  1  0.457052  0.266896  0.228265  1
  O  O29  1  0.266896  0.457052  0.771735  1
  O  O30  1  0.761242  0.975175  0.816984  1
  O  O31  1  0.975175  0.761242  0.183016  1
  O  O32  1  0.282039  0.526004  0.155097  1
  O  O33  1  0.526004  0.282039  0.844903  1
  O  O34  1  0.119753  0.682781  0.404689  1
  O  O35  1  0.682781  0.119753  0.595311  1
  O  O36  1  0.104578  0.814485  0.946887  1
  O  O37  1  0.814485  0.104578  0.053113  1
  O  O38  1  0.241823  0.628481  0.575808  1
  O  O39  1  0.628481  0.241823  0.424192  1
  O  O40  1  0.758177  0.371519  0.075808  1
  O  O41  1  0.371519  0.758177  0.924192  1
  O  O42  1  0.895422  0.185515  0.446887  1
  O  O43  1  0.185515  0.895422  0.553113  1
  O  O44  1  0.880247  0.317219  0.904689  1
  O  O45  1  0.317219  0.880247  0.095311  1
  O  O46  1  0.717961  0.473996  0.655097  1
  O  O47  1  0.473996  0.717961  0.344903  1
  O  O48  1  0.024825  0.238758  0.683016  1
  O  O49  1  0.238758  0.024825  0.316984  1
  O  O50  1  0.542948  0.733104  0.728265  1
  O  O51  1  0.733104  0.542948  0.271735  1
  O  O52  1  0.009902  0.425634  0.242398  1
  O  O53  1  0.425634  0.009902  0.757602  1
  O  O54  1  0.699126  0.711555  0.114234  1
  O  O55  1  0.711555  0.699126  0.885766  1
  O  O56  1  0.947017  0.652650  0.555631  1
  O  O57  1  0.652650  0.947017  0.444369  1
  O  O58  1  0.834294  0.775698  0.701891  1
  O  O59  1  0.775698  0.834294  0.298109  1
