# generated using pymatgen
data_Ti19O30
_symmetry_space_group_name_H-M   'P 1'
_cell_length_a   5.10187038
_cell_length_b   5.52378164
_cell_length_c   21.14712681
_cell_angle_alpha   94.18454749
_cell_angle_beta   90.05918226
_cell_angle_gamma   117.47711536
_symmetry_Int_Tables_number   1
_chemical_formula_structural   Ti19O30
_chemical_formula_sum   'Ti19 O30'
_cell_volume   526.91790240
_cell_formula_units_Z   1
loop_
 _symmetry_equiv_pos_site_id
 _symmetry_equiv_pos_as_xyz
  1  'x, y, z'
loop_
 _atom_site_type_symbol
 _atom_site_label
 _atom_site_symmetry_multiplicity
 _atom_site_fract_x
 _atom_site_fract_y
 _atom_site_fract_z
 _atom_site_occupancy
  Ti  Ti0  1  0.511577  0.045660  0.935141  1
  Ti  Ti1  1  0.818470  0.629489  0.837534  1
  Ti  Ti2  1  0.415906  0.831942  0.631539  1
  Ti  Ti3  1  0.284074  0.568286  0.469134  1
  Ti  Ti4  1  0.315604  0.631984  0.330059  1
  Ti  Ti5  1  0.388687  0.772464  0.771448  1
  Ti  Ti6  1  0.118084  0.232196  0.731132  1
  Ti  Ti7  1  0.089732  0.171518  0.869742  1
  Ti  Ti8  1  0.983188  0.968114  0.569742  1
  Ti  Ti9  1  0.915691  0.821059  0.127818  1
  Ti  Ti10  1  0.016674  0.032068  0.430831  1
  Ti  Ti11  1  0.882782  0.770725  0.268587  1
  Ti  Ti12  1  0.616040  0.231149  0.230298  1
  Ti  Ti13  1  0.716256  0.431479  0.531346  1
  Ti  Ti14  1  0.685441  0.371082  0.671282  1
  Ti  Ti15  1  0.584238  0.168801  0.368873  1
  Ti  Ti16  1  0.184044  0.370333  0.166991  1
  Ti  Ti17  1  0.484940  0.973187  0.068310  1
  Ti  Ti18  1  0.215705  0.439326  0.023835  1
  O  O19  1  0.162443  0.700109  0.550114  1
  O  O20  1  0.513307  0.355410  0.882820  1
  O  O21  1  0.108606  0.849415  0.905135  1
  O  O22  1  0.675788  0.037818  0.712779  1
  O  O23  1  0.736396  0.162900  0.588301  1
  O  O24  1  0.642426  0.908359  0.850816  1
  O  O25  1  0.436954  0.500774  0.249595  1
  O  O26  1  0.960759  0.276555  0.948546  1
  O  O27  1  0.761935  0.900573  0.350109  1
  O  O28  1  0.662624  0.637264  0.612864  1
  O  O29  1  0.064772  0.439400  0.811902  1
  O  O30  1  0.867000  0.040624  0.211744  1
  O  O31  1  0.128528  0.564195  0.688264  1
  O  O32  1  0.725419  0.762123  0.487835  1
  O  O33  1  0.433173  0.219181  0.014387  1
  O  O34  1  0.274671  0.237560  0.512498  1
  O  O35  1  0.873951  0.438888  0.312068  1
  O  O36  1  0.503513  0.772225  0.986745  1
  O  O37  1  0.127841  0.957738  0.785875  1
  O  O38  1  0.337182  0.362958  0.387476  1
  O  O39  1  0.940077  0.564069  0.188514  1
  O  O40  1  0.239443  0.101269  0.649957  1
  O  O41  1  0.051642  0.684948  0.059084  1
  O  O42  1  0.564486  0.502069  0.751232  1
  O  O43  1  0.362736  0.101963  0.150355  1
  O  O44  1  0.263478  0.837662  0.412191  1
  O  O45  1  0.924414  0.157593  0.086956  1
  O  O46  1  0.324744  0.963261  0.287545  1
  O  O47  1  0.483938  0.636476  0.111610  1
  O  O48  1  0.837831  0.300170  0.450075  1
