# generated using pymatgen
data_Li2Mn5(Si2O7)2
_symmetry_space_group_name_H-M   'P 1'
_cell_length_a   5.56158116
_cell_length_b   7.65614503
_cell_length_c   8.10484979
_cell_angle_alpha   113.66701177
_cell_angle_beta   93.44038698
_cell_angle_gamma   103.83317065
_symmetry_Int_Tables_number   1
_chemical_formula_structural   Li2Mn5(Si2O7)2
_chemical_formula_sum   'Li2 Mn5 Si4 O14'
_cell_volume   302.15553249
_cell_formula_units_Z   1
loop_
 _symmetry_equiv_pos_site_id
 _symmetry_equiv_pos_as_xyz
  1  'x, y, z'
loop_
 _atom_site_type_symbol
 _atom_site_label
 _atom_site_symmetry_multiplicity
 _atom_site_fract_x
 _atom_site_fract_y
 _atom_site_fract_z
 _atom_site_occupancy
  Li  Li0  1  0.228881  0.101490  0.460196  1
  Li  Li1  1  0.771119  0.898510  0.539804  1
  Mn  Mn2  1  0.000000  0.000000  0.000000  1
  Mn  Mn3  1  0.091698  0.380229  0.820412  1
  Mn  Mn4  1  0.630899  0.580849  0.704119  1
  Mn  Mn5  1  0.369101  0.419151  0.295881  1
  Mn  Mn6  1  0.908302  0.619771  0.179588  1
  Si  Si7  1  0.506122  0.216935  0.859730  1
  Si  Si8  1  0.792842  0.208243  0.389689  1
  Si  Si9  1  0.207158  0.791757  0.610311  1
  Si  Si10  1  0.493878  0.783065  0.140270  1
  O  O11  1  0.884261  0.176720  0.568687  1
  O  O12  1  0.796200  0.325086  0.969016  1
  O  O13  1  0.529915  0.023134  0.267629  1
  O  O14  1  0.424259  0.314548  0.724631  1
  O  O15  1  0.027631  0.188571  0.272777  1
  O  O16  1  0.699187  0.406545  0.433380  1
  O  O17  1  0.303526  0.237750  0.002679  1
  O  O18  1  0.696474  0.762250  0.997321  1
  O  O19  1  0.300813  0.593455  0.566620  1
  O  O20  1  0.972369  0.811429  0.727223  1
  O  O21  1  0.575741  0.685452  0.275369  1
  O  O22  1  0.470085  0.976866  0.732371  1
  O  O23  1  0.203800  0.674914  0.030984  1
  O  O24  1  0.115739  0.823280  0.431313  1
