# generated using pymatgen
data_CeCrO3
_symmetry_space_group_name_H-M   'P 1'
_cell_length_a   5.48624633
_cell_length_b   5.71975709
_cell_length_c   7.80831484
_cell_angle_alpha   90.00000000
_cell_angle_beta   90.00000000
_cell_angle_gamma   90.00000000
_symmetry_Int_Tables_number   1
_chemical_formula_structural   CeCrO3
_chemical_formula_sum   'Ce4 Cr4 O12'
_cell_volume   245.02489082
_cell_formula_units_Z   4
loop_
 _symmetry_equiv_pos_site_id
 _symmetry_equiv_pos_as_xyz
  1  'x, y, z'
loop_
 _atom_site_type_symbol
 _atom_site_label
 _atom_site_symmetry_multiplicity
 _atom_site_fract_x
 _atom_site_fract_y
 _atom_site_fract_z
 _atom_site_occupancy
  Ce  Ce0  1  0.485272  0.059274  0.250000  1
  Ce  Ce1  1  0.985272  0.440726  0.750000  1
  Ce  Ce2  1  0.014728  0.559274  0.250000  1
  Ce  Ce3  1  0.514728  0.940726  0.750000  1
  Cr  Cr4  1  0.000000  0.000000  0.000000  1
  Cr  Cr5  1  0.000000  0.000000  0.500000  1
  Cr  Cr6  1  0.500000  0.500000  0.000000  1
  Cr  Cr7  1  0.500000  0.500000  0.500000  1
  O  O8  1  0.097888  0.029070  0.750000  1
  O  O9  1  0.698871  0.200879  0.550777  1
  O  O10  1  0.698871  0.200879  0.949223  1
  O  O11  1  0.198871  0.299121  0.449223  1
  O  O12  1  0.198871  0.299121  0.050777  1
  O  O13  1  0.597888  0.470930  0.250000  1
  O  O14  1  0.402112  0.529070  0.750000  1
  O  O15  1  0.801129  0.700879  0.949223  1
  O  O16  1  0.801129  0.700879  0.550777  1
  O  O17  1  0.301129  0.799121  0.050777  1
  O  O18  1  0.301129  0.799121  0.449223  1
  O  O19  1  0.902112  0.970930  0.250000  1
