# generated using pymatgen
data_Li3MgNi3O8
_symmetry_space_group_name_H-M   'P 1'
_cell_length_a   4.90126760
_cell_length_b   5.78235751
_cell_length_c   5.08321834
_cell_angle_alpha   90.00000000
_cell_angle_beta   108.02706822
_cell_angle_gamma   90.00000000
_symmetry_Int_Tables_number   1
_chemical_formula_structural   Li3MgNi3O8
_chemical_formula_sum   'Li3 Mg1 Ni3 O8'
_cell_volume   136.99090214
_cell_formula_units_Z   1
loop_
 _symmetry_equiv_pos_site_id
 _symmetry_equiv_pos_as_xyz
  1  'x, y, z'
loop_
 _atom_site_type_symbol
 _atom_site_label
 _atom_site_symmetry_multiplicity
 _atom_site_fract_x
 _atom_site_fract_y
 _atom_site_fract_z
 _atom_site_occupancy
  Li  Li0  1  0.500000  0.746672  0.500000  1
  Li  Li1  1  0.000000  0.490878  0.500000  1
  Li  Li2  1  0.000000  0.018612  0.500000  1
  Mg  Mg3  1  0.000000  0.748547  0.000000  1
  Ni  Ni4  1  0.500000  0.495879  0.000000  1
  Ni  Ni5  1  0.000000  0.252928  0.000000  1
  Ni  Ni6  1  0.500000  0.001699  0.000000  1
  O  O7  1  0.282010  0.733284  0.772169  1
  O  O8  1  0.717990  0.733284  0.227831  1
  O  O9  1  0.243223  0.486197  0.208134  1
  O  O10  1  0.756777  0.486197  0.791866  1
  O  O11  1  0.747562  0.259419  0.210354  1
  O  O12  1  0.252438  0.259419  0.789646  1
  O  O13  1  0.239687  0.013735  0.207698  1
  O  O14  1  0.760313  0.013735  0.792302  1
