# generated using pymatgen
data_Cu2(SO4)3
_symmetry_space_group_name_H-M   'P 1'
_cell_length_a   8.82181666
_cell_length_b   8.82181666
_cell_length_c   8.82181666
_cell_angle_alpha   55.28523475
_cell_angle_beta   55.28523475
_cell_angle_gamma   55.28523475
_symmetry_Int_Tables_number   1
_chemical_formula_structural   Cu2(SO4)3
_chemical_formula_sum   'Cu4 S6 O24'
_cell_volume   432.27446553
_cell_formula_units_Z   2
loop_
 _symmetry_equiv_pos_site_id
 _symmetry_equiv_pos_as_xyz
  1  'x, y, z'
loop_
 _atom_site_type_symbol
 _atom_site_label
 _atom_site_symmetry_multiplicity
 _atom_site_fract_x
 _atom_site_fract_y
 _atom_site_fract_z
 _atom_site_occupancy
  Cu  Cu0  1  0.145947  0.145947  0.145947  1
  Cu  Cu1  1  0.346310  0.346310  0.346310  1
  Cu  Cu2  1  0.653690  0.653690  0.653690  1
  Cu  Cu3  1  0.854053  0.854053  0.854053  1
  S  S4  1  0.039888  0.458166  0.748732  1
  S  S5  1  0.541834  0.251268  0.960112  1
  S  S6  1  0.251268  0.960112  0.541834  1
  S  S7  1  0.748732  0.039888  0.458166  1
  S  S8  1  0.458166  0.748732  0.039888  1
  S  S9  1  0.960112  0.541834  0.251268  1
  O  O10  1  0.207530  0.155140  0.533162  1
  O  O11  1  0.155140  0.533162  0.207530  1
  O  O12  1  0.017908  0.606263  0.797147  1
  O  O13  1  0.134260  0.256732  0.874864  1
  O  O14  1  0.533162  0.207530  0.155140  1
  O  O15  1  0.125136  0.865740  0.743268  1
  O  O16  1  0.393737  0.202853  0.982092  1
  O  O17  1  0.169934  0.492888  0.537352  1
  O  O18  1  0.507112  0.462648  0.830066  1
  O  O19  1  0.202853  0.982092  0.393737  1
  O  O20  1  0.743268  0.125136  0.865740  1
  O  O21  1  0.462648  0.830066  0.507112  1
  O  O22  1  0.537352  0.169934  0.492888  1
  O  O23  1  0.256732  0.874864  0.134260  1
  O  O24  1  0.797147  0.017908  0.606263  1
  O  O25  1  0.492888  0.537352  0.169934  1
  O  O26  1  0.830066  0.507112  0.462648  1
  O  O27  1  0.606263  0.797147  0.017908  1
  O  O28  1  0.874864  0.134260  0.256732  1
  O  O29  1  0.466838  0.792470  0.844860  1
  O  O30  1  0.865740  0.743268  0.125136  1
  O  O31  1  0.982092  0.393737  0.202853  1
  O  O32  1  0.844860  0.466838  0.792470  1
  O  O33  1  0.792470  0.844860  0.466838  1
