# generated using pymatgen
data_LiCo3O4
_symmetry_space_group_name_H-M   'P 1'
_cell_length_a   5.17936066
_cell_length_b   5.17936066
_cell_length_c   2.99422178
_cell_angle_alpha   90.00000000
_cell_angle_beta   90.00000000
_cell_angle_gamma   108.27060583
_symmetry_Int_Tables_number   1
_chemical_formula_structural   LiCo3O4
_chemical_formula_sum   'Li1 Co3 O4'
_cell_volume   76.27299079
_cell_formula_units_Z   1
loop_
 _symmetry_equiv_pos_site_id
 _symmetry_equiv_pos_as_xyz
  1  'x, y, z'
loop_
 _atom_site_type_symbol
 _atom_site_label
 _atom_site_symmetry_multiplicity
 _atom_site_fract_x
 _atom_site_fract_y
 _atom_site_fract_z
 _atom_site_occupancy
  Li  Li0  1  0.500000  0.500000  0.500000  1
  Co  Co1  1  0.000000  0.500000  0.000000  1
  Co  Co2  1  0.000000  0.000000  0.500000  1
  Co  Co3  1  0.500000  0.000000  0.000000  1
  O  O4  1  0.233424  0.233424  0.000000  1
  O  O5  1  0.242512  0.757488  0.500000  1
  O  O6  1  0.757488  0.242512  0.500000  1
  O  O7  1  0.766576  0.766576  0.000000  1
