# generated using pymatgen
data_Fe4O7F
_symmetry_space_group_name_H-M   'P 1'
_cell_length_a   5.51444172
_cell_length_b   5.51444172
_cell_length_c   10.19154313
_cell_angle_alpha   69.28127939
_cell_angle_beta   110.71872061
_cell_angle_gamma   113.98608175
_symmetry_Int_Tables_number   1
_chemical_formula_structural   Fe4O7F
_chemical_formula_sum   'Fe8 O14 F2'
_cell_volume   256.72211609
_cell_formula_units_Z   2
loop_
 _symmetry_equiv_pos_site_id
 _symmetry_equiv_pos_as_xyz
  1  'x, y, z'
loop_
 _atom_site_type_symbol
 _atom_site_label
 _atom_site_symmetry_multiplicity
 _atom_site_fract_x
 _atom_site_fract_y
 _atom_site_fract_z
 _atom_site_occupancy
  Fe  Fe0  1  0.363684  0.636316  0.742610  1
  Fe  Fe1  1  0.108066  0.891934  0.239102  1
  Fe  Fe2  1  0.760008  0.748215  0.504041  1
  Fe  Fe3  1  0.251785  0.239992  0.504041  1
  Fe  Fe4  1  0.496969  0.984578  0.004188  1
  Fe  Fe5  1  0.630614  0.369386  0.253308  1
  Fe  Fe6  1  0.876553  0.123447  0.750859  1
  Fe  Fe7  1  0.015422  0.503031  0.004188  1
  O  O8  1  0.146842  0.853158  0.597718  1
  O  O9  1  0.078616  0.423027  0.847301  1
  O  O10  1  0.425112  0.078138  0.153959  1
  O  O11  1  0.670790  0.825151  0.653349  1
  O  O12  1  0.174849  0.329210  0.653349  1
  O  O13  1  0.111074  0.888926  0.908086  1
  O  O14  1  0.885726  0.114274  0.088620  1
  O  O15  1  0.639224  0.360776  0.594905  1
  O  O16  1  0.402943  0.597057  0.101920  1
  O  O17  1  0.329756  0.176601  0.345974  1
  O  O18  1  0.823399  0.670244  0.345974  1
  O  O19  1  0.576973  0.921384  0.847301  1
  O  O20  1  0.921862  0.574888  0.153959  1
  O  O21  1  0.861401  0.138599  0.406094  1
  F  F22  1  0.348221  0.651779  0.401074  1
  F  F23  1  0.600115  0.399885  0.898084  1
