# generated using pymatgen
data_Ti2Nb(PO4)3
_symmetry_space_group_name_H-M   'P 1'
_cell_length_a   8.67940569
_cell_length_b   8.67940569
_cell_length_c   8.67940569
_cell_angle_alpha   60.31140298
_cell_angle_beta   60.31140298
_cell_angle_gamma   60.31140298
_symmetry_Int_Tables_number   1
_chemical_formula_structural   Ti2Nb(PO4)3
_chemical_formula_sum   'Ti4 Nb2 P6 O24'
_cell_volume   465.59081247
_cell_formula_units_Z   2
loop_
 _symmetry_equiv_pos_site_id
 _symmetry_equiv_pos_as_xyz
  1  'x, y, z'
loop_
 _atom_site_type_symbol
 _atom_site_label
 _atom_site_symmetry_multiplicity
 _atom_site_fract_x
 _atom_site_fract_y
 _atom_site_fract_z
 _atom_site_occupancy
  Ti  Ti0  1  0.856371  0.856371  0.856371  1
  Ti  Ti1  1  0.643629  0.643629  0.643629  1
  Ti  Ti2  1  0.356371  0.356371  0.356371  1
  Ti  Ti3  1  0.143629  0.143629  0.143629  1
  Nb  Nb4  1  0.000000  0.000000  0.000000  1
  Nb  Nb5  1  0.500000  0.500000  0.500000  1
  P  P6  1  0.040447  0.750000  0.459553  1
  P  P7  1  0.750000  0.459553  0.040447  1
  P  P8  1  0.459553  0.040447  0.750000  1
  P  P9  1  0.540447  0.959553  0.250000  1
  P  P10  1  0.250000  0.540447  0.959553  1
  P  P11  1  0.959553  0.250000  0.540447  1
  O  O12  1  0.497272  0.883376  0.689608  1
  O  O13  1  0.883376  0.689608  0.497272  1
  O  O14  1  0.735046  0.941145  0.087262  1
  O  O15  1  0.689608  0.497272  0.883376  1
  O  O16  1  0.383376  0.997272  0.189608  1
  O  O17  1  0.558855  0.764954  0.412738  1
  O  O18  1  0.087262  0.735046  0.941145  1
  O  O19  1  0.412738  0.558855  0.764954  1
  O  O20  1  0.002728  0.810392  0.616624  1
  O  O21  1  0.764954  0.412738  0.558855  1
  O  O22  1  0.058855  0.912738  0.264954  1
  O  O23  1  0.810392  0.616624  0.002728  1
  O  O24  1  0.189608  0.383376  0.997272  1
  O  O25  1  0.941145  0.087262  0.735046  1
  O  O26  1  0.235046  0.587262  0.441145  1
  O  O27  1  0.997272  0.189608  0.383376  1
  O  O28  1  0.587262  0.441145  0.235046  1
  O  O29  1  0.912738  0.264954  0.058855  1
  O  O30  1  0.441145  0.235046  0.587262  1
  O  O31  1  0.616624  0.002728  0.810392  1
  O  O32  1  0.310392  0.502728  0.116624  1
  O  O33  1  0.264954  0.058855  0.912738  1
  O  O34  1  0.116624  0.310392  0.502728  1
  O  O35  1  0.502728  0.116624  0.310392  1
