# generated using pymatgen
data_FeOF
_symmetry_space_group_name_H-M   'P 1'
_cell_length_a   14.16119358
_cell_length_b   3.11532348
_cell_length_c   14.25566571
_cell_angle_alpha   90.00000000
_cell_angle_beta   90.07487912
_cell_angle_gamma   90.00000000
_symmetry_Int_Tables_number   1
_chemical_formula_structural   FeOF
_chemical_formula_sum   'Fe18 O18 F18'
_cell_volume   628.91237393
_cell_formula_units_Z   18
loop_
 _symmetry_equiv_pos_site_id
 _symmetry_equiv_pos_as_xyz
  1  'x, y, z'
loop_
 _atom_site_type_symbol
 _atom_site_label
 _atom_site_symmetry_multiplicity
 _atom_site_fract_x
 _atom_site_fract_y
 _atom_site_fract_z
 _atom_site_occupancy
  Fe  Fe0  1  0.986615  0.000000  0.998766  1
  Fe  Fe1  1  0.990954  0.000000  0.327637  1
  Fe  Fe2  1  0.986261  0.000000  0.663185  1
  Fe  Fe3  1  0.847102  0.500000  0.165516  1
  Fe  Fe4  1  0.848676  0.500000  0.494587  1
  Fe  Fe5  1  0.846978  0.500000  0.831086  1
  Fe  Fe6  1  0.654327  0.000000  0.997828  1
  Fe  Fe7  1  0.655012  0.000000  0.331585  1
  Fe  Fe8  1  0.656616  0.000000  0.661837  1
  Fe  Fe9  1  0.513005  0.500000  0.497160  1
  Fe  Fe10  1  0.514216  0.500000  0.165604  1
  Fe  Fe11  1  0.515720  0.500000  0.828498  1
  Fe  Fe12  1  0.323404  0.000000  0.994900  1
  Fe  Fe13  1  0.319599  0.000000  0.330312  1
  Fe  Fe14  1  0.320318  0.000000  0.663644  1
  Fe  Fe15  1  0.158810  0.500000  0.184635  1
  Fe  Fe16  1  0.179090  0.500000  0.497142  1
  Fe  Fe17  1  0.178056  0.500000  0.830111  1
  O  O18  1  0.932179  0.500000  0.270011  1
  O  O19  1  0.935854  0.500000  0.601251  1
  O  O20  1  0.935306  0.500000  0.935794  1
  O  O21  1  0.899140  0.000000  0.102654  1
  O  O22  1  0.899763  0.000000  0.433987  1
  O  O23  1  0.898470  0.000000  0.768792  1
  O  O24  1  0.602402  0.500000  0.269303  1
  O  O25  1  0.602425  0.500000  0.601612  1
  O  O26  1  0.601622  0.500000  0.935343  1
  O  O27  1  0.563675  0.000000  0.101235  1
  O  O28  1  0.565123  0.000000  0.435377  1
  O  O29  1  0.566768  0.000000  0.767165  1
  O  O30  1  0.270245  0.500000  0.265692  1
  O  O31  1  0.268242  0.500000  0.602381  1
  O  O32  1  0.266898  0.500000  0.938478  1
  O  O33  1  0.232264  0.000000  0.435243  1
  O  O34  1  0.232823  0.000000  0.770208  1
  O  O35  1  0.098588  0.000000  0.235604  1
  F  F36  1  0.767151  0.000000  0.233322  1
  F  F37  1  0.768791  0.000000  0.565066  1
  F  F38  1  0.767720  0.000000  0.899616  1
  F  F39  1  0.732018  0.500000  0.066271  1
  F  F40  1  0.733033  0.500000  0.732400  1
  F  F41  1  0.732282  0.500000  0.399115  1
  F  F42  1  0.434931  0.000000  0.232791  1
  F  F43  1  0.434445  0.000000  0.566651  1
  F  F44  1  0.433681  0.000000  0.900303  1
  F  F45  1  0.395285  0.500000  0.066879  1
  F  F46  1  0.399016  0.500000  0.399301  1
  F  F47  1  0.399383  0.500000  0.733439  1
  F  F48  1  0.230599  0.000000  0.103030  1
  F  F49  1  0.102015  0.000000  0.567540  1
  F  F50  1  0.101724  0.000000  0.899027  1
  F  F51  1  0.069275  0.500000  0.063523  1
  F  F52  1  0.066112  0.500000  0.404140  1
  F  F53  1  0.065991  0.500000  0.733422  1
