# generated using pymatgen
data_Y4Ga2O9
_symmetry_space_group_name_H-M   'P 1'
_cell_length_a   6.09364387
_cell_length_b   11.10219685
_cell_length_c   11.53046504
_cell_angle_alpha   90.00000000
_cell_angle_beta   90.00000000
_cell_angle_gamma   90.00000000
_symmetry_Int_Tables_number   1
_chemical_formula_structural   Y4Ga2O9
_chemical_formula_sum   'Y16 Ga8 O36'
_cell_volume   780.06863474
_cell_formula_units_Z   4
loop_
 _symmetry_equiv_pos_site_id
 _symmetry_equiv_pos_as_xyz
  1  'x, y, z'
loop_
 _atom_site_type_symbol
 _atom_site_label
 _atom_site_symmetry_multiplicity
 _atom_site_fract_x
 _atom_site_fract_y
 _atom_site_fract_z
 _atom_site_occupancy
  Y  Y0  1  0.748888  0.084602  0.002492  1
  Y  Y1  1  0.251112  0.584602  0.002492  1
  Y  Y2  1  0.274542  0.289823  0.142123  1
  Y  Y3  1  0.725458  0.789823  0.142123  1
  Y  Y4  1  0.774542  0.289823  0.357877  1
  Y  Y5  1  0.225458  0.789823  0.357877  1
  Y  Y6  1  0.248888  0.084602  0.497508  1
  Y  Y7  1  0.751112  0.584602  0.497508  1
  Y  Y8  1  0.248888  0.415398  0.502492  1
  Y  Y9  1  0.751112  0.915398  0.502492  1
  Y  Y10  1  0.774542  0.210177  0.642123  1
  Y  Y11  1  0.225458  0.710177  0.642123  1
  Y  Y12  1  0.274542  0.210177  0.857877  1
  Y  Y13  1  0.725458  0.710177  0.857877  1
  Y  Y14  1  0.251112  0.915398  0.997508  1
  Y  Y15  1  0.748888  0.415398  0.997508  1
  Ga  Ga16  1  0.059727  0.037359  0.225183  1
  Ga  Ga17  1  0.940273  0.537359  0.225183  1
  Ga  Ga18  1  0.440273  0.537359  0.274817  1
  Ga  Ga19  1  0.559727  0.037359  0.274817  1
  Ga  Ga20  1  0.440273  0.962641  0.725183  1
  Ga  Ga21  1  0.559727  0.462641  0.725183  1
  Ga  Ga22  1  0.940273  0.962641  0.774817  1
  Ga  Ga23  1  0.059727  0.462641  0.774817  1
  O  O24  1  0.533381  0.250000  0.000000  1
  O  O25  1  0.466619  0.750000  0.000000  1
  O  O26  1  0.116781  0.109178  0.056808  1
  O  O27  1  0.883219  0.609178  0.056808  1
  O  O28  1  0.456034  0.466998  0.117990  1
  O  O29  1  0.543966  0.966998  0.117990  1
  O  O30  1  0.064638  0.873325  0.173968  1
  O  O31  1  0.935362  0.373325  0.173968  1
  O  O32  1  0.200897  0.633259  0.221928  1
  O  O33  1  0.799103  0.133259  0.221928  1
  O  O34  1  0.700897  0.633259  0.278072  1
  O  O35  1  0.299103  0.133259  0.278072  1
  O  O36  1  0.435362  0.373325  0.326032  1
  O  O37  1  0.564638  0.873325  0.326032  1
  O  O38  1  0.956034  0.466998  0.382010  1
  O  O39  1  0.043966  0.966998  0.382010  1
  O  O40  1  0.383219  0.609178  0.443192  1
  O  O41  1  0.616781  0.109178  0.443192  1
  O  O42  1  0.033381  0.250000  0.500000  1
  O  O43  1  0.966619  0.750000  0.500000  1
  O  O44  1  0.383219  0.890822  0.556808  1
  O  O45  1  0.616781  0.390822  0.556808  1
  O  O46  1  0.043966  0.533002  0.617990  1
  O  O47  1  0.956034  0.033002  0.617990  1
  O  O48  1  0.435362  0.126675  0.673968  1
  O  O49  1  0.564638  0.626675  0.673968  1
  O  O50  1  0.299103  0.366741  0.721928  1
  O  O51  1  0.700897  0.866741  0.721928  1
  O  O52  1  0.200897  0.866741  0.778072  1
  O  O53  1  0.799103  0.366741  0.778072  1
  O  O54  1  0.064638  0.626675  0.826032  1
  O  O55  1  0.935362  0.126675  0.826032  1
  O  O56  1  0.456034  0.033002  0.882010  1
  O  O57  1  0.543966  0.533002  0.882010  1
  O  O58  1  0.883219  0.890822  0.943192  1
  O  O59  1  0.116781  0.390822  0.943192  1
