# generated using pymatgen
data_V3Fe2Co(PO4)6
_symmetry_space_group_name_H-M   'P 1'
_cell_length_a   8.48289725
_cell_length_b   8.48289725
_cell_length_c   8.48289725
_cell_angle_alpha   60.81662587
_cell_angle_beta   60.81662587
_cell_angle_gamma   60.81662587
_symmetry_Int_Tables_number   1
_chemical_formula_structural   V3Fe2Co(PO4)6
_chemical_formula_sum   'V3 Fe2 Co1 P6 O24'
_cell_volume   439.58544285
_cell_formula_units_Z   1
loop_
 _symmetry_equiv_pos_site_id
 _symmetry_equiv_pos_as_xyz
  1  'x, y, z'
loop_
 _atom_site_type_symbol
 _atom_site_label
 _atom_site_symmetry_multiplicity
 _atom_site_fract_x
 _atom_site_fract_y
 _atom_site_fract_z
 _atom_site_occupancy
  V  V0  1  0.642240  0.642240  0.642240  1
  V  V1  1  0.858538  0.858538  0.858538  1
  V  V2  1  0.357128  0.357128  0.357128  1
  Fe  Fe3  1  0.001593  0.001593  0.001593  1
  Fe  Fe4  1  0.501352  0.501352  0.501352  1
  Co  Co5  1  0.140711  0.140711  0.140711  1
  P  P6  1  0.960347  0.246601  0.534910  1
  P  P7  1  0.534910  0.960347  0.246601  1
  P  P8  1  0.246601  0.534910  0.960347  1
  P  P9  1  0.751339  0.457445  0.044337  1
  P  P10  1  0.457445  0.044337  0.751339  1
  P  P11  1  0.044337  0.751339  0.457445  1
  O  O12  1  0.500749  0.121219  0.310340  1
  O  O13  1  0.310340  0.500749  0.121219  1
  O  O14  1  0.121219  0.310340  0.500749  1
  O  O15  1  0.948187  0.083418  0.735652  1
  O  O16  1  0.994763  0.185911  0.377127  1
  O  O17  1  0.761891  0.405348  0.561114  1
  O  O18  1  0.735652  0.948187  0.083418  1
  O  O19  1  0.561114  0.761891  0.405348  1
  O  O20  1  0.814299  0.619863  0.005889  1
  O  O21  1  0.405348  0.561114  0.761891  1
  O  O22  1  0.915792  0.260101  0.057747  1
  O  O23  1  0.619863  0.005889  0.814299  1
  O  O24  1  0.377127  0.994763  0.185911  1
  O  O25  1  0.083418  0.735652  0.948187  1
  O  O26  1  0.588219  0.441597  0.243406  1
  O  O27  1  0.185911  0.377127  0.994763  1
  O  O28  1  0.441597  0.243406  0.588219  1
  O  O29  1  0.260101  0.057747  0.915792  1
  O  O30  1  0.243406  0.588219  0.441597  1
  O  O31  1  0.005889  0.814299  0.619863  1
  O  O32  1  0.057747  0.915792  0.260101  1
  O  O33  1  0.891069  0.680426  0.499323  1
  O  O34  1  0.680426  0.499323  0.891069  1
  O  O35  1  0.499323  0.891069  0.680426  1
