# generated using pymatgen
data_Sr(BRh)2
_symmetry_space_group_name_H-M   'P 1'
_cell_length_a   7.15466497
_cell_length_b   6.16374625
_cell_length_c   5.62313149
_cell_angle_alpha   74.58797070
_cell_angle_beta   56.15223908
_cell_angle_gamma   49.25979023
_symmetry_Int_Tables_number   1
_chemical_formula_structural   Sr(BRh)2
_chemical_formula_sum   'Sr2 B4 Rh4'
_cell_volume   154.14962454
_cell_formula_units_Z   2
loop_
 _symmetry_equiv_pos_site_id
 _symmetry_equiv_pos_as_xyz
  1  'x, y, z'
loop_
 _atom_site_type_symbol
 _atom_site_label
 _atom_site_symmetry_multiplicity
 _atom_site_fract_x
 _atom_site_fract_y
 _atom_site_fract_z
 _atom_site_occupancy
  Sr  Sr0  1  0.500000  0.500000  0.500000  1
  Sr  Sr1  1  0.750000  0.750000  0.750000  1
  B  B2  1  0.828363  0.171637  0.828363  1
  B  B3  1  0.078363  0.421637  0.078363  1
  B  B4  1  0.171637  0.828363  0.171637  1
  B  B5  1  0.421637  0.078363  0.421637  1
  Rh  Rh6  1  0.130719  0.130719  0.869281  1
  Rh  Rh7  1  0.380719  0.380719  0.119281  1
  Rh  Rh8  1  0.119281  0.119281  0.380719  1
  Rh  Rh9  1  0.869281  0.869281  0.130719  1
