# generated using pymatgen
data_Be(GaO2)2
_symmetry_space_group_name_H-M   'P 1'
_cell_length_a   7.82968967
_cell_length_b   7.82968967
_cell_length_c   9.02010902
_cell_angle_alpha   90.00000000
_cell_angle_beta   90.00000000
_cell_angle_gamma   120.00000000
_symmetry_Int_Tables_number   1
_chemical_formula_structural   Be(GaO2)2
_chemical_formula_sum   'Be6 Ga12 O24'
_cell_volume   478.88531174
_cell_formula_units_Z   6
loop_
 _symmetry_equiv_pos_site_id
 _symmetry_equiv_pos_as_xyz
  1  'x, y, z'
loop_
 _atom_site_type_symbol
 _atom_site_label
 _atom_site_symmetry_multiplicity
 _atom_site_fract_x
 _atom_site_fract_y
 _atom_site_fract_z
 _atom_site_occupancy
  Be  Be0  1  0.890054  0.163909  0.578184  1
  Be  Be1  1  0.836091  0.726144  0.244850  1
  Be  Be2  1  0.273856  0.109946  0.911517  1
  Be  Be3  1  0.061805  0.560445  0.087007  1
  Be  Be4  1  0.498640  0.938195  0.420341  1
  Be  Be5  1  0.439555  0.501360  0.753674  1
  Ga  Ga6  1  0.924719  0.171882  0.914255  1
  Ga  Ga7  1  0.893968  0.155102  0.259976  1
  Ga  Ga8  1  0.828118  0.752838  0.580921  1
  Ga  Ga9  1  0.844898  0.738865  0.926642  1
  Ga  Ga10  1  0.261135  0.106032  0.593309  1
  Ga  Ga11  1  0.247162  0.075281  0.247588  1
  Ga  Ga12  1  0.079896  0.565123  0.752297  1
  Ga  Ga13  1  0.075422  0.582449  0.406103  1
  Ga  Ga14  1  0.485227  0.920104  0.085631  1
  Ga  Ga15  1  0.507027  0.924578  0.739436  1
  Ga  Ga16  1  0.434877  0.514773  0.418964  1
  Ga  Ga17  1  0.417551  0.492973  0.072770  1
  O  O18  1  0.975360  0.309442  0.429927  1
  O  O19  1  0.972715  0.314425  0.089313  1
  O  O20  1  0.946277  0.292289  0.733712  1
  O  O21  1  0.690558  0.665918  0.096593  1
  O  O22  1  0.707711  0.653988  0.400379  1
  O  O23  1  0.685575  0.658290  0.755979  1
  O  O24  1  0.977374  0.970730  0.248663  1
  O  O25  1  0.029270  0.006644  0.915329  1
  O  O26  1  0.993356  0.022626  0.581996  1
  O  O27  1  0.992213  0.612643  0.929729  1
  O  O28  1  0.993105  0.641073  0.231727  1
  O  O29  1  0.009496  0.658456  0.585538  1
  O  O30  1  0.346012  0.053723  0.067045  1
  O  O31  1  0.341710  0.027285  0.422646  1
  O  O32  1  0.334082  0.024640  0.763260  1
  O  O33  1  0.305494  0.653880  0.085884  1
  O  O34  1  0.348386  0.694506  0.419218  1
  O  O35  1  0.346120  0.651614  0.752551  1
  O  O36  1  0.647969  0.006895  0.565060  1
  O  O37  1  0.620429  0.007787  0.263062  1
  O  O38  1  0.648960  0.990504  0.918871  1
  O  O39  1  0.387357  0.379571  0.596395  1
  O  O40  1  0.341544  0.351040  0.252204  1
  O  O41  1  0.358927  0.352031  0.898394  1
