# generated using pymatgen
data_Li2AgF4
_symmetry_space_group_name_H-M   'P 1'
_cell_length_a   8.71555408
_cell_length_b   8.71555408
_cell_length_c   5.66350501
_cell_angle_alpha   90.00000000
_cell_angle_beta   90.00000000
_cell_angle_gamma   90.00000000
_symmetry_Int_Tables_number   1
_chemical_formula_structural   Li2AgF4
_chemical_formula_sum   'Li8 Ag4 F16'
_cell_volume   430.20484078
_cell_formula_units_Z   4
loop_
 _symmetry_equiv_pos_site_id
 _symmetry_equiv_pos_as_xyz
  1  'x, y, z'
loop_
 _atom_site_type_symbol
 _atom_site_label
 _atom_site_symmetry_multiplicity
 _atom_site_fract_x
 _atom_site_fract_y
 _atom_site_fract_z
 _atom_site_occupancy
  Li  Li0  1  0.226867  0.773133  0.750000  1
  Li  Li1  1  0.773133  0.773133  0.250000  1
  Li  Li2  1  0.226867  0.226867  0.250000  1
  Li  Li3  1  0.773133  0.226867  0.750000  1
  Li  Li4  1  0.726867  0.273133  0.250000  1
  Li  Li5  1  0.273133  0.273133  0.750000  1
  Li  Li6  1  0.273133  0.726867  0.250000  1
  Li  Li7  1  0.726867  0.726867  0.750000  1
  Ag  Ag8  1  0.500000  0.000000  0.022250  1
  Ag  Ag9  1  0.500000  0.000000  0.522250  1
  Ag  Ag10  1  0.000000  0.500000  0.477750  1
  Ag  Ag11  1  0.000000  0.500000  0.977750  1
  F  F12  1  0.398856  0.780521  0.527545  1
  F  F13  1  0.601144  0.780521  0.027545  1
  F  F14  1  0.280521  0.898856  0.027545  1
  F  F15  1  0.719479  0.898856  0.527545  1
  F  F16  1  0.719479  0.101144  0.027545  1
  F  F17  1  0.280521  0.101144  0.527545  1
  F  F18  1  0.601144  0.219479  0.527545  1
  F  F19  1  0.398856  0.219479  0.027545  1
  F  F20  1  0.101144  0.280521  0.972455  1
  F  F21  1  0.898856  0.280521  0.472455  1
  F  F22  1  0.219479  0.398856  0.472455  1
  F  F23  1  0.780521  0.398856  0.972455  1
  F  F24  1  0.219479  0.601144  0.972455  1
  F  F25  1  0.780521  0.601144  0.472455  1
  F  F26  1  0.101144  0.719479  0.472455  1
  F  F27  1  0.898856  0.719479  0.972455  1
