# generated using pymatgen
data_LiVF3
_symmetry_space_group_name_H-M   'P 1'
_cell_length_a   5.00538810
_cell_length_b   8.82867783
_cell_length_c   10.67567422
_cell_angle_alpha   90.00000000
_cell_angle_beta   90.00000000
_cell_angle_gamma   90.00000000
_symmetry_Int_Tables_number   1
_chemical_formula_structural   LiVF3
_chemical_formula_sum   'Li8 V8 F24'
_cell_volume   471.76828121
_cell_formula_units_Z   8
loop_
 _symmetry_equiv_pos_site_id
 _symmetry_equiv_pos_as_xyz
  1  'x, y, z'
loop_
 _atom_site_type_symbol
 _atom_site_label
 _atom_site_symmetry_multiplicity
 _atom_site_fract_x
 _atom_site_fract_y
 _atom_site_fract_z
 _atom_site_occupancy
  Li  Li0  1  0.503738  0.785675  0.898958  1
  Li  Li1  1  0.996262  0.785675  0.398958  1
  Li  Li2  1  0.503738  0.714325  0.398958  1
  Li  Li3  1  0.996262  0.714325  0.898958  1
  Li  Li4  1  0.496262  0.285675  0.601042  1
  Li  Li5  1  0.003738  0.285675  0.101042  1
  Li  Li6  1  0.003738  0.214325  0.601042  1
  Li  Li7  1  0.496262  0.214325  0.101042  1
  V  V8  1  0.506859  0.913708  0.636369  1
  V  V9  1  0.993141  0.913708  0.136369  1
  V  V10  1  0.506859  0.586292  0.136369  1
  V  V11  1  0.993141  0.586292  0.636369  1
  V  V12  1  0.493141  0.413708  0.863631  1
  V  V13  1  0.006859  0.413708  0.363631  1
  V  V14  1  0.493141  0.086292  0.363631  1
  V  V15  1  0.006859  0.086292  0.863631  1
  F  F16  1  0.276450  0.914736  0.803040  1
  F  F17  1  0.223550  0.914736  0.303040  1
  F  F18  1  0.697603  0.904847  0.457462  1
  F  F19  1  0.802397  0.904847  0.957462  1
  F  F20  1  0.750000  0.750000  0.727994  1
  F  F21  1  0.750000  0.750000  0.227994  1
  F  F22  1  0.250000  0.750000  0.545093  1
  F  F23  1  0.250000  0.750000  0.045093  1
  F  F24  1  0.802397  0.595153  0.457462  1
  F  F25  1  0.697603  0.595153  0.957462  1
  F  F26  1  0.276450  0.585264  0.303040  1
  F  F27  1  0.223550  0.585264  0.803040  1
  F  F28  1  0.723550  0.414736  0.696960  1
  F  F29  1  0.776450  0.414736  0.196960  1
  F  F30  1  0.302397  0.404847  0.042538  1
  F  F31  1  0.197603  0.404847  0.542538  1
  F  F32  1  0.750000  0.250000  0.954907  1
  F  F33  1  0.750000  0.250000  0.454907  1
  F  F34  1  0.250000  0.250000  0.772006  1
  F  F35  1  0.250000  0.250000  0.272006  1
  F  F36  1  0.197603  0.095153  0.042538  1
  F  F37  1  0.302397  0.095153  0.542538  1
  F  F38  1  0.723550  0.085264  0.196960  1
  F  F39  1  0.776450  0.085264  0.696960  1
