# generated using pymatgen
data_Li2VF5
_symmetry_space_group_name_H-M   'P 1'
_cell_length_a   6.75673547
_cell_length_b   6.75673547
_cell_length_c   5.58930408
_cell_angle_alpha   88.32138853
_cell_angle_beta   91.67861147
_cell_angle_gamma   136.37747207
_symmetry_Int_Tables_number   1
_chemical_formula_structural   Li2VF5
_chemical_formula_sum   'Li4 V2 F10'
_cell_volume   175.95600508
_cell_formula_units_Z   2
loop_
 _symmetry_equiv_pos_site_id
 _symmetry_equiv_pos_as_xyz
  1  'x, y, z'
loop_
 _atom_site_type_symbol
 _atom_site_label
 _atom_site_symmetry_multiplicity
 _atom_site_fract_x
 _atom_site_fract_y
 _atom_site_fract_z
 _atom_site_occupancy
  Li  Li0  1  0.802814  0.722746  0.018795  1
  Li  Li1  1  0.722746  0.802814  0.481205  1
  Li  Li2  1  0.277254  0.197186  0.518795  1
  Li  Li3  1  0.197186  0.277254  0.981205  1
  V  V4  1  0.000000  0.500000  0.500000  1
  V  V5  1  0.500000  0.000000  0.000000  1
  F  F6  1  0.975058  0.975058  0.750000  1
  F  F7  1  0.702776  0.486192  0.445564  1
  F  F8  1  0.855067  0.274721  0.188483  1
  F  F9  1  0.725279  0.144933  0.688483  1
  F  F10  1  0.513808  0.297224  0.945564  1
  F  F11  1  0.486192  0.702776  0.054436  1
  F  F12  1  0.274721  0.855067  0.311517  1
  F  F13  1  0.024942  0.024942  0.250000  1
  F  F14  1  0.144933  0.725279  0.811517  1
  F  F15  1  0.297224  0.513808  0.554436  1
