# generated using pymatgen
data_Mn3O5F
_symmetry_space_group_name_H-M   'P 1'
_cell_length_a   10.40309589
_cell_length_b   10.40309589
_cell_length_c   2.98666956
_cell_angle_alpha   90.00000000
_cell_angle_beta   90.00000000
_cell_angle_gamma   144.67596408
_symmetry_Int_Tables_number   1
_chemical_formula_structural   Mn3O5F
_chemical_formula_sum   'Mn6 O10 F2'
_cell_volume   186.89187745
_cell_formula_units_Z   2
loop_
 _symmetry_equiv_pos_site_id
 _symmetry_equiv_pos_as_xyz
  1  'x, y, z'
loop_
 _atom_site_type_symbol
 _atom_site_label
 _atom_site_symmetry_multiplicity
 _atom_site_fract_x
 _atom_site_fract_y
 _atom_site_fract_z
 _atom_site_occupancy
  Mn  Mn0  1  0.678234  0.321766  0.000000  1
  Mn  Mn1  1  0.837777  0.162223  0.500000  1
  Mn  Mn2  1  0.162223  0.837777  0.500000  1
  Mn  Mn3  1  0.000000  0.000000  0.000000  1
  Mn  Mn4  1  0.321766  0.678234  0.000000  1
  Mn  Mn5  1  0.500000  0.500000  0.500000  1
  O  O6  1  0.737760  0.262240  0.500000  1
  O  O7  1  0.362075  0.031596  0.000000  1
  O  O8  1  0.637925  0.968404  1.000000  1
  O  O9  1  0.968404  0.637925  0.000000  1
  O  O10  1  0.304374  0.304374  1.000000  1
  O  O11  1  0.936543  0.063457  0.500000  1
  O  O12  1  0.262240  0.737760  0.500000  1
  O  O13  1  0.063457  0.936543  0.500000  1
  O  O14  1  0.695626  0.695626  0.000000  1
  O  O15  1  0.031596  0.362075  0.000000  1
  F  F16  1  0.391414  0.608586  0.500000  1
  F  F17  1  0.608586  0.391414  0.500000  1
