# generated using pymatgen
data_LiFePCO7
_symmetry_space_group_name_H-M   'P 1'
_cell_length_a   8.26365118
_cell_length_b   8.28513206
_cell_length_c   8.43286744
_cell_angle_alpha   93.50379515
_cell_angle_beta   93.23350211
_cell_angle_gamma   102.35090408
_symmetry_Int_Tables_number   1
_chemical_formula_structural   LiFePCO7
_chemical_formula_sum   'Li4 Fe4 P4 C4 O28'
_cell_volume   561.51227114
_cell_formula_units_Z   4
loop_
 _symmetry_equiv_pos_site_id
 _symmetry_equiv_pos_as_xyz
  1  'x, y, z'
loop_
 _atom_site_type_symbol
 _atom_site_label
 _atom_site_symmetry_multiplicity
 _atom_site_fract_x
 _atom_site_fract_y
 _atom_site_fract_z
 _atom_site_occupancy
  Li  Li0  1  0.237532  0.987607  0.107337  1
  Li  Li1  1  0.605481  0.155907  0.282567  1
  Li  Li2  1  0.261149  0.511738  0.892976  1
  Li  Li3  1  0.768779  0.010186  0.886965  1
  Fe  Fe4  1  0.474333  0.718953  0.334306  1
  Fe  Fe5  1  0.979482  0.225507  0.337534  1
  Fe  Fe6  1  0.024853  0.772276  0.660784  1
  Fe  Fe7  1  0.523454  0.276583  0.667036  1
  P  P8  1  0.754873  0.504313  0.423456  1
  P  P9  1  0.263110  0.008435  0.421576  1
  P  P10  1  0.737186  0.989018  0.576071  1
  P  P11  1  0.238512  0.492285  0.579031  1
  C  C12  1  0.528426  0.777089  0.046465  1
  C  C13  1  0.019889  0.277844  0.047303  1
  C  C14  1  0.977956  0.730664  0.954984  1
  C  C15  1  0.480459  0.216997  0.953978  1
  O  O16  1  0.408683  0.655103  0.074007  1
  O  O17  1  0.902422  0.153621  0.076768  1
  O  O18  1  0.948521  0.699132  0.096932  1
  O  O19  1  0.607765  0.862358  0.174667  1
  O  O20  1  0.456001  0.170486  0.092062  1
  O  O21  1  0.101871  0.361924  0.174147  1
  O  O22  1  0.625540  0.567238  0.319643  1
  O  O23  1  0.798371  0.360057  0.319354  1
  O  O24  1  0.321206  0.882908  0.304709  1
  O  O25  1  0.135442  0.073682  0.313644  1
  O  O26  1  0.908388  0.643993  0.474326  1
  O  O27  1  0.801001  0.066021  0.421735  1
  O  O28  1  0.308847  0.565294  0.427915  1
  O  O29  1  0.419466  0.152086  0.468973  1
  O  O30  1  0.587309  0.845387  0.522204  1
  O  O31  1  0.682948  0.438042  0.579187  1
  O  O32  1  0.190601  0.936419  0.570717  1
  O  O33  1  0.090173  0.346365  0.524455  1
  O  O34  1  0.869516  0.928224  0.679363  1
  O  O35  1  0.180443  0.619162  0.692898  1
  O  O36  1  0.680732  0.116369  0.690973  1
  O  O37  1  0.365453  0.428725  0.687643  1
  O  O38  1  0.889868  0.642313  0.836606  1
  O  O39  1  0.570452  0.819492  0.911707  1
  O  O40  1  0.387688  0.141845  0.828571  1
  O  O41  1  0.061055  0.317335  0.911649  1
  O  O42  1  0.594824  0.337922  0.915248  1
  O  O43  1  0.096701  0.851849  0.921711  1
