# generated using pymatgen
data_Li5Fe11O16
_symmetry_space_group_name_H-M   'P 1'
_cell_length_a   6.04228042
_cell_length_b   6.06178503
_cell_length_c   10.34278049
_cell_angle_alpha   74.03101739
_cell_angle_beta   74.00100932
_cell_angle_gamma   60.51765138
_symmetry_Int_Tables_number   1
_chemical_formula_structural   Li5Fe11O16
_chemical_formula_sum   'Li5 Fe11 O16'
_cell_volume   312.56289170
_cell_formula_units_Z   1
loop_
 _symmetry_equiv_pos_site_id
 _symmetry_equiv_pos_as_xyz
  1  'x, y, z'
loop_
 _atom_site_type_symbol
 _atom_site_label
 _atom_site_symmetry_multiplicity
 _atom_site_fract_x
 _atom_site_fract_y
 _atom_site_fract_z
 _atom_site_occupancy
  Li  Li0  1  0.312708  0.811068  0.062195  1
  Li  Li1  1  0.813049  0.313835  0.062370  1
  Li  Li2  1  0.312910  0.811435  0.563890  1
  Li  Li3  1  0.814817  0.812894  0.060427  1
  Li  Li4  1  0.813586  0.313898  0.563802  1
  Fe  Fe5  1  0.326437  0.312336  0.060450  1
  Fe  Fe6  1  0.062742  0.061000  0.313152  1
  Fe  Fe7  1  0.053214  0.567231  0.817616  1
  Fe  Fe8  1  0.568694  0.062093  0.307690  1
  Fe  Fe9  1  0.063213  0.566908  0.308477  1
  Fe  Fe10  1  0.810599  0.814548  0.559124  1
  Fe  Fe11  1  0.053579  0.057423  0.821186  1
  Fe  Fe12  1  0.312044  0.306443  0.566319  1
  Fe  Fe13  1  0.571371  0.568994  0.308890  1
  Fe  Fe14  1  0.560972  0.560629  0.812669  1
  Fe  Fe15  1  0.563491  0.056814  0.818123  1
  O  O16  1  0.421398  0.940299  0.191799  1
  O  O17  1  0.210753  0.683746  0.432760  1
  O  O18  1  0.182953  0.210406  0.940715  1
  O  O19  1  0.686821  0.685184  0.434795  1
  O  O20  1  0.940746  0.937875  0.202081  1
  O  O21  1  0.424991  0.428243  0.692433  1
  O  O22  1  0.440774  0.440939  0.185885  1
  O  O23  1  0.195857  0.195686  0.431973  1
  O  O24  1  0.958412  0.433190  0.683641  1
  O  O25  1  0.421118  0.956919  0.680353  1
  O  O26  1  0.940764  0.417743  0.194999  1
  O  O27  1  0.185407  0.668169  0.942318  1
  O  O28  1  0.681426  0.187515  0.946565  1
  O  O29  1  0.684718  0.208203  0.434758  1
  O  O30  1  0.943790  0.912713  0.690218  1
  O  O31  1  0.695545  0.686913  0.925042  1
