# generated using pymatgen
data_Li7Co5O12
_symmetry_space_group_name_H-M   'P 1'
_cell_length_a   4.94553778
_cell_length_b   4.94553778
_cell_length_c   9.37829121
_cell_angle_alpha   85.33730568
_cell_angle_beta   94.66269432
_cell_angle_gamma   61.56425958
_symmetry_Int_Tables_number   1
_chemical_formula_structural   Li7Co5O12
_chemical_formula_sum   'Li7 Co5 O12'
_cell_volume   199.14276132
_cell_formula_units_Z   1
loop_
 _symmetry_equiv_pos_site_id
 _symmetry_equiv_pos_as_xyz
  1  'x, y, z'
loop_
 _atom_site_type_symbol
 _atom_site_label
 _atom_site_symmetry_multiplicity
 _atom_site_fract_x
 _atom_site_fract_y
 _atom_site_fract_z
 _atom_site_occupancy
  Li  Li0  1  0.744911  0.744911  0.500000  1
  Li  Li1  1  0.828448  0.338387  0.744613  1
  Li  Li2  1  0.674374  0.156422  0.255097  1
  Li  Li3  1  0.338387  0.828448  0.255387  1
  Li  Li4  1  0.156422  0.674374  0.744903  1
  Li  Li5  1  0.256620  0.256620  0.000000  1
  Li  Li6  1  0.077787  0.077787  0.500000  1
  Co  Co7  1  0.923322  0.923322  0.000000  1
  Co  Co8  1  0.988026  0.486703  0.262246  1
  Co  Co9  1  0.486703  0.988026  0.737754  1
  Co  Co10  1  0.585142  0.585142  0.000000  1
  Co  Co11  1  0.416857  0.416857  0.500000  1
  O  O12  1  0.061268  0.744773  0.376428  1
  O  O13  1  0.744773  0.061268  0.623572  1
  O  O14  1  0.839858  0.673647  0.875780  1
  O  O15  1  0.673647  0.839858  0.124220  1
  O  O16  1  0.704522  0.453467  0.377266  1
  O  O17  1  0.453467  0.704522  0.622734  1
  O  O18  1  0.578521  0.275406  0.889407  1
  O  O19  1  0.275406  0.578521  0.110593  1
  O  O20  1  0.348240  0.166321  0.369260  1
  O  O21  1  0.166321  0.348240  0.630740  1
  O  O22  1  0.238867  0.938109  0.880587  1
  O  O23  1  0.938109  0.238867  0.119413  1
