# generated using pymatgen
data_Ti3Fe2Co(PO4)6
_symmetry_space_group_name_H-M   'P 1'
_cell_length_a   8.53510653
_cell_length_b   8.53510653
_cell_length_c   8.53510653
_cell_angle_alpha   61.07186917
_cell_angle_beta   61.07186917
_cell_angle_gamma   61.07186917
_symmetry_Int_Tables_number   1
_chemical_formula_structural   Ti3Fe2Co(PO4)6
_chemical_formula_sum   'Ti3 Fe2 Co1 P6 O24'
_cell_volume   450.26454885
_cell_formula_units_Z   1
loop_
 _symmetry_equiv_pos_site_id
 _symmetry_equiv_pos_as_xyz
  1  'x, y, z'
loop_
 _atom_site_type_symbol
 _atom_site_label
 _atom_site_symmetry_multiplicity
 _atom_site_fract_x
 _atom_site_fract_y
 _atom_site_fract_z
 _atom_site_occupancy
  Ti  Ti0  1  0.644210  0.644210  0.644210  1
  Ti  Ti1  1  0.857888  0.857888  0.857888  1
  Ti  Ti2  1  0.355001  0.355001  0.355001  1
  Fe  Fe3  1  0.003468  0.003468  0.003468  1
  Fe  Fe4  1  0.501054  0.501054  0.501054  1
  Co  Co5  1  0.142926  0.142926  0.142926  1
  P  P6  1  0.954985  0.247774  0.541796  1
  P  P7  1  0.541796  0.954985  0.247774  1
  P  P8  1  0.247774  0.541796  0.954985  1
  P  P9  1  0.749334  0.456556  0.044296  1
  P  P10  1  0.456556  0.044296  0.749334  1
  P  P11  1  0.044296  0.749334  0.456556  1
  O  O12  1  0.495604  0.119163  0.314586  1
  O  O13  1  0.314586  0.495604  0.119163  1
  O  O14  1  0.119163  0.314586  0.495604  1
  O  O15  1  0.942180  0.090275  0.741893  1
  O  O16  1  0.986718  0.185042  0.391066  1
  O  O17  1  0.759466  0.411318  0.566354  1
  O  O18  1  0.741893  0.942180  0.090275  1
  O  O19  1  0.566354  0.759466  0.411318  1
  O  O20  1  0.815436  0.620001  0.997134  1
  O  O21  1  0.411318  0.566354  0.759466  1
  O  O22  1  0.903406  0.264062  0.052719  1
  O  O23  1  0.620001  0.997134  0.815436  1
  O  O24  1  0.391066  0.986718  0.185042  1
  O  O25  1  0.090275  0.741893  0.942180  1
  O  O26  1  0.586608  0.447247  0.238756  1
  O  O27  1  0.185042  0.391066  0.986718  1
  O  O28  1  0.447247  0.238756  0.586608  1
  O  O29  1  0.264062  0.052719  0.903406  1
  O  O30  1  0.238756  0.586608  0.447247  1
  O  O31  1  0.997134  0.815436  0.620001  1
  O  O32  1  0.052719  0.903406  0.264062  1
  O  O33  1  0.885319  0.674186  0.512172  1
  O  O34  1  0.674186  0.512172  0.885319  1
  O  O35  1  0.512172  0.885319  0.674186  1
