# generated using pymatgen
data_Li2CrAsCO7
_symmetry_space_group_name_H-M   'P 1'
_cell_length_a   5.08310716
_cell_length_b   6.57695440
_cell_length_c   8.62326937
_cell_angle_alpha   90.00000000
_cell_angle_beta   93.51913044
_cell_angle_gamma   90.00000000
_symmetry_Int_Tables_number   1
_chemical_formula_structural   Li2CrAsCO7
_chemical_formula_sum   'Li4 Cr2 As2 C2 O14'
_cell_volume   287.74404983
_cell_formula_units_Z   2
loop_
 _symmetry_equiv_pos_site_id
 _symmetry_equiv_pos_as_xyz
  1  'x, y, z'
loop_
 _atom_site_type_symbol
 _atom_site_label
 _atom_site_symmetry_multiplicity
 _atom_site_fract_x
 _atom_site_fract_y
 _atom_site_fract_z
 _atom_site_occupancy
  Li  Li0  1  0.783572  0.494757  0.214896  1
  Li  Li1  1  0.783572  0.005243  0.214896  1
  Li  Li2  1  0.216428  0.505243  0.785104  1
  Li  Li3  1  0.216428  0.994757  0.785104  1
  Cr  Cr4  1  0.204275  0.250000  0.336098  1
  Cr  Cr5  1  0.795725  0.750000  0.663902  1
  As  As6  1  0.285081  0.750000  0.418801  1
  As  As7  1  0.714919  0.250000  0.581199  1
  C  C8  1  0.271395  0.250000  0.055637  1
  C  C9  1  0.728605  0.750000  0.944363  1
  O  O10  1  0.698021  0.750000  0.088242  1
  O  O11  1  0.037649  0.250000  0.114466  1
  O  O12  1  0.468723  0.250000  0.162543  1
  O  O13  1  0.170538  0.951688  0.310742  1
  O  O14  1  0.170538  0.548312  0.310742  1
  O  O15  1  0.829712  0.250000  0.397359  1
  O  O16  1  0.624444  0.750000  0.445548  1
  O  O17  1  0.375556  0.250000  0.554452  1
  O  O18  1  0.170288  0.750000  0.602641  1
  O  O19  1  0.829462  0.451688  0.689258  1
  O  O20  1  0.829462  0.048312  0.689258  1
  O  O21  1  0.531277  0.750000  0.837457  1
  O  O22  1  0.962351  0.750000  0.885534  1
  O  O23  1  0.301979  0.250000  0.911758  1
