# generated using pymatgen
data_Fe3Ni2Sb(PO4)6
_symmetry_space_group_name_H-M   'P 1'
_cell_length_a   8.50535795
_cell_length_b   8.50535795
_cell_length_c   8.50535795
_cell_angle_alpha   61.00848720
_cell_angle_beta   61.00848720
_cell_angle_gamma   61.00848720
_symmetry_Int_Tables_number   1
_chemical_formula_structural   Fe3Ni2Sb(PO4)6
_chemical_formula_sum   'Fe3 Ni2 Sb1 P6 O24'
_cell_volume   444.95624412
_cell_formula_units_Z   1
loop_
 _symmetry_equiv_pos_site_id
 _symmetry_equiv_pos_as_xyz
  1  'x, y, z'
loop_
 _atom_site_type_symbol
 _atom_site_label
 _atom_site_symmetry_multiplicity
 _atom_site_fract_x
 _atom_site_fract_y
 _atom_site_fract_z
 _atom_site_occupancy
  Fe  Fe0  1  0.854676  0.854676  0.854676  1
  Fe  Fe1  1  0.644650  0.644650  0.644650  1
  Fe  Fe2  1  0.356873  0.356873  0.356873  1
  Ni  Ni3  1  0.993689  0.993689  0.993689  1
  Ni  Ni4  1  0.500466  0.500466  0.500466  1
  Sb  Sb5  1  0.142791  0.142791  0.142791  1
  P  P6  1  0.951793  0.253985  0.549121  1
  P  P7  1  0.549122  0.951793  0.253985  1
  P  P8  1  0.253985  0.549122  0.951793  1
  P  P9  1  0.746607  0.458871  0.047520  1
  P  P10  1  0.458871  0.047520  0.746607  1
  P  P11  1  0.047520  0.746607  0.458871  1
  O  O12  1  0.889653  0.687763  0.490474  1
  O  O13  1  0.687763  0.490474  0.889653  1
  O  O14  1  0.940770  0.090360  0.741758  1
  O  O15  1  0.490474  0.889653  0.687763  1
  O  O16  1  0.988218  0.185373  0.388457  1
  O  O17  1  0.755329  0.409953  0.559259  1
  O  O18  1  0.741758  0.940770  0.090360  1
  O  O19  1  0.559259  0.755329  0.409953  1
  O  O20  1  0.821173  0.609119  0.005905  1
  O  O21  1  0.409953  0.559259  0.755329  1
  O  O22  1  0.913039  0.254528  0.060079  1
  O  O23  1  0.609119  0.005905  0.821173  1
  O  O24  1  0.388457  0.988218  0.185373  1
  O  O25  1  0.090360  0.741758  0.940770  1
  O  O26  1  0.593226  0.437926  0.246118  1
  O  O27  1  0.185373  0.388457  0.988218  1
  O  O28  1  0.437926  0.246118  0.593226  1
  O  O29  1  0.254528  0.060079  0.913039  1
  O  O30  1  0.246118  0.593226  0.437926  1
  O  O31  1  0.005905  0.821173  0.609119  1
  O  O32  1  0.500006  0.111408  0.319061  1
  O  O33  1  0.060079  0.913039  0.254528  1
  O  O34  1  0.319061  0.500006  0.111408  1
  O  O35  1  0.111408  0.319061  0.500006  1
