# generated using pymatgen
data_Li2CrFeO4
_symmetry_space_group_name_H-M   'P 1'
_cell_length_a   5.87734965
_cell_length_b   5.87734965
_cell_length_c   5.06018409
_cell_angle_alpha   73.45919365
_cell_angle_beta   106.54080635
_cell_angle_gamma   120.27825806
_symmetry_Int_Tables_number   1
_chemical_formula_structural   Li2CrFeO4
_chemical_formula_sum   'Li4 Cr2 Fe2 O8'
_cell_volume   142.58508606
_cell_formula_units_Z   2
loop_
 _symmetry_equiv_pos_site_id
 _symmetry_equiv_pos_as_xyz
  1  'x, y, z'
loop_
 _atom_site_type_symbol
 _atom_site_label
 _atom_site_symmetry_multiplicity
 _atom_site_fract_x
 _atom_site_fract_y
 _atom_site_fract_z
 _atom_site_occupancy
  Li  Li0  1  0.125804  0.624009  0.254632  1
  Li  Li1  1  0.624009  0.125804  0.245368  1
  Li  Li2  1  0.375991  0.874196  0.754632  1
  Li  Li3  1  0.874196  0.375991  0.745368  1
  Cr  Cr4  1  0.126960  0.126960  0.250000  1
  Cr  Cr5  1  0.873040  0.873040  0.750000  1
  Fe  Fe6  1  0.623898  0.623898  0.250000  1
  Fe  Fe7  1  0.376102  0.376102  0.750000  1
  O  O8  1  0.490071  0.268004  0.493680  1
  O  O9  1  0.983993  0.759148  0.488422  1
  O  O10  1  0.240852  0.016007  0.988422  1
  O  O11  1  0.509929  0.731996  0.506320  1
  O  O12  1  0.016007  0.240852  0.511578  1
  O  O13  1  0.268004  0.490071  0.006320  1
  O  O14  1  0.731996  0.509929  0.993680  1
  O  O15  1  0.759148  0.983993  0.011578  1
