# generated using pymatgen
data_Fe4O5F3
_symmetry_space_group_name_H-M   'P 1'
_cell_length_a   4.77356416
_cell_length_b   6.06488368
_cell_length_c   9.99437615
_cell_angle_alpha   107.48477613
_cell_angle_beta   94.45350344
_cell_angle_gamma   90.14825415
_symmetry_Int_Tables_number   1
_chemical_formula_structural   Fe4O5F3
_chemical_formula_sum   'Fe8 O10 F6'
_cell_volume   275.04399661
_cell_formula_units_Z   2
loop_
 _symmetry_equiv_pos_site_id
 _symmetry_equiv_pos_as_xyz
  1  'x, y, z'
loop_
 _atom_site_type_symbol
 _atom_site_label
 _atom_site_symmetry_multiplicity
 _atom_site_fract_x
 _atom_site_fract_y
 _atom_site_fract_z
 _atom_site_occupancy
  Fe  Fe0  1  0.555898  0.877179  0.235409  1
  Fe  Fe1  1  0.499882  0.626502  0.746575  1
  Fe  Fe2  1  0.445090  0.132343  0.771350  1
  Fe  Fe3  1  0.484774  0.376802  0.271111  1
  Fe  Fe4  1  0.972554  0.494579  0.992104  1
  Fe  Fe5  1  0.023914  0.250697  0.493580  1
  Fe  Fe6  1  0.000099  0.004628  0.006109  1
  Fe  Fe7  1  0.010449  0.739954  0.489095  1
  O  O8  1  0.201290  0.455228  0.409201  1
  O  O9  1  0.162287  0.204797  0.911865  1
  O  O10  1  0.302716  0.828653  0.655582  1
  O  O11  1  0.308283  0.075531  0.152885  1
  O  O12  1  0.303309  0.326579  0.655316  1
  O  O13  1  0.682037  0.926342  0.851228  1
  O  O14  1  0.672334  0.420598  0.845483  1
  O  O15  1  0.714243  0.174934  0.349567  1
  O  O16  1  0.699123  0.672714  0.342950  1
  O  O17  1  0.821606  0.793928  0.087566  1
  F  F18  1  0.209999  0.947401  0.398122  1
  F  F19  1  0.191550  0.696770  0.900901  1
  F  F20  1  0.300479  0.574835  0.148522  1
  F  F21  1  0.807120  0.549811  0.597802  1
  F  F22  1  0.795374  0.306176  0.102224  1
  F  F23  1  0.835588  0.043020  0.585455  1
