# generated using pymatgen
data_Li4Mn3V2Co3O16
_symmetry_space_group_name_H-M   'P 1'
_cell_length_a   5.85558216
_cell_length_b   5.85558216
_cell_length_c   9.49559162
_cell_angle_alpha   89.36721538
_cell_angle_beta   90.63278462
_cell_angle_gamma   120.10530380
_symmetry_Int_Tables_number   1
_chemical_formula_structural   Li4Mn3V2Co3O16
_chemical_formula_sum   'Li4 Mn3 V2 Co3 O16'
_cell_volume   281.64090109
_cell_formula_units_Z   1
loop_
 _symmetry_equiv_pos_site_id
 _symmetry_equiv_pos_as_xyz
  1  'x, y, z'
loop_
 _atom_site_type_symbol
 _atom_site_label
 _atom_site_symmetry_multiplicity
 _atom_site_fract_x
 _atom_site_fract_y
 _atom_site_fract_z
 _atom_site_occupancy
  Li  Li0  1  0.668998  0.331002  0.102679  1
  Li  Li1  1  0.996936  0.003064  0.000837  1
  Li  Li2  1  0.002507  0.997493  0.511621  1
  Li  Li3  1  0.334789  0.665211  0.599163  1
  Mn  Mn4  1  0.823812  0.176188  0.782228  1
  Mn  Mn5  1  0.662582  0.830066  0.284169  1
  Mn  Mn6  1  0.169934  0.337418  0.284169  1
  V  V7  1  0.659650  0.340350  0.516865  1
  V  V8  1  0.327391  0.672609  0.003231  1
  Co  Co9  1  0.825442  0.659014  0.787067  1
  Co  Co10  1  0.340986  0.174558  0.787067  1
  Co  Co11  1  0.169751  0.830249  0.289329  1
  O  O12  1  0.833015  0.669375  0.400157  1
  O  O13  1  0.522590  0.477410  0.636420  1
  O  O14  1  0.670510  0.329490  0.893666  1
  O  O15  1  0.992945  0.007055  0.701039  1
  O  O16  1  0.002385  0.997615  0.191679  1
  O  O17  1  0.330625  0.166985  0.400157  1
  O  O18  1  0.965196  0.464844  0.652879  1
  O  O19  1  0.535156  0.034804  0.652879  1
  O  O20  1  0.171440  0.828560  0.920439  1
  O  O21  1  0.839349  0.160651  0.396002  1
  O  O22  1  0.488209  0.957718  0.159973  1
  O  O23  1  0.042282  0.511791  0.159973  1
  O  O24  1  0.335263  0.664737  0.388110  1
  O  O25  1  0.646812  0.839914  0.913166  1
  O  O26  1  0.480866  0.519134  0.164366  1
  O  O27  1  0.160086  0.353188  0.913166  1
