# generated using pymatgen
data_Li2Cu2Si4O11
_symmetry_space_group_name_H-M   'P 1'
_cell_length_a   7.10131132
_cell_length_b   7.67723188
_cell_length_c   8.56061521
_cell_angle_alpha   96.96163324
_cell_angle_beta   102.84718530
_cell_angle_gamma   109.85187591
_symmetry_Int_Tables_number   1
_chemical_formula_structural   Li2Cu2Si4O11
_chemical_formula_sum   'Li4 Cu4 Si8 O22'
_cell_volume   418.02425071
_cell_formula_units_Z   2
loop_
 _symmetry_equiv_pos_site_id
 _symmetry_equiv_pos_as_xyz
  1  'x, y, z'
loop_
 _atom_site_type_symbol
 _atom_site_label
 _atom_site_symmetry_multiplicity
 _atom_site_fract_x
 _atom_site_fract_y
 _atom_site_fract_z
 _atom_site_occupancy
  Li  Li0  1  0.388077  0.197470  0.799842  1
  Li  Li1  1  0.851506  0.257922  0.839062  1
  Li  Li2  1  0.148494  0.742078  0.160938  1
  Li  Li3  1  0.611923  0.802530  0.200158  1
  Cu  Cu4  1  0.122713  0.385796  0.609560  1
  Cu  Cu5  1  0.632452  0.388789  0.600139  1
  Cu  Cu6  1  0.367548  0.611211  0.399861  1
  Cu  Cu7  1  0.877287  0.614204  0.390440  1
  Si  Si8  1  0.757975  0.609523  0.968160  1
  Si  Si9  1  0.043782  0.784322  0.766873  1
  Si  Si10  1  0.478563  0.783180  0.778592  1
  Si  Si11  1  0.223000  0.020512  0.404174  1
  Si  Si12  1  0.777000  0.979488  0.595826  1
  Si  Si13  1  0.521437  0.216820  0.221408  1
  Si  Si14  1  0.956218  0.215678  0.233127  1
  Si  Si15  1  0.242025  0.390477  0.031840  1
  O  O16  1  0.179030  0.397347  0.843277  1
  O  O17  1  0.603500  0.734028  0.944508  1
  O  O18  1  0.671100  0.406426  0.838780  1
  O  O19  1  0.980583  0.748181  0.937420  1
  O  O20  1  0.299815  0.855349  0.821669  1
  O  O21  1  0.636675  0.969160  0.732081  1
  O  O22  1  0.348700  0.189919  0.564810  1
  O  O23  1  0.396211  0.598589  0.630489  1
  O  O24  1  0.840229  0.196376  0.574873  1
  O  O25  1  0.993480  0.961479  0.705815  1
  O  O26  1  0.916672  0.593404  0.624493  1
  O  O27  1  0.083328  0.406596  0.375507  1
  O  O28  1  0.006520  0.038521  0.294185  1
  O  O29  1  0.159771  0.803624  0.425127  1
  O  O30  1  0.603789  0.401411  0.369511  1
  O  O31  1  0.651300  0.810081  0.435190  1
  O  O32  1  0.363325  0.030840  0.267919  1
  O  O33  1  0.700185  0.144651  0.178331  1
  O  O34  1  0.019417  0.251819  0.062580  1
  O  O35  1  0.328900  0.593574  0.161220  1
  O  O36  1  0.396500  0.265972  0.055492  1
  O  O37  1  0.820970  0.602653  0.156723  1
