# generated using pymatgen
data_Li2Ni2SnO6
_symmetry_space_group_name_H-M   'P 1'
_cell_length_a   5.12204773
_cell_length_b   5.12204773
_cell_length_c   10.04275406
_cell_angle_alpha   90.00000000
_cell_angle_beta   90.00000000
_cell_angle_gamma   117.71451164
_symmetry_Int_Tables_number   1
_chemical_formula_structural   Li2Ni2SnO6
_chemical_formula_sum   'Li4 Ni4 Sn2 O12'
_cell_volume   233.24841080
_cell_formula_units_Z   2
loop_
 _symmetry_equiv_pos_site_id
 _symmetry_equiv_pos_as_xyz
  1  'x, y, z'
loop_
 _atom_site_type_symbol
 _atom_site_label
 _atom_site_symmetry_multiplicity
 _atom_site_fract_x
 _atom_site_fract_y
 _atom_site_fract_z
 _atom_site_occupancy
  Li  Li0  1  0.648834  0.148834  0.750000  1
  Li  Li1  1  0.851166  0.351166  0.250000  1
  Li  Li2  1  0.148834  0.648834  0.750000  1
  Li  Li3  1  0.351166  0.851166  0.250000  1
  Ni  Ni4  1  0.836839  0.163161  0.500000  1
  Ni  Ni5  1  0.663161  0.336839  0.000000  1
  Ni  Ni6  1  0.336839  0.663161  1.000000  1
  Ni  Ni7  1  0.163161  0.836839  0.500000  1
  Sn  Sn8  1  0.000000  0.000000  0.000000  1
  Sn  Sn9  1  0.500000  0.500000  0.500000  1
  O  O10  1  0.672094  0.035408  0.108991  1
  O  O11  1  0.327906  0.964592  0.891009  1
  O  O12  1  0.535408  0.172094  0.391009  1
  O  O13  1  0.827906  0.464592  0.608991  1
  O  O14  1  0.147690  0.147690  0.598012  1
  O  O15  1  0.352310  0.352310  0.098012  1
  O  O16  1  0.647690  0.647690  0.901989  1
  O  O17  1  0.964592  0.327906  0.891009  1
  O  O18  1  0.852310  0.852310  0.401988  1
  O  O19  1  0.172094  0.535408  0.391009  1
  O  O20  1  0.464592  0.827906  0.608991  1
  O  O21  1  0.035408  0.672094  0.108991  1
