# generated using pymatgen
data_MnP2O7
_symmetry_space_group_name_H-M   'P 1'
_cell_length_a   4.94368477
_cell_length_b   6.55284510
_cell_length_c   15.32018902
_cell_angle_alpha   90.00000000
_cell_angle_beta   90.20154520
_cell_angle_gamma   90.00000000
_symmetry_Int_Tables_number   1
_chemical_formula_structural   MnP2O7
_chemical_formula_sum   'Mn4 P8 O28'
_cell_volume   496.29752535
_cell_formula_units_Z   4
loop_
 _symmetry_equiv_pos_site_id
 _symmetry_equiv_pos_as_xyz
  1  'x, y, z'
loop_
 _atom_site_type_symbol
 _atom_site_label
 _atom_site_symmetry_multiplicity
 _atom_site_fract_x
 _atom_site_fract_y
 _atom_site_fract_z
 _atom_site_occupancy
  Mn  Mn0  1  0.749424  0.581911  0.365394  1
  Mn  Mn1  1  0.749424  0.918089  0.865394  1
  Mn  Mn2  1  0.250576  0.081911  0.134606  1
  Mn  Mn3  1  0.250576  0.418089  0.634606  1
  P  P4  1  0.745941  0.803266  0.073378  1
  P  P5  1  0.745941  0.696734  0.573378  1
  P  P6  1  0.738327  0.397700  0.166688  1
  P  P7  1  0.738327  0.102300  0.666688  1
  P  P8  1  0.261673  0.897700  0.333312  1
  P  P9  1  0.261673  0.602300  0.833312  1
  P  P10  1  0.254059  0.303266  0.426622  1
  P  P11  1  0.254059  0.196734  0.926622  1
  O  O12  1  0.935904  0.245386  0.128161  1
  O  O13  1  0.954833  0.351742  0.410556  1
  O  O14  1  0.935904  0.254614  0.628161  1
  O  O15  1  0.954833  0.148258  0.910556  1
  O  O16  1  0.845135  0.506501  0.247816  1
  O  O17  1  0.845135  0.993499  0.747816  1
  O  O18  1  0.710222  0.563425  0.089405  1
  O  O19  1  0.710222  0.936575  0.589405  1
  O  O20  1  0.650864  0.671461  0.479284  1
  O  O21  1  0.650864  0.828539  0.979284  1
  O  O22  1  0.543122  0.806865  0.318475  1
  O  O23  1  0.543122  0.693135  0.818475  1
  O  O24  1  0.558931  0.909938  0.138719  1
  O  O25  1  0.558931  0.590062  0.638719  1
  O  O26  1  0.441069  0.409938  0.361281  1
  O  O27  1  0.441069  0.090062  0.861281  1
  O  O28  1  0.456878  0.306865  0.181525  1
  O  O29  1  0.456878  0.193135  0.681525  1
  O  O30  1  0.349136  0.171461  0.020716  1
  O  O31  1  0.349136  0.328539  0.520716  1
  O  O32  1  0.289778  0.063425  0.410595  1
  O  O33  1  0.289778  0.436575  0.910595  1
  O  O34  1  0.154865  0.006501  0.252184  1
  O  O35  1  0.154865  0.493499  0.752184  1
  O  O36  1  0.045167  0.851742  0.089444  1
  O  O37  1  0.064096  0.745386  0.371839  1
  O  O38  1  0.045167  0.648258  0.589444  1
  O  O39  1  0.064096  0.754614  0.871839  1
