# generated using pymatgen
data_LiCr2(PO4)2
_symmetry_space_group_name_H-M   'P 1'
_cell_length_a   5.15906136
_cell_length_b   8.09824960
_cell_length_c   10.53471047
_cell_angle_alpha   90.00000000
_cell_angle_beta   118.05944511
_cell_angle_gamma   90.00000000
_symmetry_Int_Tables_number   1
_chemical_formula_structural   LiCr2(PO4)2
_chemical_formula_sum   'Li2 Cr4 P4 O16'
_cell_volume   388.40025049
_cell_formula_units_Z   2
loop_
 _symmetry_equiv_pos_site_id
 _symmetry_equiv_pos_as_xyz
  1  'x, y, z'
loop_
 _atom_site_type_symbol
 _atom_site_label
 _atom_site_symmetry_multiplicity
 _atom_site_fract_x
 _atom_site_fract_y
 _atom_site_fract_z
 _atom_site_occupancy
  Li  Li0  1  0.959822  0.804010  0.896561  1
  Li  Li1  1  0.959822  0.195990  0.396561  1
  Cr  Cr2  1  0.038088  0.416947  0.022936  1
  Cr  Cr3  1  0.038088  0.583053  0.522936  1
  Cr  Cr4  1  0.483661  0.913650  0.470592  1
  Cr  Cr5  1  0.483661  0.086350  0.970592  1
  P  P6  1  0.291276  0.476562  0.854957  1
  P  P7  1  0.291276  0.523438  0.354957  1
  P  P8  1  0.082259  0.957336  0.641647  1
  P  P9  1  0.082259  0.042664  0.141647  1
  O  O10  1  0.260902  0.308819  0.927454  1
  O  O11  1  0.190541  0.403086  0.440741  1
  O  O12  1  0.069793  0.466965  0.694977  1
  O  O13  1  0.603774  0.494960  0.381187  1
  O  O14  1  0.603774  0.505040  0.881187  1
  O  O15  1  0.069793  0.533035  0.194977  1
  O  O16  1  0.190541  0.596914  0.940741  1
  O  O17  1  0.260902  0.691181  0.427454  1
  O  O18  1  0.902790  0.788728  0.578571  1
  O  O19  1  0.845025  0.919728  0.035249  1
  O  O20  1  0.133953  0.967018  0.799866  1
  O  O21  1  0.375327  0.038142  0.135762  1
  O  O22  1  0.375327  0.961858  0.635762  1
  O  O23  1  0.133953  0.032982  0.299866  1
  O  O24  1  0.845025  0.080272  0.535249  1
  O  O25  1  0.902790  0.211272  0.078571  1
