# generated using pymatgen
data_Mn6O5F7
_symmetry_space_group_name_H-M   'P 1'
_cell_length_a   5.73949074
_cell_length_b   5.73949074
_cell_length_c   7.90982583
_cell_angle_alpha   68.52441912
_cell_angle_beta   111.47558088
_cell_angle_gamma   112.58383602
_symmetry_Int_Tables_number   1
_chemical_formula_structural   Mn6O5F7
_chemical_formula_sum   'Mn6 O5 F7'
_cell_volume   216.03190471
_cell_formula_units_Z   1
loop_
 _symmetry_equiv_pos_site_id
 _symmetry_equiv_pos_as_xyz
  1  'x, y, z'
loop_
 _atom_site_type_symbol
 _atom_site_label
 _atom_site_symmetry_multiplicity
 _atom_site_fract_x
 _atom_site_fract_y
 _atom_site_fract_z
 _atom_site_occupancy
  Mn  Mn0  1  0.338429  0.338429  0.000000  1
  Mn  Mn1  1  0.673315  0.003036  0.834787  1
  Mn  Mn2  1  0.309291  0.309291  0.500000  1
  Mn  Mn3  1  0.663035  0.013553  0.325081  1
  Mn  Mn4  1  0.013553  0.663035  0.674919  1
  Mn  Mn5  1  0.003036  0.673315  0.165213  1
  O  O6  1  0.977549  0.305065  0.836548  1
  O  O7  1  0.013814  0.013814  0.500000  1
  O  O8  1  0.373786  0.699473  0.837242  1
  O  O9  1  0.699473  0.373786  0.162758  1
  O  O10  1  0.305065  0.977549  0.163452  1
  F  F11  1  0.628433  0.628433  0.500000  1
  F  F12  1  0.100254  0.562793  0.460497  1
  F  F13  1  0.440102  0.228731  0.788376  1
  F  F14  1  0.773363  0.895979  0.129442  1
  F  F15  1  0.895979  0.773363  0.870558  1
  F  F16  1  0.228731  0.440102  0.211624  1
  F  F17  1  0.562793  0.100254  0.539503  1
