# generated using pymatgen
data_Mn3(OF2)2
_symmetry_space_group_name_H-M   'P 1'
_cell_length_a   4.79504912
_cell_length_b   4.67258037
_cell_length_c   10.75675843
_cell_angle_alpha   90.00000000
_cell_angle_beta   115.48815653
_cell_angle_gamma   90.00000000
_symmetry_Int_Tables_number   1
_chemical_formula_structural   Mn3(OF2)2
_chemical_formula_sum   'Mn6 O4 F8'
_cell_volume   217.55161536
_cell_formula_units_Z   2
loop_
 _symmetry_equiv_pos_site_id
 _symmetry_equiv_pos_as_xyz
  1  'x, y, z'
loop_
 _atom_site_type_symbol
 _atom_site_label
 _atom_site_symmetry_multiplicity
 _atom_site_fract_x
 _atom_site_fract_y
 _atom_site_fract_z
 _atom_site_occupancy
  Mn  Mn0  1  0.139750  0.021620  0.174570  1
  Mn  Mn1  1  0.500000  0.000000  0.500000  1
  Mn  Mn2  1  0.860250  0.978380  0.825430  1
  Mn  Mn3  1  0.500000  0.500000  0.000000  1
  Mn  Mn4  1  0.860250  0.521620  0.325430  1
  Mn  Mn5  1  0.139750  0.478380  0.674570  1
  O  O6  1  0.858608  0.171266  0.665592  1
  O  O7  1  0.141392  0.671266  0.834408  1
  O  O8  1  0.858608  0.328734  0.165592  1
  O  O9  1  0.141392  0.828734  0.334408  1
  F  F10  1  0.555530  0.227616  0.337109  1
  F  F11  1  0.198786  0.195252  0.012758  1
  F  F12  1  0.444470  0.727616  0.162891  1
  F  F13  1  0.801214  0.695252  0.487242  1
  F  F14  1  0.198786  0.304748  0.512758  1
  F  F15  1  0.555530  0.272384  0.837109  1
  F  F16  1  0.444470  0.772384  0.662891  1
  F  F17  1  0.801214  0.804748  0.987242  1
