# generated using pymatgen
data_Li2Mn3(BO3)3
_symmetry_space_group_name_H-M   'P 1'
_cell_length_a   6.30606630
_cell_length_b   8.28207034
_cell_length_c   8.71972520
_cell_angle_alpha   117.36793280
_cell_angle_beta   110.20623072
_cell_angle_gamma   91.06178875
_symmetry_Int_Tables_number   1
_chemical_formula_structural   Li2Mn3(BO3)3
_chemical_formula_sum   'Li4 Mn6 B6 O18'
_cell_volume   370.85501020
_cell_formula_units_Z   2
loop_
 _symmetry_equiv_pos_site_id
 _symmetry_equiv_pos_as_xyz
  1  'x, y, z'
loop_
 _atom_site_type_symbol
 _atom_site_label
 _atom_site_symmetry_multiplicity
 _atom_site_fract_x
 _atom_site_fract_y
 _atom_site_fract_z
 _atom_site_occupancy
  Li  Li0  1  0.406405  0.297125  0.280926  1
  Li  Li1  1  0.108906  0.974503  0.689334  1
  Li  Li2  1  0.587182  0.988573  0.694660  1
  Li  Li3  1  0.282870  0.720911  0.020579  1
  Mn  Mn4  1  0.156784  0.003178  0.330994  1
  Mn  Mn5  1  0.688119  0.011945  0.370358  1
  Mn  Mn6  1  0.996616  0.352868  0.005971  1
  Mn  Mn7  1  0.501838  0.376660  0.997144  1
  Mn  Mn8  1  0.303824  0.603939  0.622507  1
  Mn  Mn9  1  0.844315  0.658651  0.699887  1
  B  B10  1  0.005387  0.000757  0.987982  1
  B  B11  1  0.489690  0.998961  0.987422  1
  B  B12  1  0.108351  0.328197  0.675261  1
  B  B13  1  0.571998  0.332201  0.658981  1
  B  B14  1  0.915055  0.667221  0.350818  1
  B  B15  1  0.402353  0.672060  0.334712  1
  O  O16  1  0.183544  0.256941  0.799221  1
  O  O17  1  0.647761  0.267564  0.786158  1
  O  O18  1  0.997623  0.212339  0.487677  1
  O  O19  1  0.484732  0.214962  0.467872  1
  O  O20  1  0.082110  0.184816  0.121984  1
  O  O21  1  0.529791  0.192710  0.082240  1
  O  O22  1  0.153146  0.523074  0.753284  1
  O  O23  1  0.584720  0.524378  0.731714  1
  O  O24  1  0.437371  0.583527  0.441310  1
  O  O25  1  0.987883  0.616435  0.489737  1
  O  O26  1  0.811519  0.531754  0.161683  1
  O  O27  1  0.323045  0.559558  0.139479  1
  O  O28  1  0.399250  0.898957  0.790992  1
  O  O29  1  0.892609  0.943861  0.796114  1
  O  O30  1  0.443690  0.861938  0.413846  1
  O  O31  1  0.950710  0.852557  0.404041  1
  O  O32  1  0.039186  0.861257  0.035503  1
  O  O33  1  0.531640  0.909240  0.089657  1
