# generated using pymatgen
data_Co3(O2F)2
_symmetry_space_group_name_H-M   'P 1'
_cell_length_a   5.34358369
_cell_length_b   5.34358369
_cell_length_c   7.03701366
_cell_angle_alpha   71.26150384
_cell_angle_beta   108.73849616
_cell_angle_gamma   111.05946702
_symmetry_Int_Tables_number   1
_chemical_formula_structural   Co3(O2F)2
_chemical_formula_sum   'Co6 O8 F4'
_cell_volume   172.69145603
_cell_formula_units_Z   2
loop_
 _symmetry_equiv_pos_site_id
 _symmetry_equiv_pos_as_xyz
  1  'x, y, z'
loop_
 _atom_site_type_symbol
 _atom_site_label
 _atom_site_symmetry_multiplicity
 _atom_site_fract_x
 _atom_site_fract_y
 _atom_site_fract_z
 _atom_site_occupancy
  Co  Co0  1  0.662372  0.337628  0.168387  1
  Co  Co1  1  0.684381  0.315619  0.664771  1
  Co  Co2  1  0.000000  0.000000  0.000000  1
  Co  Co3  1  0.000000  1.000000  0.500000  1
  Co  Co4  1  0.337628  0.662372  0.831613  1
  Co  Co5  1  0.315619  0.684381  0.335229  1
  O  O6  1  0.976830  0.633431  0.662768  1
  O  O7  1  0.304340  0.304340  0.000000  1
  O  O8  1  0.089745  0.910255  0.293425  1
  O  O9  1  0.910255  0.089745  0.706575  1
  O  O10  1  0.366569  0.023170  0.662768  1
  O  O11  1  0.695660  0.695660  0.000000  1
  O  O12  1  0.023170  0.366569  0.337232  1
  O  O13  1  0.633431  0.976830  0.337232  1
  F  F14  1  0.759840  0.240160  0.975765  1
  F  F15  1  0.439795  0.560205  0.642607  1
  F  F16  1  0.560205  0.439795  0.357393  1
  F  F17  1  0.240160  0.759840  0.024235  1
