# generated using pymatgen
data_Li3VPCO7
_symmetry_space_group_name_H-M   'P 1'
_cell_length_a   9.66911989
_cell_length_b   6.51258824
_cell_length_c   9.77918424
_cell_angle_alpha   90.00000000
_cell_angle_beta   117.69625928
_cell_angle_gamma   90.00000000
_symmetry_Int_Tables_number   1
_chemical_formula_structural   Li3VPCO7
_chemical_formula_sum   'Li12 V4 P4 C4 O28'
_cell_volume   545.24848830
_cell_formula_units_Z   4
loop_
 _symmetry_equiv_pos_site_id
 _symmetry_equiv_pos_as_xyz
  1  'x, y, z'
loop_
 _atom_site_type_symbol
 _atom_site_label
 _atom_site_symmetry_multiplicity
 _atom_site_fract_x
 _atom_site_fract_y
 _atom_site_fract_z
 _atom_site_occupancy
  Li  Li0  1  0.688043  0.266190  0.110974  1
  Li  Li1  1  0.188043  0.233810  0.110974  1
  Li  Li2  1  0.519089  0.021976  0.288719  1
  Li  Li3  1  0.019089  0.478024  0.288719  1
  Li  Li4  1  0.321395  0.751385  0.374112  1
  Li  Li5  1  0.821395  0.748615  0.374112  1
  Li  Li6  1  0.678605  0.248615  0.625888  1
  Li  Li7  1  0.178605  0.251385  0.625888  1
  Li  Li8  1  0.480911  0.978024  0.711281  1
  Li  Li9  1  0.980911  0.521976  0.711281  1
  Li  Li10  1  0.311957  0.733810  0.889026  1
  Li  Li11  1  0.811957  0.766190  0.889026  1
  V  V12  1  0.486219  0.521937  0.248468  1
  V  V13  1  0.986219  0.978063  0.248468  1
  V  V14  1  0.513781  0.478063  0.751532  1
  V  V15  1  0.013781  0.021937  0.751532  1
  P  P16  1  0.313058  0.237961  0.408011  1
  P  P17  1  0.813058  0.262039  0.408011  1
  P  P18  1  0.686942  0.762039  0.591989  1
  P  P19  1  0.186942  0.737961  0.591989  1
  C  C20  1  0.643072  0.756304  0.053764  1
  C  C21  1  0.143072  0.743696  0.053764  1
  C  C22  1  0.356928  0.243696  0.946236  1
  C  C23  1  0.856928  0.256304  0.946236  1
  O  O24  1  0.282355  0.698655  0.073573  1
  O  O25  1  0.782355  0.801345  0.073573  1
  O  O26  1  0.467724  0.275480  0.087952  1
  O  O27  1  0.611087  0.744703  0.166940  1
  O  O28  1  0.967724  0.224520  0.087952  1
  O  O29  1  0.111087  0.755297  0.166940  1
  O  O30  1  0.328857  0.056708  0.314644  1
  O  O31  1  0.313124  0.434544  0.317516  1
  O  O32  1  0.813124  0.065456  0.317516  1
  O  O33  1  0.828857  0.443292  0.314644  1
  O  O34  1  0.556736  0.758141  0.421891  1
  O  O35  1  0.650992  0.277064  0.407103  1
  O  O36  1  0.056736  0.741859  0.421891  1
  O  O37  1  0.150992  0.222936  0.407103  1
  O  O38  1  0.349008  0.722936  0.592897  1
  O  O39  1  0.443264  0.241859  0.578109  1
  O  O40  1  0.849008  0.777064  0.592897  1
  O  O41  1  0.943264  0.258141  0.578109  1
  O  O42  1  0.671143  0.943292  0.685356  1
  O  O43  1  0.686876  0.565456  0.682484  1
  O  O44  1  0.186876  0.934544  0.682484  1
  O  O45  1  0.171143  0.556708  0.685356  1
  O  O46  1  0.388913  0.255297  0.833060  1
  O  O47  1  0.532276  0.724520  0.912048  1
  O  O48  1  0.888913  0.244703  0.833060  1
  O  O49  1  0.032276  0.775480  0.912048  1
  O  O50  1  0.717645  0.301345  0.926427  1
  O  O51  1  0.217645  0.198655  0.926427  1
