# generated using pymatgen
data_LiSn(PO3)4
_symmetry_space_group_name_H-M   'P 1'
_cell_length_a   8.94282422
_cell_length_b   8.94282422
_cell_length_c   9.61845733
_cell_angle_alpha   57.59745870
_cell_angle_beta   122.40254130
_cell_angle_gamma   132.78758467
_symmetry_Int_Tables_number   1
_chemical_formula_structural   LiSn(PO3)4
_chemical_formula_sum   'Li2 Sn2 P8 O24'
_cell_volume   457.92435862
_cell_formula_units_Z   2
loop_
 _symmetry_equiv_pos_site_id
 _symmetry_equiv_pos_as_xyz
  1  'x, y, z'
loop_
 _atom_site_type_symbol
 _atom_site_label
 _atom_site_symmetry_multiplicity
 _atom_site_fract_x
 _atom_site_fract_y
 _atom_site_fract_z
 _atom_site_occupancy
  Li  Li0  1  0.704234  0.704234  0.250000  1
  Li  Li1  1  0.295766  0.295766  0.750000  1
  Sn  Sn2  1  0.194112  0.194112  0.250000  1
  Sn  Sn3  1  0.805888  0.805888  0.750000  1
  P  P4  1  0.005537  0.294682  0.809100  1
  P  P5  1  0.416087  0.690691  0.882237  1
  P  P6  1  0.690691  0.416087  0.617763  1
  P  P7  1  0.294682  0.005537  0.690900  1
  P  P8  1  0.705318  0.994463  0.309100  1
  P  P9  1  0.309309  0.583913  0.382237  1
  P  P10  1  0.583913  0.309309  0.117763  1
  P  P11  1  0.994463  0.705318  0.190900  1
  O  O12  1  0.600644  0.830827  0.809925  1
  O  O13  1  0.216891  0.526516  0.769555  1
  O  O14  1  0.986120  0.239152  0.979672  1
  O  O15  1  0.823824  0.329775  0.655497  1
  O  O16  1  0.982508  0.844428  0.221995  1
  O  O17  1  0.329775  0.823824  0.844503  1
  O  O18  1  0.239152  0.986120  0.520328  1
  O  O19  1  0.579119  0.446893  0.428879  1
  O  O20  1  0.446893  0.579119  0.071121  1
  O  O21  1  0.526516  0.216891  0.730445  1
  O  O22  1  0.830827  0.600644  0.690075  1
  O  O23  1  0.844428  0.982508  0.278005  1
  O  O24  1  0.155572  0.017492  0.721995  1
  O  O25  1  0.169173  0.399356  0.309925  1
  O  O26  1  0.473484  0.783109  0.269555  1
  O  O27  1  0.553107  0.420881  0.928879  1
  O  O28  1  0.420881  0.553107  0.571121  1
  O  O29  1  0.760848  0.013880  0.479672  1
  O  O30  1  0.670225  0.176176  0.155497  1
  O  O31  1  0.017492  0.155572  0.778005  1
  O  O32  1  0.176176  0.670225  0.344503  1
  O  O33  1  0.013880  0.760848  0.020328  1
  O  O34  1  0.783109  0.473484  0.230445  1
  O  O35  1  0.399356  0.169173  0.190075  1
