# generated using pymatgen
data_V3Fe3(TeO8)2
_symmetry_space_group_name_H-M   'P 1'
_cell_length_a   5.96007010
_cell_length_b   5.99678018
_cell_length_c   10.49733289
_cell_angle_alpha   89.45471156
_cell_angle_beta   89.41145683
_cell_angle_gamma   60.54697168
_symmetry_Int_Tables_number   1
_chemical_formula_structural   V3Fe3(TeO8)2
_chemical_formula_sum   'V3 Fe3 Te2 O16'
_cell_volume   326.67647553
_cell_formula_units_Z   1
loop_
 _symmetry_equiv_pos_site_id
 _symmetry_equiv_pos_as_xyz
  1  'x, y, z'
loop_
 _atom_site_type_symbol
 _atom_site_label
 _atom_site_symmetry_multiplicity
 _atom_site_fract_x
 _atom_site_fract_y
 _atom_site_fract_z
 _atom_site_occupancy
  V  V0  1  0.816825  0.357330  0.756523  1
  V  V1  1  0.116822  0.210115  0.303881  1
  V  V2  1  0.645059  0.154550  0.266427  1
  Fe  Fe3  1  0.332865  0.838252  0.786795  1
  Fe  Fe4  1  0.826573  0.835170  0.786517  1
  Fe  Fe5  1  0.181883  0.663384  0.300695  1
  Te  Te6  1  0.640283  0.724690  0.506749  1
  Te  Te7  1  0.329711  0.334190  0.977082  1
  O  O8  1  0.331268  0.855576  0.396563  1
  O  O9  1  0.520305  0.957966  0.658642  1
  O  O10  1  0.675796  0.639149  0.873345  1
  O  O11  1  0.991378  0.016523  0.702789  1
  O  O12  1  0.002170  0.009661  0.209772  1
  O  O13  1  0.823644  0.858716  0.400050  1
  O  O14  1  0.532605  0.492178  0.670354  1
  O  O15  1  0.966947  0.498202  0.669358  1
  O  O16  1  0.168548  0.655904  0.880311  1
  O  O17  1  0.859492  0.312555  0.402946  1
  O  O18  1  0.029924  0.473597  0.204207  1
  O  O19  1  0.509556  0.459721  0.197128  1
  O  O20  1  0.353268  0.296579  0.385748  1
  O  O21  1  0.172274  0.167844  0.888575  1
  O  O22  1  0.517366  0.020713  0.171820  1
  O  O23  1  0.655240  0.167433  0.888005  1
