# generated using pymatgen
data_Li2Cr3FeO8
_symmetry_space_group_name_H-M   'P 1'
_cell_length_a   5.92957394
_cell_length_b   5.92957394
_cell_length_c   5.99533582
_cell_angle_alpha   60.45226554
_cell_angle_beta   119.54773446
_cell_angle_gamma   120.49024088
_symmetry_Int_Tables_number   1
_chemical_formula_structural   Li2Cr3FeO8
_chemical_formula_sum   'Li2 Cr3 Fe1 O8'
_cell_volume   149.49422692
_cell_formula_units_Z   1
loop_
 _symmetry_equiv_pos_site_id
 _symmetry_equiv_pos_as_xyz
  1  'x, y, z'
loop_
 _atom_site_type_symbol
 _atom_site_label
 _atom_site_symmetry_multiplicity
 _atom_site_fract_x
 _atom_site_fract_y
 _atom_site_fract_z
 _atom_site_occupancy
  Li  Li0  1  0.000000  0.000000  0.000000  1
  Li  Li1  1  0.500000  0.500000  0.000000  1
  Cr  Cr2  1  0.000000  0.500000  0.500000  1
  Cr  Cr3  1  0.500000  0.000000  0.500000  1
  Cr  Cr4  1  0.500000  0.500000  0.500000  1
  Fe  Fe5  1  0.000000  1.000000  0.500000  1
  O  O6  1  0.739100  0.260900  0.704842  1
  O  O7  1  0.771091  0.729176  0.288286  1
  O  O8  1  0.757753  0.242247  0.295322  1
  O  O9  1  0.270824  0.228909  0.288286  1
  O  O10  1  0.729176  0.771091  0.711714  1
  O  O11  1  0.242247  0.757753  0.704678  1
  O  O12  1  0.228909  0.270824  0.711714  1
  O  O13  1  0.260900  0.739100  0.295158  1
