# generated using pymatgen
data_Hg2W2O7
_symmetry_space_group_name_H-M   'P 1'
_cell_length_a   6.29007584
_cell_length_b   3.87525564
_cell_length_c   14.88594676
_cell_angle_alpha   90.00000000
_cell_angle_beta   105.24796657
_cell_angle_gamma   90.00000000
_symmetry_Int_Tables_number   1
_chemical_formula_structural   Hg2W2O7
_chemical_formula_sum   'Hg4 W4 O14'
_cell_volume   350.08095952
_cell_formula_units_Z   2
loop_
 _symmetry_equiv_pos_site_id
 _symmetry_equiv_pos_as_xyz
  1  'x, y, z'
loop_
 _atom_site_type_symbol
 _atom_site_label
 _atom_site_symmetry_multiplicity
 _atom_site_fract_x
 _atom_site_fract_y
 _atom_site_fract_z
 _atom_site_occupancy
  Hg  Hg0  1  0.647058  0.670972  0.561838  1
  Hg  Hg1  1  0.647058  0.329028  0.061838  1
  Hg  Hg2  1  0.352942  0.670972  0.938162  1
  Hg  Hg3  1  0.352942  0.329028  0.438162  1
  W  W4  1  0.188943  0.984881  0.187661  1
  W  W5  1  0.811057  0.984881  0.312339  1
  W  W6  1  0.188943  0.015119  0.687661  1
  W  W7  1  0.811057  0.015119  0.812339  1
  O  O8  1  0.203579  0.004349  0.070600  1
  O  O9  1  0.811159  0.498956  0.800067  1
  O  O10  1  0.500000  0.012507  0.250000  1
  O  O11  1  0.864426  0.989607  0.668535  1
  O  O12  1  0.796421  0.004349  0.429400  1
  O  O13  1  0.135574  0.989607  0.831465  1
  O  O14  1  0.811159  0.501044  0.300067  1
  O  O15  1  0.188841  0.498956  0.699933  1
  O  O16  1  0.864426  0.010393  0.168535  1
  O  O17  1  0.203579  0.995651  0.570600  1
  O  O18  1  0.135574  0.010393  0.331465  1
  O  O19  1  0.500000  0.987493  0.750000  1
  O  O20  1  0.188841  0.501044  0.199933  1
  O  O21  1  0.796421  0.995651  0.929400  1
