# generated using pymatgen
data_Li3Fe(PO4)2
_symmetry_space_group_name_H-M   'P 1'
_cell_length_a   4.80198290
_cell_length_b   5.81755686
_cell_length_c   10.27424622
_cell_angle_alpha   90.00000000
_cell_angle_beta   91.22223337
_cell_angle_gamma   90.00000000
_symmetry_Int_Tables_number   1
_chemical_formula_structural   Li3Fe(PO4)2
_chemical_formula_sum   'Li6 Fe2 P4 O16'
_cell_volume   286.95407310
_cell_formula_units_Z   2
loop_
 _symmetry_equiv_pos_site_id
 _symmetry_equiv_pos_as_xyz
  1  'x, y, z'
loop_
 _atom_site_type_symbol
 _atom_site_label
 _atom_site_symmetry_multiplicity
 _atom_site_fract_x
 _atom_site_fract_y
 _atom_site_fract_z
 _atom_site_occupancy
  Li  Li0  1  0.105007  0.750000  0.063705  1
  Li  Li1  1  0.504282  0.750000  0.231057  1
  Li  Li2  1  0.500000  0.500000  0.500000  1
  Li  Li3  1  0.500000  0.000000  0.500000  1
  Li  Li4  1  0.495718  0.250000  0.768943  1
  Li  Li5  1  0.894993  0.250000  0.936295  1
  Fe  Fe6  1  0.976569  0.250000  0.274560  1
  Fe  Fe7  1  0.023431  0.750000  0.725440  1
  P  P8  1  0.390468  0.250000  0.098226  1
  P  P9  1  0.930179  0.750000  0.412095  1
  P  P10  1  0.069821  0.250000  0.587905  1
  P  P11  1  0.609532  0.750000  0.901774  1
  O  O12  1  0.691513  0.750000  0.045508  1
  O  O13  1  0.711863  0.250000  0.117835  1
  O  O14  1  0.252174  0.040618  0.171482  1
  O  O15  1  0.252174  0.459382  0.171482  1
  O  O16  1  0.794213  0.538940  0.340325  1
  O  O17  1  0.794213  0.961060  0.340325  1
  O  O18  1  0.247292  0.750000  0.414358  1
  O  O19  1  0.199619  0.250000  0.448554  1
  O  O20  1  0.800381  0.750000  0.551446  1
  O  O21  1  0.752708  0.250000  0.585642  1
  O  O22  1  0.205787  0.038940  0.659675  1
  O  O23  1  0.205787  0.461060  0.659675  1
  O  O24  1  0.747826  0.540618  0.828518  1
  O  O25  1  0.747826  0.959382  0.828518  1
  O  O26  1  0.288137  0.750000  0.882165  1
  O  O27  1  0.308487  0.250000  0.954492  1
