# generated using pymatgen
data_MnF3
_symmetry_space_group_name_H-M   'P 1'
_cell_length_a   4.99974566
_cell_length_b   4.99974566
_cell_length_c   8.77617693
_cell_angle_alpha   90.00000000
_cell_angle_beta   90.00000000
_cell_angle_gamma   90.00000000
_symmetry_Int_Tables_number   1
_chemical_formula_structural   MnF3
_chemical_formula_sum   'Mn4 F12'
_cell_volume   219.38210225
_cell_formula_units_Z   4
loop_
 _symmetry_equiv_pos_site_id
 _symmetry_equiv_pos_as_xyz
  1  'x, y, z'
loop_
 _atom_site_type_symbol
 _atom_site_label
 _atom_site_symmetry_multiplicity
 _atom_site_fract_x
 _atom_site_fract_y
 _atom_site_fract_z
 _atom_site_occupancy
  Mn  Mn0  1  0.000000  0.000000  0.826346  1
  Mn  Mn1  1  0.500000  0.500000  0.673654  1
  Mn  Mn2  1  0.500000  0.500000  0.326346  1
  Mn  Mn3  1  0.000000  0.000000  0.173654  1
  F  F4  1  0.826791  0.826791  0.000000  1
  F  F5  1  0.699326  0.300674  0.813777  1
  F  F6  1  0.300674  0.699326  0.813777  1
  F  F7  1  0.199326  0.199326  0.686223  1
  F  F8  1  0.800674  0.800674  0.686223  1
  F  F9  1  0.673209  0.326791  0.500000  1
  F  F10  1  0.326791  0.673209  0.500000  1
  F  F11  1  0.199326  0.199326  0.313777  1
  F  F12  1  0.800674  0.800674  0.313777  1
  F  F13  1  0.699326  0.300674  0.186223  1
  F  F14  1  0.300674  0.699326  0.186223  1
  F  F15  1  0.173209  0.173209  0.000000  1
