# generated using pymatgen
data_Li2Cu3F7
_symmetry_space_group_name_H-M   'P 1'
_cell_length_a   3.06225112
_cell_length_b   10.19012588
_cell_length_c   10.78692309
_cell_angle_alpha   90.00000000
_cell_angle_beta   90.00000000
_cell_angle_gamma   90.00000000
_symmetry_Int_Tables_number   1
_chemical_formula_structural   Li2Cu3F7
_chemical_formula_sum   'Li4 Cu6 F14'
_cell_volume   336.60296198
_cell_formula_units_Z   2
loop_
 _symmetry_equiv_pos_site_id
 _symmetry_equiv_pos_as_xyz
  1  'x, y, z'
loop_
 _atom_site_type_symbol
 _atom_site_label
 _atom_site_symmetry_multiplicity
 _atom_site_fract_x
 _atom_site_fract_y
 _atom_site_fract_z
 _atom_site_occupancy
  Li  Li0  1  0.500000  0.750092  0.850393  1
  Li  Li1  1  0.500000  0.749908  0.350393  1
  Li  Li2  1  0.500000  0.250092  0.649607  1
  Li  Li3  1  0.500000  0.249908  0.149607  1
  Cu  Cu4  1  0.000000  0.500000  0.500000  1
  Cu  Cu5  1  0.000000  0.540806  0.134277  1
  Cu  Cu6  1  0.000000  0.959194  0.634277  1
  Cu  Cu7  1  0.000000  0.000000  0.000000  1
  Cu  Cu8  1  0.000000  0.040806  0.365723  1
  Cu  Cu9  1  0.000000  0.459194  0.865723  1
  F  F10  1  0.500000  0.500000  0.000000  1
  F  F11  1  0.500000  0.624278  0.488916  1
  F  F12  1  0.500000  0.620671  0.222086  1
  F  F13  1  0.000000  0.655170  0.835124  1
  F  F14  1  0.000000  0.844830  0.335124  1
  F  F15  1  0.500000  0.879329  0.722086  1
  F  F16  1  0.500000  0.875722  0.988916  1
  F  F17  1  0.500000  0.000000  0.500000  1
  F  F18  1  0.500000  0.124278  0.011084  1
  F  F19  1  0.500000  0.120671  0.277914  1
  F  F20  1  0.000000  0.155170  0.664876  1
  F  F21  1  0.000000  0.344830  0.164876  1
  F  F22  1  0.500000  0.379329  0.777914  1
  F  F23  1  0.500000  0.375722  0.511084  1
