# generated using pymatgen
data_FeOF
_symmetry_space_group_name_H-M   'P 1'
_cell_length_a   9.49817256
_cell_length_b   3.09587462
_cell_length_c   14.28270572
_cell_angle_alpha   90.00000000
_cell_angle_beta   90.53790291
_cell_angle_gamma   90.00000000
_symmetry_Int_Tables_number   1
_chemical_formula_structural   FeOF
_chemical_formula_sum   'Fe12 O12 F12'
_cell_volume   419.96661561
_cell_formula_units_Z   12
loop_
 _symmetry_equiv_pos_site_id
 _symmetry_equiv_pos_as_xyz
  1  'x, y, z'
loop_
 _atom_site_type_symbol
 _atom_site_label
 _atom_site_symmetry_multiplicity
 _atom_site_fract_x
 _atom_site_fract_y
 _atom_site_fract_z
 _atom_site_occupancy
  Fe  Fe0  1  0.986134  0.000000  0.004065  1
  Fe  Fe1  1  0.990930  0.000000  0.663963  1
  Fe  Fe2  1  0.991432  0.000000  0.339646  1
  Fe  Fe3  1  0.710222  0.500000  0.836542  1
  Fe  Fe4  1  0.770509  0.500000  0.500668  1
  Fe  Fe5  1  0.775290  0.500000  0.171038  1
  Fe  Fe6  1  0.495285  0.000000  0.675333  1
  Fe  Fe7  1  0.489890  0.000000  0.999910  1
  Fe  Fe8  1  0.484154  0.000000  0.333091  1
  Fe  Fe9  1  0.273169  0.500000  0.834308  1
  Fe  Fe10  1  0.252353  0.500000  0.479021  1
  Fe  Fe11  1  0.275033  0.500000  0.166304  1
  O  O12  1  0.901365  0.500000  0.400597  1
  O  O13  1  0.901176  0.500000  0.059630  1
  O  O14  1  0.856500  0.000000  0.232126  1
  O  O15  1  0.849146  0.000000  0.571739  1
  O  O16  1  0.654106  0.000000  0.762476  1
  O  O17  1  0.595049  0.500000  0.940269  1
  O  O18  1  0.397775  0.500000  0.725988  1
  O  O19  1  0.401655  0.500000  0.065373  1
  O  O20  1  0.415390  0.500000  0.400738  1
  O  O21  1  0.340040  0.000000  0.897687  1
  O  O22  1  0.347272  0.000000  0.233292  1
  O  O23  1  0.151429  0.000000  0.434040  1
  F  F24  1  0.909130  0.500000  0.734929  1
  F  F25  1  0.848346  0.000000  0.892020  1
  F  F26  1  0.656345  0.000000  0.438444  1
  F  F27  1  0.656507  0.000000  0.108604  1
  F  F28  1  0.595090  0.500000  0.594994  1
  F  F29  1  0.604138  0.500000  0.270638  1
  F  F30  1  0.344083  0.000000  0.563981  1
  F  F31  1  0.142943  0.000000  0.764887  1
  F  F32  1  0.149581  0.000000  0.098805  1
  F  F33  1  0.090107  0.500000  0.930270  1
  F  F34  1  0.099222  0.500000  0.607996  1
  F  F35  1  0.099203  0.500000  0.266590  1
