# generated using pymatgen
data_LiNb(TeO4)3
_symmetry_space_group_name_H-M   'P 1'
_cell_length_a   5.15627624
_cell_length_b   5.37719763
_cell_length_c   7.45862942
_cell_angle_alpha   86.94777496
_cell_angle_beta   89.99482896
_cell_angle_gamma   89.92228361
_symmetry_Int_Tables_number   1
_chemical_formula_structural   LiNb(TeO4)3
_chemical_formula_sum   'Li1 Nb1 Te3 O12'
_cell_volume   206.50676557
_cell_formula_units_Z   1
loop_
 _symmetry_equiv_pos_site_id
 _symmetry_equiv_pos_as_xyz
  1  'x, y, z'
loop_
 _atom_site_type_symbol
 _atom_site_label
 _atom_site_symmetry_multiplicity
 _atom_site_fract_x
 _atom_site_fract_y
 _atom_site_fract_z
 _atom_site_occupancy
  Li  Li0  1  0.002292  0.460875  0.226968  1
  Nb  Nb1  1  0.997307  0.007778  0.994828  1
  Te  Te2  1  0.496145  0.508813  0.999390  1
  Te  Te3  1  0.999731  0.002674  0.504196  1
  Te  Te4  1  0.502235  0.506855  0.506933  1
  O  O5  1  0.689277  0.197024  0.570589  1
  O  O6  1  0.893331  0.015097  0.260469  1
  O  O7  1  0.684813  0.812032  0.951826  1
  O  O8  1  0.813885  0.692228  0.567997  1
  O  O9  1  0.193881  0.690722  0.065737  1
  O  O10  1  0.628524  0.508594  0.256650  1
  O  O11  1  0.370055  0.507527  0.750621  1
  O  O12  1  0.806091  0.326921  0.957353  1
  O  O13  1  0.190336  0.318428  0.438180  1
  O  O14  1  0.305933  0.211432  0.060233  1
  O  O15  1  0.118008  0.008707  0.745345  1
  O  O16  1  0.308157  0.809890  0.435484  1
