# generated using pymatgen
data_YTmO3
_symmetry_space_group_name_H-M   'P 1'
_cell_length_a   9.16618041
_cell_length_b   9.16618041
_cell_length_c   10.58277753
_cell_angle_alpha   54.73586591
_cell_angle_beta   125.26413409
_cell_angle_gamma   109.46819046
_symmetry_Int_Tables_number   1
_chemical_formula_structural   YTmO3
_chemical_formula_sum   'Y8 Tm8 O24'
_cell_volume   592.77236393
_cell_formula_units_Z   8
loop_
 _symmetry_equiv_pos_site_id
 _symmetry_equiv_pos_as_xyz
  1  'x, y, z'
loop_
 _atom_site_type_symbol
 _atom_site_label
 _atom_site_symmetry_multiplicity
 _atom_site_fract_x
 _atom_site_fract_y
 _atom_site_fract_z
 _atom_site_occupancy
  Y  Y0  1  0.000965  0.499281  0.250035  1
  Y  Y1  1  0.250048  0.750507  0.531958  1
  Y  Y2  1  0.750507  0.250048  0.468042  1
  Y  Y3  1  0.467190  0.467190  0.000000  1
  Y  Y4  1  0.967708  0.967708  0.000000  1
  Y  Y5  1  0.998758  0.501808  0.750003  1
  Y  Y6  1  0.499281  0.000965  0.749965  1
  Y  Y7  1  0.501808  0.998758  0.249997  1
  Tm  Tm8  1  0.782120  0.718191  0.282955  1
  Tm  Tm9  1  0.284291  0.216013  0.783148  1
  Tm  Tm10  1  0.718191  0.782120  0.717045  1
  Tm  Tm11  1  0.532876  0.532876  0.500000  1
  Tm  Tm12  1  0.033403  0.033403  0.500000  1
  Tm  Tm13  1  0.750031  0.250441  0.967083  1
  Tm  Tm14  1  0.250441  0.750031  0.032917  1
  Tm  Tm15  1  0.216013  0.284291  0.216852  1
  O  O16  1  0.514071  0.729428  0.792030  1
  O  O17  1  0.729428  0.514071  0.207970  1
  O  O18  1  0.956464  0.258008  0.218466  1
  O  O19  1  0.758180  0.460153  0.520120  1
  O  O20  1  0.738656  0.040370  0.718546  1
  O  O21  1  0.543996  0.238844  0.020135  1
  O  O22  1  0.986240  0.774374  0.507357  1
  O  O23  1  0.774374  0.986240  0.492643  1
  O  O24  1  0.728175  0.969473  0.023985  1
  O  O25  1  0.464897  0.227143  0.261078  1
  O  O26  1  0.969473  0.728175  0.976015  1
  O  O27  1  0.227143  0.464897  0.738922  1
  O  O28  1  0.768292  0.530946  0.761546  1
  O  O29  1  0.530946  0.768292  0.238454  1
  O  O30  1  0.269172  0.035420  0.476512  1
  O  O31  1  0.035420  0.269172  0.523488  1
  O  O32  1  0.230075  0.011201  0.008279  1
  O  O33  1  0.011201  0.230075  0.991721  1
  O  O34  1  0.258008  0.956464  0.781534  1
  O  O35  1  0.460153  0.758180  0.479880  1
  O  O36  1  0.040370  0.738656  0.281454  1
  O  O37  1  0.238844  0.543996  0.979865  1
  O  O38  1  0.489020  0.273773  0.707001  1
  O  O39  1  0.273773  0.489020  0.292999  1
