# generated using pymatgen
data_Li3V2S2(O4F3)2
_symmetry_space_group_name_H-M   'P 1'
_cell_length_a   7.15435956
_cell_length_b   7.82977622
_cell_length_c   10.36942682
_cell_angle_alpha   91.62220703
_cell_angle_beta   90.72405944
_cell_angle_gamma   90.54742027
_symmetry_Int_Tables_number   1
_chemical_formula_structural   Li3V2S2(O4F3)2
_chemical_formula_sum   'Li6 V4 S4 O16 F12'
_cell_volume   580.55682718
_cell_formula_units_Z   2
loop_
 _symmetry_equiv_pos_site_id
 _symmetry_equiv_pos_as_xyz
  1  'x, y, z'
loop_
 _atom_site_type_symbol
 _atom_site_label
 _atom_site_symmetry_multiplicity
 _atom_site_fract_x
 _atom_site_fract_y
 _atom_site_fract_z
 _atom_site_occupancy
  Li  Li0  1  0.279614  0.115490  0.290394  1
  Li  Li1  1  0.250135  0.606820  0.783497  1
  Li  Li2  1  0.705571  0.420123  0.227116  1
  Li  Li3  1  0.712038  0.917666  0.250700  1
  Li  Li4  1  0.782784  0.425877  0.748373  1
  Li  Li5  1  0.775978  0.921151  0.732113  1
  V  V6  1  0.998229  0.492298  0.493838  1
  V  V7  1  0.999637  0.000994  0.998373  1
  V  V8  1  0.499471  0.500376  0.497479  1
  V  V9  1  0.499674  0.992247  0.993673  1
  S  S10  1  0.276043  0.331050  0.010971  1
  S  S11  1  0.233517  0.831203  0.509250  1
  S  S12  1  0.741895  0.156953  0.501463  1
  S  S13  1  0.750727  0.657251  0.000654  1
  O  O14  1  0.114901  0.214332  0.059784  1
  O  O15  1  0.093714  0.715096  0.438170  1
  O  O16  1  0.195584  0.452015  0.922265  1
  O  O17  1  0.150009  0.914060  0.620381  1
  O  O18  1  0.369717  0.402996  0.124551  1
  O  O19  1  0.319868  0.942112  0.415935  1
  O  O20  1  0.405720  0.213315  0.936262  1
  O  O21  1  0.388431  0.710578  0.562433  1
  O  O22  1  0.595469  0.273740  0.438714  1
  O  O23  1  0.610252  0.774100  0.066969  1
  O  O24  1  0.656405  0.056745  0.601660  1
  O  O25  1  0.666043  0.557006  0.894188  1
  O  O26  1  0.821810  0.055433  0.396383  1
  O  O27  1  0.836952  0.555107  0.099893  1
  O  O28  1  0.885390  0.275073  0.567600  1
  O  O29  1  0.896638  0.774952  0.938964  1
  F  F30  1  0.970519  0.063945  0.830636  1
  F  F31  1  0.034067  0.545308  0.680108  1
  F  F32  1  0.258593  0.392530  0.473343  1
  F  F33  1  0.236870  0.892491  0.980697  1
  F  F34  1  0.479033  0.047634  0.180064  1
  F  F35  1  0.532412  0.571164  0.332529  1
  F  F36  1  0.520956  0.430505  0.666601  1
  F  F37  1  0.549946  0.904492  0.826176  1
  F  F38  1  0.755598  0.103714  0.017603  1
  F  F39  1  0.746326  0.603302  0.525428  1
  F  F40  1  0.935964  0.406936  0.326389  1
  F  F41  1  0.973555  0.934044  0.166708  1
