# generated using pymatgen
data_V3FeO8
_symmetry_space_group_name_H-M   'P 1'
_cell_length_a   5.47957455
_cell_length_b   5.56451357
_cell_length_c   7.36062321
_cell_angle_alpha   89.72302541
_cell_angle_beta   89.82316502
_cell_angle_gamma   89.74271226
_symmetry_Int_Tables_number   1
_chemical_formula_structural   V3FeO8
_chemical_formula_sum   'V3 Fe1 O8'
_cell_volume   224.42805185
_cell_formula_units_Z   1
loop_
 _symmetry_equiv_pos_site_id
 _symmetry_equiv_pos_as_xyz
  1  'x, y, z'
loop_
 _atom_site_type_symbol
 _atom_site_label
 _atom_site_symmetry_multiplicity
 _atom_site_fract_x
 _atom_site_fract_y
 _atom_site_fract_z
 _atom_site_occupancy
  V  V0  1  0.996131  0.071711  0.877960  1
  V  V1  1  0.496534  0.427795  0.373958  1
  V  V2  1  0.997379  0.574595  0.624217  1
  Fe  Fe3  1  0.496936  0.927828  0.124961  1
  O  O4  1  0.687311  0.031542  0.926498  1
  O  O5  1  0.561591  0.127164  0.324574  1
  O  O6  1  0.061090  0.370975  0.827097  1
  O  O7  1  0.188261  0.467882  0.423707  1
  O  O8  1  0.665081  0.522550  0.559651  1
  O  O9  1  0.567738  0.606261  0.185134  1
  O  O10  1  0.066973  0.897590  0.688380  1
  O  O11  1  0.166577  0.974108  0.063865  1
