# generated using pymatgen
data_KH3(SO4)2
_symmetry_space_group_name_H-M   'P 1'
_cell_length_a   7.72703896
_cell_length_b   11.63947612
_cell_length_c   8.92399758
_cell_angle_alpha   90.00000000
_cell_angle_beta   112.86870848
_cell_angle_gamma   90.00000000
_symmetry_Int_Tables_number   1
_chemical_formula_structural   KH3(SO4)2
_chemical_formula_sum   'K4 H12 S8 O32'
_cell_volume   739.52548153
_cell_formula_units_Z   4
loop_
 _symmetry_equiv_pos_site_id
 _symmetry_equiv_pos_as_xyz
  1  'x, y, z'
loop_
 _atom_site_type_symbol
 _atom_site_label
 _atom_site_symmetry_multiplicity
 _atom_site_fract_x
 _atom_site_fract_y
 _atom_site_fract_z
 _atom_site_occupancy
  K  K0  1  0.862560  0.749399  0.445706  1
  K  K1  1  0.137440  0.249399  0.054294  1
  K  K2  1  0.137440  0.250601  0.554294  1
  K  K3  1  0.862560  0.750601  0.945706  1
  H  H4  1  0.236745  0.917867  0.993374  1
  H  H5  1  0.763255  0.417867  0.506626  1
  H  H6  1  0.763255  0.082133  0.006626  1
  H  H7  1  0.236745  0.582133  0.493374  1
  H  H8  1  0.361233  0.927121  0.704075  1
  H  H9  1  0.638767  0.427121  0.795925  1
  H  H10  1  0.638767  0.072879  0.295925  1
  H  H11  1  0.361233  0.572879  0.204075  1
  H  H12  1  0.254670  0.884178  0.352758  1
  H  H13  1  0.745330  0.384178  0.147242  1
  H  H14  1  0.745330  0.115822  0.647242  1
  H  H15  1  0.254670  0.615822  0.852758  1
  S  S16  1  0.067413  0.996202  0.764193  1
  S  S17  1  0.932587  0.496202  0.735807  1
  S  S18  1  0.932587  0.003798  0.235807  1
  S  S19  1  0.067413  0.503798  0.264193  1
  S  S20  1  0.434303  0.791287  0.567861  1
  S  S21  1  0.565697  0.291287  0.932139  1
  S  S22  1  0.565697  0.208713  0.432139  1
  S  S23  1  0.434303  0.708713  0.067861  1
  O  O24  1  0.961280  0.104786  0.742328  1
  O  O25  1  0.038720  0.604786  0.757672  1
  O  O26  1  0.038720  0.895214  0.257672  1
  O  O27  1  0.961280  0.395214  0.242328  1
  O  O28  1  0.953077  0.892850  0.726216  1
  O  O29  1  0.046923  0.392850  0.773784  1
  O  O30  1  0.046923  0.107150  0.273784  1
  O  O31  1  0.953077  0.607150  0.226216  1
  O  O32  1  0.198137  0.002913  0.678964  1
  O  O33  1  0.801863  0.502913  0.821036  1
  O  O34  1  0.801863  0.997087  0.321036  1
  O  O35  1  0.198137  0.497087  0.178964  1
  O  O36  1  0.192642  0.997942  0.954488  1
  O  O37  1  0.807358  0.497942  0.545512  1
  O  O38  1  0.807358  0.002058  0.045512  1
  O  O39  1  0.192642  0.502058  0.454488  1
  O  O40  1  0.266700  0.722568  0.539186  1
  O  O41  1  0.733300  0.222568  0.960814  1
  O  O42  1  0.733300  0.277432  0.460814  1
  O  O43  1  0.266700  0.777432  0.039186  1
  O  O44  1  0.607248  0.731056  0.599616  1
  O  O45  1  0.392752  0.231056  0.900384  1
  O  O46  1  0.392752  0.268944  0.400384  1
  O  O47  1  0.607248  0.768944  0.099616  1
  O  O48  1  0.472648  0.871895  0.715767  1
  O  O49  1  0.527352  0.371895  0.784233  1
  O  O50  1  0.527352  0.128105  0.284233  1
  O  O51  1  0.472648  0.628105  0.215767  1
  O  O52  1  0.396549  0.871952  0.419207  1
  O  O53  1  0.603451  0.371952  0.080793  1
  O  O54  1  0.603451  0.128048  0.580793  1
  O  O55  1  0.396549  0.628048  0.919207  1
