# generated using pymatgen
data_Li2VCr(P2O7)2
_symmetry_space_group_name_H-M   'P 1'
_cell_length_a   7.02079379
_cell_length_b   8.22183249
_cell_length_c   14.01517638
_cell_angle_alpha   90.01238670
_cell_angle_beta   99.53886489
_cell_angle_gamma   90.11357951
_symmetry_Int_Tables_number   1
_chemical_formula_structural   Li2VCr(P2O7)2
_chemical_formula_sum   'Li6 V3 Cr3 P12 O42'
_cell_volume   797.82158624
_cell_formula_units_Z   3
loop_
 _symmetry_equiv_pos_site_id
 _symmetry_equiv_pos_as_xyz
  1  'x, y, z'
loop_
 _atom_site_type_symbol
 _atom_site_label
 _atom_site_symmetry_multiplicity
 _atom_site_fract_x
 _atom_site_fract_y
 _atom_site_fract_z
 _atom_site_occupancy
  Li  Li0  1  0.381863  0.863182  0.058893  1
  Li  Li1  1  0.951359  0.363223  0.274476  1
  Li  Li2  1  0.715469  0.862865  0.392148  1
  Li  Li3  1  0.284553  0.362888  0.607884  1
  Li  Li4  1  0.048338  0.863295  0.725590  1
  Li  Li5  1  0.617623  0.362782  0.941251  1
  V  V6  1  0.343101  0.499566  0.072160  1
  V  V7  1  0.990633  0.999359  0.261195  1
  V  V8  1  0.009195  0.499455  0.738829  1
  Cr  Cr9  1  0.677705  0.499987  0.404882  1
  Cr  Cr10  1  0.322662  0.999804  0.595276  1
  Cr  Cr11  1  0.655442  0.999810  0.928527  1
  P  P12  1  0.611519  0.179863  0.133020  1
  P  P13  1  0.983750  0.784556  0.069905  1
  P  P14  1  0.349638  0.284644  0.263198  1
  P  P15  1  0.721903  0.679766  0.200236  1
  P  P16  1  0.319911  0.783356  0.404597  1
  P  P17  1  0.055683  0.680463  0.533102  1
  P  P18  1  0.944411  0.180533  0.466981  1
  P  P19  1  0.680102  0.283361  0.595354  1
  P  P20  1  0.279217  0.179540  0.799869  1
  P  P21  1  0.651133  0.785870  0.737152  1
  P  P22  1  0.014207  0.282064  0.929136  1
  P  P23  1  0.389947  0.680765  0.866518  1
  O  O24  1  0.164273  0.322450  0.017112  1
  O  O25  1  0.158101  0.696337  0.043022  1
  O  O26  1  0.050203  0.934711  0.132250  1
  O  O27  1  0.580367  0.036605  0.062177  1
  O  O28  1  0.577439  0.344268  0.082044  1
  O  O29  1  0.526362  0.678317  0.132293  1
  O  O30  1  0.283640  0.434778  0.200991  1
  O  O31  1  0.444828  0.152468  0.198145  1
  O  O32  1  0.888263  0.652284  0.135067  1
  O  O33  1  0.174956  0.196608  0.290101  1
  O  O34  1  0.169569  0.822582  0.316338  1
  O  O35  1  0.807005  0.178372  0.200990  1
  O  O36  1  0.756015  0.844160  0.251172  1
  O  O37  1  0.752768  0.536568  0.271181  1
  O  O38  1  0.499018  0.324292  0.351303  1
  O  O39  1  0.493836  0.693342  0.377101  1
  O  O40  1  0.222356  0.651505  0.468474  1
  O  O41  1  0.383958  0.933760  0.466356  1
  O  O42  1  0.140176  0.179556  0.533825  1
  O  O43  1  0.913119  0.038088  0.395406  1
  O  O44  1  0.906842  0.346068  0.416238  1
  O  O45  1  0.093236  0.845967  0.583826  1
  O  O46  1  0.086660  0.538074  0.604761  1
  O  O47  1  0.859908  0.679445  0.466226  1
  O  O48  1  0.616354  0.433771  0.533702  1
  O  O49  1  0.777520  0.151672  0.531643  1
  O  O50  1  0.506015  0.193482  0.622949  1
  O  O51  1  0.501388  0.824335  0.648839  1
  O  O52  1  0.246916  0.036531  0.728820  1
  O  O53  1  0.244141  0.344270  0.749176  1
  O  O54  1  0.193567  0.679361  0.799521  1
  O  O55  1  0.830530  0.322732  0.683693  1
  O  O56  1  0.825011  0.697021  0.709816  1
  O  O57  1  0.111330  0.151628  0.864673  1
  O  O58  1  0.555451  0.652283  0.801579  1
  O  O59  1  0.716055  0.935120  0.799890  1
  O  O60  1  0.474192  0.178460  0.867616  1
  O  O61  1  0.426676  0.846025  0.917463  1
  O  O62  1  0.419832  0.538222  0.937983  1
  O  O63  1  0.948878  0.433300  0.867870  1
  O  O64  1  0.839552  0.192843  0.956261  1
  O  O65  1  0.834330  0.824083  0.981929  1
