# generated using pymatgen
data_Mg2Mn3O8
_symmetry_space_group_name_H-M   'P 1'
_cell_length_a   5.90901020
_cell_length_b   5.90901020
_cell_length_c   4.89022920
_cell_angle_alpha   72.45763605
_cell_angle_beta   107.54236395
_cell_angle_gamma   121.27129669
_symmetry_Int_Tables_number   1
_chemical_formula_structural   Mg2Mn3O8
_chemical_formula_sum   'Mg2 Mn3 O8'
_cell_volume   136.93669027
_cell_formula_units_Z   1
loop_
 _symmetry_equiv_pos_site_id
 _symmetry_equiv_pos_as_xyz
  1  'x, y, z'
loop_
 _atom_site_type_symbol
 _atom_site_label
 _atom_site_symmetry_multiplicity
 _atom_site_fract_x
 _atom_site_fract_y
 _atom_site_fract_z
 _atom_site_occupancy
  Mg  Mg0  1  0.721081  0.278919  0.651353  1
  Mg  Mg1  1  0.278919  0.721081  0.348647  1
  Mn  Mn2  1  0.000000  0.000000  0.500000  1
  Mn  Mn3  1  0.739720  0.739720  0.000000  1
  Mn  Mn4  1  0.260280  0.260280  0.000000  1
  O  O5  1  0.894486  0.105514  0.086100  1
  O  O6  1  0.888275  0.660061  0.402548  1
  O  O7  1  0.339939  0.111725  0.402548  1
  O  O8  1  0.608862  0.391138  0.935444  1
  O  O9  1  0.391138  0.608862  0.064556  1
  O  O10  1  0.660061  0.888275  0.597452  1
  O  O11  1  0.111725  0.339939  0.597452  1
  O  O12  1  0.105514  0.894486  0.913900  1
