# generated using pymatgen
data_Li8MnFe7(BO3)8
_symmetry_space_group_name_H-M   'P 1'
_cell_length_a   5.23984785
_cell_length_b   5.96811319
_cell_length_c   17.70913111
_cell_angle_alpha   89.69182488
_cell_angle_beta   98.00625187
_cell_angle_gamma   114.28704594
_symmetry_Int_Tables_number   1
_chemical_formula_structural   Li8MnFe7(BO3)8
_chemical_formula_sum   'Li8 Mn1 Fe7 B8 O24'
_cell_volume   499.03916146
_cell_formula_units_Z   1
loop_
 _symmetry_equiv_pos_site_id
 _symmetry_equiv_pos_as_xyz
  1  'x, y, z'
loop_
 _atom_site_type_symbol
 _atom_site_label
 _atom_site_symmetry_multiplicity
 _atom_site_fract_x
 _atom_site_fract_y
 _atom_site_fract_z
 _atom_site_occupancy
  Li  Li0  1  0.146449  0.912474  0.231747  1
  Li  Li1  1  0.354882  0.588818  0.266610  1
  Li  Li2  1  0.100502  0.833933  0.518270  1
  Li  Li3  1  0.397739  0.662032  0.982839  1
  Li  Li4  1  0.600163  0.336632  0.016373  1
  Li  Li5  1  0.896318  0.163071  0.483024  1
  Li  Li6  1  0.648816  0.412745  0.733563  1
  Li  Li7  1  0.851560  0.087637  0.767064  1
  Mn  Mn8  1  0.357703  0.166831  0.396880  1
  Fe  Fe9  1  0.598359  0.908370  0.144951  1
  Fe  Fe10  1  0.648433  0.841114  0.605574  1
  Fe  Fe11  1  0.144308  0.338094  0.104997  1
  Fe  Fe12  1  0.906355  0.594153  0.352814  1
  Fe  Fe13  1  0.102375  0.409776  0.645277  1
  Fe  Fe14  1  0.849433  0.659223  0.894944  1
  Fe  Fe15  1  0.396495  0.089179  0.855558  1
  B  B16  1  0.487769  0.694864  0.435198  1
  B  B17  1  0.235360  0.941855  0.684941  1
  B  B18  1  0.014681  0.808612  0.065115  1
  B  B19  1  0.733472  0.440250  0.183537  1
  B  B20  1  0.264646  0.558940  0.815643  1
  B  B21  1  0.984736  0.191819  0.934346  1
  B  B22  1  0.765704  0.054783  0.314409  1
  B  B23  1  0.514717  0.308944  0.566956  1
  O  O24  1  0.540117  0.961144  0.255810  1
  O  O25  1  0.254936  0.760567  0.066625  1
  O  O26  1  0.000597  0.000621  0.315258  1
  O  O27  1  0.997554  0.947516  0.126507  1
  O  O28  1  0.709248  0.790018  0.494046  1
  O  O29  1  0.793504  0.710853  0.006073  1
  O  O30  1  0.503746  0.557706  0.373103  1
  O  O31  1  0.251528  0.801675  0.623671  1
  O  O32  1  0.494581  0.489580  0.182111  1
  O  O33  1  0.244500  0.738416  0.434379  1
  O  O34  1  0.248834  0.697674  0.877446  1
  O  O35  1  0.955935  0.535981  0.242479  1
  O  O36  1  0.043386  0.461353  0.756869  1
  O  O37  1  0.748417  0.300273  0.122099  1
  O  O38  1  0.753812  0.260068  0.567679  1
  O  O39  1  0.505755  0.512180  0.816649  1
  O  O40  1  0.756910  0.198586  0.375593  1
  O  O41  1  0.501501  0.450546  0.628073  1
  O  O42  1  0.206436  0.288918  0.993451  1
  O  O43  1  0.289509  0.210541  0.508551  1
  O  O44  1  0.000956  0.052573  0.872849  1
  O  O45  1  0.996196  0.991405  0.682932  1
  O  O46  1  0.744281  0.238976  0.932975  1
  O  O47  1  0.456784  0.038681  0.744139  1
