# generated using pymatgen
data_Ca3Be2P4(HO2)10
_symmetry_space_group_name_H-M   'P 1'
_cell_length_a   7.10583727
_cell_length_b   7.38045585
_cell_length_c   7.79562006
_cell_angle_alpha   102.38396077
_cell_angle_beta   94.41046430
_cell_angle_gamma   96.33705930
_symmetry_Int_Tables_number   1
_chemical_formula_structural   Ca3Be2P4(HO2)10
_chemical_formula_sum   'Ca3 Be2 P4 H10 O20'
_cell_volume   394.74768817
_cell_formula_units_Z   1
loop_
 _symmetry_equiv_pos_site_id
 _symmetry_equiv_pos_as_xyz
  1  'x, y, z'
loop_
 _atom_site_type_symbol
 _atom_site_label
 _atom_site_symmetry_multiplicity
 _atom_site_fract_x
 _atom_site_fract_y
 _atom_site_fract_z
 _atom_site_occupancy
  Ca  Ca0  1  0.022725  0.290245  0.606443  1
  Ca  Ca1  1  0.977275  0.709755  0.393557  1
  Ca  Ca2  1  0.000000  0.000000  0.000000  1
  Be  Be3  1  0.516338  0.268457  0.581779  1
  Be  Be4  1  0.483662  0.731543  0.418221  1
  P  P5  1  0.318054  0.958436  0.698020  1
  P  P6  1  0.681946  0.041564  0.301980  1
  P  P7  1  0.728320  0.644991  0.698261  1
  P  P8  1  0.271680  0.355009  0.301739  1
  H  H9  1  0.506726  0.848291  0.876393  1
  H  H10  1  0.493274  0.151709  0.123607  1
  H  H11  1  0.365721  0.487069  0.825185  1
  H  H12  1  0.634279  0.512931  0.174815  1
  H  H13  1  0.279277  0.363027  0.949548  1
  H  H14  1  0.720723  0.636973  0.050452  1
  H  H15  1  0.716761  0.186037  0.822241  1
  H  H16  1  0.283239  0.813963  0.177759  1
  H  H17  1  0.828715  0.353007  0.961588  1
  H  H18  1  0.171285  0.646993  0.038412  1
  O  O19  1  0.117561  0.014947  0.713710  1
  O  O20  1  0.882439  0.985053  0.286290  1
  O  O21  1  0.367798  0.867754  0.860128  1
  O  O22  1  0.632202  0.132246  0.139872  1
  O  O23  1  0.307131  0.805180  0.525244  1
  O  O24  1  0.692869  0.194820  0.474756  1
  O  O25  1  0.473855  0.124497  0.711722  1
  O  O26  1  0.526145  0.875503  0.288278  1
  O  O27  1  0.926548  0.586615  0.669108  1
  O  O28  1  0.073452  0.413385  0.330892  1
  O  O29  1  0.678557  0.737752  0.540516  1
  O  O30  1  0.321443  0.262248  0.459484  1
  O  O31  1  0.728735  0.790109  0.875712  1
  O  O32  1  0.271265  0.209891  0.124288  1
  O  O33  1  0.576500  0.478551  0.702009  1
  O  O34  1  0.423500  0.521449  0.297991  1
  O  O35  1  0.246303  0.449823  0.874306  1
  O  O36  1  0.753697  0.550177  0.125694  1
  O  O37  1  0.848892  0.241878  0.870696  1
  O  O38  1  0.151108  0.758122  0.129304  1
