# generated using pymatgen
data_KNiH9(CO5)2
_symmetry_space_group_name_H-M   'P 1'
_cell_length_a   5.34345718
_cell_length_b   6.68502840
_cell_length_c   6.99472827
_cell_angle_alpha   116.23073049
_cell_angle_beta   89.83520076
_cell_angle_gamma   107.87549945
_symmetry_Int_Tables_number   1
_chemical_formula_structural   KNiH9(CO5)2
_chemical_formula_sum   'K1 Ni1 H9 C2 O10'
_cell_volume   210.71370235
_cell_formula_units_Z   1
loop_
 _symmetry_equiv_pos_site_id
 _symmetry_equiv_pos_as_xyz
  1  'x, y, z'
loop_
 _atom_site_type_symbol
 _atom_site_label
 _atom_site_symmetry_multiplicity
 _atom_site_fract_x
 _atom_site_fract_y
 _atom_site_fract_z
 _atom_site_occupancy
  K  K0  1  0.000000  0.000000  0.000000  1
  Ni  Ni1  1  0.500000  0.000000  0.500000  1
  H  H2  1  0.354713  0.873701  0.871717  1
  H  H3  1  0.645287  0.126299  0.128283  1
  H  H4  1  0.415423  0.161007  0.752139  1
  H  H5  1  0.584577  0.838993  0.247861  1
  H  H6  1  0.004464  0.760546  0.582732  1
  H  H7  1  0.995536  0.239454  0.417268  1
  H  H8  1  0.196228  0.605719  0.601004  1
  H  H9  1  0.803772  0.394281  0.398996  1
  H  H10  1  0.000000  0.500000  0.000000  1
  C  C11  1  0.629571  0.513867  0.795248  1
  C  C12  1  0.370429  0.486133  0.204752  1
  O  O13  1  0.459867  0.017968  0.767721  1
  O  O14  1  0.540133  0.982032  0.232279  1
  O  O15  1  0.134012  0.759333  0.509282  1
  O  O16  1  0.865988  0.240667  0.490718  1
  O  O17  1  0.716813  0.737794  0.704056  1
  O  O18  1  0.283187  0.262206  0.295944  1
  O  O19  1  0.393140  0.410435  0.749914  1
  O  O20  1  0.606860  0.589565  0.250086  1
  O  O21  1  0.800021  0.382068  0.945489  1
  O  O22  1  0.199979  0.617932  0.054511  1
