# generated using pymatgen
data_Li5Cu2Ni5O12
_symmetry_space_group_name_H-M   'P 1'
_cell_length_a   5.04423040
_cell_length_b   5.04423040
_cell_length_c   9.63413145
_cell_angle_alpha   86.17171541
_cell_angle_beta   93.82828459
_cell_angle_gamma   62.61747637
_symmetry_Int_Tables_number   1
_chemical_formula_structural   Li5Cu2Ni5O12
_chemical_formula_sum   'Li5 Cu2 Ni5 O12'
_cell_volume   215.86344748
_cell_formula_units_Z   1
loop_
 _symmetry_equiv_pos_site_id
 _symmetry_equiv_pos_as_xyz
  1  'x, y, z'
loop_
 _atom_site_type_symbol
 _atom_site_label
 _atom_site_symmetry_multiplicity
 _atom_site_fract_x
 _atom_site_fract_y
 _atom_site_fract_z
 _atom_site_occupancy
  Li  Li0  1  0.837276  0.347404  0.744041  1
  Li  Li1  1  0.661257  0.159360  0.254193  1
  Li  Li2  1  0.347404  0.837276  0.255959  1
  Li  Li3  1  0.159360  0.661257  0.745807  1
  Li  Li4  1  0.080312  0.080312  0.500000  1
  Cu  Cu5  1  0.739670  0.739670  0.500000  1
  Cu  Cu6  1  0.256456  0.256456  0.000000  1
  Ni  Ni7  1  0.918654  0.918654  0.000000  1
  Ni  Ni8  1  0.001477  0.501958  0.252834  1
  Ni  Ni9  1  0.501958  0.001477  0.747166  1
  Ni  Ni10  1  0.591837  0.591837  0.000000  1
  Ni  Ni11  1  0.410033  0.410033  0.500000  1
  O  O12  1  0.014525  0.771961  0.385806  1
  O  O13  1  0.771961  0.014525  0.614194  1
  O  O14  1  0.831058  0.676958  0.858870  1
  O  O15  1  0.676958  0.831058  0.141130  1
  O  O16  1  0.681564  0.477107  0.386813  1
  O  O17  1  0.477107  0.681564  0.613187  1
  O  O18  1  0.536824  0.284001  0.889208  1
  O  O19  1  0.284001  0.536824  0.110792  1
  O  O20  1  0.328591  0.184548  0.368113  1
  O  O21  1  0.184548  0.328591  0.631887  1
  O  O22  1  0.225449  0.981719  0.884088  1
  O  O23  1  0.981719  0.225449  0.115912  1
