# generated using pymatgen
data_La2UO6
_symmetry_space_group_name_H-M   'P 1'
_cell_length_a   6.70511179
_cell_length_b   6.70511179
_cell_length_c   6.70511179
_cell_angle_alpha   145.50365678
_cell_angle_beta   130.65440357
_cell_angle_gamma   61.59785081
_symmetry_Int_Tables_number   1
_chemical_formula_structural   La2UO6
_chemical_formula_sum   'La2 U1 O6'
_cell_volume   128.19950504
_cell_formula_units_Z   1
loop_
 _symmetry_equiv_pos_site_id
 _symmetry_equiv_pos_as_xyz
  1  'x, y, z'
loop_
 _atom_site_type_symbol
 _atom_site_label
 _atom_site_symmetry_multiplicity
 _atom_site_fract_x
 _atom_site_fract_y
 _atom_site_fract_z
 _atom_site_occupancy
  La  La0  1  0.663615  0.663615  0.000000  1
  La  La1  1  0.336385  0.336385  0.000000  1
  U  U2  1  0.000000  0.000000  0.000000  1
  O  O3  1  0.916292  0.149066  0.767227  1
  O  O4  1  0.778400  0.500000  0.278400  1
  O  O5  1  0.381839  0.149066  0.232773  1
  O  O6  1  0.618161  0.850934  0.767227  1
  O  O7  1  0.221600  0.500000  0.721600  1
  O  O8  1  0.083708  0.850934  0.232773  1
