# generated using pymatgen
data_LiVP3H8O13
_symmetry_space_group_name_H-M   'P 1'
_cell_length_a   7.09546335
_cell_length_b   7.75698355
_cell_length_c   10.02503893
_cell_angle_alpha   83.71852441
_cell_angle_beta   74.98147894
_cell_angle_gamma   77.99767154
_symmetry_Int_Tables_number   1
_chemical_formula_structural   LiVP3H8O13
_chemical_formula_sum   'Li2 V2 P6 H16 O26'
_cell_volume   520.37335332
_cell_formula_units_Z   2
loop_
 _symmetry_equiv_pos_site_id
 _symmetry_equiv_pos_as_xyz
  1  'x, y, z'
loop_
 _atom_site_type_symbol
 _atom_site_label
 _atom_site_symmetry_multiplicity
 _atom_site_fract_x
 _atom_site_fract_y
 _atom_site_fract_z
 _atom_site_occupancy
  Li  Li0  1  0.000000  0.000000  0.000000  1
  Li  Li1  1  0.000000  0.500000  0.500000  1
  V  V2  1  0.800989  0.827030  0.776927  1
  V  V3  1  0.199011  0.172970  0.223073  1
  P  P4  1  0.326929  0.802308  0.741879  1
  P  P5  1  0.240921  0.803845  0.475539  1
  P  P6  1  0.595371  0.459179  0.730133  1
  P  P7  1  0.404629  0.540821  0.269867  1
  P  P8  1  0.759079  0.196155  0.524461  1
  P  P9  1  0.673071  0.197692  0.258121  1
  H  H10  1  0.358500  0.982219  0.968260  1
  H  H11  1  0.819627  0.815766  0.431053  1
  H  H12  1  0.312813  0.857757  0.101976  1
  H  H13  1  0.920223  0.740259  0.204969  1
  H  H14  1  0.689880  0.694871  0.397687  1
  H  H15  1  0.856477  0.662295  0.012055  1
  H  H16  1  0.649060  0.624774  0.005553  1
  H  H17  1  0.098761  0.658797  0.086467  1
  H  H18  1  0.901239  0.341203  0.913533  1
  H  H19  1  0.350940  0.375226  0.994447  1
  H  H20  1  0.143523  0.337705  0.987945  1
  H  H21  1  0.310120  0.305129  0.602313  1
  H  H22  1  0.079777  0.259741  0.795031  1
  H  H23  1  0.687187  0.142243  0.898024  1
  H  H24  1  0.180373  0.184234  0.568947  1
  H  H25  1  0.641500  0.017781  0.031740  1
  O  O26  1  0.475228  0.874235  0.793356  1
  O  O27  1  0.272188  0.980789  0.062903  1
  O  O28  1  0.194389  0.959676  0.380788  1
  O  O29  1  0.362701  0.858380  0.577123  1
  O  O30  1  0.110680  0.852764  0.812295  1
  O  O31  1  0.975491  0.747331  0.102344  1
  O  O32  1  0.826243  0.715692  0.377668  1
  O  O33  1  0.785124  0.627085  0.947584  1
  O  O34  1  0.760865  0.559866  0.673060  1
  O  O35  1  0.081308  0.709355  0.559009  1
  O  O36  1  0.423098  0.659050  0.389704  1
  O  O37  1  0.380429  0.588631  0.747193  1
  O  O38  1  0.412965  0.652682  0.136811  1
  O  O39  1  0.587035  0.347318  0.863189  1
  O  O40  1  0.619571  0.411369  0.252807  1
  O  O41  1  0.576902  0.340950  0.610296  1
  O  O42  1  0.918692  0.290645  0.440991  1
  O  O43  1  0.239135  0.440134  0.326940  1
  O  O44  1  0.214876  0.372915  0.052416  1
  O  O45  1  0.173757  0.284308  0.622332  1
  O  O46  1  0.024509  0.252669  0.897656  1
  O  O47  1  0.889320  0.147236  0.187705  1
  O  O48  1  0.637299  0.141620  0.422877  1
  O  O49  1  0.805611  0.040324  0.619212  1
  O  O50  1  0.727812  0.019211  0.937097  1
  O  O51  1  0.524772  0.125765  0.206644  1
