# generated using pymatgen
data_Li3V2(O2F)2
_symmetry_space_group_name_H-M   'P 1'
_cell_length_a   5.22280394
_cell_length_b   5.97124628
_cell_length_c   14.94222998
_cell_angle_alpha   91.13006034
_cell_angle_beta   90.73031351
_cell_angle_gamma   91.72645779
_symmetry_Int_Tables_number   1
_chemical_formula_structural   Li3V2(O2F)2
_chemical_formula_sum   'Li12 V8 O16 F8'
_cell_volume   465.65445038
_cell_formula_units_Z   4
loop_
 _symmetry_equiv_pos_site_id
 _symmetry_equiv_pos_as_xyz
  1  'x, y, z'
loop_
 _atom_site_type_symbol
 _atom_site_label
 _atom_site_symmetry_multiplicity
 _atom_site_fract_x
 _atom_site_fract_y
 _atom_site_fract_z
 _atom_site_occupancy
  Li  Li0  1  0.709452  0.992176  0.837484  1
  Li  Li1  1  0.662839  0.002442  0.333273  1
  Li  Li2  1  0.331363  0.998225  0.707090  1
  Li  Li3  1  0.159155  0.743279  0.333831  1
  Li  Li4  1  0.153804  0.772614  0.837205  1
  Li  Li5  1  0.526941  0.758687  0.974379  1
  Li  Li6  1  0.690871  0.510232  0.821122  1
  Li  Li7  1  0.992298  0.479344  0.960843  1
  Li  Li8  1  0.323198  0.503996  0.702191  1
  Li  Li9  1  0.153775  0.259063  0.334529  1
  Li  Li10  1  0.457736  0.244552  0.955438  1
  Li  Li11  1  0.862903  0.243994  0.701508  1
  V  V12  1  0.996756  0.999485  0.504450  1
  V  V13  1  0.329462  0.999851  0.162815  1
  V  V14  1  0.496471  0.750570  0.496273  1
  V  V15  1  0.825544  0.744995  0.170824  1
  V  V16  1  0.999248  0.501423  0.499608  1
  V  V17  1  0.338564  0.500839  0.172890  1
  V  V18  1  0.504494  0.250400  0.496569  1
  V  V19  1  0.836004  0.247273  0.166878  1
  O  O20  1  0.668184  0.009746  0.563406  1
  O  O21  1  0.656516  0.985370  0.101857  1
  O  O22  1  0.995957  0.991368  0.242232  1
  O  O23  1  0.333696  0.010096  0.423292  1
  O  O24  1  0.173041  0.754561  0.565621  1
  O  O25  1  0.165643  0.756181  0.106890  1
  O  O26  1  0.504518  0.766900  0.242217  1
  O  O27  1  0.846525  0.770839  0.427549  1
  O  O28  1  0.654670  0.485515  0.560358  1
  O  O29  1  0.680386  0.514622  0.101877  1
  O  O30  1  0.005539  0.502283  0.242492  1
  O  O31  1  0.317052  0.494364  0.425020  1
  O  O32  1  0.172089  0.236655  0.565372  1
  O  O33  1  0.168440  0.249005  0.102876  1
  O  O34  1  0.490899  0.233605  0.238792  1
  O  O35  1  0.832134  0.235503  0.427282  1
  F  F36  1  0.002108  0.997426  0.751587  1
  F  F37  1  0.365260  0.974496  0.912761  1
  F  F38  1  0.480459  0.748808  0.759291  1
  F  F39  1  0.834224  0.731633  0.909856  1
  F  F40  1  0.002573  0.505111  0.749212  1
  F  F41  1  0.327538  0.516227  0.931344  1
  F  F42  1  0.523594  0.259945  0.736998  1
  F  F43  1  0.781412  0.266304  0.909284  1
