# generated using pymatgen
data_LiH2BrO
_symmetry_space_group_name_H-M   'P 1'
_cell_length_a   5.77338140
_cell_length_b   5.77338140
_cell_length_c   8.04646211
_cell_angle_alpha   90.00000000
_cell_angle_beta   90.00000000
_cell_angle_gamma   90.51080984
_symmetry_Int_Tables_number   1
_chemical_formula_structural   LiH2BrO
_chemical_formula_sum   'Li4 H8 Br4 O4'
_cell_volume   268.19347507
_cell_formula_units_Z   4
loop_
 _symmetry_equiv_pos_site_id
 _symmetry_equiv_pos_as_xyz
  1  'x, y, z'
loop_
 _atom_site_type_symbol
 _atom_site_label
 _atom_site_symmetry_multiplicity
 _atom_site_fract_x
 _atom_site_fract_y
 _atom_site_fract_z
 _atom_site_occupancy
  Li  Li0  1  0.000000  0.000000  0.000000  1
  Li  Li1  1  0.000000  0.000000  0.500000  1
  Li  Li2  1  0.682830  0.317170  0.250000  1
  Li  Li3  1  0.317170  0.682830  0.750000  1
  H  H4  1  0.600585  0.209835  0.941266  1
  H  H5  1  0.209835  0.600585  0.058734  1
  H  H6  1  0.209835  0.600585  0.441266  1
  H  H7  1  0.600585  0.209835  0.558734  1
  H  H8  1  0.790165  0.399415  0.558734  1
  H  H9  1  0.399415  0.790165  0.058734  1
  H  H10  1  0.790165  0.399415  0.941266  1
  H  H11  1  0.399415  0.790165  0.441266  1
  Br  Br12  1  0.219693  0.277251  0.250000  1
  Br  Br13  1  0.277251  0.219693  0.750000  1
  Br  Br14  1  0.722749  0.780307  0.250000  1
  Br  Br15  1  0.780307  0.722749  0.750000  1
  O  O16  1  0.744650  0.255350  0.000339  1
  O  O17  1  0.744650  0.255350  0.499661  1
  O  O18  1  0.255350  0.744650  0.500339  1
  O  O19  1  0.255350  0.744650  0.999661  1
