# generated using pymatgen
data_TiNb2O7
_symmetry_space_group_name_H-M   'P 1'
_cell_length_a   10.56787399
_cell_length_b   10.56787399
_cell_length_c   12.16400391
_cell_angle_alpha   60.43366041
_cell_angle_beta   119.56633959
_cell_angle_gamma   159.13074772
_symmetry_Int_Tables_number   1
_chemical_formula_structural   TiNb2O7
_chemical_formula_sum   'Ti3 Nb6 O21'
_cell_volume   418.61915763
_cell_formula_units_Z   3
loop_
 _symmetry_equiv_pos_site_id
 _symmetry_equiv_pos_as_xyz
  1  'x, y, z'
loop_
 _atom_site_type_symbol
 _atom_site_label
 _atom_site_symmetry_multiplicity
 _atom_site_fract_x
 _atom_site_fract_y
 _atom_site_fract_z
 _atom_site_occupancy
  Ti  Ti0  1  0.920976  0.079024  0.358599  1
  Ti  Ti1  1  0.000129  0.999871  0.001974  1
  Ti  Ti2  1  0.708879  0.291121  0.636588  1
  Nb  Nb3  1  0.106627  0.893373  0.368072  1
  Nb  Nb4  1  0.180873  0.819127  0.999918  1
  Nb  Nb5  1  0.294111  0.705889  0.365984  1
  Nb  Nb6  1  0.077036  0.922964  0.632054  1
  Nb  Nb7  1  0.818193  0.181807  0.996472  1
  Nb  Nb8  1  0.890245  0.109755  0.637183  1
  O  O9  1  0.049727  0.950273  0.197097  1
  O  O10  1  0.708163  0.291837  0.003455  1
  O  O11  1  0.874774  0.125226  0.189527  1
  O  O12  1  0.627805  0.372195  0.420066  1
  O  O13  1  0.099230  0.900770  0.015894  1
  O  O14  1  0.791680  0.208320  0.618415  1
  O  O15  1  0.024159  0.975841  0.416619  1
  O  O16  1  0.249131  0.750869  0.192391  1
  O  O17  1  0.500358  0.499642  0.000205  1
  O  O18  1  0.173310  0.826690  0.597971  1
  O  O19  1  0.402689  0.597311  0.376275  1
  O  O20  1  0.597638  0.402362  0.621806  1
  O  O21  1  0.827346  0.172654  0.403776  1
  O  O22  1  0.750250  0.249750  0.804103  1
  O  O23  1  0.975418  0.024582  0.585006  1
  O  O24  1  0.209583  0.790417  0.383480  1
  O  O25  1  0.901532  0.098468  0.984672  1
  O  O26  1  0.373258  0.626742  0.580226  1
  O  O27  1  0.124595  0.875405  0.809448  1
  O  O28  1  0.290706  0.709294  0.996323  1
  O  O29  1  0.951577  0.048423  0.806396  1
