# generated using pymatgen
data_LiMnF3
_symmetry_space_group_name_H-M   'P 1'
_cell_length_a   12.14369936
_cell_length_b   12.14369936
_cell_length_c   12.14369936
_cell_angle_alpha   28.48714576
_cell_angle_beta   28.48714576
_cell_angle_gamma   28.48714576
_symmetry_Int_Tables_number   1
_chemical_formula_structural   LiMnF3
_chemical_formula_sum   'Li6 Mn6 F18'
_cell_volume   360.07731943
_cell_formula_units_Z   6
loop_
 _symmetry_equiv_pos_site_id
 _symmetry_equiv_pos_as_xyz
  1  'x, y, z'
loop_
 _atom_site_type_symbol
 _atom_site_label
 _atom_site_symmetry_multiplicity
 _atom_site_fract_x
 _atom_site_fract_y
 _atom_site_fract_z
 _atom_site_occupancy
  Li  Li0  1  0.250000  0.564117  0.935883  1
  Li  Li1  1  0.564117  0.935883  0.250000  1
  Li  Li2  1  0.064117  0.750000  0.435883  1
  Li  Li3  1  0.935883  0.250000  0.564117  1
  Li  Li4  1  0.435883  0.064117  0.750000  1
  Li  Li5  1  0.750000  0.435883  0.064117  1
  Mn  Mn6  1  1.000000  0.000000  0.000000  1
  Mn  Mn7  1  0.344009  0.344009  0.344009  1
  Mn  Mn8  1  0.155991  0.155991  0.155991  1
  Mn  Mn9  1  0.844009  0.844009  0.844009  1
  Mn  Mn10  1  0.655991  0.655991  0.655991  1
  Mn  Mn11  1  0.500000  0.500000  0.500000  1
  F  F12  1  0.290822  0.633887  0.999427  1
  F  F13  1  0.209178  0.500573  0.866113  1
  F  F14  1  0.908179  0.908179  0.908179  1
  F  F15  1  0.133887  0.790822  0.499427  1
  F  F16  1  0.000573  0.709178  0.366113  1
  F  F17  1  0.633887  0.999427  0.290822  1
  F  F18  1  0.250000  0.250000  0.250000  1
  F  F19  1  0.500573  0.866113  0.209178  1
  F  F20  1  0.408179  0.408179  0.408179  1
  F  F21  1  0.591821  0.591821  0.591821  1
  F  F22  1  0.499427  0.133887  0.790822  1
  F  F23  1  0.750000  0.750000  0.750000  1
  F  F24  1  0.366113  0.000573  0.709178  1
  F  F25  1  0.999427  0.290822  0.633887  1
  F  F26  1  0.866113  0.209178  0.500573  1
  F  F27  1  0.091821  0.091821  0.091821  1
  F  F28  1  0.790822  0.499427  0.133887  1
  F  F29  1  0.709178  0.366113  0.000573  1
