# generated using pymatgen
data_Cr(Bi7O12)2
_symmetry_space_group_name_H-M   'P 1'
_cell_length_a   10.60825242
_cell_length_b   10.60825242
_cell_length_c   8.75502986
_cell_angle_alpha   65.88693559
_cell_angle_beta   114.11306441
_cell_angle_gamma   71.12432021
_symmetry_Int_Tables_number   1
_chemical_formula_structural   Cr(Bi7O12)2
_chemical_formula_sum   'Cr1 Bi14 O24'
_cell_volume   663.51712085
_cell_formula_units_Z   1
loop_
 _symmetry_equiv_pos_site_id
 _symmetry_equiv_pos_as_xyz
  1  'x, y, z'
loop_
 _atom_site_type_symbol
 _atom_site_label
 _atom_site_symmetry_multiplicity
 _atom_site_fract_x
 _atom_site_fract_y
 _atom_site_fract_z
 _atom_site_occupancy
  Cr  Cr0  1  0.005830  0.005830  0.000000  1
  Bi  Bi1  1  0.215671  0.783725  0.773124  1
  Bi  Bi2  1  0.461237  0.874972  0.186108  1
  Bi  Bi3  1  0.722493  0.939451  0.597580  1
  Bi  Bi4  1  0.439037  0.564592  0.643406  1
  Bi  Bi5  1  0.659978  0.659978  0.000000  1
  Bi  Bi6  1  0.564592  0.439037  0.356594  1
  Bi  Bi7  1  0.939451  0.722493  0.402420  1
  Bi  Bi8  1  0.874972  0.461237  0.813892  1
  Bi  Bi9  1  0.783725  0.215671  0.226876  1
  Bi  Bi10  1  0.127477  0.535795  0.186898  1
  Bi  Bi11  1  0.059080  0.278634  0.596912  1
  Bi  Bi12  1  0.341160  0.341160  0.000000  1
  Bi  Bi13  1  0.278634  0.059080  0.403088  1
  Bi  Bi14  1  0.535795  0.127477  0.813102  1
  O  O15  1  0.204509  0.837834  0.257949  1
  O  O16  1  0.501239  0.992079  0.673707  1
  O  O17  1  0.396859  0.761121  0.695528  1
  O  O18  1  0.454020  0.705860  0.058801  1
  O  O19  1  0.667091  0.826478  0.167353  1
  O  O20  1  0.904981  0.904981  0.000000  1
  O  O21  1  0.882050  0.882050  0.500000  1
  O  O22  1  0.618523  0.618523  0.500000  1
  O  O23  1  0.826478  0.667091  0.832647  1
  O  O24  1  0.705860  0.454020  0.941199  1
  O  O25  1  0.761121  0.396859  0.304472  1
  O  O26  1  0.007306  0.500498  0.671613  1
  O  O27  1  0.992079  0.501239  0.326293  1
  O  O28  1  0.237705  0.606034  0.690945  1
  O  O29  1  0.837834  0.204509  0.742051  1
  O  O30  1  0.294734  0.545664  0.057388  1
  O  O31  1  0.173167  0.332822  0.166892  1
  O  O32  1  0.117621  0.117621  0.500000  1
  O  O33  1  0.381437  0.381437  0.500000  1
  O  O34  1  0.116889  0.116889  0.000000  1
  O  O35  1  0.332822  0.173167  0.833108  1
  O  O36  1  0.545664  0.294734  0.942612  1
  O  O37  1  0.606034  0.237705  0.309055  1
  O  O38  1  0.500498  0.007306  0.328387  1
