# generated using pymatgen
data_Li3V2(CO3)4
_symmetry_space_group_name_H-M   'P 1'
_cell_length_a   5.39875501
_cell_length_b   6.49784113
_cell_length_c   8.50335180
_cell_angle_alpha   83.75699306
_cell_angle_beta   107.07030895
_cell_angle_gamma   113.89200317
_symmetry_Int_Tables_number   1
_chemical_formula_structural   Li3V2(CO3)4
_chemical_formula_sum   'Li3 V2 C4 O12'
_cell_volume   260.70558234
_cell_formula_units_Z   1
loop_
 _symmetry_equiv_pos_site_id
 _symmetry_equiv_pos_as_xyz
  1  'x, y, z'
loop_
 _atom_site_type_symbol
 _atom_site_label
 _atom_site_symmetry_multiplicity
 _atom_site_fract_x
 _atom_site_fract_y
 _atom_site_fract_z
 _atom_site_occupancy
  Li  Li0  1  0.236823  0.455026  0.834966  1
  Li  Li1  1  0.153071  0.939302  0.676474  1
  Li  Li2  1  0.532608  0.063085  0.310027  1
  V  V3  1  0.882608  0.005452  0.002885  1
  V  V4  1  0.633026  0.495283  0.491775  1
  C  C5  1  0.751906  0.601654  0.795298  1
  C  C6  1  0.715601  0.110885  0.694653  1
  C  C7  1  0.910989  0.887239  0.302245  1
  C  C8  1  0.348647  0.396390  0.204754  1
  O  O9  1  0.787776  0.666847  0.937637  1
  O  O10  1  0.966269  0.108488  0.749450  1
  O  O11  1  0.557507  0.046326  0.793434  1
  O  O12  1  0.952940  0.597693  0.738521  1
  O  O13  1  0.501989  0.535283  0.686728  1
  O  O14  1  0.626358  0.178055  0.546337  1
  O  O15  1  0.897320  0.808601  0.450753  1
  O  O16  1  0.601608  0.394688  0.254354  1
  O  O17  1  0.266278  0.442202  0.322357  1
  O  O18  1  0.701217  0.927015  0.204449  1
  O  O19  1  0.126057  0.928915  0.250800  1
  O  O20  1  0.192823  0.351115  0.056614  1
