# generated using pymatgen
data_Sr2CaI6
_symmetry_space_group_name_H-M   'P 1'
_cell_length_a   8.05950571
_cell_length_b   8.05950571
_cell_length_c   23.95319237
_cell_angle_alpha   90.00000000
_cell_angle_beta   90.00000000
_cell_angle_gamma   90.00000000
_symmetry_Int_Tables_number   1
_chemical_formula_structural   Sr2CaI6
_chemical_formula_sum   'Sr8 Ca4 I24'
_cell_volume   1555.89475575
_cell_formula_units_Z   4
loop_
 _symmetry_equiv_pos_site_id
 _symmetry_equiv_pos_as_xyz
  1  'x, y, z'
loop_
 _atom_site_type_symbol
 _atom_site_label
 _atom_site_symmetry_multiplicity
 _atom_site_fract_x
 _atom_site_fract_y
 _atom_site_fract_z
 _atom_site_occupancy
  Sr  Sr0  1  0.500000  0.000000  0.164903  1
  Sr  Sr1  1  0.000000  0.000000  0.332586  1
  Sr  Sr2  1  0.000000  0.000000  0.667414  1
  Sr  Sr3  1  0.500000  0.000000  0.835097  1
  Sr  Sr4  1  0.500000  0.500000  0.332586  1
  Sr  Sr5  1  0.000000  0.500000  0.164903  1
  Sr  Sr6  1  0.000000  0.500000  0.835097  1
  Sr  Sr7  1  0.500000  0.500000  0.667414  1
  Ca  Ca8  1  0.000000  0.000000  0.000000  1
  Ca  Ca9  1  0.500000  0.000000  0.500000  1
  Ca  Ca10  1  0.000000  0.500000  0.500000  1
  Ca  Ca11  1  0.500000  0.500000  0.000000  1
  I  I12  1  0.287183  0.197374  0.585577  1
  I  I13  1  0.210966  0.199184  0.083956  1
  I  I14  1  0.800816  0.210966  0.916044  1
  I  I15  1  0.302626  0.212817  0.414423  1
  I  I16  1  0.739128  0.226376  0.249775  1
  I  I17  1  0.726376  0.239128  0.750225  1
  I  I18  1  0.226376  0.260872  0.750225  1
  I  I19  1  0.239128  0.273624  0.249775  1
  I  I20  1  0.300816  0.289034  0.916044  1
  I  I21  1  0.802626  0.287183  0.414423  1
  I  I22  1  0.710966  0.300816  0.083956  1
  I  I23  1  0.787183  0.302626  0.585577  1
  I  I24  1  0.212817  0.697374  0.585577  1
  I  I25  1  0.289034  0.699184  0.083956  1
  I  I26  1  0.699184  0.710966  0.916044  1
  I  I27  1  0.197374  0.712817  0.414423  1
  I  I28  1  0.760872  0.726376  0.249775  1
  I  I29  1  0.773624  0.739128  0.750225  1
  I  I30  1  0.273624  0.760872  0.750225  1
  I  I31  1  0.260872  0.773624  0.249775  1
  I  I32  1  0.697374  0.787183  0.414423  1
  I  I33  1  0.199184  0.789034  0.916044  1
  I  I34  1  0.789034  0.800816  0.083956  1
  I  I35  1  0.712817  0.802626  0.585577  1
