# generated using pymatgen
data_Li2Ti3CrO8
_symmetry_space_group_name_H-M   'P 1'
_cell_length_a   5.97251533
_cell_length_b   5.97251533
_cell_length_c   5.97251533
_cell_angle_alpha   59.88869183
_cell_angle_beta   59.88869183
_cell_angle_gamma   59.88869183
_symmetry_Int_Tables_number   1
_chemical_formula_structural   Li2Ti3CrO8
_chemical_formula_sum   'Li2 Ti3 Cr1 O8'
_cell_volume   150.26528796
_cell_formula_units_Z   1
loop_
 _symmetry_equiv_pos_site_id
 _symmetry_equiv_pos_as_xyz
  1  'x, y, z'
loop_
 _atom_site_type_symbol
 _atom_site_label
 _atom_site_symmetry_multiplicity
 _atom_site_fract_x
 _atom_site_fract_y
 _atom_site_fract_z
 _atom_site_occupancy
  Li  Li0  1  0.624851  0.624851  0.624851  1
  Li  Li1  1  0.375149  0.375149  0.375149  1
  Ti  Ti2  1  1.000000  0.500000  1.000000  1
  Ti  Ti3  1  0.500000  0.000000  1.000000  1
  Ti  Ti4  1  1.000000  1.000000  0.500000  1
  Cr  Cr5  1  0.000000  0.000000  0.000000  1
  O  O6  1  0.239311  0.239311  0.787753  1
  O  O7  1  0.238154  0.238154  0.238154  1
  O  O8  1  0.787753  0.239311  0.239311  1
  O  O9  1  0.239311  0.787753  0.239311  1
  O  O10  1  0.760689  0.212247  0.760689  1
  O  O11  1  0.212247  0.760689  0.760689  1
  O  O12  1  0.761846  0.761846  0.761846  1
  O  O13  1  0.760689  0.760689  0.212247  1
