# generated using pymatgen
data_V5O12
_symmetry_space_group_name_H-M   'P 1'
_cell_length_a   6.76073551
_cell_length_b   6.76073551
_cell_length_c   5.98442239
_cell_angle_alpha   74.26235655
_cell_angle_beta   105.73764345
_cell_angle_gamma   96.90366068
_symmetry_Int_Tables_number   1
_chemical_formula_structural   V5O12
_chemical_formula_sum   'V5 O12'
_cell_volume   253.08891879
_cell_formula_units_Z   1
loop_
 _symmetry_equiv_pos_site_id
 _symmetry_equiv_pos_as_xyz
  1  'x, y, z'
loop_
 _atom_site_type_symbol
 _atom_site_label
 _atom_site_symmetry_multiplicity
 _atom_site_fract_x
 _atom_site_fract_y
 _atom_site_fract_z
 _atom_site_occupancy
  V  V0  1  0.381760  0.798432  0.001874  1
  V  V1  1  0.210855  0.610442  0.522111  1
  V  V2  1  0.798432  0.381760  0.998126  1
  V  V3  1  0.610442  0.210855  0.477889  1
  V  V4  1  0.082467  0.082467  0.500000  1
  O  O5  1  0.198006  0.982580  0.828372  1
  O  O6  1  0.604682  0.919477  0.043052  1
  O  O7  1  0.039807  0.796618  0.448798  1
  O  O8  1  0.374435  0.631464  0.806542  1
  O  O9  1  0.919477  0.604682  0.956948  1
  O  O10  1  0.349327  0.658333  0.297201  1
  O  O11  1  0.631464  0.374435  0.193458  1
  O  O12  1  0.094897  0.368326  0.547404  1
  O  O13  1  0.658333  0.349327  0.702799  1
  O  O14  1  0.982580  0.198006  0.171628  1
  O  O15  1  0.368326  0.094897  0.452596  1
  O  O16  1  0.796618  0.039807  0.551202  1
