# generated using pymatgen
data_V(PO3)4
_symmetry_space_group_name_H-M   'P 1'
_cell_length_a   7.17704491
_cell_length_b   7.17704491
_cell_length_c   10.18872168
_cell_angle_alpha   66.62400517
_cell_angle_beta   113.37599483
_cell_angle_gamma   109.13591949
_symmetry_Int_Tables_number   1
_chemical_formula_structural   V(PO3)4
_chemical_formula_sum   'V2 P8 O24'
_cell_volume   433.06673149
_cell_formula_units_Z   2
loop_
 _symmetry_equiv_pos_site_id
 _symmetry_equiv_pos_as_xyz
  1  'x, y, z'
loop_
 _atom_site_type_symbol
 _atom_site_label
 _atom_site_symmetry_multiplicity
 _atom_site_fract_x
 _atom_site_fract_y
 _atom_site_fract_z
 _atom_site_occupancy
  V  V0  1  0.554187  0.554187  0.750000  1
  V  V1  1  0.445813  0.445813  0.250000  1
  P  P2  1  0.747541  0.765753  0.018481  1
  P  P3  1  0.765753  0.747541  0.481519  1
  P  P4  1  0.186347  0.782922  0.695599  1
  P  P5  1  0.217078  0.813653  0.195599  1
  P  P6  1  0.782922  0.186347  0.804401  1
  P  P7  1  0.813653  0.217078  0.304401  1
  P  P8  1  0.234247  0.252459  0.518481  1
  P  P9  1  0.252459  0.234247  0.981519  1
  O  O10  1  0.590729  0.648642  0.099908  1
  O  O11  1  0.969762  0.783239  0.139801  1
  O  O12  1  0.648642  0.590729  0.400092  1
  O  O13  1  0.751173  0.696986  0.898073  1
  O  O14  1  0.308498  0.857259  0.339063  1
  O  O15  1  0.267359  0.628516  0.185249  1
  O  O16  1  0.371484  0.732641  0.685249  1
  O  O17  1  0.001036  0.719244  0.555242  1
  O  O18  1  0.142741  0.691502  0.839063  1
  O  O19  1  0.696986  0.751173  0.601927  1
  O  O20  1  0.783239  0.969762  0.360199  1
  O  O21  1  0.719244  0.001036  0.944758  1
  O  O22  1  0.280756  0.998964  0.055242  1
  O  O23  1  0.216761  0.030238  0.639801  1
  O  O24  1  0.303014  0.248827  0.398073  1
  O  O25  1  0.857259  0.308498  0.160937  1
  O  O26  1  0.998964  0.280756  0.444758  1
  O  O27  1  0.628516  0.267359  0.314751  1
  O  O28  1  0.732641  0.371484  0.814751  1
  O  O29  1  0.691502  0.142741  0.660937  1
  O  O30  1  0.248827  0.303014  0.101927  1
  O  O31  1  0.351358  0.409271  0.599908  1
  O  O32  1  0.030238  0.216761  0.860199  1
  O  O33  1  0.409271  0.351358  0.900092  1
