# generated using pymatgen
data_NaLi2MnPCO7
_symmetry_space_group_name_H-M   'P 1'
_cell_length_a   6.69945266
_cell_length_b   8.68655445
_cell_length_c   10.09877143
_cell_angle_alpha   91.51880857
_cell_angle_beta   89.99632014
_cell_angle_gamma   90.67218375
_symmetry_Int_Tables_number   1
_chemical_formula_structural   NaLi2MnPCO7
_chemical_formula_sum   'Na4 Li8 Mn4 P4 C4 O28'
_cell_volume   587.45270263
_cell_formula_units_Z   4
loop_
 _symmetry_equiv_pos_site_id
 _symmetry_equiv_pos_as_xyz
  1  'x, y, z'
loop_
 _atom_site_type_symbol
 _atom_site_label
 _atom_site_symmetry_multiplicity
 _atom_site_fract_x
 _atom_site_fract_y
 _atom_site_fract_z
 _atom_site_occupancy
  Na  Na0  1  0.256631  0.084803  0.622863  1
  Na  Na1  1  0.998708  0.249807  0.372771  1
  Na  Na2  1  0.997478  0.251652  0.876172  1
  Na  Na3  1  0.500485  0.749977  0.625287  1
  Li  Li4  1  0.265054  0.078387  0.127258  1
  Li  Li5  1  0.473196  0.272096  0.384715  1
  Li  Li6  1  0.473859  0.272380  0.888598  1
  Li  Li7  1  0.521206  0.736168  0.118936  1
  Li  Li8  1  0.976378  0.736725  0.115795  1
  Li  Li9  1  0.975287  0.728525  0.612491  1
  Li  Li10  1  0.742832  0.912944  0.369889  1
  Li  Li11  1  0.749310  0.909994  0.875523  1
  Mn  Mn12  1  0.745218  0.354270  0.113877  1
  Mn  Mn13  1  0.742703  0.360139  0.611180  1
  Mn  Mn14  1  0.246038  0.645654  0.383794  1
  Mn  Mn15  1  0.249197  0.648246  0.892835  1
  P  P16  1  0.254353  0.406891  0.148053  1
  P  P17  1  0.246296  0.414933  0.646317  1
  P  P18  1  0.744975  0.594641  0.350248  1
  P  P19  1  0.750144  0.594239  0.858114  1
  C  C20  1  0.748813  0.039093  0.133567  1
  C  C21  1  0.758068  0.044776  0.635494  1
  C  C22  1  0.259225  0.948123  0.356815  1
  C  C23  1  0.260700  0.956442  0.871583  1
  O  O24  1  0.276837  0.095766  0.339009  1
  O  O25  1  0.277555  0.102859  0.851125  1
  O  O26  1  0.753526  0.082653  0.011621  1
  O  O27  1  0.752254  0.082506  0.511837  1
  O  O28  1  0.743143  0.141503  0.230250  1
  O  O29  1  0.736662  0.150570  0.728586  1
  O  O30  1  0.062410  0.313985  0.109640  1
  O  O31  1  0.429513  0.308816  0.091223  1
  O  O32  1  0.059044  0.315093  0.609593  1
  O  O33  1  0.427266  0.326827  0.585645  1
  O  O34  1  0.271986  0.418963  0.302385  1
  O  O35  1  0.734306  0.427292  0.402206  1
  O  O36  1  0.270178  0.425438  0.800450  1
  O  O37  1  0.731931  0.427044  0.908707  1
  O  O38  1  0.255561  0.574544  0.097211  1
  O  O39  1  0.753227  0.582311  0.195120  1
  O  O40  1  0.229498  0.580705  0.594559  1
  O  O41  1  0.765977  0.582292  0.703560  1
  O  O42  1  0.564302  0.694238  0.393005  1
  O  O43  1  0.929784  0.685855  0.404214  1
  O  O44  1  0.569404  0.696288  0.899613  1
  O  O45  1  0.934041  0.683828  0.915569  1
  O  O46  1  0.243622  0.855308  0.254188  1
  O  O47  1  0.250340  0.859385  0.770788  1
  O  O48  1  0.256384  0.892122  0.474517  1
  O  O49  1  0.253061  0.905612  0.990943  1
  O  O50  1  0.748819  0.894066  0.162603  1
  O  O51  1  0.783213  0.903231  0.669655  1
