# generated using pymatgen
data_Cr5Sb3O16
_symmetry_space_group_name_H-M   'P 1'
_cell_length_a   6.06356909
_cell_length_b   6.06356909
_cell_length_c   9.07855714
_cell_angle_alpha   89.85445701
_cell_angle_beta   90.14554299
_cell_angle_gamma   119.68850172
_symmetry_Int_Tables_number   1
_chemical_formula_structural   Cr5Sb3O16
_chemical_formula_sum   'Cr5 Sb3 O16'
_cell_volume   289.97255853
_cell_formula_units_Z   1
loop_
 _symmetry_equiv_pos_site_id
 _symmetry_equiv_pos_as_xyz
  1  'x, y, z'
loop_
 _atom_site_type_symbol
 _atom_site_label
 _atom_site_symmetry_multiplicity
 _atom_site_fract_x
 _atom_site_fract_y
 _atom_site_fract_z
 _atom_site_occupancy
  Cr  Cr0  1  0.166124  0.332763  0.793807  1
  Cr  Cr1  1  0.340927  0.659073  0.516318  1
  Cr  Cr2  1  0.667237  0.833876  0.793807  1
  Cr  Cr3  1  0.830824  0.169176  0.290560  1
  Cr  Cr4  1  0.669639  0.330361  0.009671  1
  Sb  Sb5  1  0.168353  0.831647  0.788811  1
  Sb  Sb6  1  0.333652  0.169224  0.288662  1
  Sb  Sb7  1  0.830776  0.666348  0.288662  1
  O  O8  1  0.171373  0.331795  0.396633  1
  O  O9  1  0.470438  0.529562  0.671116  1
  O  O10  1  0.331894  0.668106  0.904553  1
  O  O11  1  0.999616  0.000384  0.687209  1
  O  O12  1  0.999165  0.000835  0.178161  1
  O  O13  1  0.668205  0.828627  0.396633  1
  O  O14  1  0.051483  0.519589  0.659417  1
  O  O15  1  0.480411  0.948517  0.659417  1
  O  O16  1  0.830696  0.169304  0.888072  1
  O  O17  1  0.167181  0.832819  0.398389  1
  O  O18  1  0.521593  0.048353  0.161021  1
  O  O19  1  0.951647  0.478407  0.161021  1
  O  O20  1  0.663783  0.336217  0.406913  1
  O  O21  1  0.334990  0.171648  0.895679  1
  O  O22  1  0.520690  0.479310  0.154090  1
  O  O23  1  0.828352  0.665010  0.895679  1
