# generated using pymatgen
data_Rb3CoNCl4O3
_symmetry_space_group_name_H-M   'P 1'
_cell_length_a   9.61565867
_cell_length_b   10.27788413
_cell_length_c   12.79562760
_cell_angle_alpha   90.00000000
_cell_angle_beta   90.00000000
_cell_angle_gamma   90.00000000
_symmetry_Int_Tables_number   1
_chemical_formula_structural   Rb3CoNCl4O3
_chemical_formula_sum   'Rb12 Co4 N4 Cl16 O12'
_cell_volume   1264.57428996
_cell_formula_units_Z   4
loop_
 _symmetry_equiv_pos_site_id
 _symmetry_equiv_pos_as_xyz
  1  'x, y, z'
loop_
 _atom_site_type_symbol
 _atom_site_label
 _atom_site_symmetry_multiplicity
 _atom_site_fract_x
 _atom_site_fract_y
 _atom_site_fract_z
 _atom_site_occupancy
  Rb  Rb0  1  0.881861  0.504796  0.680831  1
  Rb  Rb1  1  0.381861  0.995204  0.819169  1
  Rb  Rb2  1  0.915141  0.250000  0.966792  1
  Rb  Rb3  1  0.881861  0.995204  0.680831  1
  Rb  Rb4  1  0.618139  0.495204  0.180831  1
  Rb  Rb5  1  0.118139  0.495204  0.319169  1
  Rb  Rb6  1  0.084859  0.750000  0.033208  1
  Rb  Rb7  1  0.618139  0.004796  0.180831  1
  Rb  Rb8  1  0.584859  0.750000  0.466792  1
  Rb  Rb9  1  0.415141  0.250000  0.533208  1
  Rb  Rb10  1  0.118139  0.004796  0.319169  1
  Rb  Rb11  1  0.381861  0.504796  0.819169  1
  Co  Co12  1  0.679511  0.750000  0.908463  1
  Co  Co13  1  0.179511  0.750000  0.591537  1
  Co  Co14  1  0.820489  0.250000  0.408463  1
  Co  Co15  1  0.320489  0.250000  0.091537  1
  N  N16  1  0.659436  0.250000  0.725502  1
  N  N17  1  0.840564  0.750000  0.225502  1
  N  N18  1  0.159436  0.250000  0.774498  1
  N  N19  1  0.340564  0.750000  0.274498  1
  Cl  Cl20  1  0.198360  0.434213  0.054276  1
  Cl  Cl21  1  0.873442  0.250000  0.233074  1
  Cl  Cl22  1  0.801640  0.565787  0.945724  1
  Cl  Cl23  1  0.301640  0.934213  0.554276  1
  Cl  Cl24  1  0.301640  0.565787  0.554276  1
  Cl  Cl25  1  0.698360  0.434213  0.445724  1
  Cl  Cl26  1  0.198360  0.065787  0.054276  1
  Cl  Cl27  1  0.525078  0.250000  0.999452  1
  Cl  Cl28  1  0.801640  0.934213  0.945724  1
  Cl  Cl29  1  0.698360  0.065787  0.445724  1
  Cl  Cl30  1  0.474922  0.750000  0.000548  1
  Cl  Cl31  1  0.373442  0.250000  0.266926  1
  Cl  Cl32  1  0.025078  0.250000  0.500548  1
  Cl  Cl33  1  0.974922  0.750000  0.499452  1
  Cl  Cl34  1  0.626558  0.750000  0.733074  1
  Cl  Cl35  1  0.126558  0.750000  0.766926  1
  O  O36  1  0.599005  0.142854  0.706753  1
  O  O37  1  0.599005  0.357146  0.706753  1
  O  O38  1  0.900995  0.642854  0.206753  1
  O  O39  1  0.283296  0.250000  0.739603  1
  O  O40  1  0.716704  0.750000  0.260397  1
  O  O41  1  0.099005  0.142854  0.793247  1
  O  O42  1  0.216704  0.750000  0.239603  1
  O  O43  1  0.783296  0.250000  0.760397  1
  O  O44  1  0.400995  0.642854  0.293247  1
  O  O45  1  0.900995  0.857146  0.206753  1
  O  O46  1  0.400995  0.857146  0.293247  1
  O  O47  1  0.099005  0.357146  0.793247  1
