# generated using pymatgen
data_Li24Ti5Cr7O36
_symmetry_space_group_name_H-M   'P 1'
_cell_length_a   5.06972694
_cell_length_b   9.78922379
_cell_length_c   13.35764908
_cell_angle_alpha   97.19702759
_cell_angle_beta   100.87935359
_cell_angle_gamma   94.98820378
_symmetry_Int_Tables_number   1
_chemical_formula_structural   Li24Ti5Cr7O36
_chemical_formula_sum   'Li24 Ti5 Cr7 O36'
_cell_volume   641.70385970
_cell_formula_units_Z   1
loop_
 _symmetry_equiv_pos_site_id
 _symmetry_equiv_pos_as_xyz
  1  'x, y, z'
loop_
 _atom_site_type_symbol
 _atom_site_label
 _atom_site_symmetry_multiplicity
 _atom_site_fract_x
 _atom_site_fract_y
 _atom_site_fract_z
 _atom_site_occupancy
  Li  Li0  1  0.170805  0.000153  0.831644  1
  Li  Li1  1  0.045456  0.999776  0.613902  1
  Li  Li2  1  0.997830  0.751282  0.249776  1
  Li  Li3  1  0.334246  0.750337  0.917665  1
  Li  Li4  1  0.048931  0.499026  0.112470  1
  Li  Li5  1  0.379848  0.500231  0.778998  1
  Li  Li6  1  0.170777  0.499358  0.333680  1
  Li  Li7  1  0.500296  0.500639  0.999735  1
  Li  Li8  1  0.283963  0.500821  0.554667  1
  Li  Li9  1  0.333172  0.250024  0.417478  1
  Li  Li10  1  0.508146  0.999717  0.498236  1
  Li  Li11  1  0.280653  0.999016  0.052621  1
  Li  Li12  1  0.614363  0.998395  0.719035  1
  Li  Li13  1  0.382698  0.998438  0.280212  1
  Li  Li14  1  0.719914  0.001753  0.948254  1
  Li  Li15  1  0.665517  0.749563  0.582930  1
  Li  Li16  1  0.709552  0.499297  0.445873  1
  Li  Li17  1  0.838984  0.500192  0.664686  1
  Li  Li18  1  0.623037  0.502034  0.222361  1
  Li  Li19  1  0.949117  0.499065  0.887151  1
  Li  Li20  1  0.666106  0.250275  0.082352  1
  Li  Li21  1  0.828425  0.999629  0.167644  1
  Li  Li22  1  0.000335  0.250065  0.750165  1
  Li  Li23  1  0.949740  0.000762  0.387733  1
  Ti  Ti24  1  0.107757  0.746720  0.472590  1
  Ti  Ti25  1  0.221684  0.248430  0.191846  1
  Ti  Ti26  1  0.444221  0.248915  0.640584  1
  Ti  Ti27  1  0.778268  0.749580  0.806212  1
  Ti  Ti28  1  0.777336  0.251327  0.306410  1
  Cr  Cr29  1  0.110020  0.250314  0.968274  1
  Cr  Cr30  1  0.225676  0.750853  0.695325  1
  Cr  Cr31  1  0.559417  0.250916  0.864248  1
  Cr  Cr32  1  0.446153  0.751575  0.134950  1
  Cr  Cr33  1  0.550252  0.749498  0.358465  1
  Cr  Cr34  1  0.889434  0.249927  0.527495  1
  Cr  Cr35  1  0.893872  0.750826  0.030864  1
  O  O36  1  0.000930  0.862580  0.931166  1
  O  O37  1  0.073961  0.635083  0.784863  1
  O  O38  1  0.004085  0.363180  0.430114  1
  O  O39  1  0.141830  0.362329  0.643958  1
  O  O40  1  0.258121  0.364876  0.883369  1
  O  O41  1  0.332968  0.863028  0.597654  1
  O  O42  1  0.068987  0.133600  0.284636  1
  O  O43  1  0.183063  0.137442  0.522793  1
  O  O44  1  0.409077  0.136069  0.949081  1
  O  O45  1  0.135605  0.862129  0.141213  1
  O  O46  1  0.270248  0.864511  0.380787  1
  O  O47  1  0.472791  0.862601  0.810424  1
  O  O48  1  0.335094  0.137311  0.739603  1
  O  O49  1  0.197513  0.637190  0.026637  1
  O  O50  1  0.399387  0.633259  0.451960  1
  O  O51  1  0.521026  0.636837  0.690100  1
  O  O52  1  0.337144  0.640234  0.238575  1
  O  O53  1  0.667826  0.637162  0.906384  1
  O  O54  1  0.332833  0.362238  0.093286  1
  O  O55  1  0.666836  0.363117  0.764121  1
  O  O56  1  0.476694  0.363866  0.310110  1
  O  O57  1  0.603070  0.363942  0.547717  1
  O  O58  1  0.802970  0.362623  0.974590  1
  O  O59  1  0.664850  0.862107  0.258677  1
  O  O60  1  0.522774  0.135763  0.189354  1
  O  O61  1  0.737920  0.134224  0.619248  1
  O  O62  1  0.864913  0.138037  0.859237  1
  O  O63  1  0.592283  0.865370  0.049660  1
  O  O64  1  0.806255  0.861795  0.474558  1
  O  O65  1  0.929975  0.865730  0.715143  1
  O  O66  1  0.663737  0.137622  0.406128  1
  O  O67  1  0.742887  0.636021  0.116064  1
  O  O68  1  0.852105  0.637567  0.355441  1
  O  O69  1  0.997478  0.637643  0.572983  1
  O  O70  1  0.929881  0.366802  0.215021  1
  O  O71  1  0.996888  0.137385  0.068811  1
