# generated using pymatgen
data_Nb3Co(PO4)6
_symmetry_space_group_name_H-M   'P 1'
_cell_length_a   8.91444376
_cell_length_b   8.91444376
_cell_length_c   8.91444376
_cell_angle_alpha   58.46254564
_cell_angle_beta   58.46254564
_cell_angle_gamma   58.46254564
_symmetry_Int_Tables_number   1
_chemical_formula_structural   Nb3Co(PO4)6
_chemical_formula_sum   'Nb3 Co1 P6 O24'
_cell_volume   483.29795926
_cell_formula_units_Z   1
loop_
 _symmetry_equiv_pos_site_id
 _symmetry_equiv_pos_as_xyz
  1  'x, y, z'
loop_
 _atom_site_type_symbol
 _atom_site_label
 _atom_site_symmetry_multiplicity
 _atom_site_fract_x
 _atom_site_fract_y
 _atom_site_fract_z
 _atom_site_occupancy
  Nb  Nb0  1  0.859940  0.859940  0.859940  1
  Nb  Nb1  1  0.641670  0.641670  0.641670  1
  Nb  Nb2  1  0.361373  0.361373  0.361373  1
  Co  Co3  1  0.144231  0.144231  0.144231  1
  P  P4  1  0.249516  0.522997  0.970251  1
  P  P5  1  0.970251  0.249516  0.522997  1
  P  P6  1  0.522997  0.970251  0.249516  1
  P  P7  1  0.455237  0.035259  0.764659  1
  P  P8  1  0.035259  0.764659  0.455237  1
  P  P9  1  0.764659  0.455237  0.035259  1
  O  O10  1  0.722140  0.495604  0.866649  1
  O  O11  1  0.495604  0.866649  0.722140  1
  O  O12  1  0.080204  0.707483  0.939883  1
  O  O13  1  0.866649  0.722140  0.495604  1
  O  O14  1  0.420592  0.560809  0.790870  1
  O  O15  1  0.224294  0.357823  0.990070  1
  O  O16  1  0.939883  0.080204  0.707483  1
  O  O17  1  0.790870  0.420592  0.560809  1
  O  O18  1  0.560809  0.790870  0.420592  1
  O  O19  1  0.633912  0.004487  0.782308  1
  O  O20  1  0.279095  0.059705  0.931444  1
  O  O21  1  0.004487  0.782308  0.633912  1
  O  O22  1  0.990070  0.224294  0.357823  1
  O  O23  1  0.707483  0.939883  0.080204  1
  O  O24  1  0.357823  0.990070  0.224294  1
  O  O25  1  0.436586  0.210168  0.583234  1
  O  O26  1  0.210168  0.583234  0.436586  1
  O  O27  1  0.059705  0.931444  0.279095  1
  O  O28  1  0.782308  0.633912  0.004487  1
  O  O29  1  0.583234  0.436586  0.210168  1
  O  O30  1  0.136559  0.280019  0.500930  1
  O  O31  1  0.931444  0.279095  0.059705  1
  O  O32  1  0.500930  0.136559  0.280019  1
  O  O33  1  0.280019  0.500930  0.136559  1
