# generated using pymatgen
data_Li3CuPO5
_symmetry_space_group_name_H-M   'P 1'
_cell_length_a   5.02822819
_cell_length_b   5.35379167
_cell_length_c   15.78701762
_cell_angle_alpha   90.00000000
_cell_angle_beta   90.00000000
_cell_angle_gamma   90.00000000
_symmetry_Int_Tables_number   1
_chemical_formula_structural   Li3CuPO5
_chemical_formula_sum   'Li12 Cu4 P4 O20'
_cell_volume   424.98787515
_cell_formula_units_Z   4
loop_
 _symmetry_equiv_pos_site_id
 _symmetry_equiv_pos_as_xyz
  1  'x, y, z'
loop_
 _atom_site_type_symbol
 _atom_site_label
 _atom_site_symmetry_multiplicity
 _atom_site_fract_x
 _atom_site_fract_y
 _atom_site_fract_z
 _atom_site_occupancy
  Li  Li0  1  0.001654  0.663323  0.596259  1
  Li  Li1  1  0.001654  0.163323  0.903741  1
  Li  Li2  1  0.500878  0.329633  0.998007  1
  Li  Li3  1  0.500878  0.829633  0.501993  1
  Li  Li4  1  0.497490  0.333327  0.800292  1
  Li  Li5  1  0.497490  0.833327  0.699708  1
  Li  Li6  1  0.501654  0.336677  0.403741  1
  Li  Li7  1  0.501654  0.836677  0.096259  1
  Li  Li8  1  0.000878  0.670367  0.001993  1
  Li  Li9  1  0.000878  0.170367  0.498007  1
  Li  Li10  1  0.997490  0.166673  0.300292  1
  Li  Li11  1  0.997490  0.666673  0.199708  1
  Cu  Cu12  1  0.008542  0.165664  0.706127  1
  Cu  Cu13  1  0.008542  0.665664  0.793873  1
  Cu  Cu14  1  0.508542  0.334336  0.206127  1
  Cu  Cu15  1  0.508542  0.834336  0.293873  1
  P  P16  1  0.997201  0.164014  0.097845  1
  P  P17  1  0.997201  0.664014  0.402155  1
  P  P18  1  0.497201  0.335986  0.597845  1
  P  P19  1  0.497201  0.835986  0.902155  1
  O  O20  1  0.108806  0.335794  0.803617  1
  O  O21  1  0.108806  0.835794  0.696383  1
  O  O22  1  0.099855  0.390837  0.401189  1
  O  O23  1  0.099855  0.890837  0.098811  1
  O  O24  1  0.103246  0.308772  0.018867  1
  O  O25  1  0.103246  0.808772  0.481133  1
  O  O26  1  0.091797  0.299260  0.180712  1
  O  O27  1  0.091797  0.799260  0.319288  1
  O  O28  1  0.185531  0.332255  0.595607  1
  O  O29  1  0.185531  0.832255  0.904393  1
  O  O30  1  0.608806  0.164206  0.303617  1
  O  O31  1  0.608806  0.664206  0.196383  1
  O  O32  1  0.599855  0.609163  0.598811  1
  O  O33  1  0.599855  0.109163  0.901189  1
  O  O34  1  0.603246  0.191228  0.518867  1
  O  O35  1  0.603246  0.691228  0.981133  1
  O  O36  1  0.591797  0.200740  0.680712  1
  O  O37  1  0.591797  0.700740  0.819288  1
  O  O38  1  0.685531  0.167745  0.095607  1
  O  O39  1  0.685531  0.667745  0.404393  1
