# generated using pymatgen
data_CoOF
_symmetry_space_group_name_H-M   'P 1'
_cell_length_a   4.64711249
_cell_length_b   2.94868363
_cell_length_c   18.50953299
_cell_angle_alpha   90.00000000
_cell_angle_beta   96.62234656
_cell_angle_gamma   90.00000000
_symmetry_Int_Tables_number   1
_chemical_formula_structural   CoOF
_chemical_formula_sum   'Co8 O8 F8'
_cell_volume   251.94134451
_cell_formula_units_Z   8
loop_
 _symmetry_equiv_pos_site_id
 _symmetry_equiv_pos_as_xyz
  1  'x, y, z'
loop_
 _atom_site_type_symbol
 _atom_site_label
 _atom_site_symmetry_multiplicity
 _atom_site_fract_x
 _atom_site_fract_y
 _atom_site_fract_z
 _atom_site_occupancy
  Co  Co0  1  0.950452  0.000000  0.001669  1
  Co  Co1  1  0.989200  0.000000  0.750460  1
  Co  Co2  1  0.002447  0.000000  0.499531  1
  Co  Co3  1  0.028859  0.000000  0.248396  1
  Co  Co4  1  0.480854  0.500000  0.877687  1
  Co  Co5  1  0.496281  0.500000  0.624537  1
  Co  Co6  1  0.510215  0.500000  0.373662  1
  Co  Co7  1  0.556379  0.500000  0.123881  1
  O  O8  1  0.791612  0.500000  0.045177  1
  O  O9  1  0.661980  0.000000  0.926781  1
  O  O10  1  0.696244  0.000000  0.422407  1
  O  O11  1  0.743797  0.000000  0.173141  1
  O  O12  1  0.684692  0.000000  0.672219  1
  O  O13  1  0.289888  0.000000  0.829193  1
  O  O14  1  0.309143  0.000000  0.576667  1
  O  O15  1  0.322393  0.000000  0.325766  1
  F  F16  1  0.794000  0.500000  0.799718  1
  F  F17  1  0.807266  0.500000  0.548254  1
  F  F18  1  0.830863  0.500000  0.296426  1
  F  F19  1  0.294350  0.000000  0.075418  1
  F  F20  1  0.141332  0.500000  0.954965  1
  F  F21  1  0.184869  0.500000  0.701546  1
  F  F22  1  0.198879  0.500000  0.451122  1
  F  F23  1  0.234003  0.500000  0.201377  1
