# generated using pymatgen
data_Li2VF4
_symmetry_space_group_name_H-M   'P 1'
_cell_length_a   6.09234288
_cell_length_b   6.09234288
_cell_length_c   6.09234288
_cell_angle_alpha   120.95200162
_cell_angle_beta   117.95348189
_cell_angle_gamma   90.96981360
_symmetry_Int_Tables_number   1
_chemical_formula_structural   Li2VF4
_chemical_formula_sum   'Li4 V2 F8'
_cell_volume   161.05862983
_cell_formula_units_Z   2
loop_
 _symmetry_equiv_pos_site_id
 _symmetry_equiv_pos_as_xyz
  1  'x, y, z'
loop_
 _atom_site_type_symbol
 _atom_site_label
 _atom_site_symmetry_multiplicity
 _atom_site_fract_x
 _atom_site_fract_y
 _atom_site_fract_z
 _atom_site_occupancy
  Li  Li0  1  0.115789  0.865789  0.250000  1
  Li  Li1  1  0.500000  0.000000  0.000000  1
  Li  Li2  1  0.884211  0.134211  0.750000  1
  Li  Li3  1  0.500000  0.500000  0.500000  1
  V  V4  1  0.500000  0.500000  0.000000  1
  V  V5  1  0.000000  0.500000  0.500000  1
  F  F6  1  0.746703  0.734449  0.487746  1
  F  F7  1  0.272648  0.254509  0.018139  1
  F  F8  1  0.736370  0.254509  0.481861  1
  F  F9  1  0.746703  0.258957  0.012254  1
  F  F10  1  0.253297  0.741043  0.987746  1
  F  F11  1  0.263630  0.745491  0.518139  1
  F  F12  1  0.727352  0.745491  0.981861  1
  F  F13  1  0.253297  0.265551  0.512254  1
