# generated using pymatgen
data_BaLi2NiO3
_symmetry_space_group_name_H-M   'P 1'
_cell_length_a   5.43754326
_cell_length_b   13.75532410
_cell_length_c   11.19042270
_cell_angle_alpha   90.00000000
_cell_angle_beta   109.21870766
_cell_angle_gamma   90.00000000
_symmetry_Int_Tables_number   1
_chemical_formula_structural   BaLi2NiO3
_chemical_formula_sum   'Ba8 Li16 Ni8 O24'
_cell_volume   790.34325240
_cell_formula_units_Z   8
loop_
 _symmetry_equiv_pos_site_id
 _symmetry_equiv_pos_as_xyz
  1  'x, y, z'
loop_
 _atom_site_type_symbol
 _atom_site_label
 _atom_site_symmetry_multiplicity
 _atom_site_fract_x
 _atom_site_fract_y
 _atom_site_fract_z
 _atom_site_occupancy
  Ba  Ba0  1  0.307833  0.393545  0.074396  1
  Ba  Ba1  1  0.952288  0.199765  0.178281  1
  Ba  Ba2  1  0.047712  0.699765  0.321719  1
  Ba  Ba3  1  0.692167  0.893545  0.425604  1
  Ba  Ba4  1  0.307833  0.106455  0.574396  1
  Ba  Ba5  1  0.952288  0.300235  0.678281  1
  Ba  Ba6  1  0.047712  0.800235  0.821719  1
  Ba  Ba7  1  0.692167  0.606455  0.925604  1
  Li  Li8  1  0.250978  0.667730  0.089438  1
  Li  Li9  1  0.767108  0.991611  0.019602  1
  Li  Li10  1  0.227924  0.857399  0.124398  1
  Li  Li11  1  0.494273  0.063736  0.183323  1
  Li  Li12  1  0.505727  0.563736  0.316677  1
  Li  Li13  1  0.772076  0.357399  0.375602  1
  Li  Li14  1  0.749022  0.167730  0.410562  1
  Li  Li15  1  0.767108  0.508389  0.519602  1
  Li  Li16  1  0.232892  0.491611  0.480398  1
  Li  Li17  1  0.250978  0.832270  0.589438  1
  Li  Li18  1  0.227924  0.642601  0.624398  1
  Li  Li19  1  0.494273  0.436264  0.683323  1
  Li  Li20  1  0.505727  0.936264  0.816677  1
  Li  Li21  1  0.772076  0.142601  0.875602  1
  Li  Li22  1  0.232892  0.008389  0.980398  1
  Li  Li23  1  0.749022  0.332270  0.910562  1
  Ni  Ni24  1  0.655641  0.808685  0.082678  1
  Ni  Ni25  1  0.931441  0.476370  0.211278  1
  Ni  Ni26  1  0.068559  0.976370  0.288722  1
  Ni  Ni27  1  0.344359  0.308685  0.417322  1
  Ni  Ni28  1  0.655641  0.691315  0.582678  1
  Ni  Ni29  1  0.931441  0.023630  0.711278  1
  Ni  Ni30  1  0.068559  0.523630  0.788722  1
  Ni  Ni31  1  0.344359  0.191315  0.917322  1
  O  O32  1  0.553785  0.103146  0.028083  1
  O  O33  1  0.953013  0.760102  0.059478  1
  O  O34  1  0.529285  0.764624  0.210352  1
  O  O35  1  0.796008  0.382148  0.089260  1
  O  O36  1  0.158574  0.999296  0.145548  1
  O  O37  1  0.182857  0.554355  0.180704  1
  O  O38  1  0.470715  0.264624  0.289648  1
  O  O39  1  0.817143  0.054355  0.319296  1
  O  O40  1  0.841426  0.499296  0.354452  1
  O  O41  1  0.203992  0.882148  0.410740  1
  O  O42  1  0.553785  0.396854  0.528083  1
  O  O43  1  0.046987  0.260102  0.440522  1
  O  O44  1  0.953013  0.739898  0.559478  1
  O  O45  1  0.446215  0.603146  0.471917  1
  O  O46  1  0.796008  0.117852  0.589260  1
  O  O47  1  0.158574  0.500704  0.645548  1
  O  O48  1  0.182857  0.945645  0.680704  1
  O  O49  1  0.529285  0.735376  0.710352  1
  O  O50  1  0.817143  0.445645  0.819296  1
  O  O51  1  0.841426  0.000704  0.854452  1
  O  O52  1  0.203992  0.617852  0.910740  1
  O  O53  1  0.470715  0.235376  0.789648  1
  O  O54  1  0.046987  0.239898  0.940522  1
  O  O55  1  0.446215  0.896854  0.971917  1
