# generated using pymatgen
data_CrFe3Co2(PO4)6
_symmetry_space_group_name_H-M   'P 1'
_cell_length_a   8.41403363
_cell_length_b   8.41403363
_cell_length_c   8.41403363
_cell_angle_alpha   61.82409595
_cell_angle_beta   61.82409595
_cell_angle_gamma   61.82409595
_symmetry_Int_Tables_number   1
_chemical_formula_structural   CrFe3Co2(PO4)6
_chemical_formula_sum   'Cr1 Fe3 Co2 P6 O24'
_cell_volume   438.41646914
_cell_formula_units_Z   1
loop_
 _symmetry_equiv_pos_site_id
 _symmetry_equiv_pos_as_xyz
  1  'x, y, z'
loop_
 _atom_site_type_symbol
 _atom_site_label
 _atom_site_symmetry_multiplicity
 _atom_site_fract_x
 _atom_site_fract_y
 _atom_site_fract_z
 _atom_site_occupancy
  Cr  Cr0  1  0.141603  0.141603  0.141603  1
  Fe  Fe1  1  0.645305  0.645305  0.645305  1
  Fe  Fe2  1  0.855013  0.855013  0.855013  1
  Fe  Fe3  1  0.355342  0.355342  0.355342  1
  Co  Co4  1  0.998185  0.998185  0.998185  1
  Co  Co5  1  0.500216  0.500216  0.500216  1
  P  P6  1  0.954550  0.250159  0.543755  1
  P  P7  1  0.543755  0.954550  0.250159  1
  P  P8  1  0.250159  0.543755  0.954550  1
  P  P9  1  0.751257  0.453024  0.048166  1
  P  P10  1  0.453024  0.048166  0.751257  1
  P  P11  1  0.048166  0.751257  0.453024  1
  O  O12  1  0.503379  0.108670  0.322977  1
  O  O13  1  0.322977  0.503379  0.108670  1
  O  O14  1  0.108670  0.322977  0.503379  1
  O  O15  1  0.939580  0.094444  0.745874  1
  O  O16  1  0.997117  0.179343  0.387070  1
  O  O17  1  0.752203  0.405088  0.558887  1
  O  O18  1  0.745874  0.939580  0.094444  1
  O  O19  1  0.558887  0.752203  0.405088  1
  O  O20  1  0.823865  0.608121  0.005354  1
  O  O21  1  0.405088  0.558887  0.752203  1
  O  O22  1  0.908340  0.251195  0.063076  1
  O  O23  1  0.608121  0.005354  0.823865  1
  O  O24  1  0.387070  0.997117  0.179343  1
  O  O25  1  0.094444  0.745874  0.939580  1
  O  O26  1  0.596005  0.437624  0.249625  1
  O  O27  1  0.179343  0.387070  0.997117  1
  O  O28  1  0.437624  0.249625  0.596005  1
  O  O29  1  0.251195  0.063076  0.908340  1
  O  O30  1  0.249625  0.596005  0.437624  1
  O  O31  1  0.005354  0.823865  0.608121  1
  O  O32  1  0.063076  0.908340  0.251195  1
  O  O33  1  0.892073  0.681134  0.492391  1
  O  O34  1  0.681134  0.492391  0.892073  1
  O  O35  1  0.492391  0.892073  0.681134  1
