# generated using pymatgen
data_CoPH6O6F
_symmetry_space_group_name_H-M   'P 1'
_cell_length_a   4.85266616
_cell_length_b   5.66390255
_cell_length_c   10.39606086
_cell_angle_alpha   96.25280872
_cell_angle_beta   99.58763448
_cell_angle_gamma   92.04161494
_symmetry_Int_Tables_number   1
_chemical_formula_structural   CoPH6O6F
_chemical_formula_sum   'Co2 P2 H12 O12 F2'
_cell_volume   279.64709384
_cell_formula_units_Z   2
loop_
 _symmetry_equiv_pos_site_id
 _symmetry_equiv_pos_as_xyz
  1  'x, y, z'
loop_
 _atom_site_type_symbol
 _atom_site_label
 _atom_site_symmetry_multiplicity
 _atom_site_fract_x
 _atom_site_fract_y
 _atom_site_fract_z
 _atom_site_occupancy
  Co  Co0  1  0.000000  0.000000  0.000000  1
  Co  Co1  1  0.500000  0.000000  0.500000  1
  P  P2  1  0.072111  0.838815  0.695067  1
  P  P3  1  0.927889  0.161185  0.304933  1
  H  H4  1  0.506079  0.770087  0.895983  1
  H  H5  1  0.493921  0.229913  0.104017  1
  H  H6  1  0.724032  0.563810  0.926402  1
  H  H7  1  0.275968  0.436190  0.073598  1
  H  H8  1  0.227268  0.796245  0.206562  1
  H  H9  1  0.772732  0.203755  0.793438  1
  H  H10  1  0.459048  0.808825  0.117407  1
  H  H11  1  0.540952  0.191175  0.882593  1
  H  H12  1  0.628782  0.534306  0.400876  1
  H  H13  1  0.371218  0.465694  0.599124  1
  H  H14  1  0.854586  0.739080  0.394970  1
  H  H15  1  0.145414  0.260920  0.605030  1
  O  O16  1  0.205794  0.892124  0.841337  1
  O  O17  1  0.794206  0.107876  0.158663  1
  O  O18  1  0.283549  0.777623  0.605877  1
  O  O19  1  0.716451  0.222377  0.394123  1
  O  O20  1  0.867649  0.026352  0.652160  1
  O  O21  1  0.132351  0.973648  0.347840  1
  O  O22  1  0.688417  0.733363  0.949273  1
  O  O23  1  0.311583  0.266637  0.050727  1
  O  O24  1  0.261928  0.755885  0.115058  1
  O  O25  1  0.738072  0.244115  0.884942  1
  O  O26  1  0.653413  0.707544  0.395564  1
  O  O27  1  0.346587  0.292456  0.604436  1
  F  F28  1  0.888972  0.595554  0.687601  1
  F  F29  1  0.111028  0.404446  0.312399  1
