# generated using pymatgen
data_LiFeSiO4
_symmetry_space_group_name_H-M   'P 1'
_cell_length_a   5.69458631
_cell_length_b   5.69458631
_cell_length_c   5.69458631
_cell_angle_alpha   120.97307752
_cell_angle_beta   117.43370055
_cell_angle_gamma   91.41207410
_symmetry_Int_Tables_number   1
_chemical_formula_structural   LiFeSiO4
_chemical_formula_sum   'Li2 Fe2 Si2 O8'
_cell_volume   131.95440111
_cell_formula_units_Z   2
loop_
 _symmetry_equiv_pos_site_id
 _symmetry_equiv_pos_as_xyz
  1  'x, y, z'
loop_
 _atom_site_type_symbol
 _atom_site_label
 _atom_site_symmetry_multiplicity
 _atom_site_fract_x
 _atom_site_fract_y
 _atom_site_fract_z
 _atom_site_occupancy
  Li  Li0  1  0.500000  1.000000  0.500000  1
  Li  Li1  1  0.500000  0.500000  0.000000  1
  Fe  Fe2  1  0.000000  0.500000  0.000000  1
  Fe  Fe3  1  0.500000  0.500000  0.500000  1
  Si  Si4  1  0.883582  0.133582  0.250000  1
  Si  Si5  1  0.116418  0.866418  0.750000  1
  O  O6  1  0.766704  0.248999  0.017705  1
  O  O7  1  0.231293  0.248999  0.482295  1
  O  O8  1  0.756316  0.248962  0.492646  1
  O  O9  1  0.756316  0.763669  0.007354  1
  O  O10  1  0.243684  0.236331  0.992646  1
  O  O11  1  0.243684  0.751038  0.507354  1
  O  O12  1  0.768707  0.751001  0.517705  1
  O  O13  1  0.233296  0.751001  0.982295  1
