# generated using pymatgen
data_Li3La8Ti9Cr3O36
_symmetry_space_group_name_H-M   'P 1'
_cell_length_a   5.51468046
_cell_length_b   5.51730902
_cell_length_c   23.28630965
_cell_angle_alpha   90.04331090
_cell_angle_beta   90.01281003
_cell_angle_gamma   90.00696469
_symmetry_Int_Tables_number   1
_chemical_formula_structural   Li3La8Ti9Cr3O36
_chemical_formula_sum   'Li3 La8 Ti9 Cr3 O36'
_cell_volume   708.51360256
_cell_formula_units_Z   1
loop_
 _symmetry_equiv_pos_site_id
 _symmetry_equiv_pos_as_xyz
  1  'x, y, z'
loop_
 _atom_site_type_symbol
 _atom_site_label
 _atom_site_symmetry_multiplicity
 _atom_site_fract_x
 _atom_site_fract_y
 _atom_site_fract_z
 _atom_site_occupancy
  Li  Li0  1  0.995440  0.019899  0.747550  1
  Li  Li1  1  0.505124  0.512061  0.912326  1
  Li  Li2  1  0.504084  0.519604  0.583250  1
  La  La3  1  0.000002  0.004609  0.084030  1
  La  La4  1  0.499873  0.501608  0.249013  1
  La  La5  1  0.497585  0.496127  0.423151  1
  La  La6  1  0.500273  0.491461  0.080110  1
  La  La7  1  0.499522  0.493253  0.749450  1
  La  La8  1  0.000809  0.993590  0.914355  1
  La  La9  1  0.001250  0.989528  0.582293  1
  La  La10  1  0.999928  0.992523  0.251937  1
  Ti  Ti11  1  0.500162  0.009265  0.834172  1
  Ti  Ti12  1  0.500127  0.009683  0.502976  1
  Ti  Ti13  1  0.500722  0.002741  0.667933  1
  Ti  Ti14  1  0.499577  0.999306  0.338945  1
  Ti  Ti15  1  0.000258  0.503497  0.995167  1
  Ti  Ti16  1  0.000374  0.503553  0.666276  1
  Ti  Ti17  1  0.999996  0.508636  0.830591  1
  Ti  Ti18  1  0.999317  0.496999  0.339749  1
  Ti  Ti19  1  0.999445  0.500044  0.501861  1
  Cr  Cr20  1  0.499972  0.999580  0.166537  1
  Cr  Cr21  1  0.500294  0.002163  0.997113  1
  Cr  Cr22  1  0.999975  0.499952  0.166738  1
  O  O23  1  0.999942  0.595697  0.749892  1
  O  O24  1  0.002403  0.566116  0.417594  1
  O  O25  1  0.001192  0.570200  0.081985  1
  O  O26  1  0.252226  0.741270  0.651442  1
  O  O27  1  0.244916  0.749030  0.986602  1
  O  O28  1  0.253265  0.739827  0.848387  1
  O  O29  1  0.254639  0.740995  0.515397  1
  O  O30  1  0.246326  0.753663  0.181349  1
  O  O31  1  0.254187  0.748343  0.318999  1
  O  O32  1  0.245951  0.242318  0.817469  1
  O  O33  1  0.253120  0.249639  0.489322  1
  O  O34  1  0.246271  0.242564  0.682366  1
  O  O35  1  0.253359  0.253275  0.151993  1
  O  O36  1  0.260039  0.263484  0.342745  1
  O  O37  1  0.242654  0.245996  0.014028  1
  O  O38  1  0.499522  0.093339  0.913769  1
  O  O39  1  0.499312  0.088319  0.584344  1
  O  O40  1  0.499203  0.068605  0.250905  1
  O  O41  1  0.500798  0.918705  0.749285  1
  O  O42  1  0.499761  0.928535  0.416994  1
  O  O43  1  0.501643  0.920266  0.082065  1
  O  O44  1  0.745508  0.739854  0.651237  1
  O  O45  1  0.755025  0.748622  0.986586  1
  O  O46  1  0.745086  0.738602  0.848547  1
  O  O47  1  0.745794  0.748903  0.319086  1
  O  O48  1  0.744801  0.741019  0.515371  1
  O  O49  1  0.751885  0.752050  0.181344  1
  O  O50  1  0.754711  0.240835  0.682559  1
  O  O51  1  0.755270  0.240657  0.817206  1
  O  O52  1  0.738944  0.264032  0.343014  1
  O  O53  1  0.757875  0.246060  0.014175  1
  O  O54  1  0.745831  0.250137  0.489009  1
  O  O55  1  0.748421  0.251558  0.152004  1
  O  O56  1  0.998383  0.419373  0.584187  1
  O  O57  1  0.997982  0.422078  0.915582  1
  O  O58  1  0.998746  0.426253  0.250971  1
