# generated using pymatgen
data_Li8Mn7Fe(BO3)8
_symmetry_space_group_name_H-M   'P 1'
_cell_length_a   5.18579493
_cell_length_b   6.04356614
_cell_length_c   17.87925058
_cell_angle_alpha   84.17320666
_cell_angle_beta   82.84853948
_cell_angle_gamma   66.84564649
_symmetry_Int_Tables_number   1
_chemical_formula_structural   Li8Mn7Fe(BO3)8
_chemical_formula_sum   'Li8 Mn7 Fe1 B8 O24'
_cell_volume   510.35396997
_cell_formula_units_Z   1
loop_
 _symmetry_equiv_pos_site_id
 _symmetry_equiv_pos_as_xyz
  1  'x, y, z'
loop_
 _atom_site_type_symbol
 _atom_site_label
 _atom_site_symmetry_multiplicity
 _atom_site_fract_x
 _atom_site_fract_y
 _atom_site_fract_z
 _atom_site_occupancy
  Li  Li0  1  0.752068  0.169223  0.157811  1
  Li  Li1  1  0.747851  0.078980  0.591975  1
  Li  Li2  1  0.247887  0.329195  0.341082  1
  Li  Li3  1  0.252121  0.420894  0.908184  1
  Li  Li4  1  0.747208  0.579445  0.092015  1
  Li  Li5  1  0.752114  0.671021  0.658033  1
  Li  Li6  1  0.252375  0.921118  0.407872  1
  Li  Li7  1  0.247540  0.828765  0.842338  1
  Mn  Mn8  1  0.286697  0.171930  0.063716  1
  Mn  Mn9  1  0.213388  0.078541  0.686586  1
  Mn  Mn10  1  0.713540  0.327986  0.436801  1
  Mn  Mn11  1  0.786611  0.421412  0.813442  1
  Mn  Mn12  1  0.286581  0.671507  0.563373  1
  Mn  Mn13  1  0.788954  0.919498  0.312640  1
  Mn  Mn14  1  0.712861  0.828708  0.936695  1
  Fe  Fe15  1  0.222044  0.574979  0.186495  1
  B  B16  1  0.270870  0.031203  0.231752  1
  B  B17  1  0.228887  0.219314  0.517995  1
  B  B18  1  0.727431  0.470330  0.267813  1
  B  B19  1  0.228332  0.718948  0.019339  1
  B  B20  1  0.771017  0.280989  0.981959  1
  B  B21  1  0.271003  0.530893  0.731912  1
  B  B22  1  0.771062  0.780848  0.481785  1
  B  B23  1  0.728893  0.969154  0.768090  1
  O  O24  1  0.116944  0.099092  0.575130  1
  O  O25  1  0.381971  0.152560  0.174730  1
  O  O26  1  0.641609  0.006732  0.696264  1
  O  O27  1  0.141687  0.257082  0.446102  1
  O  O28  1  0.858368  0.244082  0.053797  1
  O  O29  1  0.941458  0.043063  0.783188  1
  O  O30  1  0.441330  0.293223  0.533170  1
  O  O31  1  0.618261  0.350446  0.325439  1
  O  O32  1  0.116952  0.600271  0.077414  1
  O  O33  1  0.558610  0.206769  0.966958  1
  O  O34  1  0.058667  0.456679  0.716843  1
  O  O35  1  0.631255  0.509825  0.196668  1
  O  O36  1  0.358216  0.493451  0.803789  1
  O  O37  1  0.942993  0.543159  0.280124  1
  O  O38  1  0.441856  0.793138  0.033228  1
  O  O39  1  0.883118  0.400771  0.924771  1
  O  O40  1  0.382875  0.651124  0.674795  1
  O  O41  1  0.558617  0.706656  0.466816  1
  O  O42  1  0.060010  0.955615  0.216638  1
  O  O43  1  0.140480  0.754598  0.947498  1
  O  O44  1  0.858345  0.743532  0.553640  1
  O  O45  1  0.359278  0.993486  0.303545  1
  O  O46  1  0.616844  0.849041  0.825260  1
  O  O47  1  0.882921  0.900725  0.424488  1
