# generated using pymatgen
data_Na3Li5Mn5O9
_symmetry_space_group_name_H-M   'P 1'
_cell_length_a   5.89281795
_cell_length_b   5.90764997
_cell_length_c   9.04844080
_cell_angle_alpha   78.21080655
_cell_angle_beta   83.11683747
_cell_angle_gamma   60.12562331
_symmetry_Int_Tables_number   1
_chemical_formula_structural   Na3Li5Mn5O9
_chemical_formula_sum   'Na3 Li5 Mn5 O9'
_cell_volume   267.32094012
_cell_formula_units_Z   1
loop_
 _symmetry_equiv_pos_site_id
 _symmetry_equiv_pos_as_xyz
  1  'x, y, z'
loop_
 _atom_site_type_symbol
 _atom_site_label
 _atom_site_symmetry_multiplicity
 _atom_site_fract_x
 _atom_site_fract_y
 _atom_site_fract_z
 _atom_site_occupancy
  Na  Na0  1  0.079020  0.467840  0.433544  1
  Na  Na1  1  0.394031  0.770277  0.426311  1
  Na  Na2  1  0.727550  0.120859  0.440561  1
  Li  Li3  1  0.016251  0.922126  0.181322  1
  Li  Li4  1  0.387547  0.406150  0.652130  1
  Li  Li5  1  0.709238  0.732740  0.636226  1
  Li  Li6  1  0.064445  0.066315  0.625970  1
  Li  Li7  1  0.368596  0.618387  0.034660  1
  Mn  Mn8  1  0.018705  0.682675  0.851676  1
  Mn  Mn9  1  0.414550  0.170905  0.180553  1
  Mn  Mn10  1  0.772404  0.521202  0.181317  1
  Mn  Mn11  1  0.372470  0.023481  0.855169  1
  Mn  Mn12  1  0.745165  0.306226  0.855496  1
  O  O13  1  0.077770  0.166403  0.273802  1
  O  O14  1  0.425130  0.492703  0.244531  1
  O  O15  1  0.739616  0.832471  0.270649  1
  O  O16  1  0.388854  0.079002  0.626423  1
  O  O17  1  0.725447  0.397842  0.626376  1
  O  O18  1  0.051388  0.738587  0.622707  1
  O  O19  1  0.374943  0.335775  0.935679  1
  O  O20  1  0.688473  0.642963  0.939874  1
  O  O21  1  0.065000  0.951175  0.950155  1
