# generated using pymatgen
data_Mn(IO3)2
_symmetry_space_group_name_H-M   'P 1'
_cell_length_a   6.86257616
_cell_length_b   11.30133040
_cell_length_c   8.37963761
_cell_angle_alpha   90.00000000
_cell_angle_beta   122.09557943
_cell_angle_gamma   90.00000000
_symmetry_Int_Tables_number   1
_chemical_formula_structural   Mn(IO3)2
_chemical_formula_sum   'Mn4 I8 O24'
_cell_volume   550.56541159
_cell_formula_units_Z   4
loop_
 _symmetry_equiv_pos_site_id
 _symmetry_equiv_pos_as_xyz
  1  'x, y, z'
loop_
 _atom_site_type_symbol
 _atom_site_label
 _atom_site_symmetry_multiplicity
 _atom_site_fract_x
 _atom_site_fract_y
 _atom_site_fract_z
 _atom_site_occupancy
  Mn  Mn0  1  0.185240  0.898880  0.981147  1
  Mn  Mn1  1  0.814760  0.398880  0.518853  1
  Mn  Mn2  1  0.185240  0.601120  0.481147  1
  Mn  Mn3  1  0.814760  0.101120  0.018853  1
  I  I4  1  0.337087  0.211730  0.062037  1
  I  I5  1  0.662913  0.711730  0.437963  1
  I  I6  1  0.772721  0.078272  0.534722  1
  I  I7  1  0.227279  0.578272  0.965278  1
  I  I8  1  0.772721  0.421728  0.034722  1
  I  I9  1  0.227279  0.921728  0.465278  1
  I  I10  1  0.337087  0.288270  0.562037  1
  I  I11  1  0.662913  0.788270  0.937963  1
  O  O12  1  0.135213  0.089494  0.021180  1
  O  O13  1  0.373678  0.904138  0.332760  1
  O  O14  1  0.433381  0.613132  0.403300  1
  O  O15  1  0.458365  0.236856  0.314592  1
  O  O16  1  0.541635  0.736856  0.185408  1
  O  O17  1  0.047961  0.712990  0.883482  1
  O  O18  1  0.016714  0.461748  0.827839  1
  O  O19  1  0.566619  0.113132  0.096700  1
  O  O20  1  0.983286  0.961748  0.672161  1
  O  O21  1  0.952039  0.212990  0.616518  1
  O  O22  1  0.626322  0.404138  0.167240  1
  O  O23  1  0.864787  0.589494  0.478820  1
  O  O24  1  0.135213  0.410506  0.521180  1
  O  O25  1  0.373678  0.595862  0.832760  1
  O  O26  1  0.047961  0.787010  0.383482  1
  O  O27  1  0.016714  0.038252  0.327839  1
  O  O28  1  0.433381  0.886868  0.903300  1
  O  O29  1  0.983286  0.538252  0.172161  1
  O  O30  1  0.952039  0.287010  0.116518  1
  O  O31  1  0.458365  0.263144  0.814592  1
  O  O32  1  0.541635  0.763144  0.685408  1
  O  O33  1  0.566619  0.386868  0.596700  1
  O  O34  1  0.626322  0.095862  0.667240  1
  O  O35  1  0.864787  0.910506  0.978820  1
