# generated using pymatgen
data_LiCrPO4
_symmetry_space_group_name_H-M   'P 1'
_cell_length_a   4.97672807
_cell_length_b   6.46962844
_cell_length_c   5.29986415
_cell_angle_alpha   90.00000000
_cell_angle_beta   116.81523239
_cell_angle_gamma   90.00000000
_symmetry_Int_Tables_number   1
_chemical_formula_structural   LiCrPO4
_chemical_formula_sum   'Li2 Cr2 P2 O8'
_cell_volume   152.29289034
_cell_formula_units_Z   2
loop_
 _symmetry_equiv_pos_site_id
 _symmetry_equiv_pos_as_xyz
  1  'x, y, z'
loop_
 _atom_site_type_symbol
 _atom_site_label
 _atom_site_symmetry_multiplicity
 _atom_site_fract_x
 _atom_site_fract_y
 _atom_site_fract_z
 _atom_site_occupancy
  Li  Li0  1  0.311416  0.500000  0.661794  1
  Li  Li1  1  0.651872  0.000000  0.332331  1
  Cr  Cr2  1  0.995672  0.744772  0.998292  1
  Cr  Cr3  1  0.995672  0.255228  0.998292  1
  P  P4  1  0.307254  0.000000  0.618566  1
  P  P5  1  0.689099  0.500000  0.373804  1
  O  O6  1  0.823555  0.500000  0.713751  1
  O  O7  1  0.219735  0.803132  0.723934  1
  O  O8  1  0.219735  0.196868  0.723934  1
  O  O9  1  0.653541  0.000000  0.711610  1
  O  O10  1  0.946762  0.500000  0.278639  1
  O  O11  1  0.500834  0.306559  0.268189  1
  O  O12  1  0.500834  0.693441  0.268189  1
  O  O13  1  0.109381  0.000000  0.278860  1
