# generated using pymatgen
data_Li2Mn3OF6
_symmetry_space_group_name_H-M   'P 1'
_cell_length_a   6.22777334
_cell_length_b   6.69551699
_cell_length_c   8.32411900
_cell_angle_alpha   68.05186882
_cell_angle_beta   70.84290989
_cell_angle_gamma   82.02009396
_symmetry_Int_Tables_number   1
_chemical_formula_structural   Li2Mn3OF6
_chemical_formula_sum   'Li4 Mn6 O2 F12'
_cell_volume   304.06326405
_cell_formula_units_Z   2
loop_
 _symmetry_equiv_pos_site_id
 _symmetry_equiv_pos_as_xyz
  1  'x, y, z'
loop_
 _atom_site_type_symbol
 _atom_site_label
 _atom_site_symmetry_multiplicity
 _atom_site_fract_x
 _atom_site_fract_y
 _atom_site_fract_z
 _atom_site_occupancy
  Li  Li0  1  0.305587  0.853741  0.480762  1
  Li  Li1  1  0.107451  0.308815  0.071227  1
  Li  Li2  1  0.892549  0.691185  0.928773  1
  Li  Li3  1  0.694413  0.146259  0.519238  1
  Mn  Mn4  1  0.769368  0.568754  0.659910  1
  Mn  Mn5  1  0.908459  0.820818  0.227351  1
  Mn  Mn6  1  0.359794  0.741192  0.932086  1
  Mn  Mn7  1  0.640206  0.258808  0.067914  1
  Mn  Mn8  1  0.091541  0.179182  0.772649  1
  Mn  Mn9  1  0.230632  0.431246  0.340090  1
  O  O10  1  0.921634  0.420406  0.866057  1
  O  O11  1  0.078366  0.579594  0.133943  1
  F  F12  1  0.090447  0.706885  0.439316  1
  F  F13  1  0.450128  0.434230  0.872176  1
  F  F14  1  0.609966  0.720213  0.452960  1
  F  F15  1  0.783355  0.972630  0.996248  1
  F  F16  1  0.170158  0.870352  0.730230  1
  F  F17  1  0.334883  0.138844  0.276345  1
  F  F18  1  0.665117  0.861156  0.723655  1
  F  F19  1  0.829842  0.129648  0.269770  1
  F  F20  1  0.216645  0.027370  0.003752  1
  F  F21  1  0.390034  0.279787  0.547040  1
  F  F22  1  0.549872  0.565770  0.127824  1
  F  F23  1  0.909553  0.293115  0.560684  1
