# generated using pymatgen
data_LiCu4(PO4)3
_symmetry_space_group_name_H-M   'P 1'
_cell_length_a   8.31112505
_cell_length_b   8.31112505
_cell_length_c   9.94626536
_cell_angle_alpha   90.00000000
_cell_angle_beta   90.00000000
_cell_angle_gamma   136.03495780
_symmetry_Int_Tables_number   1
_chemical_formula_structural   LiCu4(PO4)3
_chemical_formula_sum   'Li2 Cu8 P6 O24'
_cell_volume   476.95388524
_cell_formula_units_Z   2
loop_
 _symmetry_equiv_pos_site_id
 _symmetry_equiv_pos_as_xyz
  1  'x, y, z'
loop_
 _atom_site_type_symbol
 _atom_site_label
 _atom_site_symmetry_multiplicity
 _atom_site_fract_x
 _atom_site_fract_y
 _atom_site_fract_z
 _atom_site_occupancy
  Li  Li0  1  0.986736  0.013264  0.755650  1
  Li  Li1  1  0.013264  0.986736  0.255650  1
  Cu  Cu2  1  0.380653  0.619347  0.936192  1
  Cu  Cu3  1  0.944496  0.548845  0.751465  1
  Cu  Cu4  1  0.451155  0.055504  0.751465  1
  Cu  Cu5  1  0.369440  0.630560  0.552767  1
  Cu  Cu6  1  0.619347  0.380653  0.436192  1
  Cu  Cu7  1  0.548845  0.944496  0.251465  1
  Cu  Cu8  1  0.055504  0.451155  0.251465  1
  Cu  Cu9  1  0.630560  0.369440  0.052767  1
  P  P10  1  0.816808  0.183192  0.966532  1
  P  P11  1  0.520161  0.479839  0.705822  1
  P  P12  1  0.815159  0.184841  0.533778  1
  P  P13  1  0.183192  0.816808  0.466532  1
  P  P14  1  0.479839  0.520161  0.205822  1
  P  P15  1  0.184841  0.815159  0.033778  1
  O  O16  1  0.673017  0.936183  0.924098  1
  O  O17  1  0.063817  0.326983  0.924098  1
  O  O18  1  0.723251  0.276749  0.892050  1
  O  O19  1  0.213314  0.786686  0.880844  1
  O  O20  1  0.771987  0.647271  0.758204  1
  O  O21  1  0.421470  0.578530  0.743773  1
  O  O22  1  0.352729  0.228013  0.758204  1
  O  O23  1  0.208371  0.791629  0.620325  1
  O  O24  1  0.726244  0.273756  0.617181  1
  O  O25  1  0.673412  0.935220  0.569278  1
  O  O26  1  0.064780  0.326588  0.569278  1
  O  O27  1  0.514040  0.485960  0.548766  1
  O  O28  1  0.936183  0.673017  0.424098  1
  O  O29  1  0.326983  0.063817  0.424098  1
  O  O30  1  0.276749  0.723251  0.392050  1
  O  O31  1  0.786686  0.213314  0.380844  1
  O  O32  1  0.578530  0.421470  0.243773  1
  O  O33  1  0.647271  0.771987  0.258204  1
  O  O34  1  0.228013  0.352729  0.258204  1
  O  O35  1  0.791629  0.208371  0.120325  1
  O  O36  1  0.273755  0.726245  0.117181  1
  O  O37  1  0.326588  0.064780  0.069278  1
  O  O38  1  0.935220  0.673412  0.069278  1
  O  O39  1  0.485960  0.514040  0.048766  1
