# generated using pymatgen
data_RbLiVPO5
_symmetry_space_group_name_H-M   'P 1'
_cell_length_a   7.57328907
_cell_length_b   8.40474804
_cell_length_c   8.59819636
_cell_angle_alpha   90.00000000
_cell_angle_beta   90.00000000
_cell_angle_gamma   90.00000000
_symmetry_Int_Tables_number   1
_chemical_formula_structural   RbLiVPO5
_chemical_formula_sum   'Rb4 Li4 V4 P4 O20'
_cell_volume   547.28883936
_cell_formula_units_Z   4
loop_
 _symmetry_equiv_pos_site_id
 _symmetry_equiv_pos_as_xyz
  1  'x, y, z'
loop_
 _atom_site_type_symbol
 _atom_site_label
 _atom_site_symmetry_multiplicity
 _atom_site_fract_x
 _atom_site_fract_y
 _atom_site_fract_z
 _atom_site_occupancy
  Rb  Rb0  1  0.384739  0.955157  0.766579  1
  Rb  Rb1  1  0.115261  0.044843  0.266579  1
  Rb  Rb2  1  0.615261  0.455157  0.733421  1
  Rb  Rb3  1  0.884739  0.544843  0.233421  1
  Li  Li4  1  0.176904  0.745414  0.048131  1
  Li  Li5  1  0.323096  0.254586  0.548131  1
  Li  Li6  1  0.823096  0.245414  0.451869  1
  Li  Li7  1  0.676904  0.754586  0.951869  1
  V  V8  1  0.904865  0.975367  0.871642  1
  V  V9  1  0.595135  0.024633  0.371642  1
  V  V10  1  0.095135  0.475367  0.628358  1
  V  V11  1  0.404865  0.524633  0.128358  1
  P  P12  1  0.863264  0.814653  0.599547  1
  P  P13  1  0.636736  0.185347  0.099547  1
  P  P14  1  0.136736  0.314653  0.900453  1
  P  P15  1  0.363264  0.685347  0.400453  1
  O  O16  1  0.935577  0.812744  0.010170  1
  O  O17  1  0.724859  0.819098  0.734859  1
  O  O18  1  0.415542  0.857312  0.439343  1
  O  O19  1  0.798953  0.894395  0.447288  1
  O  O20  1  0.019017  0.918068  0.667497  1
  O  O21  1  0.480983  0.081932  0.167497  1
  O  O22  1  0.701047  0.105605  0.947288  1
  O  O23  1  0.084458  0.142688  0.939343  1
  O  O24  1  0.775141  0.180902  0.234859  1
  O  O25  1  0.564423  0.187256  0.510170  1
  O  O26  1  0.064423  0.312744  0.489830  1
  O  O27  1  0.275141  0.319098  0.765141  1
  O  O28  1  0.584458  0.357312  0.060657  1
  O  O29  1  0.201047  0.394395  0.052712  1
  O  O30  1  0.980983  0.418068  0.832503  1
  O  O31  1  0.519017  0.581932  0.332503  1
  O  O32  1  0.298953  0.605605  0.552712  1
  O  O33  1  0.915542  0.642688  0.560657  1
  O  O34  1  0.224859  0.680902  0.265141  1
  O  O35  1  0.435577  0.687256  0.989830  1
