# generated using pymatgen
data_Ti3V2Ni(PO4)6
_symmetry_space_group_name_H-M   'P 1'
_cell_length_a   8.53711022
_cell_length_b   8.53711022
_cell_length_c   8.53711022
_cell_angle_alpha   60.93003715
_cell_angle_beta   60.93003715
_cell_angle_gamma   60.93003715
_symmetry_Int_Tables_number   1
_chemical_formula_structural   Ti3V2Ni(PO4)6
_chemical_formula_sum   'Ti3 V2 Ni1 P6 O24'
_cell_volume   449.18569057
_cell_formula_units_Z   1
loop_
 _symmetry_equiv_pos_site_id
 _symmetry_equiv_pos_as_xyz
  1  'x, y, z'
loop_
 _atom_site_type_symbol
 _atom_site_label
 _atom_site_symmetry_multiplicity
 _atom_site_fract_x
 _atom_site_fract_y
 _atom_site_fract_z
 _atom_site_occupancy
  Ti  Ti0  1  0.645294  0.645294  0.645294  1
  Ti  Ti1  1  0.857894  0.857894  0.857894  1
  Ti  Ti2  1  0.354784  0.354784  0.354784  1
  V  V3  1  0.000993  0.000993  0.000993  1
  V  V4  1  0.501466  0.501466  0.501466  1
  Ni  Ni5  1  0.141557  0.141557  0.141557  1
  P  P6  1  0.955139  0.248326  0.540562  1
  P  P7  1  0.540562  0.955139  0.248326  1
  P  P8  1  0.248326  0.540562  0.955139  1
  P  P9  1  0.749508  0.457309  0.044837  1
  P  P10  1  0.457309  0.044837  0.749508  1
  P  P11  1  0.044837  0.749508  0.457309  1
  O  O12  1  0.494219  0.119110  0.315194  1
  O  O13  1  0.315194  0.494219  0.119110  1
  O  O14  1  0.119110  0.315194  0.494219  1
  O  O15  1  0.943132  0.089692  0.740128  1
  O  O16  1  0.985662  0.185203  0.389954  1
  O  O17  1  0.759566  0.411916  0.568407  1
  O  O18  1  0.740128  0.943132  0.089692  1
  O  O19  1  0.568407  0.759566  0.411916  1
  O  O20  1  0.815838  0.619793  0.998349  1
  O  O21  1  0.411916  0.568407  0.759566  1
  O  O22  1  0.903474  0.264298  0.052102  1
  O  O23  1  0.619793  0.998349  0.815838  1
  O  O24  1  0.389954  0.985662  0.185203  1
  O  O25  1  0.089692  0.740128  0.943132  1
  O  O26  1  0.586813  0.445712  0.239940  1
  O  O27  1  0.185203  0.389954  0.985662  1
  O  O28  1  0.445712  0.239940  0.586813  1
  O  O29  1  0.264298  0.052102  0.903474  1
  O  O30  1  0.239940  0.586813  0.445712  1
  O  O31  1  0.998349  0.815838  0.619793  1
  O  O32  1  0.052102  0.903474  0.264298  1
  O  O33  1  0.886956  0.671796  0.515085  1
  O  O34  1  0.671796  0.515085  0.886956  1
  O  O35  1  0.515085  0.886956  0.671796  1
