# generated using pymatgen
data_Rb2PrO3
_symmetry_space_group_name_H-M   'P 1'
_cell_length_a   12.78082897
_cell_length_b   12.19277872
_cell_length_c   6.79889055
_cell_angle_alpha   79.03377755
_cell_angle_beta   69.48317907
_cell_angle_gamma   31.48304338
_symmetry_Int_Tables_number   1
_chemical_formula_structural   Rb2PrO3
_chemical_formula_sum   'Rb8 Pr4 O12'
_cell_volume   505.27162205
_cell_formula_units_Z   4
loop_
 _symmetry_equiv_pos_site_id
 _symmetry_equiv_pos_as_xyz
  1  'x, y, z'
loop_
 _atom_site_type_symbol
 _atom_site_label
 _atom_site_symmetry_multiplicity
 _atom_site_fract_x
 _atom_site_fract_y
 _atom_site_fract_z
 _atom_site_occupancy
  Rb  Rb0  1  0.995940  0.995940  0.504060  1
  Rb  Rb1  1  0.745940  0.745940  0.254060  1
  Rb  Rb2  1  0.421956  0.421956  0.578044  1
  Rb  Rb3  1  0.578044  0.578044  0.421956  1
  Rb  Rb4  1  0.671956  0.671956  0.828044  1
  Rb  Rb5  1  0.828044  0.828044  0.671956  1
  Rb  Rb6  1  0.504060  0.504060  0.995940  1
  Rb  Rb7  1  0.254060  0.254060  0.745940  1
  Pr  Pr8  1  0.085680  0.085680  0.914320  1
  Pr  Pr9  1  0.914320  0.914320  0.085680  1
  Pr  Pr10  1  0.335680  0.335680  0.164320  1
  Pr  Pr11  1  0.164320  0.164320  0.335680  1
  O  O12  1  0.821390  0.178610  0.178610  1
  O  O13  1  0.661453  0.141599  0.898818  1
  O  O14  1  0.298129  0.898818  0.141599  1
  O  O15  1  0.141599  0.661453  0.298129  1
  O  O16  1  0.898818  0.298129  0.661453  1
  O  O17  1  0.071390  0.428610  0.428610  1
  O  O18  1  0.178610  0.821390  0.821390  1
  O  O19  1  0.351182  0.951871  0.588547  1
  O  O20  1  0.108401  0.588547  0.951871  1
  O  O21  1  0.951871  0.351182  0.108401  1
  O  O22  1  0.588547  0.108401  0.351182  1
  O  O23  1  0.428610  0.071390  0.071390  1
