# generated using pymatgen
data_Gd2W4O15
_symmetry_space_group_name_H-M   'P 1'
_cell_length_a   7.41919639
_cell_length_b   7.57402766
_cell_length_c   11.80168399
_cell_angle_alpha   88.71571852
_cell_angle_beta   83.61458238
_cell_angle_gamma   84.00501305
_symmetry_Int_Tables_number   1
_chemical_formula_structural   Gd2W4O15
_chemical_formula_sum   'Gd4 W8 O30'
_cell_volume   655.41671847
_cell_formula_units_Z   2
loop_
 _symmetry_equiv_pos_site_id
 _symmetry_equiv_pos_as_xyz
  1  'x, y, z'
loop_
 _atom_site_type_symbol
 _atom_site_label
 _atom_site_symmetry_multiplicity
 _atom_site_fract_x
 _atom_site_fract_y
 _atom_site_fract_z
 _atom_site_occupancy
  Gd  Gd0  1  0.242303  0.408249  0.220478  1
  Gd  Gd1  1  0.318454  0.907562  0.777294  1
  Gd  Gd2  1  0.681546  0.092438  0.222706  1
  Gd  Gd3  1  0.757697  0.591751  0.779522  1
  W  W4  1  0.097659  0.668511  0.531873  1
  W  W5  1  0.228092  0.922505  0.129183  1
  W  W6  1  0.276319  0.425835  0.871433  1
  W  W7  1  0.431920  0.244910  0.526080  1
  W  W8  1  0.568080  0.755090  0.473920  1
  W  W9  1  0.723681  0.574165  0.128567  1
  W  W10  1  0.771908  0.077495  0.870817  1
  W  W11  1  0.902341  0.331489  0.468127  1
  O  O12  1  0.040340  0.167492  0.533066  1
  O  O13  1  0.087282  0.479579  0.401696  1
  O  O14  1  0.009323  0.996586  0.848300  1
  O  O15  1  0.049559  0.508730  0.843140  1
  O  O16  1  0.131391  0.769574  0.665208  1
  O  O17  1  0.280165  0.399674  0.023105  1
  O  O18  1  0.262626  0.705759  0.197221  1
  O  O19  1  0.353833  0.092680  0.187073  1
  O  O20  1  0.292535  0.433256  0.589934  1
  O  O21  1  0.333767  0.717800  0.444147  1
  O  O22  1  0.374170  0.039604  0.596267  1
  O  O23  1  0.342019  0.208032  0.810760  1
  O  O24  1  0.414225  0.263284  0.374912  1
  O  O25  1  0.297642  0.896540  0.978913  1
  O  O26  1  0.431515  0.594036  0.819151  1
  O  O27  1  0.568485  0.405964  0.180849  1
  O  O28  1  0.702358  0.103460  0.021087  1
  O  O29  1  0.585775  0.736716  0.625088  1
  O  O30  1  0.657981  0.791968  0.189240  1
  O  O31  1  0.625830  0.960396  0.403733  1
  O  O32  1  0.666233  0.282200  0.555853  1
  O  O33  1  0.707465  0.566744  0.410066  1
  O  O34  1  0.646167  0.907320  0.812927  1
  O  O35  1  0.737374  0.294241  0.802779  1
  O  O36  1  0.719835  0.600326  0.976895  1
  O  O37  1  0.868609  0.230426  0.334792  1
  O  O38  1  0.950441  0.491270  0.156860  1
  O  O39  1  0.990677  0.003414  0.151700  1
  O  O40  1  0.912718  0.520421  0.598304  1
  O  O41  1  0.959660  0.832508  0.466934  1
