# generated using pymatgen
data_Sr2Ti6N2O11
_symmetry_space_group_name_H-M   'P 1'
_cell_length_a   7.73727438
_cell_length_b   7.73727438
_cell_length_c   9.27398333
_cell_angle_alpha   81.57321004
_cell_angle_beta   98.42678996
_cell_angle_gamma   150.96347290
_symmetry_Int_Tables_number   1
_chemical_formula_structural   Sr2Ti6N2O11
_chemical_formula_sum   'Sr2 Ti6 N2 O11'
_cell_volume   266.36591954
_cell_formula_units_Z   1
loop_
 _symmetry_equiv_pos_site_id
 _symmetry_equiv_pos_as_xyz
  1  'x, y, z'
loop_
 _atom_site_type_symbol
 _atom_site_label
 _atom_site_symmetry_multiplicity
 _atom_site_fract_x
 _atom_site_fract_y
 _atom_site_fract_z
 _atom_site_occupancy
  Sr  Sr0  1  0.545081  0.454919  0.774163  1
  Sr  Sr1  1  0.448747  0.551253  0.235791  1
  Ti  Ti2  1  0.117222  0.882778  0.097711  1
  Ti  Ti3  1  0.169969  0.830031  0.438239  1
  Ti  Ti4  1  0.233534  0.766466  0.765879  1
  Ti  Ti5  1  0.752079  0.247921  0.230769  1
  Ti  Ti6  1  0.834624  0.165376  0.552040  1
  Ti  Ti7  1  0.877744  0.122256  0.910226  1
  N  N8  1  0.638400  0.361600  0.108570  1
  N  N9  1  0.705979  0.294021  0.425240  1
  O  O10  1  0.068519  0.931481  0.291432  1
  O  O11  1  0.126101  0.873899  0.616245  1
  O  O12  1  0.160032  0.839968  0.901708  1
  O  O13  1  0.756561  0.243439  0.762777  1
  O  O14  1  0.246046  0.753954  0.239228  1
  O  O15  1  0.301774  0.698226  0.574366  1
  O  O16  1  0.359283  0.640717  0.885441  1
  O  O17  1  0.843031  0.156969  0.095266  1
  O  O18  1  0.884966  0.115034  0.388542  1
  O  O19  1  0.931089  0.068911  0.711304  1
  O  O20  1  0.999218  0.000782  0.995059  1
