# generated using pymatgen
data_Li4Ti3Fe3(TeO8)2
_symmetry_space_group_name_H-M   'P 1'
_cell_length_a   5.95958610
_cell_length_b   6.06283601
_cell_length_c   10.28278885
_cell_angle_alpha   89.91868352
_cell_angle_beta   89.91273235
_cell_angle_gamma   61.04212147
_symmetry_Int_Tables_number   1
_chemical_formula_structural   Li4Ti3Fe3(TeO8)2
_chemical_formula_sum   'Li4 Ti3 Fe3 Te2 O16'
_cell_volume   325.08601377
_cell_formula_units_Z   1
loop_
 _symmetry_equiv_pos_site_id
 _symmetry_equiv_pos_as_xyz
  1  'x, y, z'
loop_
 _atom_site_type_symbol
 _atom_site_label
 _atom_site_symmetry_multiplicity
 _atom_site_fract_x
 _atom_site_fract_y
 _atom_site_fract_z
 _atom_site_occupancy
  Li  Li0  1  0.664678  0.671075  0.095319  1
  Li  Li1  1  0.001897  0.995233  0.014345  1
  Li  Li2  1  0.004889  0.997534  0.504394  1
  Li  Li3  1  0.333037  0.329320  0.602816  1
  Ti  Ti4  1  0.340858  0.816099  0.780625  1
  Ti  Ti5  1  0.834967  0.819348  0.780479  1
  Ti  Ti6  1  0.184461  0.644478  0.268958  1
  Fe  Fe7  1  0.830052  0.336652  0.788594  1
  Fe  Fe8  1  0.174260  0.172309  0.283037  1
  Fe  Fe9  1  0.660563  0.164611  0.283945  1
  Te  Te10  1  0.674157  0.659463  0.489829  1
  Te  Te11  1  0.345024  0.306490  0.004129  1
  O  O12  1  0.337094  0.837005  0.393986  1
  O  O13  1  0.511133  0.975418  0.681959  1
  O  O14  1  0.659865  0.677178  0.890564  1
  O  O15  1  0.995213  0.007188  0.689355  1
  O  O16  1  0.018578  0.982249  0.197925  1
  O  O17  1  0.839998  0.828540  0.400104  1
  O  O18  1  0.495571  0.518724  0.686131  1
  O  O19  1  0.977634  0.521714  0.682614  1
  O  O20  1  0.138126  0.716896  0.890217  1
  O  O21  1  0.848904  0.325880  0.402425  1
  O  O22  1  0.024071  0.493176  0.170622  1
  O  O23  1  0.477375  0.501595  0.167629  1
  O  O24  1  0.312462  0.357640  0.390702  1
  O  O25  1  0.162242  0.153707  0.904494  1
  O  O26  1  0.469823  0.039399  0.141411  1
  O  O27  1  0.682769  0.151079  0.905551  1
