# generated using pymatgen
data_Ho3ReO7
_symmetry_space_group_name_H-M   'P 1'
_cell_length_a   6.42275225
_cell_length_b   6.42275225
_cell_length_c   7.39048923
_cell_angle_alpha   90.00000000
_cell_angle_beta   90.00000000
_cell_angle_gamma   110.22972439
_symmetry_Int_Tables_number   1
_chemical_formula_structural   Ho3ReO7
_chemical_formula_sum   'Ho6 Re2 O14'
_cell_volume   286.06426782
_cell_formula_units_Z   2
loop_
 _symmetry_equiv_pos_site_id
 _symmetry_equiv_pos_as_xyz
  1  'x, y, z'
loop_
 _atom_site_type_symbol
 _atom_site_label
 _atom_site_symmetry_multiplicity
 _atom_site_fract_x
 _atom_site_fract_y
 _atom_site_fract_z
 _atom_site_occupancy
  Ho  Ho0  1  0.561610  0.022374  0.250000  1
  Ho  Ho1  1  0.977626  0.438390  0.750000  1
  Ho  Ho2  1  0.500000  0.500000  0.000000  1
  Ho  Ho3  1  0.500000  0.500000  0.500000  1
  Ho  Ho4  1  0.022374  0.561610  0.250000  1
  Ho  Ho5  1  0.438390  0.977626  0.750000  1
  Re  Re6  1  0.000000  0.000000  0.000000  1
  Re  Re7  1  0.000000  0.000000  0.500000  1
  O  O8  1  0.933419  0.676314  0.535743  1
  O  O9  1  0.323686  0.066581  0.464257  1
  O  O10  1  0.323686  0.066581  0.035743  1
  O  O11  1  0.933419  0.676314  0.964257  1
  O  O12  1  0.657736  0.391860  0.250000  1
  O  O13  1  0.608140  0.342264  0.750000  1
  O  O14  1  0.930395  0.930395  0.250000  1
  O  O15  1  0.069605  0.069605  0.750000  1
  O  O16  1  0.342264  0.608140  0.750000  1
  O  O17  1  0.391860  0.657736  0.250000  1
  O  O18  1  0.066581  0.323686  0.035743  1
  O  O19  1  0.066581  0.323686  0.464257  1
  O  O20  1  0.676314  0.933419  0.535743  1
  O  O21  1  0.676314  0.933419  0.964257  1
