# generated using pymatgen
data_Sn(PO3)3
_symmetry_space_group_name_H-M   'P 1'
_cell_length_a   8.78637511
_cell_length_b   8.79166397
_cell_length_c   9.34282757
_cell_angle_alpha   90.00000000
_cell_angle_beta   90.00000000
_cell_angle_gamma   90.00000000
_symmetry_Int_Tables_number   1
_chemical_formula_structural   Sn(PO3)3
_chemical_formula_sum   'Sn4 P12 O36'
_cell_volume   721.70406977
_cell_formula_units_Z   4
loop_
 _symmetry_equiv_pos_site_id
 _symmetry_equiv_pos_as_xyz
  1  'x, y, z'
loop_
 _atom_site_type_symbol
 _atom_site_label
 _atom_site_symmetry_multiplicity
 _atom_site_fract_x
 _atom_site_fract_y
 _atom_site_fract_z
 _atom_site_occupancy
  Sn  Sn0  1  0.846127  0.871081  0.607344  1
  Sn  Sn1  1  0.653873  0.128919  0.107344  1
  Sn  Sn2  1  0.153873  0.371081  0.892656  1
  Sn  Sn3  1  0.346127  0.628919  0.392656  1
  P  P4  1  0.694025  0.805718  0.926710  1
  P  P5  1  0.466650  0.818586  0.690310  1
  P  P6  1  0.304947  0.974064  0.193428  1
  P  P7  1  0.195053  0.025936  0.693428  1
  P  P8  1  0.033350  0.181414  0.190310  1
  P  P9  1  0.805975  0.194282  0.426710  1
  P  P10  1  0.305975  0.305718  0.573290  1
  P  P11  1  0.533350  0.318586  0.809690  1
  P  P12  1  0.695053  0.474064  0.306572  1
  P  P13  1  0.804947  0.525936  0.806572  1
  P  P14  1  0.966650  0.681414  0.309690  1
  P  P15  1  0.194025  0.694282  0.073290  1
  O  O16  1  0.534272  0.772430  0.844879  1
  O  O17  1  0.872790  0.811439  0.366582  1
  O  O18  1  0.659497  0.868253  0.072792  1
  O  O19  1  0.592109  0.877795  0.595041  1
  O  O20  1  0.259454  0.865029  0.057944  1
  O  O21  1  0.096584  0.900122  0.635657  1
  O  O22  1  0.360243  0.879762  0.317036  1
  O  O23  1  0.800963  0.900605  0.836263  1
  O  O24  1  0.357918  0.956935  0.738806  1
  O  O25  1  0.142082  0.043065  0.238806  1
  O  O26  1  0.699037  0.099395  0.336263  1
  O  O27  1  0.139757  0.120238  0.817036  1
  O  O28  1  0.403416  0.099878  0.135657  1
  O  O29  1  0.240546  0.134971  0.557944  1
  O  O30  1  0.907891  0.122205  0.095041  1
  O  O31  1  0.840503  0.131747  0.572792  1
  O  O32  1  0.627210  0.188561  0.866582  1
  O  O33  1  0.965728  0.227570  0.344879  1
  O  O34  1  0.465728  0.272430  0.655121  1
  O  O35  1  0.127210  0.311439  0.133418  1
  O  O36  1  0.340503  0.368253  0.427208  1
  O  O37  1  0.407891  0.377795  0.904959  1
  O  O38  1  0.740546  0.365029  0.442056  1
  O  O39  1  0.903416  0.400122  0.864343  1
  O  O40  1  0.639757  0.379762  0.182964  1
  O  O41  1  0.199037  0.400605  0.663737  1
  O  O42  1  0.642082  0.456935  0.761194  1
  O  O43  1  0.857918  0.543065  0.261194  1
  O  O44  1  0.300963  0.599395  0.163737  1
  O  O45  1  0.860243  0.620238  0.682964  1
  O  O46  1  0.596584  0.599878  0.364343  1
  O  O47  1  0.759454  0.634971  0.942056  1
  O  O48  1  0.092109  0.622205  0.404959  1
  O  O49  1  0.159497  0.631747  0.927208  1
  O  O50  1  0.372790  0.688561  0.633418  1
  O  O51  1  0.034272  0.727570  0.155121  1
