# generated using pymatgen
data_Li2CrO4
_symmetry_space_group_name_H-M   'P 1'
_cell_length_a   5.17030849
_cell_length_b   5.39032881
_cell_length_c   7.76942773
_cell_angle_alpha   83.20305656
_cell_angle_beta   109.09257948
_cell_angle_gamma   114.81599463
_symmetry_Int_Tables_number   1
_chemical_formula_structural   Li2CrO4
_chemical_formula_sum   'Li4 Cr2 O8'
_cell_volume   185.68041024
_cell_formula_units_Z   2
loop_
 _symmetry_equiv_pos_site_id
 _symmetry_equiv_pos_as_xyz
  1  'x, y, z'
loop_
 _atom_site_type_symbol
 _atom_site_label
 _atom_site_symmetry_multiplicity
 _atom_site_fract_x
 _atom_site_fract_y
 _atom_site_fract_z
 _atom_site_occupancy
  Li  Li0  1  0.755348  0.283463  0.181310  1
  Li  Li1  1  0.964411  0.741311  0.443423  1
  Li  Li2  1  0.035589  0.258689  0.556577  1
  Li  Li3  1  0.244652  0.716537  0.818690  1
  Cr  Cr4  1  0.407312  0.706132  0.246889  1
  Cr  Cr5  1  0.592688  0.293868  0.753111  1
  O  O6  1  0.239334  0.811394  0.053920  1
  O  O7  1  0.550618  0.503985  0.211186  1
  O  O8  1  0.702697  0.976313  0.368137  1
  O  O9  1  0.154666  0.538522  0.360027  1
  O  O10  1  0.845334  0.461478  0.639973  1
  O  O11  1  0.297303  0.023687  0.631863  1
  O  O12  1  0.449382  0.496015  0.788814  1
  O  O13  1  0.760666  0.188606  0.946080  1
