# generated using pymatgen
data_Al11AgO17
_symmetry_space_group_name_H-M   'P 1'
_cell_length_a   5.65565042
_cell_length_b   5.65565042
_cell_length_c   22.79221874
_cell_angle_alpha   90.00000000
_cell_angle_beta   90.00000000
_cell_angle_gamma   120.04000208
_symmetry_Int_Tables_number   1
_chemical_formula_structural   Al11AgO17
_chemical_formula_sum   'Al22 Ag2 O34'
_cell_volume   631.11303602
_cell_formula_units_Z   2
loop_
 _symmetry_equiv_pos_site_id
 _symmetry_equiv_pos_as_xyz
  1  'x, y, z'
loop_
 _atom_site_type_symbol
 _atom_site_label
 _atom_site_symmetry_multiplicity
 _atom_site_fract_x
 _atom_site_fract_y
 _atom_site_fract_z
 _atom_site_occupancy
  Al  Al0  1  0.332917  0.667083  0.105441  1
  Al  Al1  1  0.332917  0.667083  0.394559  1
  Al  Al2  1  0.167693  0.832307  0.824490  1
  Al  Al3  1  0.166865  0.833135  0.975226  1
  Al  Al4  1  0.167693  0.832307  0.675510  1
  Al  Al5  1  0.835359  0.669048  0.392253  1
  Al  Al6  1  0.500000  0.500000  0.000000  1
  Al  Al7  1  0.500000  0.500000  0.500000  1
  Al  Al8  1  0.166865  0.833135  0.524774  1
  Al  Al9  1  0.835359  0.669048  0.107747  1
  Al  Al10  1  0.669048  0.835359  0.892253  1
  Al  Al11  1  0.669048  0.835359  0.607747  1
  Al  Al12  1  0.330952  0.164641  0.392253  1
  Al  Al13  1  0.330952  0.164641  0.107747  1
  Al  Al14  1  0.832307  0.167693  0.324490  1
  Al  Al15  1  0.164641  0.330952  0.607747  1
  Al  Al16  1  0.164641  0.330952  0.892253  1
  Al  Al17  1  0.833135  0.166865  0.024774  1
  Al  Al18  1  0.832307  0.167693  0.175510  1
  Al  Al19  1  0.833135  0.166865  0.475226  1
  Al  Al20  1  0.667083  0.332917  0.605441  1
  Al  Al21  1  0.667083  0.332917  0.894559  1
  Ag  Ag22  1  0.257228  0.742772  0.250000  1
  Ag  Ag23  1  0.742772  0.257228  0.750000  1
  O  O24  1  0.342621  0.657379  0.949840  1
  O  O25  1  0.342621  0.657379  0.550160  1
  O  O26  1  0.005891  0.507562  0.354204  1
  O  O27  1  0.005891  0.507562  0.145796  1
  O  O28  1  0.180800  0.819200  0.750000  1
  O  O29  1  0.166097  0.833903  0.444493  1
  O  O30  1  0.814361  0.656106  0.950489  1
  O  O31  1  0.492438  0.994109  0.354204  1
  O  O32  1  0.500764  0.499236  0.858590  1
  O  O33  1  0.814361  0.656106  0.549511  1
  O  O34  1  0.500764  0.499236  0.641410  1
  O  O35  1  0.499236  0.500764  0.358590  1
  O  O36  1  0.499236  0.500764  0.141410  1
  O  O37  1  0.166097  0.833903  0.055507  1
  O  O38  1  0.492438  0.994109  0.145796  1
  O  O39  1  0.656106  0.814361  0.450489  1
  O  O40  1  0.656106  0.814361  0.049511  1
  O  O41  1  0.000637  0.999363  0.354596  1
  O  O42  1  0.000637  0.999363  0.145404  1
  O  O43  1  0.999363  0.000637  0.645404  1
  O  O44  1  0.999363  0.000637  0.854596  1
  O  O45  1  0.343894  0.185639  0.950489  1
  O  O46  1  0.343894  0.185639  0.549511  1
  O  O47  1  0.833903  0.166097  0.555507  1
  O  O48  1  0.507562  0.005891  0.854204  1
  O  O49  1  0.507562  0.005891  0.645796  1
  O  O50  1  0.185639  0.343894  0.450489  1
  O  O51  1  0.185639  0.343894  0.049511  1
  O  O52  1  0.833903  0.166097  0.944493  1
  O  O53  1  0.819200  0.180800  0.250000  1
  O  O54  1  0.994109  0.492438  0.854204  1
  O  O55  1  0.994109  0.492438  0.645796  1
  O  O56  1  0.657379  0.342621  0.050160  1
  O  O57  1  0.657379  0.342621  0.449840  1
