# generated using pymatgen
data_Li2MnFe(PO4)2
_symmetry_space_group_name_H-M   'P 1'
_cell_length_a   9.54164462
_cell_length_b   6.13058716
_cell_length_c   10.50547528
_cell_angle_alpha   90.00000000
_cell_angle_beta   90.06807258
_cell_angle_gamma   90.00000000
_symmetry_Int_Tables_number   1
_chemical_formula_structural   Li2MnFe(PO4)2
_chemical_formula_sum   'Li8 Mn4 Fe4 P8 O32'
_cell_volume   614.52662999
_cell_formula_units_Z   4
loop_
 _symmetry_equiv_pos_site_id
 _symmetry_equiv_pos_as_xyz
  1  'x, y, z'
loop_
 _atom_site_type_symbol
 _atom_site_label
 _atom_site_symmetry_multiplicity
 _atom_site_fract_x
 _atom_site_fract_y
 _atom_site_fract_z
 _atom_site_occupancy
  Li  Li0  1  0.000034  0.249145  0.000421  1
  Li  Li1  1  0.000034  0.750855  0.000421  1
  Li  Li2  1  0.750090  0.750624  0.500089  1
  Li  Li3  1  0.750090  0.249376  0.500089  1
  Li  Li4  1  0.499855  0.249574  0.999781  1
  Li  Li5  1  0.499855  0.750426  0.999781  1
  Li  Li6  1  0.249958  0.249352  0.500072  1
  Li  Li7  1  0.249958  0.750648  0.500072  1
  Mn  Mn8  1  0.987391  0.500000  0.718575  1
  Mn  Mn9  1  0.762369  0.500000  0.218522  1
  Mn  Mn10  1  0.737537  0.000000  0.781175  1
  Mn  Mn11  1  0.262688  0.500000  0.218485  1
  Fe  Fe12  1  0.513508  0.000000  0.281661  1
  Fe  Fe13  1  0.486043  0.500000  0.718458  1
  Fe  Fe14  1  0.236865  0.000000  0.782003  1
  Fe  Fe15  1  0.013587  0.000000  0.281663  1
  P  P16  1  0.957916  0.000000  0.592264  1
  P  P17  1  0.794179  0.000000  0.094505  1
  P  P18  1  0.704798  0.500000  0.906272  1
  P  P19  1  0.541671  0.500000  0.407733  1
  P  P20  1  0.456548  0.000000  0.593287  1
  P  P21  1  0.293992  0.000000  0.093634  1
  P  P22  1  0.208513  0.500000  0.906192  1
  P  P23  1  0.042281  0.500000  0.406805  1
  O  O24  1  0.896710  0.000000  0.454727  1
  O  O25  1  0.890203  0.201390  0.661659  1
  O  O26  1  0.890203  0.798610  0.661659  1
  O  O27  1  0.881034  0.500000  0.404822  1
  O  O28  1  0.866542  0.500000  0.903645  1
  O  O29  1  0.862037  0.201328  0.163611  1
  O  O30  1  0.862037  0.798672  0.163611  1
  O  O31  1  0.854898  0.000000  0.956742  1
  O  O32  1  0.644387  0.500000  0.043603  1
  O  O33  1  0.638044  0.701100  0.836374  1
  O  O34  1  0.638044  0.298900  0.836374  1
  O  O35  1  0.633017  0.000000  0.097537  1
  O  O36  1  0.618041  0.000000  0.595775  1
  O  O37  1  0.607162  0.702620  0.337273  1
  O  O38  1  0.607162  0.297380  0.337273  1
  O  O39  1  0.604307  0.500000  0.544588  1
  O  O40  1  0.395120  0.000000  0.456200  1
  O  O41  1  0.390866  0.202342  0.663849  1
  O  O42  1  0.390866  0.797658  0.663849  1
  O  O43  1  0.380706  0.500000  0.404590  1
  O  O44  1  0.369336  0.500000  0.903645  1
  O  O45  1  0.362014  0.200997  0.162926  1
  O  O46  1  0.362014  0.799003  0.162926  1
  O  O47  1  0.353471  0.000000  0.955450  1
  O  O48  1  0.144967  0.500000  0.042512  1
  O  O49  1  0.142547  0.703001  0.836242  1
  O  O50  1  0.142547  0.296999  0.836242  1
  O  O51  1  0.132550  0.000000  0.097503  1
  O  O52  1  0.118842  0.000000  0.597007  1
  O  O53  1  0.107252  0.702702  0.336404  1
  O  O54  1  0.107252  0.297298  0.336404  1
  O  O55  1  0.106064  0.500000  0.543010  1
