# generated using pymatgen
data_LiVSiCO7
_symmetry_space_group_name_H-M   'P 1'
_cell_length_a   5.29400367
_cell_length_b   6.37317845
_cell_length_c   8.16728391
_cell_angle_alpha   90.00000000
_cell_angle_beta   96.11955479
_cell_angle_gamma   90.00000000
_symmetry_Int_Tables_number   1
_chemical_formula_structural   LiVSiCO7
_chemical_formula_sum   'Li2 V2 Si2 C2 O14'
_cell_volume   273.99088569
_cell_formula_units_Z   2
loop_
 _symmetry_equiv_pos_site_id
 _symmetry_equiv_pos_as_xyz
  1  'x, y, z'
loop_
 _atom_site_type_symbol
 _atom_site_label
 _atom_site_symmetry_multiplicity
 _atom_site_fract_x
 _atom_site_fract_y
 _atom_site_fract_z
 _atom_site_occupancy
  Li  Li0  1  0.237878  0.750000  0.097337  1
  Li  Li1  1  0.762122  0.250000  0.902663  1
  V  V2  1  0.205399  0.250000  0.320079  1
  V  V3  1  0.794601  0.750000  0.679921  1
  Si  Si4  1  0.257106  0.750000  0.428058  1
  Si  Si5  1  0.742894  0.250000  0.571942  1
  C  C6  1  0.313742  0.250000  0.034393  1
  C  C7  1  0.686258  0.750000  0.965607  1
  O  O8  1  0.074481  0.250000  0.075349  1
  O  O9  1  0.623418  0.750000  0.107767  1
  O  O10  1  0.476678  0.250000  0.168014  1
  O  O11  1  0.205522  0.951318  0.305884  1
  O  O12  1  0.205522  0.548682  0.305884  1
  O  O13  1  0.917695  0.250000  0.418843  1
  O  O14  1  0.556399  0.750000  0.509314  1
  O  O15  1  0.443601  0.250000  0.490686  1
  O  O16  1  0.082305  0.750000  0.581157  1
  O  O17  1  0.794478  0.451318  0.694116  1
  O  O18  1  0.794478  0.048682  0.694116  1
  O  O19  1  0.523322  0.750000  0.831986  1
  O  O20  1  0.376582  0.250000  0.892233  1
  O  O21  1  0.925519  0.750000  0.924651  1
