# generated using pymatgen
data_Na4Co2P(CO4)4
_symmetry_space_group_name_H-M   'P 1'
_cell_length_a   10.00002545
_cell_length_b   9.98494052
_cell_length_c   9.80950725
_cell_angle_alpha   60.68070134
_cell_angle_beta   60.52717233
_cell_angle_gamma   58.79212633
_symmetry_Int_Tables_number   1
_chemical_formula_structural   Na4Co2P(CO4)4
_chemical_formula_sum   'Na8 Co4 P2 C8 O32'
_cell_volume   692.13532396
_cell_formula_units_Z   2
loop_
 _symmetry_equiv_pos_site_id
 _symmetry_equiv_pos_as_xyz
  1  'x, y, z'
loop_
 _atom_site_type_symbol
 _atom_site_label
 _atom_site_symmetry_multiplicity
 _atom_site_fract_x
 _atom_site_fract_y
 _atom_site_fract_z
 _atom_site_occupancy
  Na  Na0  1  0.536000  0.964000  0.536000  1
  Na  Na1  1  0.963571  0.536429  0.536429  1
  Na  Na2  1  0.713571  0.286429  0.286429  1
  Na  Na3  1  0.286000  0.714000  0.286000  1
  Na  Na4  1  0.964000  0.536000  0.964000  1
  Na  Na5  1  0.536429  0.963571  0.963571  1
  Na  Na6  1  0.286429  0.713571  0.713571  1
  Na  Na7  1  0.714000  0.286000  0.714000  1
  Co  Co8  1  0.125000  0.125000  0.625000  1
  Co  Co9  1  0.125000  0.125000  0.125000  1
  Co  Co10  1  0.625000  0.125000  0.125000  1
  Co  Co11  1  0.125000  0.625000  0.125000  1
  P  P12  1  0.500000  0.500000  0.500000  1
  P  P13  1  0.750000  0.750000  0.750000  1
  C  C14  1  0.912785  0.915934  0.268430  1
  C  C15  1  0.334066  0.337215  0.347149  1
  C  C16  1  0.268430  0.902851  0.912785  1
  C  C17  1  0.902851  0.268430  0.915934  1
  C  C18  1  0.347149  0.981570  0.334066  1
  C  C19  1  0.981570  0.347149  0.337215  1
  C  C20  1  0.915934  0.912785  0.902851  1
  C  C21  1  0.337215  0.334066  0.981570  1
  O  O22  1  0.768025  0.944567  0.275800  1
  O  O23  1  0.570429  0.307906  0.561373  1
  O  O24  1  0.941889  0.032004  0.260619  1
  O  O25  1  0.217996  0.308111  0.484511  1
  O  O26  1  0.260619  0.765489  0.941889  1
  O  O27  1  0.480223  0.223664  0.322179  1
  O  O28  1  0.561373  0.560293  0.570429  1
  O  O29  1  0.307906  0.570429  0.560293  1
  O  O30  1  0.973934  0.322179  0.223664  1
  O  O31  1  0.765489  0.260619  0.032004  1
  O  O32  1  0.305433  0.481975  0.238392  1
  O  O33  1  0.560293  0.561373  0.307906  1
  O  O34  1  0.275800  0.011608  0.768025  1
  O  O35  1  0.011608  0.275800  0.944567  1
  O  O36  1  0.026336  0.769777  0.276066  1
  O  O37  1  0.322179  0.973934  0.480223  1
  O  O38  1  0.927821  0.276066  0.769777  1
  O  O39  1  0.223664  0.480223  0.973934  1
  O  O40  1  0.238392  0.974200  0.305433  1
  O  O41  1  0.974200  0.238392  0.481975  1
  O  O42  1  0.689707  0.688627  0.942094  1
  O  O43  1  0.944567  0.768025  0.011608  1
  O  O44  1  0.484511  0.989381  0.217996  1
  O  O45  1  0.276066  0.927821  0.026336  1
  O  O46  1  0.942094  0.679571  0.689707  1
  O  O47  1  0.688627  0.689707  0.679571  1
  O  O48  1  0.769777  0.026336  0.927821  1
  O  O49  1  0.989381  0.484511  0.308111  1
  O  O50  1  0.032004  0.941889  0.765489  1
  O  O51  1  0.308111  0.217996  0.989381  1
  O  O52  1  0.679571  0.942094  0.688627  1
  O  O53  1  0.481975  0.305433  0.974200  1
