# generated using pymatgen
data_FePH5NO4F
_symmetry_space_group_name_H-M   'P 1'
_cell_length_a   6.32693551
_cell_length_b   6.53459114
_cell_length_c   7.11086478
_cell_angle_alpha   89.86684558
_cell_angle_beta   89.83080897
_cell_angle_gamma   84.84049311
_symmetry_Int_Tables_number   1
_chemical_formula_structural   FePH5NO4F
_chemical_formula_sum   'Fe2 P2 H10 N2 O8 F2'
_cell_volume   292.79804921
_cell_formula_units_Z   2
loop_
 _symmetry_equiv_pos_site_id
 _symmetry_equiv_pos_as_xyz
  1  'x, y, z'
loop_
 _atom_site_type_symbol
 _atom_site_label
 _atom_site_symmetry_multiplicity
 _atom_site_fract_x
 _atom_site_fract_y
 _atom_site_fract_z
 _atom_site_occupancy
  Fe  Fe0  1  0.523764  0.492562  0.529722  1
  Fe  Fe1  1  0.023509  0.989327  0.473313  1
  P  P2  1  0.300151  0.933030  0.886006  1
  P  P3  1  0.798292  0.435603  0.115156  1
  H  H4  1  0.656844  0.494786  0.967200  1
  H  H5  1  0.171067  0.495111  0.358813  1
  H  H6  1  0.287488  0.612633  0.208003  1
  H  H7  1  0.431268  0.764466  0.952295  1
  H  H8  1  0.432194  0.095293  0.881405  1
  H  H9  1  0.156202  0.989764  0.033255  1
  H  H10  1  0.781367  0.103347  0.794096  1
  H  H11  1  0.665192  0.002624  0.633198  1
  H  H12  1  0.931788  0.596624  0.121375  1
  H  H13  1  0.928452  0.266531  0.048878  1
  N  N14  1  0.160026  0.418501  0.812591  1
  N  N15  1  0.658882  0.924196  0.186276  1
  O  O16  1  0.252655  0.616076  0.342394  1
  O  O17  1  0.194695  0.890166  0.699514  1
  O  O18  1  0.238161  0.384896  0.647132  1
  O  O19  1  0.791027  0.966503  0.062662  1
  O  O20  1  0.753161  0.116716  0.658649  1
  O  O21  1  0.735587  0.888963  0.351736  1
  O  O22  1  0.689225  0.392700  0.300664  1
  O  O23  1  0.290159  0.465460  0.935327  1
  F  F24  1  0.151175  0.172107  0.306263  1
  F  F25  1  0.657868  0.672014  0.694076  1
