# generated using pymatgen
data_Li4Mn5Te3O16
_symmetry_space_group_name_H-M   'P 1'
_cell_length_a   6.27610970
_cell_length_b   6.28221766
_cell_length_c   9.98646506
_cell_angle_alpha   89.57825942
_cell_angle_beta   89.39360976
_cell_angle_gamma   60.19486910
_symmetry_Int_Tables_number   1
_chemical_formula_structural   Li4Mn5Te3O16
_chemical_formula_sum   'Li4 Mn5 Te3 O16'
_cell_volume   341.64083735
_cell_formula_units_Z   1
loop_
 _symmetry_equiv_pos_site_id
 _symmetry_equiv_pos_as_xyz
  1  'x, y, z'
loop_
 _atom_site_type_symbol
 _atom_site_label
 _atom_site_symmetry_multiplicity
 _atom_site_fract_x
 _atom_site_fract_y
 _atom_site_fract_z
 _atom_site_occupancy
  Li  Li0  1  0.347207  0.340953  0.871445  1
  Li  Li1  1  0.005089  0.002625  0.995483  1
  Li  Li2  1  0.997449  0.007324  0.504317  1
  Li  Li3  1  0.692434  0.675608  0.397117  1
  Mn  Mn4  1  0.315916  0.318567  0.507459  1
  Mn  Mn5  1  0.169687  0.164353  0.214992  1
  Mn  Mn6  1  0.643006  0.666306  0.989763  1
  Mn  Mn7  1  0.830360  0.335778  0.714692  1
  Mn  Mn8  1  0.335185  0.831135  0.714810  1
  Te  Te9  1  0.662798  0.167292  0.215803  1
  Te  Te10  1  0.171539  0.655982  0.217955  1
  Te  Te11  1  0.829938  0.830326  0.715416  1
  O  O12  1  0.688423  0.135952  0.607428  1
  O  O13  1  0.510401  0.466020  0.330183  1
  O  O14  1  0.366660  0.319439  0.101098  1
  O  O15  1  0.966099  0.018025  0.321016  1
  O  O16  1  0.982430  0.982940  0.816249  1
  O  O17  1  0.136352  0.691295  0.606002  1
  O  O18  1  0.510040  0.035415  0.332430  1
  O  O19  1  0.045224  0.480733  0.343854  1
  O  O20  1  0.812063  0.870680  0.103322  1
  O  O21  1  0.151122  0.145096  0.615119  1
  O  O22  1  0.965251  0.534814  0.828868  1
  O  O23  1  0.530605  0.967290  0.825882  1
  O  O24  1  0.684505  0.683285  0.601924  1
  O  O25  1  0.818133  0.305254  0.102776  1
  O  O26  1  0.522583  0.526734  0.816962  1
  O  O27  1  0.309800  0.840481  0.095475  1
