# generated using pymatgen
data_Co3SbO8
_symmetry_space_group_name_H-M   'P 1'
_cell_length_a   5.66954194
_cell_length_b   5.66954194
_cell_length_c   9.09986740
_cell_angle_alpha   89.80266002
_cell_angle_beta   90.19733998
_cell_angle_gamma   60.35863054
_symmetry_Int_Tables_number   1
_chemical_formula_structural   Co3SbO8
_chemical_formula_sum   'Co6 Sb2 O16'
_cell_volume   254.21992375
_cell_formula_units_Z   2
loop_
 _symmetry_equiv_pos_site_id
 _symmetry_equiv_pos_as_xyz
  1  'x, y, z'
loop_
 _atom_site_type_symbol
 _atom_site_label
 _atom_site_symmetry_multiplicity
 _atom_site_fract_x
 _atom_site_fract_y
 _atom_site_fract_z
 _atom_site_occupancy
  Co  Co0  1  0.829576  0.338867  0.214598  1
  Co  Co1  1  0.334053  0.832498  0.210617  1
  Co  Co2  1  0.830181  0.830973  0.215788  1
  Co  Co3  1  0.169027  0.169819  0.715788  1
  Co  Co4  1  0.661133  0.170424  0.714598  1
  Co  Co5  1  0.167502  0.665947  0.710617  1
  Sb  Sb6  1  0.669851  0.661652  0.492075  1
  Sb  Sb7  1  0.338348  0.330149  0.992075  1
  O  O8  1  0.843436  0.315347  0.598767  1
  O  O9  1  0.512693  0.518958  0.332403  1
  O  O10  1  0.668146  0.669803  0.111329  1
  O  O11  1  0.996312  0.996242  0.310028  1
  O  O12  1  0.003758  0.003688  0.810028  1
  O  O13  1  0.318616  0.839142  0.601611  1
  O  O14  1  0.968572  0.518103  0.334880  1
  O  O15  1  0.514014  0.968317  0.333146  1
  O  O16  1  0.161170  0.156527  0.102621  1
  O  O17  1  0.843473  0.838830  0.602621  1
  O  O18  1  0.481897  0.031428  0.834880  1
  O  O19  1  0.031683  0.485986  0.833145  1
  O  O20  1  0.330197  0.331854  0.611329  1
  O  O21  1  0.684653  0.156564  0.098767  1
  O  O22  1  0.481042  0.487307  0.832403  1
  O  O23  1  0.160858  0.681384  0.101611  1
