# generated using pymatgen
data_MnFe(PO4)2
_symmetry_space_group_name_H-M   'P 1'
_cell_length_a   8.49985262
_cell_length_b   8.49985262
_cell_length_c   8.49985262
_cell_angle_alpha   60.80810774
_cell_angle_beta   60.80810774
_cell_angle_gamma   60.80810774
_symmetry_Int_Tables_number   1
_chemical_formula_structural   MnFe(PO4)2
_chemical_formula_sum   'Mn3 Fe3 P6 O24'
_cell_volume   442.14363873
_cell_formula_units_Z   3
loop_
 _symmetry_equiv_pos_site_id
 _symmetry_equiv_pos_as_xyz
  1  'x, y, z'
loop_
 _atom_site_type_symbol
 _atom_site_label
 _atom_site_symmetry_multiplicity
 _atom_site_fract_x
 _atom_site_fract_y
 _atom_site_fract_z
 _atom_site_occupancy
  Mn  Mn0  1  0.641845  0.641845  0.641845  1
  Mn  Mn1  1  0.855680  0.855680  0.855680  1
  Mn  Mn2  1  0.357679  0.357679  0.357679  1
  Fe  Fe3  1  0.000116  0.000116  0.000116  1
  Fe  Fe4  1  0.145472  0.145472  0.145472  1
  Fe  Fe5  1  0.499168  0.499168  0.499168  1
  P  P6  1  0.957880  0.251032  0.545792  1
  P  P7  1  0.545792  0.957880  0.251032  1
  P  P8  1  0.251032  0.545792  0.957880  1
  P  P9  1  0.748970  0.457079  0.039227  1
  P  P10  1  0.457079  0.039227  0.748970  1
  P  P11  1  0.039227  0.748970  0.457079  1
  O  O12  1  0.511919  0.115789  0.311878  1
  O  O13  1  0.311878  0.511919  0.115789  1
  O  O14  1  0.115789  0.311878  0.511919  1
  O  O15  1  0.941252  0.092182  0.748362  1
  O  O16  1  0.993690  0.185618  0.389491  1
  O  O17  1  0.757711  0.411763  0.560032  1
  O  O18  1  0.748362  0.941252  0.092182  1
  O  O19  1  0.560032  0.757711  0.411763  1
  O  O20  1  0.816967  0.609234  0.006203  1
  O  O21  1  0.411763  0.560032  0.757711  1
  O  O22  1  0.909679  0.254763  0.052325  1
  O  O23  1  0.609234  0.006203  0.816967  1
  O  O24  1  0.389491  0.993690  0.185618  1
  O  O25  1  0.092182  0.748362  0.941252  1
  O  O26  1  0.588089  0.444179  0.238203  1
  O  O27  1  0.185618  0.389491  0.993690  1
  O  O28  1  0.444179  0.238203  0.588089  1
  O  O29  1  0.254763  0.052325  0.909679  1
  O  O30  1  0.238203  0.588089  0.444179  1
  O  O31  1  0.006203  0.816967  0.609234  1
  O  O32  1  0.052325  0.909679  0.254763  1
  O  O33  1  0.883001  0.680837  0.496907  1
  O  O34  1  0.680837  0.496907  0.883001  1
  O  O35  1  0.496907  0.883001  0.680837  1
