# generated using pymatgen
data_Li2Co(CO3)2
_symmetry_space_group_name_H-M   'P 1'
_cell_length_a   7.57659685
_cell_length_b   9.68583103
_cell_length_c   7.93469530
_cell_angle_alpha   90.00000000
_cell_angle_beta   110.24812921
_cell_angle_gamma   90.00000000
_symmetry_Int_Tables_number   1
_chemical_formula_structural   Li2Co(CO3)2
_chemical_formula_sum   'Li8 Co4 C8 O24'
_cell_volume   546.30851614
_cell_formula_units_Z   4
loop_
 _symmetry_equiv_pos_site_id
 _symmetry_equiv_pos_as_xyz
  1  'x, y, z'
loop_
 _atom_site_type_symbol
 _atom_site_label
 _atom_site_symmetry_multiplicity
 _atom_site_fract_x
 _atom_site_fract_y
 _atom_site_fract_z
 _atom_site_occupancy
  Li  Li0  1  0.565033  0.130700  0.234690  1
  Li  Li1  1  0.922050  0.176751  0.102168  1
  Li  Li2  1  0.434967  0.630700  0.765310  1
  Li  Li3  1  0.077950  0.676751  0.897832  1
  Li  Li4  1  0.974558  0.366895  0.702430  1
  Li  Li5  1  0.717383  0.872654  0.406503  1
  Li  Li6  1  0.282617  0.372654  0.593497  1
  Li  Li7  1  0.025442  0.866895  0.297570  1
  Co  Co8  1  0.190943  0.887042  0.684828  1
  Co  Co9  1  0.809057  0.387042  0.315172  1
  Co  Co10  1  0.674802  0.628537  0.183537  1
  Co  Co11  1  0.325198  0.128537  0.816463  1
  C  C12  1  0.545639  0.893147  0.007040  1
  C  C13  1  0.454361  0.393147  0.992960  1
  C  C14  1  0.923698  0.489277  0.022397  1
  C  C15  1  0.076302  0.989277  0.977603  1
  C  C16  1  0.419147  0.003343  0.504958  1
  C  C17  1  0.580853  0.503343  0.495042  1
  C  C18  1  0.036703  0.621343  0.523863  1
  C  C19  1  0.963297  0.121343  0.476137  1
  O  O20  1  0.657440  0.834189  0.150715  1
  O  O21  1  0.541551  0.321892  0.135648  1
  O  O22  1  0.476980  0.525979  0.988135  1
  O  O23  1  0.523020  0.025979  0.011865  1
  O  O24  1  0.458449  0.821892  0.864352  1
  O  O25  1  0.342560  0.334189  0.849285  1
  O  O26  1  0.900923  0.377501  0.106019  1
  O  O27  1  0.867804  0.608368  0.059874  1
  O  O28  1  0.995616  0.983143  0.095370  1
  O  O29  1  0.004384  0.483143  0.904630  1
  O  O30  1  0.132196  0.108368  0.940126  1
  O  O31  1  0.099077  0.877501  0.893981  1
  O  O32  1  0.432227  0.103278  0.618372  1
  O  O33  1  0.477918  0.502493  0.593689  1
  O  O34  1  0.299561  0.901410  0.489802  1
  O  O35  1  0.700439  0.401410  0.510198  1
  O  O36  1  0.522082  0.002493  0.406311  1
  O  O37  1  0.567773  0.603278  0.381628  1
  O  O38  1  0.154574  0.673039  0.671348  1
  O  O39  1  0.959983  0.988085  0.499552  1
  O  O40  1  0.078858  0.201996  0.591779  1
  O  O41  1  0.921142  0.701996  0.408221  1
  O  O42  1  0.040017  0.488085  0.500448  1
  O  O43  1  0.845426  0.173039  0.328652  1
