# generated using pymatgen
data_LiV(CO3)2
_symmetry_space_group_name_H-M   'P 1'
_cell_length_a   6.15000208
_cell_length_b   4.65822041
_cell_length_c   7.68833619
_cell_angle_alpha   90.00000000
_cell_angle_beta   112.17361148
_cell_angle_gamma   90.00000000
_symmetry_Int_Tables_number   1
_chemical_formula_structural   LiV(CO3)2
_chemical_formula_sum   'Li2 V2 C4 O12'
_cell_volume   203.96681870
_cell_formula_units_Z   2
loop_
 _symmetry_equiv_pos_site_id
 _symmetry_equiv_pos_as_xyz
  1  'x, y, z'
loop_
 _atom_site_type_symbol
 _atom_site_label
 _atom_site_symmetry_multiplicity
 _atom_site_fract_x
 _atom_site_fract_y
 _atom_site_fract_z
 _atom_site_occupancy
  Li  Li0  1  0.786842  0.987148  0.902828  1
  Li  Li1  1  0.213158  0.487148  0.097172  1
  V  V2  1  0.251544  0.518999  0.630884  1
  V  V3  1  0.748456  0.018999  0.369116  1
  C  C4  1  0.233775  0.014536  0.865945  1
  C  C5  1  0.755650  0.478047  0.616682  1
  C  C6  1  0.244350  0.978047  0.383318  1
  C  C7  1  0.766225  0.514536  0.134055  1
  O  O8  1  0.124759  0.891823  0.954025  1
  O  O9  1  0.237066  0.298833  0.852609  1
  O  O10  1  0.354785  0.874528  0.785932  1
  O  O11  1  0.609827  0.590649  0.676669  1
  O  O12  1  0.779102  0.202032  0.615787  1
  O  O13  1  0.111899  0.143404  0.443769  1
  O  O14  1  0.888101  0.643404  0.556231  1
  O  O15  1  0.220898  0.702032  0.384213  1
  O  O16  1  0.390173  0.090649  0.323331  1
  O  O17  1  0.645215  0.374528  0.214068  1
  O  O18  1  0.762934  0.798833  0.147391  1
  O  O19  1  0.875241  0.391823  0.045975  1
