# generated using pymatgen
data_Li5NbO5
_symmetry_space_group_name_H-M   'P 1'
_cell_length_a   5.33421045
_cell_length_b   5.33421045
_cell_length_c   5.88505358
_cell_angle_alpha   72.57994933
_cell_angle_beta   107.42005067
_cell_angle_gamma   135.20237386
_symmetry_Int_Tables_number   1
_chemical_formula_structural   Li5NbO5
_chemical_formula_sum   'Li5 Nb1 O5'
_cell_volume   111.63088919
_cell_formula_units_Z   1
loop_
 _symmetry_equiv_pos_site_id
 _symmetry_equiv_pos_as_xyz
  1  'x, y, z'
loop_
 _atom_site_type_symbol
 _atom_site_label
 _atom_site_symmetry_multiplicity
 _atom_site_fract_x
 _atom_site_fract_y
 _atom_site_fract_z
 _atom_site_occupancy
  Li  Li0  1  0.712955  0.287045  0.343671  1
  Li  Li1  1  0.692283  0.307717  0.859753  1
  Li  Li2  1  0.000000  1.000000  0.500000  1
  Li  Li3  1  0.307717  0.692283  0.140247  1
  Li  Li4  1  0.287045  0.712955  0.656329  1
  Nb  Nb5  1  0.000000  0.000000  0.000000  1
  O  O6  1  0.854961  0.145039  0.174689  1
  O  O7  1  0.842078  0.157922  0.682507  1
  O  O8  1  0.500000  0.500000  0.000000  1
  O  O9  1  0.157922  0.842078  0.317493  1
  O  O10  1  0.145039  0.854961  0.825311  1
