# generated using pymatgen
data_Li4Ti5Mn3O16
_symmetry_space_group_name_H-M   'P 1'
_cell_length_a   6.06256183
_cell_length_b   6.06256183
_cell_length_c   9.65841040
_cell_angle_alpha   88.25377956
_cell_angle_beta   91.74622044
_cell_angle_gamma   121.82902577
_symmetry_Int_Tables_number   1
_chemical_formula_structural   Li4Ti5Mn3O16
_chemical_formula_sum   'Li4 Ti5 Mn3 O16'
_cell_volume   301.42650025
_cell_formula_units_Z   1
loop_
 _symmetry_equiv_pos_site_id
 _symmetry_equiv_pos_as_xyz
  1  'x, y, z'
loop_
 _atom_site_type_symbol
 _atom_site_label
 _atom_site_symmetry_multiplicity
 _atom_site_fract_x
 _atom_site_fract_y
 _atom_site_fract_z
 _atom_site_occupancy
  Li  Li0  1  0.655380  0.344620  0.899627  1
  Li  Li1  1  0.998140  0.001860  0.991429  1
  Li  Li2  1  0.007294  0.992706  0.493693  1
  Li  Li3  1  0.335162  0.664838  0.400549  1
  Ti  Ti4  1  0.173624  0.826376  0.732899  1
  Ti  Ti5  1  0.349849  0.156603  0.221868  1
  Ti  Ti6  1  0.664728  0.335272  0.499875  1
  Ti  Ti7  1  0.843397  0.650151  0.221868  1
  Ti  Ti8  1  0.339804  0.660196  0.997505  1
  Mn  Mn9  1  0.833789  0.166211  0.207483  1
  Mn  Mn10  1  0.166513  0.340574  0.709302  1
  Mn  Mn11  1  0.659426  0.833487  0.709302  1
  O  O12  1  0.349919  0.160908  0.591162  1
  O  O13  1  0.522777  0.477223  0.337177  1
  O  O14  1  0.651016  0.348984  0.104972  1
  O  O15  1  0.010083  0.989917  0.304490  1
  O  O16  1  0.999226  0.000774  0.800394  1
  O  O17  1  0.839092  0.650081  0.591162  1
  O  O18  1  0.501542  0.036185  0.343739  1
  O  O19  1  0.963815  0.498458  0.343739  1
  O  O20  1  0.166766  0.833234  0.101869  1
  O  O21  1  0.838861  0.161139  0.588902  1
  O  O22  1  0.025323  0.536111  0.845609  1
  O  O23  1  0.463889  0.974677  0.845609  1
  O  O24  1  0.328168  0.671832  0.611223  1
  O  O25  1  0.182490  0.340143  0.086425  1
  O  O26  1  0.469749  0.530251  0.839545  1
  O  O27  1  0.659857  0.817510  0.086425  1
