# generated using pymatgen
data_KZrPCO7
_symmetry_space_group_name_H-M   'P 1'
_cell_length_a   5.86252144
_cell_length_b   6.71411916
_cell_length_c   10.05060243
_cell_angle_alpha   90.00000000
_cell_angle_beta   90.76712970
_cell_angle_gamma   90.00000000
_symmetry_Int_Tables_number   1
_chemical_formula_structural   KZrPCO7
_chemical_formula_sum   'K2 Zr2 P2 C2 O14'
_cell_volume   395.57301257
_cell_formula_units_Z   2
loop_
 _symmetry_equiv_pos_site_id
 _symmetry_equiv_pos_as_xyz
  1  'x, y, z'
loop_
 _atom_site_type_symbol
 _atom_site_label
 _atom_site_symmetry_multiplicity
 _atom_site_fract_x
 _atom_site_fract_y
 _atom_site_fract_z
 _atom_site_occupancy
  K  K0  1  0.746604  0.548749  0.217765  1
  K  K1  1  0.253396  0.048749  0.782235  1
  Zr  Zr2  1  0.222196  0.223996  0.347683  1
  Zr  Zr3  1  0.777804  0.723996  0.652317  1
  P  P4  1  0.271364  0.730224  0.449799  1
  P  P5  1  0.728636  0.230224  0.550201  1
  C  C6  1  0.277749  0.269399  0.094294  1
  C  C7  1  0.722251  0.769399  0.905706  1
  O  O8  1  0.695083  0.792989  0.025506  1
  O  O9  1  0.074352  0.258734  0.154898  1
  O  O10  1  0.448284  0.251214  0.185040  1
  O  O11  1  0.231526  0.915001  0.360377  1
  O  O12  1  0.229192  0.543289  0.364292  1
  O  O13  1  0.896037  0.238045  0.432265  1
  O  O14  1  0.519715  0.730512  0.504695  1
  O  O15  1  0.480285  0.230512  0.495305  1
  O  O16  1  0.103963  0.738045  0.567735  1
  O  O17  1  0.770808  0.043289  0.635708  1
  O  O18  1  0.768474  0.415001  0.639623  1
  O  O19  1  0.551716  0.751214  0.814960  1
  O  O20  1  0.925648  0.758734  0.845102  1
  O  O21  1  0.304917  0.292989  0.974494  1
