# generated using pymatgen
data_V2OF5
_symmetry_space_group_name_H-M   'P 1'
_cell_length_a   4.63930794
_cell_length_b   8.47752242
_cell_length_c   8.54404149
_cell_angle_alpha   60.75595990
_cell_angle_beta   89.67454557
_cell_angle_gamma   89.43723619
_symmetry_Int_Tables_number   1
_chemical_formula_structural   V2OF5
_chemical_formula_sum   'V6 O3 F15'
_cell_volume   293.19264363
_cell_formula_units_Z   3
loop_
 _symmetry_equiv_pos_site_id
 _symmetry_equiv_pos_as_xyz
  1  'x, y, z'
loop_
 _atom_site_type_symbol
 _atom_site_label
 _atom_site_symmetry_multiplicity
 _atom_site_fract_x
 _atom_site_fract_y
 _atom_site_fract_z
 _atom_site_occupancy
  V  V0  1  0.004961  0.662463  0.337943  1
  V  V1  1  0.004916  0.327429  0.005892  1
  V  V2  1  0.479508  0.016952  0.327685  1
  V  V3  1  0.478900  0.352843  0.657400  1
  V  V4  1  0.993673  0.995872  0.673470  1
  V  V5  1  0.522176  0.675127  0.983878  1
  O  O6  1  0.265485  0.199614  0.219560  1
  O  O7  1  0.262365  0.535214  0.551053  1
  O  O8  1  0.733097  0.781380  0.801479  1
  F  F9  1  0.753809  0.115885  0.117979  1
  F  F10  1  0.255059  0.878588  0.240425  1
  F  F11  1  0.747617  0.794971  0.419599  1
  F  F12  1  0.749195  0.446697  0.102766  1
  F  F13  1  0.757173  0.091510  0.452380  1
  F  F14  1  0.247877  0.898237  0.551453  1
  F  F15  1  0.255644  0.232827  0.884347  1
  F  F16  1  0.746496  0.427965  0.784887  1
  F  F17  1  0.256599  0.581690  0.203406  1
  F  F18  1  0.741570  0.761613  0.120972  1
  F  F19  1  0.754749  0.448746  0.450905  1
  F  F20  1  0.265583  0.211135  0.571178  1
  F  F21  1  0.244189  0.547967  0.908093  1
  F  F22  1  0.745280  0.129246  0.752724  1
  F  F23  1  0.244342  0.885634  0.883201  1
