# generated using pymatgen
data_MnVP2(HO5)2
_symmetry_space_group_name_H-M   'P 1'
_cell_length_a   5.14889575
_cell_length_b   5.24961120
_cell_length_c   7.23307567
_cell_angle_alpha   109.60011090
_cell_angle_beta   105.56544271
_cell_angle_gamma   98.83635359
_symmetry_Int_Tables_number   1
_chemical_formula_structural   MnVP2(HO5)2
_chemical_formula_sum   'Mn1 V1 P2 H2 O10'
_cell_volume   170.91161335
_cell_formula_units_Z   1
loop_
 _symmetry_equiv_pos_site_id
 _symmetry_equiv_pos_as_xyz
  1  'x, y, z'
loop_
 _atom_site_type_symbol
 _atom_site_label
 _atom_site_symmetry_multiplicity
 _atom_site_fract_x
 _atom_site_fract_y
 _atom_site_fract_z
 _atom_site_occupancy
  Mn  Mn0  1  0.000000  0.000000  0.000000  1
  V  V1  1  0.000000  0.000000  0.500000  1
  P  P2  1  0.326759  0.658983  0.223549  1
  P  P3  1  0.673241  0.341017  0.776451  1
  H  H4  1  0.644591  0.968538  0.332320  1
  H  H5  1  0.355409  0.031462  0.667680  1
  O  O6  1  0.142643  0.970024  0.723441  1
  O  O7  1  0.290268  0.817219  0.379848  1
  O  O8  1  0.725543  0.651198  0.655555  1
  O  O9  1  0.636687  0.767672  0.060073  1
  O  O10  1  0.112592  0.680953  0.117920  1
  O  O11  1  0.887408  0.319047  0.882080  1
  O  O12  1  0.363313  0.232328  0.939927  1
  O  O13  1  0.274457  0.348802  0.344445  1
  O  O14  1  0.709732  0.182781  0.620152  1
  O  O15  1  0.857357  0.029976  0.276559  1
