# generated using pymatgen
data_LaSiNi
_symmetry_space_group_name_H-M   'P 1'
_cell_length_a   7.60797299
_cell_length_b   7.60797299
_cell_length_c   7.60797299
_cell_angle_alpha   148.09736242
_cell_angle_beta   148.09736242
_cell_angle_gamma   45.74165975
_symmetry_Int_Tables_number   1
_chemical_formula_structural   LaSiNi
_chemical_formula_sum   'La2 Si2 Ni2'
_cell_volume   122.57603847
_cell_formula_units_Z   2
loop_
 _symmetry_equiv_pos_site_id
 _symmetry_equiv_pos_as_xyz
  1  'x, y, z'
loop_
 _atom_site_type_symbol
 _atom_site_label
 _atom_site_symmetry_multiplicity
 _atom_site_fract_x
 _atom_site_fract_y
 _atom_site_fract_z
 _atom_site_occupancy
  La  La0  1  0.748218  0.748218  0.000000  1
  La  La1  1  0.498218  0.998218  0.500000  1
  Si  Si2  1  0.168549  0.168549  0.000000  1
  Si  Si3  1  0.918549  0.418549  0.500000  1
  Ni  Ni4  1  0.087233  0.587233  0.500000  1
  Ni  Ni5  1  0.337233  0.337233  0.000000  1
