# generated using pymatgen
data_Ce4ThO8
_symmetry_space_group_name_H-M   'P 1'
_cell_length_a   14.17722088
_cell_length_b   14.17722088
_cell_length_c   14.17722088
_cell_angle_alpha   164.09691707
_cell_angle_beta   163.93268216
_cell_angle_gamma   22.68133605
_symmetry_Int_Tables_number   1
_chemical_formula_structural   Ce4ThO8
_chemical_formula_sum   'Ce4 Th1 O8'
_cell_volume   216.05806461
_cell_formula_units_Z   1
loop_
 _symmetry_equiv_pos_site_id
 _symmetry_equiv_pos_as_xyz
  1  'x, y, z'
loop_
 _atom_site_type_symbol
 _atom_site_label
 _atom_site_symmetry_multiplicity
 _atom_site_fract_x
 _atom_site_fract_y
 _atom_site_fract_z
 _atom_site_occupancy
  Ce  Ce0  1  0.402931  0.902931  0.500000  1
  Ce  Ce1  1  0.796620  0.296620  0.500000  1
  Ce  Ce2  1  0.203380  0.703380  0.500000  1
  Ce  Ce3  1  0.597069  0.097069  0.500000  1
  Th  Th4  1  0.000000  0.500000  0.500000  1
  O  O5  1  0.446825  0.446825  0.000000  1
  O  O6  1  0.951240  0.951240  0.000000  1
  O  O7  1  0.848430  0.848430  0.000000  1
  O  O8  1  0.258222  0.258222  0.000000  1
  O  O9  1  0.741778  0.741778  0.000000  1
  O  O10  1  0.151570  0.151570  0.000000  1
  O  O11  1  0.048760  0.048760  0.000000  1
  O  O12  1  0.553175  0.553175  0.000000  1
