# generated using pymatgen
data_Mn3Nb(PO4)6
_symmetry_space_group_name_H-M   'P 1'
_cell_length_a   8.75714962
_cell_length_b   8.75714962
_cell_length_c   8.75714962
_cell_angle_alpha   58.31185450
_cell_angle_beta   58.31185450
_cell_angle_gamma   58.31185450
_symmetry_Int_Tables_number   1
_chemical_formula_structural   Mn3Nb(PO4)6
_chemical_formula_sum   'Mn3 Nb1 P6 O24'
_cell_volume   456.51085199
_cell_formula_units_Z   1
loop_
 _symmetry_equiv_pos_site_id
 _symmetry_equiv_pos_as_xyz
  1  'x, y, z'
loop_
 _atom_site_type_symbol
 _atom_site_label
 _atom_site_symmetry_multiplicity
 _atom_site_fract_x
 _atom_site_fract_y
 _atom_site_fract_z
 _atom_site_occupancy
  Mn  Mn0  1  0.855361  0.855361  0.855361  1
  Mn  Mn1  1  0.643406  0.643406  0.643406  1
  Mn  Mn2  1  0.355422  0.355422  0.355422  1
  Nb  Nb3  1  0.138981  0.138981  0.138981  1
  P  P4  1  0.250432  0.542022  0.963109  1
  P  P5  1  0.963109  0.250432  0.542022  1
  P  P6  1  0.542022  0.963109  0.250432  1
  P  P7  1  0.476631  0.032308  0.735965  1
  P  P8  1  0.032308  0.735965  0.476631  1
  P  P9  1  0.735965  0.476631  0.032308  1
  O  O10  1  0.720736  0.492622  0.857806  1
  O  O11  1  0.492622  0.857806  0.720736  1
  O  O12  1  0.074220  0.724163  0.938178  1
  O  O13  1  0.857806  0.720736  0.492622  1
  O  O14  1  0.425126  0.563714  0.779518  1
  O  O15  1  0.221613  0.367370  0.992746  1
  O  O16  1  0.938178  0.074220  0.724163  1
  O  O17  1  0.779518  0.425126  0.563714  1
  O  O18  1  0.563714  0.779518  0.425126  1
  O  O19  1  0.644591  0.010889  0.767993  1
  O  O20  1  0.293136  0.059723  0.914385  1
  O  O21  1  0.010889  0.767993  0.644591  1
  O  O22  1  0.992746  0.221613  0.367370  1
  O  O23  1  0.724163  0.938178  0.074220  1
  O  O24  1  0.367370  0.992746  0.221613  1
  O  O25  1  0.449537  0.216130  0.564784  1
  O  O26  1  0.216130  0.564784  0.449537  1
  O  O27  1  0.059723  0.914385  0.293136  1
  O  O28  1  0.767993  0.644591  0.010889  1
  O  O29  1  0.564784  0.449537  0.216130  1
  O  O30  1  0.139329  0.273012  0.515040  1
  O  O31  1  0.914385  0.293136  0.059723  1
  O  O32  1  0.515040  0.139329  0.273012  1
  O  O33  1  0.273012  0.515040  0.139329  1
