# generated using pymatgen
data_Bi12BO20
_symmetry_space_group_name_H-M   'P 1'
_cell_length_a   8.78572510
_cell_length_b   8.78572510
_cell_length_c   8.78572510
_cell_angle_alpha   109.47122063
_cell_angle_beta   109.47122063
_cell_angle_gamma   109.47122063
_symmetry_Int_Tables_number   1
_chemical_formula_structural   Bi12BO20
_chemical_formula_sum   'Bi12 B1 O20'
_cell_volume   522.04860531
_cell_formula_units_Z   1
loop_
 _symmetry_equiv_pos_site_id
 _symmetry_equiv_pos_as_xyz
  1  'x, y, z'
loop_
 _atom_site_type_symbol
 _atom_site_label
 _atom_site_symmetry_multiplicity
 _atom_site_fract_x
 _atom_site_fract_y
 _atom_site_fract_z
 _atom_site_occupancy
  Bi  Bi0  1  0.839256  0.328550  0.141022  1
  Bi  Bi1  1  0.489294  0.160744  0.301766  1
  Bi  Bi2  1  0.858978  0.187528  0.698234  1
  Bi  Bi3  1  0.698234  0.858978  0.187528  1
  Bi  Bi4  1  0.301766  0.489294  0.160744  1
  Bi  Bi5  1  0.812472  0.671450  0.510706  1
  Bi  Bi6  1  0.160744  0.301766  0.489294  1
  Bi  Bi7  1  0.671450  0.510706  0.812472  1
  Bi  Bi8  1  0.328550  0.141022  0.839256  1
  Bi  Bi9  1  0.510706  0.812472  0.671450  1
  Bi  Bi10  1  0.141022  0.839256  0.328550  1
  Bi  Bi11  1  0.187528  0.698234  0.858978  1
  B  B12  1  0.000000  0.000000  0.000000  1
  O  O13  1  0.399581  1.000000  1.000000  1
  O  O14  1  0.740485  0.122940  0.354891  1
  O  O15  1  0.877060  0.617545  0.231951  1
  O  O16  1  0.614406  0.382455  0.259515  1
  O  O17  1  0.172304  0.172304  0.172304  1
  O  O18  1  0.827696  1.000000  0.000000  1
  O  O19  1  0.768049  0.385594  0.645109  1
  O  O20  1  1.000000  0.399581  0.000000  1
  O  O21  1  0.382455  0.259515  0.614406  1
  O  O22  1  0.617545  0.231951  0.877060  1
  O  O23  1  0.354891  0.740485  0.122940  1
  O  O24  1  0.645109  0.768049  0.385594  1
  O  O25  1  0.600419  0.600419  0.600419  1
  O  O26  1  0.259515  0.614406  0.382455  1
  O  O27  1  1.000000  1.000000  0.827696  1
  O  O28  1  1.000000  0.827696  0.000000  1
  O  O29  1  0.122940  0.354891  0.740485  1
  O  O30  1  0.385594  0.645109  0.768049  1
  O  O31  1  0.231951  0.877060  0.617545  1
  O  O32  1  1.000000  0.000000  0.399581  1
