# generated using pymatgen
data_LiV(OF)2
_symmetry_space_group_name_H-M   'P 1'
_cell_length_a   5.96626823
_cell_length_b   5.95931875
_cell_length_c   8.29065907
_cell_angle_alpha   90.00000000
_cell_angle_beta   90.43478574
_cell_angle_gamma   90.00000000
_symmetry_Int_Tables_number   1
_chemical_formula_structural   LiV(OF)2
_chemical_formula_sum   'Li4 V4 O8 F8'
_cell_volume   294.76501836
_cell_formula_units_Z   4
loop_
 _symmetry_equiv_pos_site_id
 _symmetry_equiv_pos_as_xyz
  1  'x, y, z'
loop_
 _atom_site_type_symbol
 _atom_site_label
 _atom_site_symmetry_multiplicity
 _atom_site_fract_x
 _atom_site_fract_y
 _atom_site_fract_z
 _atom_site_occupancy
  Li  Li0  1  0.752023  0.757566  0.632906  1
  Li  Li1  1  0.247977  0.757566  0.367094  1
  Li  Li2  1  0.251431  0.254546  0.136797  1
  Li  Li3  1  0.748569  0.254546  0.863203  1
  V  V4  1  0.733123  0.972210  0.234203  1
  V  V5  1  0.266877  0.972210  0.765797  1
  V  V6  1  0.000000  0.760489  0.000000  1
  V  V7  1  0.000000  0.273858  0.500000  1
  O  O8  1  0.229899  0.976863  0.984673  1
  O  O9  1  0.770101  0.976863  0.015327  1
  O  O10  1  0.539468  0.784807  0.268455  1
  O  O11  1  0.460532  0.784807  0.731545  1
  O  O12  1  0.983657  0.779910  0.223217  1
  O  O13  1  0.016343  0.779910  0.776783  1
  O  O14  1  0.011191  0.211351  0.706846  1
  O  O15  1  0.988809  0.211351  0.293154  1
  F  F16  1  0.790239  0.527219  0.974027  1
  F  F17  1  0.209761  0.527219  0.025973  1
  F  F18  1  0.779500  0.482982  0.515397  1
  F  F19  1  0.220500  0.482982  0.484603  1
  F  F20  1  0.541659  0.221858  0.232578  1
  F  F21  1  0.458341  0.221858  0.767422  1
  F  F22  1  0.770495  0.009343  0.487217  1
  F  F23  1  0.229505  0.009343  0.512783  1
