# generated using pymatgen
data_Li12V3CoP4(CO7)4
_symmetry_space_group_name_H-M   'P 1'
_cell_length_a   8.48173958
_cell_length_b   6.59471600
_cell_length_c   10.00792834
_cell_angle_alpha   90.00000000
_cell_angle_beta   95.36622860
_cell_angle_gamma   90.00000000
_symmetry_Int_Tables_number   1
_chemical_formula_structural   Li12V3CoP4(CO7)4
_chemical_formula_sum   'Li12 V3 Co1 P4 C4 O28'
_cell_volume   557.33669231
_cell_formula_units_Z   1
loop_
 _symmetry_equiv_pos_site_id
 _symmetry_equiv_pos_as_xyz
  1  'x, y, z'
loop_
 _atom_site_type_symbol
 _atom_site_label
 _atom_site_symmetry_multiplicity
 _atom_site_fract_x
 _atom_site_fract_y
 _atom_site_fract_z
 _atom_site_occupancy
  Li  Li0  1  0.900706  0.000000  0.384146  1
  Li  Li1  1  0.903026  0.000000  0.884416  1
  Li  Li2  1  0.720241  0.223883  0.125234  1
  Li  Li3  1  0.720241  0.776117  0.125234  1
  Li  Li4  1  0.720585  0.222133  0.625577  1
  Li  Li5  1  0.720585  0.777867  0.625577  1
  Li  Li6  1  0.278215  0.727961  0.377163  1
  Li  Li7  1  0.278215  0.272039  0.377163  1
  Li  Li8  1  0.279020  0.726696  0.872454  1
  Li  Li9  1  0.279020  0.273304  0.872454  1
  Li  Li10  1  0.098310  0.500000  0.115150  1
  Li  Li11  1  0.097417  0.500000  0.615031  1
  V  V12  1  0.671184  0.500000  0.395519  1
  V  V13  1  0.670982  0.500000  0.896557  1
  V  V14  1  0.328757  0.000000  0.103970  1
  Co  Co15  1  0.331122  0.000000  0.605287  1
  P  P16  1  0.588047  0.000000  0.361207  1
  P  P17  1  0.589231  0.000000  0.860888  1
  P  P18  1  0.410321  0.500000  0.139446  1
  P  P19  1  0.411205  0.500000  0.639198  1
  C  C20  1  0.965147  0.500000  0.347597  1
  C  C21  1  0.965165  0.500000  0.847522  1
  C  C22  1  0.034286  0.000000  0.152269  1
  C  C23  1  0.037040  0.000000  0.650642  1
  O  O24  1  0.926964  0.500000  0.470249  1
  O  O25  1  0.888415  0.000000  0.180207  1
  O  O26  1  0.927063  0.500000  0.970391  1
  O  O27  1  0.850016  0.500000  0.251577  1
  O  O28  1  0.891490  0.000000  0.681371  1
  O  O29  1  0.850087  0.500000  0.751663  1
  O  O30  1  0.691795  0.182955  0.413425  1
  O  O31  1  0.691795  0.817045  0.413425  1
  O  O32  1  0.693278  0.182516  0.913904  1
  O  O33  1  0.693278  0.817484  0.913904  1
  O  O34  1  0.576914  0.500000  0.088619  1
  O  O35  1  0.568199  0.000000  0.204254  1
  O  O36  1  0.577377  0.500000  0.588026  1
  O  O37  1  0.566694  0.000000  0.703930  1
  O  O38  1  0.431521  0.500000  0.296228  1
  O  O39  1  0.421916  0.000000  0.413110  1
  O  O40  1  0.430864  0.500000  0.795860  1
  O  O41  1  0.422627  0.000000  0.911409  1
  O  O42  1  0.307051  0.316896  0.086562  1
  O  O43  1  0.307051  0.683104  0.086562  1
  O  O44  1  0.308746  0.685795  0.587942  1
  O  O45  1  0.308746  0.314205  0.587942  1
  O  O46  1  0.149309  0.000000  0.248080  1
  O  O47  1  0.111103  0.500000  0.319811  1
  O  O48  1  0.154032  0.000000  0.745209  1
  O  O49  1  0.072477  0.000000  0.029371  1
  O  O50  1  0.111035  0.500000  0.819573  1
  O  O51  1  0.072086  0.000000  0.527696  1
