# generated using pymatgen
data_LiCu3(CO3)3
_symmetry_space_group_name_H-M   'P 1'
_cell_length_a   8.12560183
_cell_length_b   6.51842614
_cell_length_c   8.13307945
_cell_angle_alpha   90.00000000
_cell_angle_beta   119.68359478
_cell_angle_gamma   90.00000000
_symmetry_Int_Tables_number   1
_chemical_formula_structural   LiCu3(CO3)3
_chemical_formula_sum   'Li2 Cu6 C6 O18'
_cell_volume   374.24825759
_cell_formula_units_Z   2
loop_
 _symmetry_equiv_pos_site_id
 _symmetry_equiv_pos_as_xyz
  1  'x, y, z'
loop_
 _atom_site_type_symbol
 _atom_site_label
 _atom_site_symmetry_multiplicity
 _atom_site_fract_x
 _atom_site_fract_y
 _atom_site_fract_z
 _atom_site_occupancy
  Li  Li0  1  0.025301  0.000000  0.702644  1
  Li  Li1  1  0.295646  0.500000  0.320554  1
  Cu  Cu2  1  0.978395  0.254513  0.344631  1
  Cu  Cu3  1  0.978395  0.745487  0.344631  1
  Cu  Cu4  1  0.653273  0.755730  0.642673  1
  Cu  Cu5  1  0.653273  0.244270  0.642673  1
  Cu  Cu6  1  0.374413  0.253136  0.009308  1
  Cu  Cu7  1  0.374413  0.746864  0.009308  1
  C  C8  1  0.670499  0.000000  0.339725  1
  C  C9  1  0.657824  0.500000  0.333370  1
  C  C10  1  0.006848  0.250318  0.001104  1
  C  C11  1  0.006848  0.749682  0.001104  1
  C  C12  1  0.328909  0.250336  0.663123  1
  C  C13  1  0.328909  0.749664  0.663123  1
  O  O14  1  0.925007  0.779361  0.820039  1
  O  O15  1  0.925007  0.220639  0.820039  1
  O  O16  1  0.857140  0.000000  0.413520  1
  O  O17  1  0.838947  0.500000  0.402948  1
  O  O18  1  0.603463  0.000000  0.455536  1
  O  O19  1  0.583295  0.500000  0.444725  1
  O  O20  1  0.906656  0.742646  0.082858  1
  O  O21  1  0.906656  0.257354  0.082858  1
  O  O22  1  0.561112  0.000000  0.159543  1
  O  O23  1  0.544317  0.500000  0.150831  1
  O  O24  1  0.189441  0.273594  0.098808  1
  O  O25  1  0.189441  0.726406  0.098808  1
  O  O26  1  0.507980  0.256280  0.775024  1
  O  O27  1  0.507980  0.743720  0.775024  1
  O  O28  1  0.217345  0.224117  0.733183  1
  O  O29  1  0.217345  0.775883  0.733183  1
  O  O30  1  0.256692  0.271204  0.481639  1
  O  O31  1  0.256692  0.728796  0.481639  1
