# generated using pymatgen
data_LiU3O8
_symmetry_space_group_name_H-M   'P 1'
_cell_length_a   6.89600090
_cell_length_b   6.89600090
_cell_length_c   4.22788481
_cell_angle_alpha   90.00000000
_cell_angle_beta   90.00000000
_cell_angle_gamma   119.83376512
_symmetry_Int_Tables_number   1
_chemical_formula_structural   LiU3O8
_chemical_formula_sum   'Li1 U3 O8'
_cell_volume   174.41082886
_cell_formula_units_Z   1
loop_
 _symmetry_equiv_pos_site_id
 _symmetry_equiv_pos_as_xyz
  1  'x, y, z'
loop_
 _atom_site_type_symbol
 _atom_site_label
 _atom_site_symmetry_multiplicity
 _atom_site_fract_x
 _atom_site_fract_y
 _atom_site_fract_z
 _atom_site_occupancy
  Li  Li0  1  0.422227  0.422227  0.500000  1
  U  U1  1  0.021134  0.021134  1.000000  1
  U  U2  1  0.692611  0.326804  0.000000  1
  U  U3  1  0.326804  0.692611  0.000000  1
  O  O4  1  0.053575  0.053575  0.500000  1
  O  O5  1  0.343177  0.021072  0.000000  1
  O  O6  1  0.021072  0.343177  1.000000  1
  O  O7  1  0.452809  0.452809  1.000000  1
  O  O8  1  0.663597  0.333269  0.500000  1
  O  O9  1  0.333269  0.663597  0.500000  1
  O  O10  1  0.943471  0.673752  1.000000  1
  O  O11  1  0.673752  0.943471  0.000000  1
