# generated using pymatgen
data_BaSiO3
_symmetry_space_group_name_H-M   'P 1'
_cell_length_a   7.92886454
_cell_length_b   6.39884924
_cell_length_c   14.35410516
_cell_angle_alpha   90.00000000
_cell_angle_beta   117.94777327
_cell_angle_gamma   90.00000000
_symmetry_Int_Tables_number   1
_chemical_formula_structural   BaSiO3
_chemical_formula_sum   'Ba8 Si8 O24'
_cell_volume   643.33056337
_cell_formula_units_Z   8
loop_
 _symmetry_equiv_pos_site_id
 _symmetry_equiv_pos_as_xyz
  1  'x, y, z'
loop_
 _atom_site_type_symbol
 _atom_site_label
 _atom_site_symmetry_multiplicity
 _atom_site_fract_x
 _atom_site_fract_y
 _atom_site_fract_z
 _atom_site_occupancy
  Ba  Ba0  1  0.210973  0.398283  0.125019  1
  Ba  Ba1  1  0.741967  0.092969  0.664701  1
  Ba  Ba2  1  0.789027  0.898283  0.374981  1
  Ba  Ba3  1  0.258033  0.592969  0.835299  1
  Ba  Ba4  1  0.741967  0.407031  0.164701  1
  Ba  Ba5  1  0.210973  0.101717  0.625019  1
  Ba  Ba6  1  0.258033  0.907031  0.335299  1
  Ba  Ba7  1  0.789027  0.601717  0.874981  1
  Si  Si8  1  0.548394  0.351337  0.387164  1
  Si  Si9  1  0.828455  0.586582  0.589807  1
  Si  Si10  1  0.451606  0.851337  0.112836  1
  Si  Si11  1  0.171545  0.086582  0.910193  1
  Si  Si12  1  0.828455  0.913418  0.089807  1
  Si  Si13  1  0.548394  0.148663  0.887164  1
  Si  Si14  1  0.171545  0.413418  0.410193  1
  Si  Si15  1  0.451606  0.648663  0.612836  1
  O  O16  1  0.684084  0.590591  0.648453  1
  O  O17  1  0.602262  0.135348  0.452573  1
  O  O18  1  0.438194  0.838362  0.221461  1
  O  O19  1  0.322884  0.052652  0.039195  1
  O  O20  1  0.027491  0.893179  0.855133  1
  O  O21  1  0.677116  0.552652  0.460805  1
  O  O22  1  0.071779  0.312202  0.901214  1
  O  O23  1  0.561806  0.338362  0.278539  1
  O  O24  1  0.397738  0.635348  0.047427  1
  O  O25  1  0.928221  0.812202  0.598786  1
  O  O26  1  0.972509  0.393179  0.644867  1
  O  O27  1  0.684084  0.909409  0.148453  1
  O  O28  1  0.315916  0.090591  0.851547  1
  O  O29  1  0.027491  0.606821  0.355133  1
  O  O30  1  0.071779  0.187798  0.401214  1
  O  O31  1  0.602262  0.364652  0.952573  1
  O  O32  1  0.438194  0.661638  0.721461  1
  O  O33  1  0.928221  0.687798  0.098786  1
  O  O34  1  0.322884  0.447348  0.539195  1
  O  O35  1  0.972509  0.106821  0.144867  1
  O  O36  1  0.677116  0.947348  0.960805  1
  O  O37  1  0.561806  0.161638  0.778539  1
  O  O38  1  0.397738  0.864652  0.547427  1
  O  O39  1  0.315916  0.409409  0.351547  1
