# generated using pymatgen
data_CoOF
_symmetry_space_group_name_H-M   'P 1'
_cell_length_a   4.68315851
_cell_length_b   2.92075473
_cell_length_c   18.39379292
_cell_angle_alpha   90.00000000
_cell_angle_beta   91.78588283
_cell_angle_gamma   90.00000000
_symmetry_Int_Tables_number   1
_chemical_formula_structural   CoOF
_chemical_formula_sum   'Co8 O8 F8'
_cell_volume   251.47466450
_cell_formula_units_Z   8
loop_
 _symmetry_equiv_pos_site_id
 _symmetry_equiv_pos_as_xyz
  1  'x, y, z'
loop_
 _atom_site_type_symbol
 _atom_site_label
 _atom_site_symmetry_multiplicity
 _atom_site_fract_x
 _atom_site_fract_y
 _atom_site_fract_z
 _atom_site_occupancy
  Co  Co0  1  0.030789  0.000000  0.000527  1
  Co  Co1  1  0.866669  0.000000  0.751939  1
  Co  Co2  1  0.979585  0.000000  0.500485  1
  Co  Co3  1  0.083670  0.000000  0.246649  1
  Co  Co4  1  0.445630  0.500000  0.872936  1
  Co  Co5  1  0.431660  0.500000  0.628299  1
  Co  Co6  1  0.531047  0.500000  0.374385  1
  Co  Co7  1  0.626042  0.500000  0.124316  1
  O  O8  1  0.709700  0.500000  0.798907  1
  O  O9  1  0.885542  0.500000  0.051515  1
  O  O10  1  0.699873  0.000000  0.422731  1
  O  O11  1  0.795211  0.000000  0.170204  1
  O  O12  1  0.594433  0.000000  0.678451  1
  O  O13  1  0.259818  0.000000  0.578597  1
  O  O14  1  0.362674  0.000000  0.325197  1
  O  O15  1  0.194712  0.500000  0.951804  1
  F  F16  1  0.768891  0.500000  0.550040  1
  F  F17  1  0.874097  0.500000  0.296120  1
  F  F18  1  0.671811  0.000000  0.924144  1
  F  F19  1  0.202080  0.000000  0.823445  1
  F  F20  1  0.415875  0.000000  0.076892  1
  F  F21  1  0.066919  0.500000  0.704007  1
  F  F22  1  0.189771  0.500000  0.451856  1
  F  F23  1  0.313501  0.500000  0.196551  1
