# generated using pymatgen
data_Cu3(P2O7)2
_symmetry_space_group_name_H-M   'P 1'
_cell_length_a   6.17291633
_cell_length_b   8.45782852
_cell_length_c   9.98243000
_cell_angle_alpha   104.60800827
_cell_angle_beta   92.30727721
_cell_angle_gamma   92.33299714
_symmetry_Int_Tables_number   1
_chemical_formula_structural   Cu3(P2O7)2
_chemical_formula_sum   'Cu6 P8 O28'
_cell_volume   503.22321696
_cell_formula_units_Z   2
loop_
 _symmetry_equiv_pos_site_id
 _symmetry_equiv_pos_as_xyz
  1  'x, y, z'
loop_
 _atom_site_type_symbol
 _atom_site_label
 _atom_site_symmetry_multiplicity
 _atom_site_fract_x
 _atom_site_fract_y
 _atom_site_fract_z
 _atom_site_occupancy
  Cu  Cu0  1  0.000000  0.500000  0.500000  1
  Cu  Cu1  1  0.304650  0.887767  0.628407  1
  Cu  Cu2  1  0.349226  0.881071  0.056659  1
  Cu  Cu3  1  0.500000  0.500000  0.000000  1
  Cu  Cu4  1  0.650774  0.118929  0.943341  1
  Cu  Cu5  1  0.695350  0.112233  0.371593  1
  P  P6  1  0.157377  0.205595  0.014453  1
  P  P7  1  0.180954  0.187383  0.316368  1
  P  P8  1  0.268282  0.534523  0.725752  1
  P  P9  1  0.474438  0.761418  0.320197  1
  P  P10  1  0.525562  0.238582  0.679803  1
  P  P11  1  0.731718  0.465477  0.274248  1
  P  P12  1  0.819046  0.812617  0.683632  1
  P  P13  1  0.842623  0.794405  0.985546  1
  O  O14  1  0.046152  0.861075  0.076966  1
  O  O15  1  0.005942  0.078800  0.354683  1
  O  O16  1  0.050528  0.437777  0.691431  1
  O  O17  1  0.094898  0.213481  0.168177  1
  O  O18  1  0.237733  0.372868  0.005312  1
  O  O19  1  0.218158  0.357227  0.415475  1
  O  O20  1  0.255185  0.654427  0.629667  1
  O  O21  1  0.292930  0.809301  0.417913  1
  O  O22  1  0.338996  0.619204  0.876551  1
  O  O23  1  0.323788  0.122161  0.644814  1
  O  O24  1  0.339085  0.075069  0.975085  1
  O  O25  1  0.395438  0.722706  0.163297  1
  O  O26  1  0.397759  0.104176  0.285813  1
  O  O27  1  0.459760  0.416376  0.668679  1
  O  O28  1  0.540240  0.583624  0.331321  1
  O  O29  1  0.602241  0.895824  0.714187  1
  O  O30  1  0.604562  0.277294  0.836703  1
  O  O31  1  0.660915  0.924931  0.024915  1
  O  O32  1  0.676212  0.877839  0.355186  1
  O  O33  1  0.661004  0.380796  0.123449  1
  O  O34  1  0.707070  0.190699  0.582087  1
  O  O35  1  0.744815  0.345573  0.370333  1
  O  O36  1  0.781842  0.642773  0.584525  1
  O  O37  1  0.762267  0.627132  0.994688  1
  O  O38  1  0.905102  0.786519  0.831823  1
  O  O39  1  0.949472  0.562223  0.308569  1
  O  O40  1  0.994058  0.921200  0.645317  1
  O  O41  1  0.953848  0.138925  0.923034  1
