# generated using pymatgen
data_Cu3OF5
_symmetry_space_group_name_H-M   'P 1'
_cell_length_a   4.59455399
_cell_length_b   5.91396887
_cell_length_c   7.51255873
_cell_angle_alpha   90.76276133
_cell_angle_beta   90.70822296
_cell_angle_gamma   93.73918895
_symmetry_Int_Tables_number   1
_chemical_formula_structural   Cu3OF5
_chemical_formula_sum   'Cu6 O2 F10'
_cell_volume   203.66111840
_cell_formula_units_Z   2
loop_
 _symmetry_equiv_pos_site_id
 _symmetry_equiv_pos_as_xyz
  1  'x, y, z'
loop_
 _atom_site_type_symbol
 _atom_site_label
 _atom_site_symmetry_multiplicity
 _atom_site_fract_x
 _atom_site_fract_y
 _atom_site_fract_z
 _atom_site_occupancy
  Cu  Cu0  1  0.018358  0.009568  0.007423  1
  Cu  Cu1  1  0.469690  0.475642  0.992853  1
  Cu  Cu2  1  0.995071  0.668004  0.330688  1
  Cu  Cu3  1  0.486968  0.808375  0.676879  1
  Cu  Cu4  1  0.489044  0.164159  0.324492  1
  Cu  Cu5  1  0.013267  0.341198  0.668715  1
  O  O6  1  0.303830  0.200510  0.106512  1
  O  O7  1  0.301059  0.528032  0.772394  1
  F  F8  1  0.799700  0.988456  0.223111  1
  F  F9  1  0.201120  0.685829  0.113748  1
  F  F10  1  0.297876  0.853214  0.444362  1
  F  F11  1  0.696467  0.481203  0.219502  1
  F  F12  1  0.791980  0.653026  0.551132  1
  F  F13  1  0.204582  0.349699  0.445183  1
  F  F14  1  0.713705  0.812093  0.901815  1
  F  F15  1  0.702838  0.146570  0.555997  1
  F  F16  1  0.805186  0.319221  0.882794  1
  F  F17  1  0.209258  0.015201  0.782400  1
