# generated using pymatgen
data_Mn3Sn(PO4)4
_symmetry_space_group_name_H-M   'P 1'
_cell_length_a   4.99615866
_cell_length_b   6.07957613
_cell_length_c   10.00118860
_cell_angle_alpha   90.00000000
_cell_angle_beta   90.29626086
_cell_angle_gamma   90.00000000
_symmetry_Int_Tables_number   1
_chemical_formula_structural   Mn3Sn(PO4)4
_chemical_formula_sum   'Mn3 Sn1 P4 O16'
_cell_volume   303.77731125
_cell_formula_units_Z   1
loop_
 _symmetry_equiv_pos_site_id
 _symmetry_equiv_pos_as_xyz
  1  'x, y, z'
loop_
 _atom_site_type_symbol
 _atom_site_label
 _atom_site_symmetry_multiplicity
 _atom_site_fract_x
 _atom_site_fract_y
 _atom_site_fract_z
 _atom_site_occupancy
  Mn  Mn0  1  0.928687  0.500000  0.714303  1
  Mn  Mn1  1  0.550526  0.500000  0.220706  1
  Mn  Mn2  1  0.421462  0.000000  0.782657  1
  Sn  Sn3  1  0.041541  0.000000  0.279783  1
  P  P4  1  0.908210  0.000000  0.604149  1
  P  P5  1  0.602241  0.000000  0.093279  1
  P  P6  1  0.413488  0.500000  0.895243  1
  P  P7  1  0.080172  0.500000  0.409900  1
  O  O8  1  0.832085  0.000000  0.452467  1
  O  O9  1  0.772341  0.199892  0.673005  1
  O  O10  1  0.772341  0.800108  0.673005  1
  O  O11  1  0.781405  0.500000  0.388997  1
  O  O12  1  0.720458  0.500000  0.874158  1
  O  O13  1  0.753263  0.195050  0.166376  1
  O  O14  1  0.753263  0.804950  0.166376  1
  O  O15  1  0.646487  0.000000  0.942962  1
  O  O16  1  0.355174  0.500000  0.043970  1
  O  O17  1  0.274042  0.699843  0.823631  1
  O  O18  1  0.274042  0.300157  0.823631  1
  O  O19  1  0.298823  0.000000  0.121846  1
  O  O20  1  0.215570  0.000000  0.617943  1
  O  O21  1  0.223790  0.701085  0.336466  1
  O  O22  1  0.223790  0.298915  0.336466  1
  O  O23  1  0.156795  0.500000  0.558680  1
