# generated using pymatgen
data_LiFe2(BO3)2
_symmetry_space_group_name_H-M   'P 1'
_cell_length_a   5.28525762
_cell_length_b   9.04158231
_cell_length_c   11.20364013
_cell_angle_alpha   90.00000000
_cell_angle_beta   115.90848401
_cell_angle_gamma   90.00000000
_symmetry_Int_Tables_number   1
_chemical_formula_structural   LiFe2(BO3)2
_chemical_formula_sum   'Li4 Fe8 B8 O24'
_cell_volume   481.57904762
_cell_formula_units_Z   4
loop_
 _symmetry_equiv_pos_site_id
 _symmetry_equiv_pos_as_xyz
  1  'x, y, z'
loop_
 _atom_site_type_symbol
 _atom_site_label
 _atom_site_symmetry_multiplicity
 _atom_site_fract_x
 _atom_site_fract_y
 _atom_site_fract_z
 _atom_site_occupancy
  Li  Li0  1  0.442396  0.256358  0.090704  1
  Li  Li1  1  0.442396  0.743642  0.590704  1
  Li  Li2  1  0.004626  0.760881  0.848036  1
  Li  Li3  1  0.004626  0.239119  0.348036  1
  Fe  Fe4  1  0.966625  0.417468  0.117947  1
  Fe  Fe5  1  0.534097  0.421155  0.372406  1
  Fe  Fe6  1  0.534097  0.578845  0.872406  1
  Fe  Fe7  1  0.966625  0.582532  0.617947  1
  Fe  Fe8  1  0.028760  0.900684  0.363415  1
  Fe  Fe9  1  0.457558  0.087538  0.625834  1
  Fe  Fe10  1  0.457558  0.912462  0.125834  1
  Fe  Fe11  1  0.028760  0.099316  0.863415  1
  B  B12  1  0.462401  0.415652  0.622003  1
  B  B13  1  0.053555  0.573887  0.377687  1
  B  B14  1  0.053555  0.426113  0.877687  1
  B  B15  1  0.462401  0.584348  0.122003  1
  B  B16  1  0.526015  0.912774  0.867292  1
  B  B17  1  0.952919  0.920623  0.622977  1
  B  B18  1  0.952919  0.079377  0.122977  1
  B  B19  1  0.526015  0.087226  0.367292  1
  O  O20  1  0.338539  0.284147  0.622875  1
  O  O21  1  0.828769  0.435675  0.909406  1
  O  O22  1  0.198961  0.297415  0.896648  1
  O  O23  1  0.133444  0.443366  0.334617  1
  O  O24  1  0.391841  0.546135  0.670197  1
  O  O25  1  0.391841  0.453865  0.170197  1
  O  O26  1  0.651306  0.430280  0.567753  1
  O  O27  1  0.651306  0.569720  0.067753  1
  O  O28  1  0.198961  0.702585  0.396648  1
  O  O29  1  0.828769  0.564325  0.409406  1
  O  O30  1  0.133444  0.556634  0.834617  1
  O  O31  1  0.643544  0.778225  0.858777  1
  O  O32  1  0.338539  0.715853  0.122875  1
  O  O33  1  0.844258  0.949138  0.148548  1
  O  O34  1  0.176616  0.926277  0.587101  1
  O  O35  1  0.847336  0.786432  0.638437  1
  O  O36  1  0.316940  0.919104  0.912955  1
  O  O37  1  0.316940  0.080896  0.412955  1
  O  O38  1  0.613825  0.039249  0.825144  1
  O  O39  1  0.613825  0.960751  0.325144  1
  O  O40  1  0.844258  0.050862  0.648548  1
  O  O41  1  0.847336  0.213568  0.138437  1
  O  O42  1  0.176616  0.073723  0.087101  1
  O  O43  1  0.643544  0.221775  0.358777  1
