# generated using pymatgen
data_Tb3SbO7
_symmetry_space_group_name_H-M   'P 1'
_cell_length_a   6.51380340
_cell_length_b   6.51380340
_cell_length_c   7.55241541
_cell_angle_alpha   90.00000000
_cell_angle_beta   90.00000000
_cell_angle_gamma   109.32113615
_symmetry_Int_Tables_number   1
_chemical_formula_structural   Tb3SbO7
_chemical_formula_sum   'Tb6 Sb2 O14'
_cell_volume   302.39836346
_cell_formula_units_Z   2
loop_
 _symmetry_equiv_pos_site_id
 _symmetry_equiv_pos_as_xyz
  1  'x, y, z'
loop_
 _atom_site_type_symbol
 _atom_site_label
 _atom_site_symmetry_multiplicity
 _atom_site_fract_x
 _atom_site_fract_y
 _atom_site_fract_z
 _atom_site_occupancy
  Tb  Tb0  1  0.467995  0.000003  0.252689  1
  Tb  Tb1  1  0.999997  0.532005  0.247311  1
  Tb  Tb2  1  0.486990  0.486990  1.000000  1
  Tb  Tb3  1  0.513010  0.513010  0.500000  1
  Tb  Tb4  1  0.532005  0.999997  0.752689  1
  Tb  Tb5  1  0.000003  0.467995  0.747311  1
  Sb  Sb6  1  0.999603  0.999603  0.500000  1
  Sb  Sb7  1  0.000397  0.000397  1.000000  1
  O  O8  1  0.930443  0.069557  0.750000  1
  O  O9  1  0.637351  0.362649  0.750000  1
  O  O10  1  0.316986  0.064186  0.532546  1
  O  O11  1  0.935814  0.683014  0.967454  1
  O  O12  1  0.629604  0.370396  0.250000  1
  O  O13  1  0.922535  0.676457  0.527510  1
  O  O14  1  0.323543  0.077465  0.972490  1
  O  O15  1  0.077465  0.323543  0.027510  1
  O  O16  1  0.676457  0.922535  0.472490  1
  O  O17  1  0.370396  0.629604  0.750000  1
  O  O18  1  0.683014  0.935814  0.032546  1
  O  O19  1  0.064186  0.316986  0.467454  1
  O  O20  1  0.362649  0.637351  0.250000  1
  O  O21  1  0.069557  0.930443  0.250000  1
