# generated using pymatgen
data_NaFeP2O7
_symmetry_space_group_name_H-M   'P 1'
_cell_length_a   4.91218458
_cell_length_b   8.30394557
_cell_length_c   7.15880781
_cell_angle_alpha   90.00000000
_cell_angle_beta   107.82183596
_cell_angle_gamma   90.00000000
_symmetry_Int_Tables_number   1
_chemical_formula_structural   NaFeP2O7
_chemical_formula_sum   'Na2 Fe2 P4 O14'
_cell_volume   277.99864012
_cell_formula_units_Z   2
loop_
 _symmetry_equiv_pos_site_id
 _symmetry_equiv_pos_as_xyz
  1  'x, y, z'
loop_
 _atom_site_type_symbol
 _atom_site_label
 _atom_site_symmetry_multiplicity
 _atom_site_fract_x
 _atom_site_fract_y
 _atom_site_fract_z
 _atom_site_occupancy
  Na  Na0  1  0.774082  0.906542  0.267731  1
  Na  Na1  1  0.225918  0.406542  0.732269  1
  Fe  Fe2  1  0.781807  0.499622  0.266282  1
  Fe  Fe3  1  0.218193  0.999622  0.733718  1
  P  P4  1  0.610963  0.190941  0.495443  1
  P  P5  1  0.774450  0.769655  0.895764  1
  P  P6  1  0.225550  0.269655  0.104236  1
  P  P7  1  0.389037  0.690941  0.504557  1
  O  O8  1  0.965399  0.316678  0.164108  1
  O  O9  1  0.854205  0.671179  0.086005  1
  O  O10  1  0.838547  0.058992  0.537449  1
  O  O11  1  0.733230  0.360081  0.491100  1
  O  O12  1  0.583044  0.683006  0.373823  1
  O  O13  1  0.408729  0.416117  0.085661  1
  O  O14  1  0.420252  0.147345  0.269498  1
  O  O15  1  0.579748  0.647345  0.730502  1
  O  O16  1  0.591271  0.916117  0.914339  1
  O  O17  1  0.416956  0.183006  0.626177  1
  O  O18  1  0.266770  0.860081  0.508900  1
  O  O19  1  0.161453  0.558992  0.462551  1
  O  O20  1  0.145795  0.171179  0.913995  1
  O  O21  1  0.034601  0.816678  0.835892  1
