# generated using pymatgen
data_Co6OF11
_symmetry_space_group_name_H-M   'P 1'
_cell_length_a   10.50284123
_cell_length_b   10.50284123
_cell_length_c   3.20603133
_cell_angle_alpha   90.00000000
_cell_angle_beta   90.00000000
_cell_angle_gamma   142.45768356
_symmetry_Int_Tables_number   1
_chemical_formula_structural   Co6OF11
_chemical_formula_sum   'Co6 O1 F11'
_cell_volume   215.49945923
_cell_formula_units_Z   1
loop_
 _symmetry_equiv_pos_site_id
 _symmetry_equiv_pos_as_xyz
  1  'x, y, z'
loop_
 _atom_site_type_symbol
 _atom_site_label
 _atom_site_symmetry_multiplicity
 _atom_site_fract_x
 _atom_site_fract_y
 _atom_site_fract_z
 _atom_site_occupancy
  Co  Co0  1  0.001044  0.998956  0.500000  1
  Co  Co1  1  0.491825  0.508175  1.000000  1
  Co  Co2  1  0.663291  0.336709  0.500000  1
  Co  Co3  1  0.831766  0.168234  0.000000  1
  Co  Co4  1  0.169705  0.830295  0.000000  1
  Co  Co5  1  0.341421  0.658579  0.500000  1
  O  O6  1  0.402676  0.597324  1.000000  1
  F  F7  1  0.696528  0.693024  0.500000  1
  F  F8  1  0.306976  0.303472  0.500000  1
  F  F9  1  0.968519  0.635561  0.500000  1
  F  F10  1  0.594939  0.405061  0.000000  1
  F  F11  1  0.728885  0.271115  0.000000  1
  F  F12  1  0.066280  0.933720  0.000000  1
  F  F13  1  0.364439  0.031481  0.500000  1
  F  F14  1  0.638093  0.972883  0.500000  1
  F  F15  1  0.935293  0.064707  0.000000  1
  F  F16  1  0.270973  0.729027  0.000000  1
  F  F17  1  0.027117  0.361907  0.500000  1
