# generated using pymatgen
data_Ti3CrFe2(PO4)6
_symmetry_space_group_name_H-M   'P 1'
_cell_length_a   8.54407147
_cell_length_b   8.54407147
_cell_length_c   8.54407147
_cell_angle_alpha   60.95782623
_cell_angle_beta   60.95782623
_cell_angle_gamma   60.95782623
_symmetry_Int_Tables_number   1
_chemical_formula_structural   Ti3CrFe2(PO4)6
_chemical_formula_sum   'Ti3 Cr1 Fe2 P6 O24'
_cell_volume   450.55981559
_cell_formula_units_Z   1
loop_
 _symmetry_equiv_pos_site_id
 _symmetry_equiv_pos_as_xyz
  1  'x, y, z'
loop_
 _atom_site_type_symbol
 _atom_site_label
 _atom_site_symmetry_multiplicity
 _atom_site_fract_x
 _atom_site_fract_y
 _atom_site_fract_z
 _atom_site_occupancy
  Ti  Ti0  1  0.856705  0.856705  0.856705  1
  Ti  Ti1  1  0.644425  0.644425  0.644425  1
  Ti  Ti2  1  0.356109  0.356109  0.356109  1
  Cr  Cr3  1  0.140768  0.140768  0.140768  1
  Fe  Fe4  1  0.999845  0.999845  0.999845  1
  Fe  Fe5  1  0.500919  0.500919  0.500919  1
  P  P6  1  0.957628  0.249736  0.539356  1
  P  P7  1  0.539356  0.957628  0.249736  1
  P  P8  1  0.751476  0.456363  0.043641  1
  P  P9  1  0.456363  0.043641  0.751476  1
  P  P10  1  0.043641  0.751476  0.456363  1
  P  P11  1  0.249736  0.539356  0.957628  1
  O  O12  1  0.883987  0.684860  0.500790  1
  O  O13  1  0.684860  0.500790  0.883987  1
  O  O14  1  0.944975  0.090019  0.736609  1
  O  O15  1  0.500790  0.883987  0.684860  1
  O  O16  1  0.992970  0.188484  0.383573  1
  O  O17  1  0.761720  0.411837  0.559466  1
  O  O18  1  0.736609  0.944975  0.090019  1
  O  O19  1  0.559466  0.761720  0.411837  1
  O  O20  1  0.815463  0.616867  0.001235  1
  O  O21  1  0.411837  0.559466  0.761720  1
  O  O22  1  0.909503  0.261697  0.055700  1
  O  O23  1  0.616867  0.001235  0.815463  1
  O  O24  1  0.383573  0.992970  0.188484  1
  O  O25  1  0.090019  0.736609  0.944975  1
  O  O26  1  0.589678  0.443741  0.238093  1
  O  O27  1  0.188484  0.383573  0.992970  1
  O  O28  1  0.443741  0.238093  0.589678  1
  O  O29  1  0.261697  0.055700  0.909503  1
  O  O30  1  0.238093  0.589678  0.443741  1
  O  O31  1  0.001235  0.815463  0.616867  1
  O  O32  1  0.497240  0.118975  0.315550  1
  O  O33  1  0.055700  0.909503  0.261697  1
  O  O34  1  0.315550  0.497240  0.118975  1
  O  O35  1  0.118975  0.315550  0.497240  1
