# generated using pymatgen
data_Na2ZnP(H5O4)3
_symmetry_space_group_name_H-M   'P 1'
_cell_length_a   6.46524788
_cell_length_b   21.62433924
_cell_length_c   8.66615436
_cell_angle_alpha   90.00000000
_cell_angle_beta   109.68535796
_cell_angle_gamma   90.00000000
_symmetry_Int_Tables_number   1
_chemical_formula_structural   Na2ZnP(H5O4)3
_chemical_formula_sum   'Na8 Zn4 P4 H60 O48'
_cell_volume   1140.77739381
_cell_formula_units_Z   4
loop_
 _symmetry_equiv_pos_site_id
 _symmetry_equiv_pos_as_xyz
  1  'x, y, z'
loop_
 _atom_site_type_symbol
 _atom_site_label
 _atom_site_symmetry_multiplicity
 _atom_site_fract_x
 _atom_site_fract_y
 _atom_site_fract_z
 _atom_site_occupancy
  Na  Na0  1  0.030683  0.307956  0.270605  1
  Na  Na1  1  0.469317  0.807956  0.729395  1
  Na  Na2  1  0.969317  0.692044  0.729395  1
  Na  Na3  1  0.530683  0.192044  0.270605  1
  Na  Na4  1  0.022372  0.471087  0.192759  1
  Na  Na5  1  0.477628  0.971087  0.807241  1
  Na  Na6  1  0.977628  0.528913  0.807241  1
  Na  Na7  1  0.522372  0.028913  0.192759  1
  Zn  Zn8  1  0.495757  0.754951  0.364836  1
  Zn  Zn9  1  0.004243  0.254951  0.635164  1
  Zn  Zn10  1  0.504243  0.245049  0.635164  1
  Zn  Zn11  1  0.995757  0.745049  0.364836  1
  P  P12  1  0.636934  0.643412  0.186982  1
  P  P13  1  0.863066  0.143412  0.813018  1
  P  P14  1  0.363066  0.356588  0.813018  1
  P  P15  1  0.136934  0.856588  0.186982  1
  H  H16  1  0.305207  0.298655  0.073378  1
  H  H17  1  0.194793  0.798655  0.926622  1
  H  H18  1  0.694793  0.701345  0.926622  1
  H  H19  1  0.805207  0.201345  0.073378  1
  H  H20  1  0.155337  0.240706  0.016701  1
  H  H21  1  0.344663  0.740706  0.983299  1
  H  H22  1  0.844663  0.759294  0.983299  1
  H  H23  1  0.655337  0.259294  0.016701  1
  H  H24  1  0.069870  0.373004  0.989770  1
  H  H25  1  0.430130  0.873004  0.010230  1
  H  H26  1  0.930130  0.626996  0.010230  1
  H  H27  1  0.569870  0.126996  0.989770  1
  H  H28  1  0.824313  0.353369  0.951280  1
  H  H29  1  0.675687  0.853369  0.048720  1
  H  H30  1  0.175687  0.646631  0.048720  1
  H  H31  1  0.324313  0.146631  0.951280  1
  H  H32  1  0.581293  0.360820  0.174510  1
  H  H33  1  0.918707  0.860820  0.825490  1
  H  H34  1  0.418707  0.639180  0.825490  1
  H  H35  1  0.081293  0.139180  0.174510  1
  H  H36  1  0.719026  0.404431  0.317055  1
  H  H37  1  0.780974  0.904431  0.682945  1
  H  H38  1  0.280974  0.595569  0.682945  1
  H  H39  1  0.219026  0.095569  0.317055  1
  H  H40  1  0.813084  0.472057  0.474197  1
  H  H41  1  0.686916  0.972057  0.525803  1
  H  H42  1  0.186916  0.527943  0.525803  1
  H  H43  1  0.313084  0.027943  0.474197  1
  H  H44  1  0.710487  0.518739  0.324600  1
  H  H45  1  0.789513  0.018739  0.675400  1
  H  H46  1  0.289513  0.481261  0.675400  1
  H  H47  1  0.210487  0.981261  0.324600  1
  H  H48  1  0.342003  0.450077  0.033363  1
  H  H49  1  0.157997  0.950077  0.966637  1
  H  H50  1  0.657997  0.549923  0.966637  1
  H  H51  1  0.842003  0.049923  0.033363  1
  H  H52  1  0.383559  0.518814  0.106055  1
  H  H53  1  0.116441  0.018814  0.893945  1
  H  H54  1  0.616441  0.481186  0.893945  1
  H  H55  1  0.883559  0.981186  0.106055  1
  H  H56  1  0.405330  0.386342  0.358109  1
  H  H57  1  0.094670  0.886342  0.641891  1
  H  H58  1  0.594670  0.613658  0.641891  1
  H  H59  1  0.905330  0.113658  0.358109  1
  H  H60  1  0.320624  0.400374  0.504097  1
  H  H61  1  0.179376  0.900374  0.495903  1
  H  H62  1  0.679376  0.599626  0.495903  1
  H  H63  1  0.820624  0.099626  0.504097  1
  H  H64  1  0.920354  0.399652  0.682380  1
  H  H65  1  0.579646  0.899652  0.317620  1
  H  H66  1  0.079646  0.600348  0.317620  1
  H  H67  1  0.420354  0.100348  0.682380  1
  H  H68  1  0.685136  0.422324  0.682953  1
  H  H69  1  0.814864  0.922324  0.317047  1
  H  H70  1  0.314864  0.577676  0.317047  1
  H  H71  1  0.185136  0.077676  0.682953  1
  H  H72  1  0.668273  0.300563  0.436127  1
  H  H73  1  0.831727  0.800563  0.563873  1
  H  H74  1  0.331727  0.699437  0.563873  1
  H  H75  1  0.168273  0.199437  0.436127  1
  O  O76  1  0.309729  0.738215  0.499923  1
  O  O77  1  0.190271  0.238215  0.500077  1
  O  O78  1  0.690271  0.261785  0.500077  1
  O  O79  1  0.809729  0.761785  0.499923  1
  O  O80  1  0.475575  0.698665  0.178991  1
  O  O81  1  0.024425  0.198665  0.821009  1
  O  O82  1  0.524425  0.301335  0.821009  1
  O  O83  1  0.975575  0.801335  0.178991  1
  O  O84  1  0.379430  0.837988  0.283877  1
  O  O85  1  0.120570  0.337988  0.716123  1
  O  O86  1  0.620570  0.162012  0.716123  1
  O  O87  1  0.879430  0.662012  0.283877  1
  O  O88  1  0.570745  0.587350  0.271992  1
  O  O89  1  0.929255  0.087350  0.728008  1
  O  O90  1  0.429255  0.412650  0.728008  1
  O  O91  1  0.070745  0.912650  0.271992  1
  O  O92  1  0.621906  0.628024  0.008243  1
  O  O93  1  0.878094  0.128024  0.991757  1
  O  O94  1  0.378094  0.371976  0.991757  1
  O  O95  1  0.121906  0.871976  0.008243  1
  O  O96  1  0.251024  0.261989  0.116313  1
  O  O97  1  0.248976  0.761989  0.883687  1
  O  O98  1  0.748976  0.738011  0.883687  1
  O  O99  1  0.751024  0.238011  0.116313  1
  O  O100  1  0.946023  0.375105  0.031574  1
  O  O101  1  0.553977  0.875105  0.968426  1
  O  O102  1  0.053977  0.624895  0.968426  1
  O  O103  1  0.446023  0.124895  0.031574  1
  O  O104  1  0.671844  0.360496  0.293547  1
  O  O105  1  0.828156  0.860496  0.706453  1
  O  O106  1  0.328156  0.639504  0.706453  1
  O  O107  1  0.171844  0.139504  0.293547  1
  O  O108  1  0.793081  0.478996  0.356984  1
  O  O109  1  0.706919  0.978996  0.643016  1
  O  O110  1  0.206919  0.521004  0.643016  1
  O  O111  1  0.293081  0.021004  0.356984  1
  O  O112  1  0.269628  0.489379  0.044946  1
  O  O113  1  0.230372  0.989379  0.955054  1
  O  O114  1  0.730372  0.510621  0.955054  1
  O  O115  1  0.769628  0.010621  0.044946  1
  O  O116  1  0.270568  0.394273  0.383454  1
  O  O117  1  0.229432  0.894273  0.616546  1
  O  O118  1  0.729432  0.605727  0.616546  1
  O  O119  1  0.770568  0.105727  0.383454  1
  O  O120  1  0.818615  0.435492  0.659962  1
  O  O121  1  0.681385  0.935492  0.340038  1
  O  O122  1  0.181385  0.564508  0.340038  1
  O  O123  1  0.318615  0.064508  0.659962  1
