# generated using pymatgen
data_Mn2F7
_symmetry_space_group_name_H-M   'P 1'
_cell_length_a   7.36953866
_cell_length_b   5.20996011
_cell_length_c   13.06846493
_cell_angle_alpha   90.00000000
_cell_angle_beta   98.24295691
_cell_angle_gamma   90.00000000
_symmetry_Int_Tables_number   1
_chemical_formula_structural   Mn2F7
_chemical_formula_sum   'Mn8 F28'
_cell_volume   496.58003110
_cell_formula_units_Z   4
loop_
 _symmetry_equiv_pos_site_id
 _symmetry_equiv_pos_as_xyz
  1  'x, y, z'
loop_
 _atom_site_type_symbol
 _atom_site_label
 _atom_site_symmetry_multiplicity
 _atom_site_fract_x
 _atom_site_fract_y
 _atom_site_fract_z
 _atom_site_occupancy
  Mn  Mn0  1  0.974378  0.766186  0.891009  1
  Mn  Mn1  1  0.921349  0.263558  0.679501  1
  Mn  Mn2  1  0.578950  0.770027  0.320229  1
  Mn  Mn3  1  0.525614  0.256289  0.109942  1
  Mn  Mn4  1  0.474386  0.756289  0.890058  1
  Mn  Mn5  1  0.421050  0.270027  0.679771  1
  Mn  Mn6  1  0.078651  0.763558  0.320499  1
  Mn  Mn7  1  0.025622  0.266186  0.108991  1
  F  F8  1  0.996523  0.942878  0.196338  1
  F  F9  1  0.945652  0.540122  0.607394  1
  F  F10  1  0.829609  0.658104  0.321164  1
  F  F11  1  0.777177  0.365246  0.117138  1
  F  F12  1  0.843893  0.068639  0.573447  1
  F  F13  1  0.946208  0.079030  0.989644  1
  F  F14  1  0.890680  0.963536  0.771583  1
  F  F15  1  0.592202  0.949931  0.186012  1
  F  F16  1  0.645098  0.061657  0.380731  1
  F  F17  1  0.727050  0.656187  0.900833  1
  F  F18  1  0.675204  0.367644  0.696749  1
  F  F19  1  0.565253  0.599469  0.433629  1
  F  F20  1  0.508416  0.474511  0.239060  1
  F  F21  1  0.458462  0.537960  0.025646  1
  F  F22  1  0.541538  0.037960  0.974354  1
  F  F23  1  0.491584  0.974511  0.760940  1
  F  F24  1  0.434747  0.099469  0.566371  1
  F  F25  1  0.324796  0.867644  0.303251  1
  F  F26  1  0.272950  0.156187  0.099167  1
  F  F27  1  0.354902  0.561657  0.619269  1
  F  F28  1  0.407798  0.449931  0.813988  1
  F  F29  1  0.109320  0.463536  0.228417  1
  F  F30  1  0.053792  0.579030  0.010356  1
  F  F31  1  0.156107  0.568639  0.426553  1
  F  F32  1  0.222823  0.865246  0.882862  1
  F  F33  1  0.170391  0.158104  0.678836  1
  F  F34  1  0.054348  0.040122  0.392606  1
  F  F35  1  0.003477  0.442878  0.803662  1
