# generated using pymatgen
data_LiVOF2
_symmetry_space_group_name_H-M   'P 1'
_cell_length_a   5.60799087
_cell_length_b   5.64447725
_cell_length_c   23.43865022
_cell_angle_alpha   89.78660122
_cell_angle_beta   89.88773591
_cell_angle_gamma   60.23061262
_symmetry_Int_Tables_number   1
_chemical_formula_structural   LiVOF2
_chemical_formula_sum   'Li12 V12 O12 F24'
_cell_volume   644.01468659
_cell_formula_units_Z   12
loop_
 _symmetry_equiv_pos_site_id
 _symmetry_equiv_pos_as_xyz
  1  'x, y, z'
loop_
 _atom_site_type_symbol
 _atom_site_label
 _atom_site_symmetry_multiplicity
 _atom_site_fract_x
 _atom_site_fract_y
 _atom_site_fract_z
 _atom_site_occupancy
  Li  Li0  1  0.992874  0.672553  0.625132  1
  Li  Li1  1  0.322646  0.009577  0.626683  1
  Li  Li2  1  0.336555  0.992888  0.123942  1
  Li  Li3  1  0.350603  0.665891  0.373145  1
  Li  Li4  1  0.333816  0.666638  0.875042  1
  Li  Li5  1  0.993049  0.332491  0.875075  1
  Li  Li6  1  0.996632  0.660192  0.123992  1
  Li  Li7  1  0.672397  0.332332  0.123665  1
  Li  Li8  1  0.659946  0.341311  0.626277  1
  Li  Li9  1  0.659347  0.995204  0.875594  1
  Li  Li10  1  0.674842  0.996725  0.373551  1
  Li  Li11  1  0.006304  0.331610  0.374049  1
  V  V12  1  0.681092  0.667199  0.996833  1
  V  V13  1  0.667549  0.647007  0.244105  1
  V  V14  1  0.001115  0.983908  0.736565  1
  V  V15  1  0.669407  0.700125  0.739210  1
  V  V16  1  0.648634  0.684622  0.500498  1
  V  V17  1  0.318660  0.349567  0.514509  1
  V  V18  1  0.335691  0.363655  0.261728  1
  V  V19  1  0.003935  0.981512  0.235309  1
  V  V20  1  0.327620  0.321917  0.762020  1
  V  V21  1  0.346722  0.333853  0.014529  1
  V  V22  1  0.965547  0.002002  0.988355  1
  V  V23  1  0.033736  0.966562  0.488440  1
  O  O24  1  0.703579  0.977692  0.784205  1
  O  O25  1  0.608999  0.029280  0.964707  1
  O  O26  1  0.981357  0.692566  0.033788  1
  O  O27  1  0.016251  0.626014  0.216495  1
  O  O28  1  0.322188  0.986043  0.535446  1
  O  O29  1  0.326897  0.035725  0.714502  1
  O  O30  1  0.322266  0.718750  0.284299  1
  O  O31  1  0.368698  0.610937  0.465307  1
  O  O32  1  0.704998  0.328788  0.032882  1
  O  O33  1  0.967464  0.706418  0.533717  1
  O  O34  1  0.642512  0.335570  0.214784  1
  O  O35  1  0.038782  0.625005  0.713954  1
  F  F36  1  0.658399  0.670741  0.638114  1
  F  F37  1  0.685452  0.664944  0.377095  1
  F  F38  1  0.010352  0.995318  0.398719  1
  F  F39  1  0.007868  0.989958  0.145576  1
  F  F40  1  0.660465  0.668475  0.130681  1
  F  F41  1  0.667755  0.657147  0.885922  1
  F  F42  1  0.985184  0.300733  0.289580  1
  F  F43  1  0.330335  0.707211  0.789317  1
  F  F44  1  0.015289  0.352386  0.461432  1
  F  F45  1  0.343157  0.631296  0.960435  1
  F  F46  1  0.718098  0.312105  0.540340  1
  F  F47  1  0.623539  0.357175  0.712830  1
  F  F48  1  0.338146  0.322681  0.103100  1
  F  F49  1  0.321619  0.338730  0.851075  1
  F  F50  1  0.995878  0.999264  0.896979  1
  F  F51  1  0.982083  0.010402  0.644945  1
  F  F52  1  0.331226  0.342456  0.603142  1
  F  F53  1  0.340216  0.333979  0.351744  1
  F  F54  1  0.702657  0.972807  0.288626  1
  F  F55  1  0.621028  0.037133  0.460311  1
  F  F56  1  0.954552  0.327351  0.788801  1
  F  F57  1  0.041221  0.336081  0.960102  1
  F  F58  1  0.311033  0.966609  0.038428  1
  F  F59  1  0.351741  0.032888  0.210376  1
