# generated using pymatgen
data_Mn4O7F
_symmetry_space_group_name_H-M   'P 1'
_cell_length_a   6.65660291
_cell_length_b   6.65660291
_cell_length_c   6.96997066
_cell_angle_alpha   65.57664199
_cell_angle_beta   114.42335801
_cell_angle_gamma   83.69699261
_symmetry_Int_Tables_number   1
_chemical_formula_structural   Mn4O7F
_chemical_formula_sum   'Mn8 O14 F2'
_cell_volume   240.91333652
_cell_formula_units_Z   2
loop_
 _symmetry_equiv_pos_site_id
 _symmetry_equiv_pos_as_xyz
  1  'x, y, z'
loop_
 _atom_site_type_symbol
 _atom_site_label
 _atom_site_symmetry_multiplicity
 _atom_site_fract_x
 _atom_site_fract_y
 _atom_site_fract_z
 _atom_site_occupancy
  Mn  Mn0  1  0.699009  0.801441  0.149094  1
  Mn  Mn1  1  0.802180  0.199657  0.853534  1
  Mn  Mn2  1  0.322331  0.697925  0.358877  1
  Mn  Mn3  1  0.198559  0.300991  0.649094  1
  Mn  Mn4  1  0.800343  0.197820  0.353534  1
  Mn  Mn5  1  0.702116  0.804553  0.650570  1
  Mn  Mn6  1  0.195447  0.297884  0.150570  1
  Mn  Mn7  1  0.302075  0.677669  0.858877  1
  O  O8  1  0.094629  0.234217  0.383617  1
  O  O9  1  0.606622  0.726558  0.393664  1
  O  O10  1  0.720864  0.105397  0.106950  1
  O  O11  1  0.135841  0.039362  0.108891  1
  O  O12  1  0.765783  0.905371  0.883617  1
  O  O13  1  0.539582  0.130389  0.392561  1
  O  O14  1  0.464069  0.371671  0.610059  1
  O  O15  1  0.960638  0.864159  0.608891  1
  O  O16  1  0.869611  0.460418  0.892561  1
  O  O17  1  0.226720  0.598680  0.112434  1
  O  O18  1  0.628329  0.535931  0.110059  1
  O  O19  1  0.273442  0.393378  0.893664  1
  O  O20  1  0.401320  0.773280  0.612434  1
  O  O21  1  0.894603  0.279136  0.606950  1
  F  F22  1  0.345038  0.949997  0.879726  1
  F  F23  1  0.050003  0.654962  0.379726  1
