# generated using pymatgen
data_LiV2(SiO4)2
_symmetry_space_group_name_H-M   'P 1'
_cell_length_a   5.73328246
_cell_length_b   5.82755390
_cell_length_c   7.98669074
_cell_angle_alpha   90.00000000
_cell_angle_beta   90.00000000
_cell_angle_gamma   90.00000000
_symmetry_Int_Tables_number   1
_chemical_formula_structural   LiV2(SiO4)2
_chemical_formula_sum   'Li2 V4 Si4 O16'
_cell_volume   266.84342463
_cell_formula_units_Z   2
loop_
 _symmetry_equiv_pos_site_id
 _symmetry_equiv_pos_as_xyz
  1  'x, y, z'
loop_
 _atom_site_type_symbol
 _atom_site_label
 _atom_site_symmetry_multiplicity
 _atom_site_fract_x
 _atom_site_fract_y
 _atom_site_fract_z
 _atom_site_occupancy
  Li  Li0  1  0.500000  0.674367  0.750000  1
  Li  Li1  1  0.500000  0.325633  0.250000  1
  V  V2  1  0.720001  0.000000  0.000000  1
  V  V3  1  0.279999  0.000000  0.500000  1
  V  V4  1  0.000000  0.715333  0.750000  1
  V  V5  1  0.000000  0.284667  0.250000  1
  Si  Si6  1  0.759671  0.765243  0.376808  1
  Si  Si7  1  0.240329  0.765243  0.123192  1
  Si  Si8  1  0.759671  0.234757  0.623192  1
  Si  Si9  1  0.240329  0.234757  0.876808  1
  O  O10  1  0.760149  0.995228  0.245675  1
  O  O11  1  0.239851  0.995228  0.254325  1
  O  O12  1  0.995172  0.778331  0.502600  1
  O  O13  1  0.004828  0.778331  0.997400  1
  O  O14  1  0.516040  0.776541  0.489375  1
  O  O15  1  0.483960  0.776541  0.010625  1
  O  O16  1  0.762167  0.524628  0.276413  1
  O  O17  1  0.237833  0.524628  0.223587  1
  O  O18  1  0.762167  0.475372  0.723587  1
  O  O19  1  0.237833  0.475372  0.776413  1
  O  O20  1  0.516040  0.223459  0.510625  1
  O  O21  1  0.483960  0.223459  0.989375  1
  O  O22  1  0.004828  0.221669  0.002600  1
  O  O23  1  0.995172  0.221669  0.497400  1
  O  O24  1  0.760149  0.004772  0.754325  1
  O  O25  1  0.239851  0.004772  0.745675  1
