# generated using pymatgen
data_La4MnO8
_symmetry_space_group_name_H-M   'P 1'
_cell_length_a   13.31471565
_cell_length_b   13.31471565
_cell_length_c   13.31471565
_cell_angle_alpha   156.65613791
_cell_angle_beta   156.65613791
_cell_angle_gamma   33.24995209
_symmetry_Int_Tables_number   1
_chemical_formula_structural   La4MnO8
_chemical_formula_sum   'La8 Mn2 O16'
_cell_volume   370.28414321
_cell_formula_units_Z   2
loop_
 _symmetry_equiv_pos_site_id
 _symmetry_equiv_pos_as_xyz
  1  'x, y, z'
loop_
 _atom_site_type_symbol
 _atom_site_label
 _atom_site_symmetry_multiplicity
 _atom_site_fract_x
 _atom_site_fract_y
 _atom_site_fract_z
 _atom_site_occupancy
  La  La0  1  0.681392  0.681392  0.000000  1
  La  La1  1  0.318608  0.318608  0.000000  1
  La  La2  1  0.431392  0.931392  0.500000  1
  La  La3  1  0.565299  0.065299  0.500000  1
  La  La4  1  0.068608  0.568608  0.500000  1
  La  La5  1  0.934701  0.434701  0.500000  1
  La  La6  1  0.815299  0.815299  0.000000  1
  La  La7  1  0.184701  0.184701  0.000000  1
  Mn  Mn8  1  0.750000  0.250000  0.500000  1
  Mn  Mn9  1  0.000000  0.000000  0.000000  1
  O  O10  1  0.244189  0.244189  0.488379  1
  O  O11  1  0.593468  0.593468  0.000000  1
  O  O12  1  0.994189  0.494189  0.988379  1
  O  O13  1  0.244189  0.755811  0.000000  1
  O  O14  1  0.755811  0.244189  0.000000  1
  O  O15  1  0.406532  0.406532  0.000000  1
  O  O16  1  0.156532  0.656532  0.500000  1
  O  O17  1  0.505811  0.494189  0.500000  1
  O  O18  1  0.755811  0.755811  0.511621  1
  O  O19  1  0.343468  0.843468  0.500000  1
  O  O20  1  0.831483  0.331483  0.500000  1
  O  O21  1  0.668517  0.168517  0.500000  1
  O  O22  1  0.994189  0.005811  0.500000  1
  O  O23  1  0.505811  0.005811  0.011621  1
  O  O24  1  0.918517  0.918517  0.000000  1
  O  O25  1  0.081483  0.081483  0.000000  1
