# generated using pymatgen
data_Na7(WO3)9
_symmetry_space_group_name_H-M   'P 1'
_cell_length_a   6.86484955
_cell_length_b   8.83571901
_cell_length_c   9.70191513
_cell_angle_alpha   100.84301504
_cell_angle_beta   90.03643960
_cell_angle_gamma   104.66533443
_symmetry_Int_Tables_number   1
_chemical_formula_structural   Na7(WO3)9
_chemical_formula_sum   'Na7 W9 O27'
_cell_volume   558.42023537
_cell_formula_units_Z   1
loop_
 _symmetry_equiv_pos_site_id
 _symmetry_equiv_pos_as_xyz
  1  'x, y, z'
loop_
 _atom_site_type_symbol
 _atom_site_label
 _atom_site_symmetry_multiplicity
 _atom_site_fract_x
 _atom_site_fract_y
 _atom_site_fract_z
 _atom_site_occupancy
  Na  Na0  1  0.221999  0.666897  0.109558  1
  Na  Na1  1  0.888590  0.668025  0.444042  1
  Na  Na2  1  0.443996  0.330890  0.220966  1
  Na  Na3  1  0.555230  0.665152  0.778948  1
  Na  Na4  1  0.334052  0.002913  0.667406  1
  Na  Na5  1  0.110181  0.330938  0.555236  1
  Na  Na6  1  0.999533  0.002333  0.001736  1
  W  W7  1  0.722793  0.666891  0.111354  1
  W  W8  1  0.943463  0.330594  0.220751  1
  W  W9  1  0.613407  0.332085  0.555849  1
  W  W10  1  0.833720  0.001018  0.667309  1
  W  W11  1  0.389524  0.669336  0.442646  1
  W  W12  1  0.165256  0.001507  0.334612  1
  W  W13  1  0.278953  0.335547  0.886737  1
  W  W14  1  0.499756  0.003675  0.000913  1
  W  W15  1  0.053454  0.663989  0.778911  1
  O  O16  1  0.612282  0.828381  0.053358  1
  O  O17  1  0.828679  0.507221  0.167857  1
  O  O18  1  0.716830  0.160982  0.108471  1
  O  O19  1  0.957936  0.834156  0.221384  1
  O  O20  1  0.109920  0.337236  0.062616  1
  O  O21  1  0.548778  0.661444  0.280857  1
  O  O22  1  0.334809  0.997164  0.159924  1
  O  O23  1  0.781493  0.341841  0.384006  1
  O  O24  1  0.939279  0.836772  0.721836  1
  O  O25  1  0.275661  0.827231  0.392790  1
  O  O26  1  0.720206  0.164344  0.610558  1
  O  O27  1  0.498532  0.498103  0.497442  1
  O  O28  1  0.836331  0.502618  0.660191  1
  O  O29  1  0.061953  0.169599  0.277415  1
  O  O30  1  0.384457  0.163338  0.441708  1
  O  O31  1  0.602501  0.825534  0.557797  1
  O  O32  1  0.170283  0.504223  0.338780  1
  O  O33  1  0.440056  0.332754  0.717585  1
  O  O34  1  0.223245  0.668351  0.611971  1
  O  O35  1  0.661052  0.992456  0.837093  1
  O  O36  1  0.895447  0.676590  0.941737  1
  O  O37  1  0.005264  0.000428  0.504449  1
  O  O38  1  0.385682  0.160519  0.945601  1
  O  O39  1  0.174468  0.503861  0.830666  1
  O  O40  1  0.489065  0.497034  0.002445  1
  O  O41  1  0.285300  0.834817  0.890294  1
  O  O42  1  0.062140  0.167877  0.781976  1
