# generated using pymatgen
data_Li4Co3(OF3)2
_symmetry_space_group_name_H-M   'P 1'
_cell_length_a   5.20280656
_cell_length_b   5.25122714
_cell_length_c   5.93681394
_cell_angle_alpha   107.52030142
_cell_angle_beta   89.31232212
_cell_angle_gamma   99.98508775
_symmetry_Int_Tables_number   1
_chemical_formula_structural   Li4Co3(OF3)2
_chemical_formula_sum   'Li4 Co3 O2 F6'
_cell_volume   152.19349822
_cell_formula_units_Z   1
loop_
 _symmetry_equiv_pos_site_id
 _symmetry_equiv_pos_as_xyz
  1  'x, y, z'
loop_
 _atom_site_type_symbol
 _atom_site_label
 _atom_site_symmetry_multiplicity
 _atom_site_fract_x
 _atom_site_fract_y
 _atom_site_fract_z
 _atom_site_occupancy
  Li  Li0  1  0.259914  0.978692  0.372139  1
  Li  Li1  1  0.763411  0.001947  0.136197  1
  Li  Li2  1  0.236589  0.998053  0.863803  1
  Li  Li3  1  0.740086  0.021308  0.627861  1
  Co  Co4  1  0.502151  0.496137  0.266563  1
  Co  Co5  1  0.497849  0.503863  0.733437  1
  Co  Co6  1  0.000000  0.500000  0.500000  1
  O  O7  1  0.645500  0.269941  0.441787  1
  O  O8  1  0.354500  0.730059  0.558213  1
  F  F9  1  0.137070  0.210293  0.190213  1
  F  F10  1  0.869392  0.767954  0.328433  1
  F  F11  1  0.408524  0.748415  0.066239  1
  F  F12  1  0.591476  0.251585  0.933761  1
  F  F13  1  0.862930  0.789707  0.809787  1
  F  F14  1  0.130608  0.232046  0.671567  1
