# generated using pymatgen
data_Li3Mn2(SiO4)2
_symmetry_space_group_name_H-M   'P 1'
_cell_length_a   6.63305167
_cell_length_b   4.97075754
_cell_length_c   10.90347131
_cell_angle_alpha   90.00000000
_cell_angle_beta   91.70071546
_cell_angle_gamma   90.00000000
_symmetry_Int_Tables_number   1
_chemical_formula_structural   Li3Mn2(SiO4)2
_chemical_formula_sum   'Li6 Mn4 Si4 O16'
_cell_volume   359.34316799
_cell_formula_units_Z   2
loop_
 _symmetry_equiv_pos_site_id
 _symmetry_equiv_pos_as_xyz
  1  'x, y, z'
loop_
 _atom_site_type_symbol
 _atom_site_label
 _atom_site_symmetry_multiplicity
 _atom_site_fract_x
 _atom_site_fract_y
 _atom_site_fract_z
 _atom_site_occupancy
  Li  Li0  1  0.129198  0.957715  0.903849  1
  Li  Li1  1  0.384471  0.953987  0.670864  1
  Li  Li2  1  0.626874  0.450368  0.596883  1
  Li  Li3  1  0.129198  0.042285  0.403849  1
  Li  Li4  1  0.384471  0.046013  0.170864  1
  Li  Li5  1  0.626874  0.549632  0.096883  1
  Mn  Mn6  1  0.648432  0.952205  0.909449  1
  Mn  Mn7  1  0.123061  0.458692  0.582924  1
  Mn  Mn8  1  0.648432  0.047795  0.409449  1
  Mn  Mn9  1  0.123061  0.541308  0.082924  1
  Si  Si10  1  0.384681  0.445143  0.837817  1
  Si  Si11  1  0.879483  0.936142  0.665556  1
  Si  Si12  1  0.384681  0.554857  0.337817  1
  Si  Si13  1  0.879483  0.063858  0.165556  1
  O  O14  1  0.588625  0.551020  0.911307  1
  O  O15  1  0.191181  0.561469  0.912274  1
  O  O16  1  0.382780  0.112427  0.839134  1
  O  O17  1  0.888217  0.020228  0.808508  1
  O  O18  1  0.373590  0.549963  0.692489  1
  O  O19  1  0.882678  0.604902  0.648698  1
  O  O20  1  0.665951  0.040748  0.598457  1
  O  O21  1  0.084089  0.048094  0.593934  1
  O  O22  1  0.588625  0.448980  0.411307  1
  O  O23  1  0.191181  0.438531  0.412274  1
  O  O24  1  0.382780  0.887573  0.339134  1
  O  O25  1  0.888217  0.979772  0.308508  1
  O  O26  1  0.373590  0.450037  0.192489  1
  O  O27  1  0.882678  0.395098  0.148698  1
  O  O28  1  0.665951  0.959252  0.098457  1
  O  O29  1  0.084089  0.951906  0.093934  1
