# generated using pymatgen
data_Yb2P4O13
_symmetry_space_group_name_H-M   'P 1'
_cell_length_a   9.61815295
_cell_length_b   9.61815295
_cell_length_c   8.74610468
_cell_angle_alpha   90.00000000
_cell_angle_beta   90.00000000
_cell_angle_gamma   136.47618678
_symmetry_Int_Tables_number   1
_chemical_formula_structural   Yb2P4O13
_chemical_formula_sum   'Yb4 P8 O26'
_cell_volume   557.18621299
_cell_formula_units_Z   2
loop_
 _symmetry_equiv_pos_site_id
 _symmetry_equiv_pos_as_xyz
  1  'x, y, z'
loop_
 _atom_site_type_symbol
 _atom_site_label
 _atom_site_symmetry_multiplicity
 _atom_site_fract_x
 _atom_site_fract_y
 _atom_site_fract_z
 _atom_site_occupancy
  Yb  Yb0  1  0.600080  0.893466  0.147426  1
  Yb  Yb1  1  0.106534  0.399920  0.352574  1
  Yb  Yb2  1  0.893466  0.600080  0.852574  1
  Yb  Yb3  1  0.399920  0.106534  0.647426  1
  P  P4  1  0.720665  0.837919  0.772028  1
  P  P5  1  0.162081  0.279335  0.727972  1
  P  P6  1  0.097208  0.414417  0.998117  1
  P  P7  1  0.585583  0.902792  0.501883  1
  P  P8  1  0.414417  0.097208  0.001883  1
  P  P9  1  0.902792  0.585583  0.498117  1
  P  P10  1  0.279335  0.162081  0.272028  1
  P  P11  1  0.837919  0.720665  0.227972  1
  O  O12  1  0.256730  0.299841  0.294316  1
  O  O13  1  0.700159  0.743270  0.205684  1
  O  O14  1  0.938928  0.061072  0.750000  1
  O  O15  1  0.210569  0.381255  0.891397  1
  O  O16  1  0.618745  0.789431  0.608603  1
  O  O17  1  0.159451  0.385210  0.604291  1
  O  O18  1  0.614790  0.840549  0.895709  1
  O  O19  1  0.932796  0.221494  0.091691  1
  O  O20  1  0.778506  0.067204  0.408309  1
  O  O21  1  0.417581  0.741310  0.390477  1
  O  O22  1  0.258690  0.582419  0.109523  1
  O  O23  1  0.530182  0.983348  0.604885  1
  O  O24  1  0.016652  0.469818  0.895115  1
  O  O25  1  0.469818  0.016652  0.104885  1
  O  O26  1  0.983348  0.530182  0.395115  1
  O  O27  1  0.582419  0.258690  0.890477  1
  O  O28  1  0.741310  0.417581  0.609523  1
  O  O29  1  0.067204  0.778506  0.591691  1
  O  O30  1  0.221494  0.932796  0.908309  1
  O  O31  1  0.840549  0.614790  0.104291  1
  O  O32  1  0.385210  0.159451  0.395709  1
  O  O33  1  0.381255  0.210569  0.108603  1
  O  O34  1  0.789431  0.618745  0.391397  1
  O  O35  1  0.061072  0.938928  0.250000  1
  O  O36  1  0.299841  0.256730  0.705684  1
  O  O37  1  0.743270  0.700159  0.794316  1
