# generated using pymatgen
data_Cr4Si4O13
_symmetry_space_group_name_H-M   'P 1'
_cell_length_a   6.97875707
_cell_length_b   7.77871873
_cell_length_c   9.95278152
_cell_angle_alpha   67.50286950
_cell_angle_beta   82.61527143
_cell_angle_gamma   79.43470056
_symmetry_Int_Tables_number   1
_chemical_formula_structural   Cr4Si4O13
_chemical_formula_sum   'Cr8 Si8 O26'
_cell_volume   489.70016642
_cell_formula_units_Z   2
loop_
 _symmetry_equiv_pos_site_id
 _symmetry_equiv_pos_as_xyz
  1  'x, y, z'
loop_
 _atom_site_type_symbol
 _atom_site_label
 _atom_site_symmetry_multiplicity
 _atom_site_fract_x
 _atom_site_fract_y
 _atom_site_fract_z
 _atom_site_occupancy
  Cr  Cr0  1  0.571850  0.197947  0.992582  1
  Cr  Cr1  1  0.925438  0.806866  0.008683  1
  Cr  Cr2  1  0.062262  0.559125  0.620091  1
  Cr  Cr3  1  0.562255  0.548732  0.628123  1
  Cr  Cr4  1  0.437745  0.451268  0.371877  1
  Cr  Cr5  1  0.937738  0.440875  0.379909  1
  Cr  Cr6  1  0.074562  0.193134  0.991317  1
  Cr  Cr7  1  0.428150  0.802053  0.007418  1
  Si  Si8  1  0.262414  0.579652  0.833083  1
  Si  Si9  1  0.716722  0.855488  0.718500  1
  Si  Si10  1  0.369343  0.147285  0.711033  1
  Si  Si11  1  0.927738  0.165544  0.701496  1
  Si  Si12  1  0.072262  0.834456  0.298504  1
  Si  Si13  1  0.630657  0.852715  0.288967  1
  Si  Si14  1  0.283278  0.144512  0.281500  1
  Si  Si15  1  0.737586  0.420348  0.166917  1
  O  O16  1  0.090716  0.449767  0.846866  1
  O  O17  1  0.197055  0.722115  0.922443  1
  O  O18  1  0.490152  0.464143  0.850381  1
  O  O19  1  0.742827  0.767984  0.893415  1
  O  O20  1  0.354797  0.103271  0.889131  1
  O  O21  1  0.897759  0.102008  0.879929  1
  O  O22  1  0.448353  0.342765  0.602515  1
  O  O23  1  0.843291  0.388013  0.607262  1
  O  O24  1  0.285833  0.679512  0.651119  1
  O  O25  1  0.750756  0.705607  0.640264  1
  O  O26  1  0.157156  0.164094  0.658472  1
  O  O27  1  0.492698  0.961392  0.690174  1
  O  O28  1  0.856258  0.020825  0.644735  1
  O  O29  1  0.143742  0.979175  0.355265  1
  O  O30  1  0.507302  0.038608  0.309826  1
  O  O31  1  0.842844  0.835906  0.341528  1
  O  O32  1  0.249244  0.294393  0.359736  1
  O  O33  1  0.714167  0.320488  0.348881  1
  O  O34  1  0.156709  0.611987  0.392738  1
  O  O35  1  0.551647  0.657235  0.397485  1
  O  O36  1  0.102241  0.897992  0.120071  1
  O  O37  1  0.645203  0.896729  0.110869  1
  O  O38  1  0.257173  0.232016  0.106585  1
  O  O39  1  0.509848  0.535857  0.149619  1
  O  O40  1  0.802945  0.277885  0.077557  1
  O  O41  1  0.909284  0.550233  0.153134  1
