# generated using pymatgen
data_LiVPO5
_symmetry_space_group_name_H-M   'P 1'
_cell_length_a   6.06026277
_cell_length_b   11.20317275
_cell_length_c   6.33390302
_cell_angle_alpha   90.00000000
_cell_angle_beta   100.18438181
_cell_angle_gamma   90.00000000
_symmetry_Int_Tables_number   1
_chemical_formula_structural   LiVPO5
_chemical_formula_sum   'Li4 V4 P4 O20'
_cell_volume   423.25939222
_cell_formula_units_Z   4
loop_
 _symmetry_equiv_pos_site_id
 _symmetry_equiv_pos_as_xyz
  1  'x, y, z'
loop_
 _atom_site_type_symbol
 _atom_site_label
 _atom_site_symmetry_multiplicity
 _atom_site_fract_x
 _atom_site_fract_y
 _atom_site_fract_z
 _atom_site_occupancy
  Li  Li0  1  0.389571  0.613051  0.030881  1
  Li  Li1  1  0.889571  0.886949  0.030881  1
  Li  Li2  1  0.110429  0.113051  0.969119  1
  Li  Li3  1  0.610429  0.386949  0.969119  1
  V  V4  1  0.484346  0.830729  0.701398  1
  V  V5  1  0.984346  0.669271  0.701398  1
  V  V6  1  0.015654  0.330729  0.298602  1
  V  V7  1  0.515654  0.169271  0.298602  1
  P  P8  1  0.075437  0.401060  0.795810  1
  P  P9  1  0.575437  0.098940  0.795810  1
  P  P10  1  0.424563  0.901060  0.204190  1
  P  P11  1  0.924563  0.598940  0.204190  1
  O  O12  1  0.455947  0.166313  0.958065  1
  O  O13  1  0.304732  0.450377  0.892453  1
  O  O14  1  0.955947  0.333687  0.958065  1
  O  O15  1  0.804732  0.049623  0.892453  1
  O  O16  1  0.263935  0.715100  0.731627  1
  O  O17  1  0.411759  0.992895  0.701246  1
  O  O18  1  0.763935  0.784900  0.731627  1
  O  O19  1  0.911759  0.507105  0.701246  1
  O  O20  1  0.089753  0.315123  0.605662  1
  O  O21  1  0.589753  0.184877  0.605662  1
  O  O22  1  0.410247  0.815123  0.394338  1
  O  O23  1  0.910247  0.684877  0.394338  1
  O  O24  1  0.088241  0.492895  0.298754  1
  O  O25  1  0.236065  0.215100  0.268373  1
  O  O26  1  0.588241  0.007105  0.298754  1
  O  O27  1  0.736065  0.284900  0.268373  1
  O  O28  1  0.195268  0.950377  0.107547  1
  O  O29  1  0.044053  0.666313  0.041935  1
  O  O30  1  0.695268  0.549623  0.107547  1
  O  O31  1  0.544053  0.833687  0.041935  1
