# generated using pymatgen
data_Li4Fe2Ni3Sn3O16
_symmetry_space_group_name_H-M   'P 1'
_cell_length_a   6.02123177
_cell_length_b   6.02289297
_cell_length_c   9.61598901
_cell_angle_alpha   88.51425299
_cell_angle_beta   88.85640092
_cell_angle_gamma   60.63545982
_symmetry_Int_Tables_number   1
_chemical_formula_structural   Li4Fe2Ni3Sn3O16
_chemical_formula_sum   'Li4 Fe2 Ni3 Sn3 O16'
_cell_volume   303.80820327
_cell_formula_units_Z   1
loop_
 _symmetry_equiv_pos_site_id
 _symmetry_equiv_pos_as_xyz
  1  'x, y, z'
loop_
 _atom_site_type_symbol
 _atom_site_label
 _atom_site_symmetry_multiplicity
 _atom_site_fract_x
 _atom_site_fract_y
 _atom_site_fract_z
 _atom_site_occupancy
  Li  Li0  1  0.327284  0.319998  0.115616  1
  Li  Li1  1  0.021278  0.023185  0.007231  1
  Li  Li2  1  0.014530  0.015461  0.497165  1
  Li  Li3  1  0.664208  0.660222  0.601788  1
  Fe  Fe4  1  0.327217  0.337338  0.503254  1
  Fe  Fe5  1  0.660460  0.655761  0.011502  1
  Ni  Ni6  1  0.168091  0.169177  0.781428  1
  Ni  Ni7  1  0.339777  0.826119  0.284374  1
  Ni  Ni8  1  0.829905  0.341171  0.285913  1
  Sn  Sn9  1  0.167837  0.659331  0.788336  1
  Sn  Sn10  1  0.659183  0.166819  0.787311  1
  Sn  Sn11  1  0.828195  0.833827  0.285925  1
  O  O12  1  0.169669  0.682943  0.400482  1
  O  O13  1  0.480502  0.482554  0.652237  1
  O  O14  1  0.332409  0.329664  0.907349  1
  O  O15  1  0.997153  0.997820  0.681733  1
  O  O16  1  0.996302  0.027080  0.192102  1
  O  O17  1  0.678954  0.171766  0.402089  1
  O  O18  1  0.034882  0.472723  0.658909  1
  O  O19  1  0.468607  0.036693  0.657407  1
  O  O20  1  0.838085  0.836649  0.916042  1
  O  O21  1  0.155619  0.184149  0.391630  1
  O  O22  1  0.505177  0.953414  0.161322  1
  O  O23  1  0.957634  0.505766  0.162234  1
  O  O24  1  0.669720  0.641659  0.392769  1
  O  O25  1  0.330505  0.839446  0.900617  1
  O  O26  1  0.532412  0.500537  0.167734  1
  O  O27  1  0.844104  0.329031  0.897659  1
