# generated using pymatgen
data_Li2Ti6Zn3O16
_symmetry_space_group_name_H-M   'P 1'
_cell_length_a   8.46236111
_cell_length_b   8.46416483
_cell_length_c   8.47282367
_cell_angle_alpha   90.00000000
_cell_angle_beta   90.32292384
_cell_angle_gamma   90.00000000
_symmetry_Int_Tables_number   1
_chemical_formula_structural   Li2Ti6Zn3O16
_chemical_formula_sum   'Li4 Ti12 Zn6 O32'
_cell_volume   606.87177063
_cell_formula_units_Z   2
loop_
 _symmetry_equiv_pos_site_id
 _symmetry_equiv_pos_as_xyz
  1  'x, y, z'
loop_
 _atom_site_type_symbol
 _atom_site_label
 _atom_site_symmetry_multiplicity
 _atom_site_fract_x
 _atom_site_fract_y
 _atom_site_fract_z
 _atom_site_occupancy
  Li  Li0  1  0.125214  0.624460  0.126006  1
  Li  Li1  1  0.874786  0.124460  0.873994  1
  Li  Li2  1  0.995470  0.502366  0.748193  1
  Li  Li3  1  0.004530  0.002366  0.251807  1
  Ti  Ti4  1  0.374703  0.867708  0.134936  1
  Ti  Ti5  1  0.637070  0.114578  0.131870  1
  Ti  Ti6  1  0.882981  0.372422  0.114980  1
  Ti  Ti7  1  0.117019  0.872422  0.885020  1
  Ti  Ti8  1  0.362930  0.614578  0.868130  1
  Ti  Ti9  1  0.625297  0.367708  0.865064  1
  Ti  Ti10  1  0.127169  0.137636  0.630778  1
  Ti  Ti11  1  0.867100  0.879903  0.615723  1
  Ti  Ti12  1  0.618311  0.625474  0.614452  1
  Ti  Ti13  1  0.381689  0.125474  0.385548  1
  Ti  Ti14  1  0.132900  0.379903  0.384277  1
  Ti  Ti15  1  0.872831  0.637636  0.369222  1
  Zn  Zn16  1  0.501078  0.495823  0.244350  1
  Zn  Zn17  1  0.251098  0.247473  0.004579  1
  Zn  Zn18  1  0.748902  0.747473  0.995421  1
  Zn  Zn19  1  0.498922  0.995823  0.755650  1
  Zn  Zn20  1  0.243642  0.754606  0.502191  1
  Zn  Zn21  1  0.756358  0.254606  0.497809  1
  O  O22  1  0.870780  0.610636  0.143000  1
  O  O23  1  0.105802  0.372462  0.139305  1
  O  O24  1  0.388743  0.109753  0.138633  1
  O  O25  1  0.855637  0.140856  0.126837  1
  O  O26  1  0.608248  0.894941  0.110292  1
  O  O27  1  0.638772  0.361287  0.112152  1
  O  O28  1  0.378457  0.643997  0.109936  1
  O  O29  1  0.143064  0.876393  0.103791  1
  O  O30  1  0.856936  0.376393  0.896209  1
  O  O31  1  0.621543  0.143997  0.890064  1
  O  O32  1  0.361228  0.861287  0.887848  1
  O  O33  1  0.391752  0.394941  0.889708  1
  O  O34  1  0.144363  0.640856  0.873163  1
  O  O35  1  0.611257  0.609753  0.861367  1
  O  O36  1  0.894198  0.872462  0.860695  1
  O  O37  1  0.129220  0.110636  0.857000  1
  O  O38  1  0.639108  0.392521  0.645196  1
  O  O39  1  0.394463  0.639942  0.640883  1
  O  O40  1  0.109550  0.887943  0.639838  1
  O  O41  1  0.646070  0.857957  0.639951  1
  O  O42  1  0.889820  0.106827  0.622373  1
  O  O43  1  0.859068  0.641577  0.607596  1
  O  O44  1  0.359559  0.110300  0.606504  1
  O  O45  1  0.111442  0.354896  0.608393  1
  O  O46  1  0.888558  0.854896  0.391607  1
  O  O47  1  0.640441  0.610300  0.393496  1
  O  O48  1  0.140932  0.141577  0.392404  1
  O  O49  1  0.110180  0.606827  0.377627  1
  O  O50  1  0.353930  0.357957  0.360049  1
  O  O51  1  0.890450  0.387943  0.360162  1
  O  O52  1  0.605537  0.139942  0.359117  1
  O  O53  1  0.360892  0.892521  0.354804  1
