# generated using pymatgen
data_Na4V3O8
_symmetry_space_group_name_H-M   'P 1'
_cell_length_a   6.89386851
_cell_length_b   4.25998689
_cell_length_c   12.21486050
_cell_angle_alpha   90.00000000
_cell_angle_beta   103.37184134
_cell_angle_gamma   90.00000000
_symmetry_Int_Tables_number   1
_chemical_formula_structural   Na4V3O8
_chemical_formula_sum   'Na8 V6 O16'
_cell_volume   348.99833518
_cell_formula_units_Z   2
loop_
 _symmetry_equiv_pos_site_id
 _symmetry_equiv_pos_as_xyz
  1  'x, y, z'
loop_
 _atom_site_type_symbol
 _atom_site_label
 _atom_site_symmetry_multiplicity
 _atom_site_fract_x
 _atom_site_fract_y
 _atom_site_fract_z
 _atom_site_occupancy
  Na  Na0  1  0.178489  0.750000  0.596363  1
  Na  Na1  1  0.033043  0.750000  0.332717  1
  Na  Na2  1  0.585811  0.250000  0.953049  1
  Na  Na3  1  0.460083  0.250000  0.708910  1
  Na  Na4  1  0.539917  0.750000  0.291090  1
  Na  Na5  1  0.414189  0.750000  0.046951  1
  Na  Na6  1  0.966957  0.250000  0.667283  1
  Na  Na7  1  0.821511  0.250000  0.403637  1
  V  V8  1  0.094951  0.250000  0.925795  1
  V  V9  1  0.350399  0.250000  0.442140  1
  V  V10  1  0.210213  0.250000  0.188560  1
  V  V11  1  0.789787  0.750000  0.811440  1
  V  V12  1  0.649601  0.750000  0.557860  1
  V  V13  1  0.905049  0.750000  0.074205  1
  O  O14  1  0.049732  0.750000  0.934509  1
  O  O15  1  0.243767  0.250000  0.831796  1
  O  O16  1  0.190791  0.250000  0.538686  1
  O  O17  1  0.093529  0.250000  0.309988  1
  O  O18  1  0.177217  0.750000  0.172283  1
  O  O19  1  0.542370  0.750000  0.692438  1
  O  O20  1  0.385137  0.750000  0.454840  1
  O  O21  1  0.672827  0.750000  0.936510  1
  O  O22  1  0.327173  0.250000  0.063490  1
  O  O23  1  0.614863  0.250000  0.545160  1
  O  O24  1  0.457630  0.250000  0.307562  1
  O  O25  1  0.822783  0.250000  0.827717  1
  O  O26  1  0.906471  0.750000  0.690012  1
  O  O27  1  0.809209  0.750000  0.461314  1
  O  O28  1  0.756233  0.750000  0.168204  1
  O  O29  1  0.950268  0.250000  0.065491  1
