# generated using pymatgen
data_Li4Nb3V3(NiO8)2
_symmetry_space_group_name_H-M   'P 1'
_cell_length_a   6.07571693
_cell_length_b   6.07571693
_cell_length_c   9.88159405
_cell_angle_alpha   89.66000139
_cell_angle_beta   90.33999861
_cell_angle_gamma   119.85586829
_symmetry_Int_Tables_number   1
_chemical_formula_structural   Li4Nb3V3(NiO8)2
_chemical_formula_sum   'Li4 Nb3 V3 Ni2 O16'
_cell_volume   316.35260698
_cell_formula_units_Z   1
loop_
 _symmetry_equiv_pos_site_id
 _symmetry_equiv_pos_as_xyz
  1  'x, y, z'
loop_
 _atom_site_type_symbol
 _atom_site_label
 _atom_site_symmetry_multiplicity
 _atom_site_fract_x
 _atom_site_fract_y
 _atom_site_fract_z
 _atom_site_occupancy
  Li  Li0  1  0.666072  0.333928  0.099727  1
  Li  Li1  1  0.005995  0.994005  0.996554  1
  Li  Li2  1  0.012102  0.987898  0.507920  1
  Li  Li3  1  0.332610  0.667390  0.617490  1
  Nb  Nb4  1  0.828899  0.171101  0.781242  1
  Nb  Nb5  1  0.660462  0.836012  0.285015  1
  Nb  Nb6  1  0.163988  0.339538  0.285015  1
  V  V7  1  0.826924  0.660561  0.787857  1
  V  V8  1  0.339439  0.173076  0.787857  1
  V  V9  1  0.168071  0.831929  0.288059  1
  Ni  Ni10  1  0.659710  0.340290  0.519411  1
  Ni  Ni11  1  0.327284  0.672716  0.992247  1
  O  O12  1  0.839718  0.683094  0.393007  1
  O  O13  1  0.517474  0.482526  0.668568  1
  O  O14  1  0.673525  0.326475  0.901602  1
  O  O15  1  0.997800  0.002200  0.686211  1
  O  O16  1  0.997075  0.002925  0.182374  1
  O  O17  1  0.316906  0.160282  0.393007  1
  O  O18  1  0.964669  0.481888  0.663524  1
  O  O19  1  0.518112  0.035331  0.663524  1
  O  O20  1  0.158503  0.841497  0.890485  1
  O  O21  1  0.840359  0.159641  0.399380  1
  O  O22  1  0.486794  0.967082  0.168442  1
  O  O23  1  0.032918  0.513206  0.168442  1
  O  O24  1  0.338986  0.661014  0.402554  1
  O  O25  1  0.677051  0.841667  0.896694  1
  O  O26  1  0.483929  0.516071  0.170026  1
  O  O27  1  0.158333  0.322949  0.896694  1
