# generated using pymatgen
data_NaVSiCO7
_symmetry_space_group_name_H-M   'P 1'
_cell_length_a   5.40774080
_cell_length_b   6.42612941
_cell_length_c   9.06236742
_cell_angle_alpha   90.00000000
_cell_angle_beta   93.26367925
_cell_angle_gamma   90.00000000
_symmetry_Int_Tables_number   1
_chemical_formula_structural   NaVSiCO7
_chemical_formula_sum   'Na2 V2 Si2 C2 O14'
_cell_volume   314.41412597
_cell_formula_units_Z   2
loop_
 _symmetry_equiv_pos_site_id
 _symmetry_equiv_pos_as_xyz
  1  'x, y, z'
loop_
 _atom_site_type_symbol
 _atom_site_label
 _atom_site_symmetry_multiplicity
 _atom_site_fract_x
 _atom_site_fract_y
 _atom_site_fract_z
 _atom_site_occupancy
  Na  Na0  1  0.764817  0.514186  0.223879  1
  Na  Na1  1  0.235183  0.014186  0.776121  1
  V  V2  1  0.201803  0.234085  0.343776  1
  V  V3  1  0.798197  0.734085  0.656224  1
  Si  Si4  1  0.275235  0.740158  0.438045  1
  Si  Si5  1  0.724765  0.240158  0.561955  1
  C  C6  1  0.277641  0.256540  0.080114  1
  C  C7  1  0.722359  0.756540  0.919886  1
  O  O8  1  0.689820  0.755489  0.053137  1
  O  O9  1  0.056876  0.250418  0.140172  1
  O  O10  1  0.453340  0.259529  0.188839  1
  O  O11  1  0.213644  0.953103  0.341364  1
  O  O12  1  0.205149  0.540125  0.337667  1
  O  O13  1  0.894821  0.254367  0.416498  1
  O  O14  1  0.568999  0.744149  0.498098  1
  O  O15  1  0.431001  0.244149  0.501902  1
  O  O16  1  0.105179  0.754367  0.583502  1
  O  O17  1  0.794851  0.040125  0.662333  1
  O  O18  1  0.786356  0.453103  0.658636  1
  O  O19  1  0.546660  0.759529  0.811161  1
  O  O20  1  0.943124  0.750418  0.859828  1
  O  O21  1  0.310180  0.255489  0.946863  1
