# generated using pymatgen
data_Tb2TiO5
_symmetry_space_group_name_H-M   'P 1'
_cell_length_a   3.73880960
_cell_length_b   10.50094085
_cell_length_c   11.33766671
_cell_angle_alpha   90.00000000
_cell_angle_beta   90.00000000
_cell_angle_gamma   90.00000000
_symmetry_Int_Tables_number   1
_chemical_formula_structural   Tb2TiO5
_chemical_formula_sum   'Tb8 Ti4 O20'
_cell_volume   445.12834198
_cell_formula_units_Z   4
loop_
 _symmetry_equiv_pos_site_id
 _symmetry_equiv_pos_as_xyz
  1  'x, y, z'
loop_
 _atom_site_type_symbol
 _atom_site_label
 _atom_site_symmetry_multiplicity
 _atom_site_fract_x
 _atom_site_fract_y
 _atom_site_fract_z
 _atom_site_occupancy
  Tb  Tb0  1  0.750000  0.363815  0.443769  1
  Tb  Tb1  1  0.750000  0.863815  0.056231  1
  Tb  Tb2  1  0.250000  0.636185  0.556231  1
  Tb  Tb3  1  0.250000  0.136185  0.943769  1
  Tb  Tb4  1  0.250000  0.113293  0.276778  1
  Tb  Tb5  1  0.250000  0.613293  0.223222  1
  Tb  Tb6  1  0.750000  0.886707  0.723222  1
  Tb  Tb7  1  0.750000  0.386707  0.776778  1
  Ti  Ti8  1  0.750000  0.323169  0.120316  1
  Ti  Ti9  1  0.750000  0.823169  0.379684  1
  Ti  Ti10  1  0.250000  0.676831  0.879684  1
  Ti  Ti11  1  0.250000  0.176831  0.620316  1
  O  O12  1  0.750000  0.274604  0.957900  1
  O  O13  1  0.750000  0.774604  0.542100  1
  O  O14  1  0.250000  0.725396  0.042100  1
  O  O15  1  0.250000  0.225396  0.457900  1
  O  O16  1  0.750000  0.006136  0.895499  1
  O  O17  1  0.750000  0.506136  0.604501  1
  O  O18  1  0.250000  0.993864  0.104501  1
  O  O19  1  0.250000  0.493864  0.395499  1
  O  O20  1  0.750000  0.237512  0.617212  1
  O  O21  1  0.750000  0.737512  0.882788  1
  O  O22  1  0.250000  0.762488  0.382788  1
  O  O23  1  0.250000  0.262488  0.117212  1
  O  O24  1  0.750000  0.488850  0.156644  1
  O  O25  1  0.750000  0.988850  0.343356  1
  O  O26  1  0.250000  0.511150  0.843356  1
  O  O27  1  0.250000  0.011150  0.656644  1
  O  O28  1  0.750000  0.239700  0.270761  1
  O  O29  1  0.750000  0.739700  0.229239  1
  O  O30  1  0.250000  0.760300  0.729239  1
  O  O31  1  0.250000  0.260300  0.770761  1
