# generated using pymatgen
data_Na2ZnP2(H5O6)2
_symmetry_space_group_name_H-M   'P 1'
_cell_length_a   9.05068913
_cell_length_b   13.44995960
_cell_length_c   10.20085214
_cell_angle_alpha   90.00000000
_cell_angle_beta   116.37296761
_cell_angle_gamma   90.00000000
_symmetry_Int_Tables_number   1
_chemical_formula_structural   Na2ZnP2(H5O6)2
_chemical_formula_sum   'Na8 Zn4 P8 H40 O48'
_cell_volume   1112.52303219
_cell_formula_units_Z   4
loop_
 _symmetry_equiv_pos_site_id
 _symmetry_equiv_pos_as_xyz
  1  'x, y, z'
loop_
 _atom_site_type_symbol
 _atom_site_label
 _atom_site_symmetry_multiplicity
 _atom_site_fract_x
 _atom_site_fract_y
 _atom_site_fract_z
 _atom_site_occupancy
  Na  Na0  1  0.164538  0.464738  0.863442  1
  Na  Na1  1  0.835462  0.964738  0.636558  1
  Na  Na2  1  0.835462  0.535262  0.136558  1
  Na  Na3  1  0.164538  0.035262  0.363442  1
  Na  Na4  1  0.319792  0.276201  0.698061  1
  Na  Na5  1  0.680208  0.776201  0.801939  1
  Na  Na6  1  0.680208  0.723799  0.301939  1
  Na  Na7  1  0.319792  0.223799  0.198061  1
  Zn  Zn8  1  0.596886  0.340425  0.536771  1
  Zn  Zn9  1  0.403114  0.840425  0.963229  1
  Zn  Zn10  1  0.403114  0.659575  0.463229  1
  Zn  Zn11  1  0.596886  0.159575  0.036771  1
  P  P12  1  0.257116  0.439151  0.389754  1
  P  P13  1  0.742884  0.939151  0.110246  1
  P  P14  1  0.742884  0.560849  0.610246  1
  P  P15  1  0.257116  0.060849  0.889754  1
  P  P16  1  0.730189  0.187963  0.796636  1
  P  P17  1  0.269811  0.687963  0.703364  1
  P  P18  1  0.269811  0.812037  0.203364  1
  P  P19  1  0.730189  0.312037  0.296636  1
  H  H20  1  0.009240  0.359632  0.281279  1
  H  H21  1  0.990760  0.859632  0.218721  1
  H  H22  1  0.990760  0.640368  0.718721  1
  H  H23  1  0.009240  0.140368  0.781279  1
  H  H24  1  0.717848  0.023280  0.852965  1
  H  H25  1  0.282152  0.523280  0.647035  1
  H  H26  1  0.282152  0.976720  0.147035  1
  H  H27  1  0.717848  0.476720  0.352965  1
  H  H28  1  0.254976  0.646400  0.053484  1
  H  H29  1  0.745024  0.146400  0.446516  1
  H  H30  1  0.745024  0.353600  0.946516  1
  H  H31  1  0.254976  0.853600  0.553484  1
  H  H32  1  0.269197  0.558022  0.159917  1
  H  H33  1  0.730803  0.058022  0.340083  1
  H  H34  1  0.730803  0.441978  0.840083  1
  H  H35  1  0.269197  0.941978  0.659917  1
  H  H36  1  0.943116  0.607964  0.417565  1
  H  H37  1  0.056884  0.107964  0.082435  1
  H  H38  1  0.056884  0.392036  0.582435  1
  H  H39  1  0.943116  0.892036  0.917565  1
  H  H40  1  0.044862  0.684033  0.375457  1
  H  H41  1  0.955138  0.184033  0.124543  1
  H  H42  1  0.955138  0.315967  0.624543  1
  H  H43  1  0.044862  0.815967  0.875457  1
  H  H44  1  0.964088  0.702160  0.060118  1
  H  H45  1  0.035912  0.202160  0.439882  1
  H  H46  1  0.035912  0.297840  0.939882  1
  H  H47  1  0.964088  0.797840  0.560118  1
  H  H48  1  0.912954  0.631776  0.921902  1
  H  H49  1  0.087046  0.131776  0.578098  1
  H  H50  1  0.087046  0.368224  0.078098  1
  H  H51  1  0.912954  0.868224  0.421902  1
  H  H52  1  0.537016  0.648783  0.994108  1
  H  H53  1  0.462984  0.148783  0.505892  1
  H  H54  1  0.462984  0.351217  0.005892  1
  H  H55  1  0.537016  0.851217  0.494108  1
  H  H56  1  0.484878  0.577928  0.085864  1
  H  H57  1  0.515122  0.077928  0.414136  1
  H  H58  1  0.515122  0.422072  0.914136  1
  H  H59  1  0.484878  0.922072  0.585864  1
  O  O60  1  0.371218  0.356340  0.380989  1
  O  O61  1  0.628782  0.856340  0.119011  1
  O  O62  1  0.628782  0.643660  0.619011  1
  O  O63  1  0.371218  0.143660  0.880989  1
  O  O64  1  0.698639  0.459293  0.654935  1
  O  O65  1  0.301361  0.959293  0.845065  1
  O  O66  1  0.301361  0.540707  0.345065  1
  O  O67  1  0.698639  0.040707  0.154935  1
  O  O68  1  0.578647  0.237147  0.668995  1
  O  O69  1  0.421353  0.737147  0.831005  1
  O  O70  1  0.421353  0.762853  0.331005  1
  O  O71  1  0.578647  0.262853  0.168995  1
  O  O72  1  0.732656  0.284854  0.446096  1
  O  O73  1  0.267344  0.784854  0.053904  1
  O  O74  1  0.267344  0.715146  0.553904  1
  O  O75  1  0.732656  0.215146  0.946096  1
  O  O76  1  0.252754  0.440652  0.538037  1
  O  O77  1  0.747246  0.940652  0.961963  1
  O  O78  1  0.747246  0.559348  0.461963  1
  O  O79  1  0.252754  0.059348  0.038037  1
  O  O80  1  0.076025  0.415160  0.261064  1
  O  O81  1  0.923975  0.915160  0.238936  1
  O  O82  1  0.923975  0.584840  0.738936  1
  O  O83  1  0.076025  0.084840  0.761064  1
  O  O84  1  0.704976  0.071640  0.769330  1
  O  O85  1  0.295024  0.571640  0.730670  1
  O  O86  1  0.295024  0.928360  0.230670  1
  O  O87  1  0.704976  0.428360  0.269330  1
  O  O88  1  0.892326  0.219256  0.795561  1
  O  O89  1  0.107674  0.719256  0.704439  1
  O  O90  1  0.107674  0.780744  0.204439  1
  O  O91  1  0.892326  0.280744  0.295561  1
  O  O92  1  0.262006  0.573142  0.061903  1
  O  O93  1  0.737994  0.073142  0.438097  1
  O  O94  1  0.737994  0.426858  0.938097  1
  O  O95  1  0.262006  0.926858  0.561903  1
  O  O96  1  0.940924  0.646503  0.335903  1
  O  O97  1  0.059076  0.146503  0.164097  1
  O  O98  1  0.059076  0.353497  0.664097  1
  O  O99  1  0.940924  0.853497  0.835903  1
  O  O100  1  0.871606  0.662170  0.986791  1
  O  O101  1  0.128394  0.162170  0.513209  1
  O  O102  1  0.128394  0.337830  0.013209  1
  O  O103  1  0.871606  0.837830  0.486791  1
  O  O104  1  0.581033  0.614769  0.089454  1
  O  O105  1  0.418967  0.114769  0.410546  1
  O  O106  1  0.418967  0.385231  0.910546  1
  O  O107  1  0.581033  0.885231  0.589454  1
