# generated using pymatgen
data_V2O3F
_symmetry_space_group_name_H-M   'P 1'
_cell_length_a   4.69325064
_cell_length_b   4.69325064
_cell_length_c   12.12989063
_cell_angle_alpha   90.00000000
_cell_angle_beta   90.00000000
_cell_angle_gamma   93.78300793
_symmetry_Int_Tables_number   1
_chemical_formula_structural   V2O3F
_chemical_formula_sum   'V8 O12 F4'
_cell_volume   266.59810357
_cell_formula_units_Z   4
loop_
 _symmetry_equiv_pos_site_id
 _symmetry_equiv_pos_as_xyz
  1  'x, y, z'
loop_
 _atom_site_type_symbol
 _atom_site_label
 _atom_site_symmetry_multiplicity
 _atom_site_fract_x
 _atom_site_fract_y
 _atom_site_fract_z
 _atom_site_occupancy
  V  V0  1  0.000000  0.000000  0.000000  1
  V  V1  1  0.006417  0.993583  0.750000  1
  V  V2  1  0.000000  0.000000  0.500000  1
  V  V3  1  0.993583  0.006417  0.250000  1
  V  V4  1  0.458267  0.541733  0.875218  1
  V  V5  1  0.541733  0.458267  0.375218  1
  V  V6  1  0.541733  0.458267  0.124782  1
  V  V7  1  0.458267  0.541733  0.624782  1
  O  O8  1  0.802886  0.197114  0.124411  1
  O  O9  1  0.802886  0.197114  0.375589  1
  O  O10  1  0.307319  0.307319  0.000000  1
  O  O11  1  0.303516  0.310532  0.750000  1
  O  O12  1  0.307319  0.307319  0.500000  1
  O  O13  1  0.310532  0.303516  0.250000  1
  O  O14  1  0.692681  0.692681  0.000000  1
  O  O15  1  0.689468  0.696484  0.750000  1
  O  O16  1  0.692681  0.692681  0.500000  1
  O  O17  1  0.696484  0.689468  0.250000  1
  O  O18  1  0.197114  0.802886  0.875589  1
  O  O19  1  0.197114  0.802886  0.624411  1
  F  F20  1  0.799740  0.200260  0.874393  1
  F  F21  1  0.799740  0.200260  0.625607  1
  F  F22  1  0.200260  0.799740  0.374393  1
  F  F23  1  0.200260  0.799740  0.125607  1
