# generated using pymatgen
data_Li8MnFe7(BO3)8
_symmetry_space_group_name_H-M   'P 1'
_cell_length_a   5.24375627
_cell_length_b   9.04216378
_cell_length_c   10.39727226
_cell_angle_alpha   89.01236908
_cell_angle_beta   89.24872090
_cell_angle_gamma   89.65831079
_symmetry_Int_Tables_number   1
_chemical_formula_structural   Li8MnFe7(BO3)8
_chemical_formula_sum   'Li8 Mn1 Fe7 B8 O24'
_cell_volume   492.86192771
_cell_formula_units_Z   1
loop_
 _symmetry_equiv_pos_site_id
 _symmetry_equiv_pos_as_xyz
  1  'x, y, z'
loop_
 _atom_site_type_symbol
 _atom_site_label
 _atom_site_symmetry_multiplicity
 _atom_site_fract_x
 _atom_site_fract_y
 _atom_site_fract_z
 _atom_site_occupancy
  Li  Li0  1  0.149684  0.173853  0.667476  1
  Li  Li1  1  0.185423  0.162979  0.166533  1
  Li  Li2  1  0.322374  0.333219  0.415585  1
  Li  Li3  1  0.336134  0.326406  0.917339  1
  Li  Li4  1  0.649638  0.673220  0.668649  1
  Li  Li5  1  0.686013  0.659793  0.166037  1
  Li  Li6  1  0.821326  0.832255  0.417837  1
  Li  Li7  1  0.836878  0.823918  0.915905  1
  Mn  Mn8  1  0.675526  0.999449  0.135067  1
  Fe  Fe9  1  0.178237  0.503764  0.133618  1
  Fe  Fe10  1  0.161490  0.841437  0.633685  1
  Fe  Fe11  1  0.337542  0.662619  0.384391  1
  Fe  Fe12  1  0.336447  0.997823  0.882042  1
  Fe  Fe13  1  0.655067  0.341160  0.630889  1
  Fe  Fe14  1  0.837052  0.162792  0.384510  1
  Fe  Fe15  1  0.836275  0.492616  0.881260  1
  B  B16  1  0.171242  0.829246  0.124556  1
  B  B17  1  0.160715  0.502213  0.625823  1
  B  B18  1  0.332231  0.996897  0.377618  1
  B  B19  1  0.328252  0.666450  0.875149  1
  B  B20  1  0.672821  0.332410  0.127163  1
  B  B21  1  0.662679  0.000915  0.625775  1
  B  B22  1  0.833828  0.497536  0.376554  1
  B  B23  1  0.826978  0.165803  0.874780  1
  O  O24  1  0.093447  0.485807  0.346875  1
  O  O25  1  0.088613  0.172507  0.862020  1
  O  O26  1  0.177109  0.790752  0.844717  1
  O  O27  1  0.194140  0.873331  0.415438  1
  O  O28  1  0.214213  0.134443  0.364372  1
  O  O29  1  0.210170  0.535514  0.916038  1
  O  O30  1  0.277062  0.363931  0.613536  1
  O  O31  1  0.287404  0.964851  0.095047  1
  O  O32  1  0.300525  0.628622  0.595562  1
  O  O33  1  0.318591  0.708461  0.165634  1
  O  O34  1  0.409990  0.320188  0.113652  1
  O  O35  1  0.406277  0.011959  0.663713  1
  O  O36  1  0.593773  0.986172  0.348993  1
  O  O37  1  0.589851  0.674505  0.862381  1
  O  O38  1  0.678090  0.291738  0.846293  1
  O  O39  1  0.695194  0.373616  0.417309  1
  O  O40  1  0.714369  0.633779  0.363374  1
  O  O41  1  0.708171  0.034372  0.913998  1
  O  O42  1  0.793201  0.465338  0.096184  1
  O  O43  1  0.777751  0.863703  0.613255  1
  O  O44  1  0.801945  0.129293  0.597408  1
  O  O45  1  0.818620  0.210855  0.167666  1
  O  O46  1  0.910643  0.815101  0.111116  1
  O  O47  1  0.906401  0.511788  0.664776  1
