# generated using pymatgen
data_LuGaO3
_symmetry_space_group_name_H-M   'P 1'
_cell_length_a   6.00016978
_cell_length_b   6.00016978
_cell_length_c   11.67075868
_cell_angle_alpha   90.00000000
_cell_angle_beta   90.00000000
_cell_angle_gamma   120.00000000
_symmetry_Int_Tables_number   1
_chemical_formula_structural   LuGaO3
_chemical_formula_sum   'Lu6 Ga6 O18'
_cell_volume   363.87883806
_cell_formula_units_Z   6
loop_
 _symmetry_equiv_pos_site_id
 _symmetry_equiv_pos_as_xyz
  1  'x, y, z'
loop_
 _atom_site_type_symbol
 _atom_site_label
 _atom_site_symmetry_multiplicity
 _atom_site_fract_x
 _atom_site_fract_y
 _atom_site_fract_z
 _atom_site_occupancy
  Lu  Lu0  1  0.333333  0.666667  0.231963  1
  Lu  Lu1  1  0.000000  0.000000  0.272453  1
  Lu  Lu2  1  0.000000  0.000000  0.772453  1
  Lu  Lu3  1  0.333333  0.666667  0.731963  1
  Lu  Lu4  1  0.666667  0.333333  0.731963  1
  Lu  Lu5  1  0.666667  0.333333  0.231963  1
  Ga  Ga6  1  0.000000  0.665940  0.498689  1
  Ga  Ga7  1  0.000000  0.334060  0.998689  1
  Ga  Ga8  1  0.334060  0.334060  0.498689  1
  Ga  Ga9  1  0.665940  0.665940  0.998689  1
  Ga  Ga10  1  0.334060  0.000000  0.998689  1
  Ga  Ga11  1  0.665940  0.000000  0.498689  1
  O  O12  1  0.000000  0.693833  0.663689  1
  O  O13  1  0.000000  0.639507  0.335236  1
  O  O14  1  0.000000  0.360493  0.835236  1
  O  O15  1  0.000000  0.306167  0.163689  1
  O  O16  1  0.333333  0.666667  0.020225  1
  O  O17  1  0.000000  0.000000  0.473605  1
  O  O18  1  0.000000  0.000000  0.973605  1
  O  O19  1  0.333333  0.666667  0.520225  1
  O  O20  1  0.306167  0.306167  0.663689  1
  O  O21  1  0.360493  0.360493  0.335236  1
  O  O22  1  0.306167  0.000000  0.163689  1
  O  O23  1  0.639507  0.639507  0.835236  1
  O  O24  1  0.693833  0.693833  0.163689  1
  O  O25  1  0.360493  0.000000  0.835236  1
  O  O26  1  0.666667  0.333333  0.520225  1
  O  O27  1  0.666667  0.333333  0.020225  1
  O  O28  1  0.639507  0.000000  0.335236  1
  O  O29  1  0.693833  0.000000  0.663689  1
