# generated using pymatgen
data_Li4V3Ni3(SnO8)2
_symmetry_space_group_name_H-M   'P 1'
_cell_length_a   5.94675484
_cell_length_b   5.96702629
_cell_length_c   9.73197639
_cell_angle_alpha   90.79555959
_cell_angle_beta   89.90541272
_cell_angle_gamma   119.78043748
_symmetry_Int_Tables_number   1
_chemical_formula_structural   Li4V3Ni3(SnO8)2
_chemical_formula_sum   'Li4 V3 Ni3 Sn2 O16'
_cell_volume   299.69291638
_cell_formula_units_Z   1
loop_
 _symmetry_equiv_pos_site_id
 _symmetry_equiv_pos_as_xyz
  1  'x, y, z'
loop_
 _atom_site_type_symbol
 _atom_site_label
 _atom_site_symmetry_multiplicity
 _atom_site_fract_x
 _atom_site_fract_y
 _atom_site_fract_z
 _atom_site_occupancy
  Li  Li0  1  0.659712  0.317648  0.887658  1
  Li  Li1  1  0.998878  0.002712  0.988302  1
  Li  Li2  1  0.000747  0.003108  0.497177  1
  Li  Li3  1  0.330103  0.656130  0.401849  1
  V  V4  1  0.335238  0.176605  0.212857  1
  V  V5  1  0.821267  0.172059  0.218631  1
  V  V6  1  0.171629  0.344332  0.719183  1
  Ni  Ni7  1  0.832148  0.663705  0.212207  1
  Ni  Ni8  1  0.169687  0.828979  0.712153  1
  Ni  Ni9  1  0.659033  0.828773  0.712520  1
  Sn  Sn10  1  0.673035  0.345889  0.502513  1
  Sn  Sn11  1  0.340210  0.681560  0.985845  1
  O  O12  1  0.326658  0.175005  0.600943  1
  O  O13  1  0.530161  0.033245  0.334684  1
  O  O14  1  0.671092  0.308182  0.104332  1
  O  O15  1  0.001138  0.021767  0.306454  1
  O  O16  1  0.013753  0.028008  0.802431  1
  O  O17  1  0.848914  0.176486  0.602149  1
  O  O18  1  0.503239  0.458039  0.333018  1
  O  O19  1  0.961531  0.462639  0.334415  1
  O  O20  1  0.161023  0.332585  0.108252  1
  O  O21  1  0.845682  0.691551  0.591206  1
  O  O22  1  0.029545  0.496016  0.841312  1
  O  O23  1  0.465074  0.494357  0.841891  1
  O  O24  1  0.311236  0.621322  0.603550  1
  O  O25  1  0.177335  0.861279  0.105201  1
  O  O26  1  0.480359  0.961980  0.842081  1
  O  O27  1  0.681273  0.856036  0.105024  1
