# generated using pymatgen
data_V2OF7
_symmetry_space_group_name_H-M   'P 1'
_cell_length_a   5.57907114
_cell_length_b   5.66988039
_cell_length_c   11.20416138
_cell_angle_alpha   90.00000000
_cell_angle_beta   101.85627451
_cell_angle_gamma   90.00000000
_symmetry_Int_Tables_number   1
_chemical_formula_structural   V2OF7
_chemical_formula_sum   'V4 O2 F14'
_cell_volume   346.85637595
_cell_formula_units_Z   2
loop_
 _symmetry_equiv_pos_site_id
 _symmetry_equiv_pos_as_xyz
  1  'x, y, z'
loop_
 _atom_site_type_symbol
 _atom_site_label
 _atom_site_symmetry_multiplicity
 _atom_site_fract_x
 _atom_site_fract_y
 _atom_site_fract_z
 _atom_site_occupancy
  V  V0  1  0.133006  0.499470  0.191659  1
  V  V1  1  0.133006  0.500530  0.691659  1
  V  V2  1  0.849763  0.018427  0.312250  1
  V  V3  1  0.849763  0.981573  0.812250  1
  O  O4  1  0.956786  0.300837  0.248049  1
  O  O5  1  0.956786  0.699163  0.748049  1
  F  F6  1  0.621412  0.131731  0.706690  1
  F  F7  1  0.635638  0.867431  0.895501  1
  F  F8  1  0.338468  0.649227  0.618505  1
  F  F9  1  0.074719  0.826549  0.218354  1
  F  F10  1  0.364777  0.459018  0.824633  1
  F  F11  1  0.072511  0.941653  0.441776  1
  F  F12  1  0.930990  0.555772  0.049363  1
  F  F13  1  0.074719  0.173451  0.718354  1
  F  F14  1  0.072511  0.058347  0.941776  1
  F  F15  1  0.930990  0.444228  0.549363  1
  F  F16  1  0.621412  0.868269  0.206690  1
  F  F17  1  0.635638  0.132569  0.395501  1
  F  F18  1  0.338468  0.350773  0.118505  1
  F  F19  1  0.364777  0.540982  0.324633  1
