# generated using pymatgen
data_Mn4O7F
_symmetry_space_group_name_H-M   'P 1'
_cell_length_a   5.47665716
_cell_length_b   8.92401265
_cell_length_c   7.39508867
_cell_angle_alpha   90.00000000
_cell_angle_beta   137.85754090
_cell_angle_gamma   90.00000000
_symmetry_Int_Tables_number   1
_chemical_formula_structural   Mn4O7F
_chemical_formula_sum   'Mn8 O14 F2'
_cell_volume   242.50811886
_cell_formula_units_Z   2
loop_
 _symmetry_equiv_pos_site_id
 _symmetry_equiv_pos_as_xyz
  1  'x, y, z'
loop_
 _atom_site_type_symbol
 _atom_site_label
 _atom_site_symmetry_multiplicity
 _atom_site_fract_x
 _atom_site_fract_y
 _atom_site_fract_z
 _atom_site_occupancy
  Mn  Mn0  1  0.915213  0.376933  0.746598  1
  Mn  Mn1  1  0.116226  0.377200  0.260021  1
  Mn  Mn2  1  0.616226  0.622800  0.260021  1
  Mn  Mn3  1  0.415213  0.623067  0.746598  1
  Mn  Mn4  1  0.100847  0.874357  0.247610  1
  Mn  Mn5  1  0.874266  0.884795  0.745438  1
  Mn  Mn6  1  0.600847  0.125643  0.247610  1
  Mn  Mn7  1  0.374266  0.115205  0.745438  1
  O  O8  1  0.197627  0.488582  0.081275  1
  O  O9  1  0.483019  0.486429  0.584909  1
  O  O10  1  0.983019  0.513571  0.584909  1
  O  O11  1  0.697627  0.511418  0.081275  1
  O  O12  1  0.037057  0.742758  0.421904  1
  O  O13  1  0.534110  0.761835  0.424835  1
  O  O14  1  0.812524  0.762737  0.921552  1
  O  O15  1  0.181196  0.995647  0.075978  1
  O  O16  1  0.453475  0.994563  0.572095  1
  O  O17  1  0.953475  0.005437  0.572095  1
  O  O18  1  0.681196  0.004353  0.075978  1
  O  O19  1  0.312524  0.237263  0.921552  1
  O  O20  1  0.034110  0.238165  0.424835  1
  O  O21  1  0.537057  0.257242  0.421904  1
  F  F22  1  0.294437  0.750411  0.917783  1
  F  F23  1  0.794437  0.249589  0.917783  1
