# generated using pymatgen
data_LiFeNiO4
_symmetry_space_group_name_H-M   'P 1'
_cell_length_a   5.94280376
_cell_length_b   5.94280376
_cell_length_c   5.94280376
_cell_angle_alpha   123.09091470
_cell_angle_beta   122.20304194
_cell_angle_gamma   85.47521586
_symmetry_Int_Tables_number   1
_chemical_formula_structural   LiFeNiO4
_chemical_formula_sum   'Li2 Fe2 Ni2 O8'
_cell_volume   141.97621326
_cell_formula_units_Z   2
loop_
 _symmetry_equiv_pos_site_id
 _symmetry_equiv_pos_as_xyz
  1  'x, y, z'
loop_
 _atom_site_type_symbol
 _atom_site_label
 _atom_site_symmetry_multiplicity
 _atom_site_fract_x
 _atom_site_fract_y
 _atom_site_fract_z
 _atom_site_occupancy
  Li  Li0  1  0.881764  0.631764  0.250000  1
  Li  Li1  1  0.118236  0.368236  0.750000  1
  Fe  Fe2  1  0.500000  1.000000  0.500000  1
  Fe  Fe3  1  0.000000  0.000000  0.000000  1
  Ni  Ni4  1  0.500000  0.000000  0.000000  1
  Ni  Ni5  1  0.500000  0.500000  0.500000  1
  O  O6  1  0.744741  0.221930  0.977189  1
  O  O7  1  0.292845  0.763681  0.529164  1
  O  O8  1  0.734517  0.763681  0.970836  1
  O  O9  1  0.744741  0.767552  0.522811  1
  O  O10  1  0.255259  0.232448  0.477189  1
  O  O11  1  0.707155  0.236319  0.470836  1
  O  O12  1  0.265483  0.236319  0.029164  1
  O  O13  1  0.255259  0.778070  0.022811  1
