# generated using pymatgen
data_Li10Fe3Sb7O24
_symmetry_space_group_name_H-M   'P 1'
_cell_length_a   5.26019687
_cell_length_b   9.59382528
_cell_length_c   10.21601273
_cell_angle_alpha   90.55302870
_cell_angle_beta   90.45835934
_cell_angle_gamma   90.70095081
_symmetry_Int_Tables_number   1
_chemical_formula_structural   Li10Fe3Sb7O24
_chemical_formula_sum   'Li10 Fe3 Sb7 O24'
_cell_volume   515.47568327
_cell_formula_units_Z   1
loop_
 _symmetry_equiv_pos_site_id
 _symmetry_equiv_pos_as_xyz
  1  'x, y, z'
loop_
 _atom_site_type_symbol
 _atom_site_label
 _atom_site_symmetry_multiplicity
 _atom_site_fract_x
 _atom_site_fract_y
 _atom_site_fract_z
 _atom_site_occupancy
  Li  Li0  1  0.441339  0.688018  0.072880  1
  Li  Li1  1  0.047548  0.689300  0.599380  1
  Li  Li2  1  0.971960  0.532119  0.386327  1
  Li  Li3  1  0.449743  0.448392  0.912209  1
  Li  Li4  1  0.004660  0.247840  0.160708  1
  Li  Li5  1  0.504446  0.251607  0.680011  1
  Li  Li6  1  0.558460  0.235236  0.041103  1
  Li  Li7  1  0.964742  0.236742  0.557437  1
  Li  Li8  1  0.924408  0.911063  0.438907  1
  Li  Li9  1  0.575360  0.933325  0.932951  1
  Fe  Fe10  1  0.459168  0.742016  0.347317  1
  Fe  Fe11  1  0.024771  0.750314  0.855133  1
  Fe  Fe12  1  0.005584  0.417767  0.839660  1
  Sb  Sb13  1  0.529249  0.919908  0.635619  1
  Sb  Sb14  1  0.987319  0.927631  0.130996  1
  Sb  Sb15  1  0.546329  0.578472  0.626881  1
  Sb  Sb16  1  0.940267  0.573940  0.111913  1
  Sb  Sb17  1  0.476706  0.393826  0.345281  1
  Sb  Sb18  1  0.046366  0.099798  0.853677  1
  Sb  Sb19  1  0.466175  0.075051  0.365408  1
  O  O20  1  0.651869  0.910922  0.294958  1
  O  O21  1  0.801789  0.926928  0.774047  1
  O  O22  1  0.284852  0.915982  0.471714  1
  O  O23  1  0.207505  0.930629  0.949229  1
  O  O24  1  0.192262  0.733475  0.208938  1
  O  O25  1  0.344825  0.752689  0.710824  1
  O  O26  1  0.714879  0.760098  0.533135  1
  O  O27  1  0.774722  0.740500  0.017352  1
  O  O28  1  0.197888  0.585376  0.968888  1
  O  O29  1  0.293006  0.604492  0.474711  1
  O  O30  1  0.689180  0.613452  0.259340  1
  O  O31  1  0.850493  0.594538  0.739924  1
  O  O32  1  0.085906  0.435147  0.228496  1
  O  O33  1  0.358761  0.439445  0.724212  1
  O  O34  1  0.728488  0.442188  0.508383  1
  O  O35  1  0.752065  0.427909  0.008694  1
  O  O36  1  0.304078  0.236106  0.461078  1
  O  O37  1  0.240872  0.251474  0.940775  1
  O  O38  1  0.681859  0.218387  0.278593  1
  O  O39  1  0.868611  0.235965  0.744336  1
  O  O40  1  0.715437  0.058760  0.523010  1
  O  O41  1  0.798690  0.085740  0.003542  1
  O  O42  1  0.214060  0.083013  0.223013  1
  O  O43  1  0.323305  0.068420  0.717009  1
