# generated using pymatgen
data_Li4Ti2Cr3Sn3O16
_symmetry_space_group_name_H-M   'P 1'
_cell_length_a   6.10770580
_cell_length_b   6.10770580
_cell_length_c   9.65523254
_cell_angle_alpha   89.38890380
_cell_angle_beta   90.61109620
_cell_angle_gamma   119.83937612
_symmetry_Int_Tables_number   1
_chemical_formula_structural   Li4Ti2Cr3Sn3O16
_chemical_formula_sum   'Li4 Ti2 Cr3 Sn3 O16'
_cell_volume   312.40447995
_cell_formula_units_Z   1
loop_
 _symmetry_equiv_pos_site_id
 _symmetry_equiv_pos_as_xyz
  1  'x, y, z'
loop_
 _atom_site_type_symbol
 _atom_site_label
 _atom_site_symmetry_multiplicity
 _atom_site_fract_x
 _atom_site_fract_y
 _atom_site_fract_z
 _atom_site_occupancy
  Li  Li0  1  0.329149  0.670851  0.889392  1
  Li  Li1  1  0.011560  0.988440  0.990995  1
  Li  Li2  1  0.008086  0.991914  0.500609  1
  Li  Li3  1  0.665707  0.334293  0.398871  1
  Ti  Ti4  1  0.324782  0.675218  0.499935  1
  Ti  Ti5  1  0.657105  0.342895  0.983261  1
  Cr  Cr6  1  0.171092  0.828908  0.214287  1
  Cr  Cr7  1  0.827850  0.659452  0.713873  1
  Cr  Cr8  1  0.340548  0.172150  0.713873  1
  Sn  Sn9  1  0.661933  0.829983  0.214370  1
  Sn  Sn10  1  0.170017  0.338067  0.214370  1
  Sn  Sn11  1  0.829723  0.170277  0.713948  1
  O  O12  1  0.666098  0.830518  0.593686  1
  O  O13  1  0.483145  0.516855  0.345782  1
  O  O14  1  0.329544  0.670456  0.098088  1
  O  O15  1  0.006265  0.993735  0.315178  1
  O  O16  1  0.004357  0.995643  0.806894  1
  O  O17  1  0.169482  0.333902  0.593686  1
  O  O18  1  0.474443  0.957449  0.343921  1
  O  O19  1  0.042551  0.525557  0.343921  1
  O  O20  1  0.837616  0.162384  0.092649  1
  O  O21  1  0.170566  0.829434  0.599803  1
  O  O22  1  0.957076  0.485420  0.844638  1
  O  O23  1  0.514580  0.042924  0.844638  1
  O  O24  1  0.661520  0.338480  0.604257  1
  O  O25  1  0.835405  0.666712  0.096489  1
  O  O26  1  0.520421  0.479579  0.839354  1
  O  O27  1  0.333288  0.164595  0.096489  1
