# generated using pymatgen
data_ScVO3
_symmetry_space_group_name_H-M   'P 1'
_cell_length_a   5.09617990
_cell_length_b   5.39991608
_cell_length_c   7.81944510
_cell_angle_alpha   90.00000000
_cell_angle_beta   90.00000000
_cell_angle_gamma   90.00000000
_symmetry_Int_Tables_number   1
_chemical_formula_structural   ScVO3
_chemical_formula_sum   'Sc4 V4 O12'
_cell_volume   215.18287016
_cell_formula_units_Z   4
loop_
 _symmetry_equiv_pos_site_id
 _symmetry_equiv_pos_as_xyz
  1  'x, y, z'
loop_
 _atom_site_type_symbol
 _atom_site_label
 _atom_site_symmetry_multiplicity
 _atom_site_fract_x
 _atom_site_fract_y
 _atom_site_fract_z
 _atom_site_occupancy
  Sc  Sc0  1  0.981392  0.061582  0.250000  1
  Sc  Sc1  1  0.481392  0.438418  0.750000  1
  Sc  Sc2  1  0.518608  0.561582  0.250000  1
  Sc  Sc3  1  0.018608  0.938418  0.750000  1
  V  V4  1  0.500000  0.000000  0.000000  1
  V  V5  1  0.500000  0.000000  0.500000  1
  V  V6  1  0.000000  0.500000  0.000000  1
  V  V7  1  0.000000  0.500000  0.500000  1
  O  O8  1  0.645044  0.074548  0.750000  1
  O  O9  1  0.183817  0.192014  0.574994  1
  O  O10  1  0.183817  0.192014  0.925006  1
  O  O11  1  0.683817  0.307986  0.074994  1
  O  O12  1  0.683817  0.307986  0.425006  1
  O  O13  1  0.145044  0.425452  0.250000  1
  O  O14  1  0.854956  0.574548  0.750000  1
  O  O15  1  0.316183  0.692014  0.574994  1
  O  O16  1  0.316183  0.692014  0.925006  1
  O  O17  1  0.816183  0.807986  0.074994  1
  O  O18  1  0.816183  0.807986  0.425006  1
  O  O19  1  0.354956  0.925452  0.250000  1
