# generated using pymatgen
data_LiMn2F7
_symmetry_space_group_name_H-M   'P 1'
_cell_length_a   7.26209206
_cell_length_b   7.59761103
_cell_length_c   9.79646403
_cell_angle_alpha   90.00000000
_cell_angle_beta   91.55371593
_cell_angle_gamma   90.00000000
_symmetry_Int_Tables_number   1
_chemical_formula_structural   LiMn2F7
_chemical_formula_sum   'Li4 Mn8 F28'
_cell_volume   540.31677803
_cell_formula_units_Z   4
loop_
 _symmetry_equiv_pos_site_id
 _symmetry_equiv_pos_as_xyz
  1  'x, y, z'
loop_
 _atom_site_type_symbol
 _atom_site_label
 _atom_site_symmetry_multiplicity
 _atom_site_fract_x
 _atom_site_fract_y
 _atom_site_fract_z
 _atom_site_occupancy
  Li  Li0  1  0.387174  0.126044  0.618326  1
  Li  Li1  1  0.387174  0.373956  0.118326  1
  Li  Li2  1  0.612826  0.626044  0.881674  1
  Li  Li3  1  0.612826  0.873956  0.381674  1
  Mn  Mn4  1  0.084045  0.619591  0.888252  1
  Mn  Mn5  1  0.084045  0.880409  0.388252  1
  Mn  Mn6  1  0.350800  0.628581  0.571241  1
  Mn  Mn7  1  0.350800  0.871419  0.071241  1
  Mn  Mn8  1  0.649200  0.128581  0.928759  1
  Mn  Mn9  1  0.649200  0.371419  0.428759  1
  Mn  Mn10  1  0.915955  0.119591  0.611748  1
  Mn  Mn11  1  0.915955  0.380409  0.111748  1
  F  F12  1  0.015555  0.352380  0.935889  1
  F  F13  1  0.015555  0.147620  0.435889  1
  F  F14  1  0.144467  0.154774  0.686668  1
  F  F15  1  0.183486  0.889363  0.924049  1
  F  F16  1  0.173401  0.568740  0.706668  1
  F  F17  1  0.144467  0.345226  0.186668  1
  F  F18  1  0.183486  0.610637  0.424049  1
  F  F19  1  0.173401  0.931260  0.206668  1
  F  F20  1  0.323424  0.579978  0.979479  1
  F  F21  1  0.323424  0.920022  0.479479  1
  F  F22  1  0.438667  0.356498  0.544332  1
  F  F23  1  0.438667  0.143502  0.044332  1
  F  F24  1  0.502119  0.205113  0.787097  1
  F  F25  1  0.502119  0.294887  0.287097  1
  F  F26  1  0.497881  0.705113  0.712903  1
  F  F27  1  0.497881  0.794887  0.212903  1
  F  F28  1  0.561333  0.856498  0.955668  1
  F  F29  1  0.561333  0.643502  0.455668  1
  F  F30  1  0.676576  0.079978  0.520521  1
  F  F31  1  0.676576  0.420022  0.020521  1
  F  F32  1  0.826599  0.068740  0.793332  1
  F  F33  1  0.816514  0.389363  0.575951  1
  F  F34  1  0.855533  0.654774  0.813332  1
  F  F35  1  0.826599  0.431260  0.293332  1
  F  F36  1  0.816514  0.110637  0.075951  1
  F  F37  1  0.855533  0.845226  0.313332  1
  F  F38  1  0.984445  0.852380  0.564111  1
  F  F39  1  0.984445  0.647620  0.064111  1
