# generated using pymatgen
data_Y3I7O
_symmetry_space_group_name_H-M   'P 1'
_cell_length_a   8.38538640
_cell_length_b   8.38538640
_cell_length_c   14.89043417
_cell_angle_alpha   90.00000000
_cell_angle_beta   90.00000000
_cell_angle_gamma   120.00000000
_symmetry_Int_Tables_number   1
_chemical_formula_structural   Y3I7O
_chemical_formula_sum   'Y6 I14 O2'
_cell_volume   906.74287648
_cell_formula_units_Z   2
loop_
 _symmetry_equiv_pos_site_id
 _symmetry_equiv_pos_as_xyz
  1  'x, y, z'
loop_
 _atom_site_type_symbol
 _atom_site_label
 _atom_site_symmetry_multiplicity
 _atom_site_fract_x
 _atom_site_fract_y
 _atom_site_fract_z
 _atom_site_occupancy
  Y  Y0  1  0.147008  0.852992  0.758793  1
  Y  Y1  1  0.147008  0.294017  0.758793  1
  Y  Y2  1  0.294017  0.147008  0.258793  1
  Y  Y3  1  0.705983  0.852992  0.758793  1
  Y  Y4  1  0.852992  0.705983  0.258793  1
  Y  Y5  1  0.852992  0.147008  0.258793  1
  I  I6  1  0.170490  0.829510  0.127658  1
  I  I7  1  0.000903  0.500452  0.373544  1
  I  I8  1  0.333333  0.666667  0.641277  1
  I  I9  1  0.170490  0.340980  0.127658  1
  I  I10  1  0.499548  0.999097  0.373544  1
  I  I11  1  0.499548  0.500452  0.373544  1
  I  I12  1  0.659020  0.829510  0.127658  1
  I  I13  1  0.340980  0.170490  0.627658  1
  I  I14  1  0.500452  0.499548  0.873544  1
  I  I15  1  0.500452  0.000903  0.873544  1
  I  I16  1  0.666667  0.333333  0.141277  1
  I  I17  1  0.829510  0.659020  0.627658  1
  I  I18  1  0.999097  0.499548  0.873544  1
  I  I19  1  0.829510  0.170490  0.627658  1
  O  O20  1  0.000000  0.000000  0.296204  1
  O  O21  1  0.000000  0.000000  0.796204  1
