# generated using pymatgen
data_Mn3FeO8
_symmetry_space_group_name_H-M   'P 1'
_cell_length_a   5.91561555
_cell_length_b   5.91561555
_cell_length_c   5.91561555
_cell_angle_alpha   58.95355192
_cell_angle_beta   58.95355192
_cell_angle_gamma   58.95355192
_symmetry_Int_Tables_number   1
_chemical_formula_structural   Mn3FeO8
_chemical_formula_sum   'Mn3 Fe1 O8'
_cell_volume   142.88598251
_cell_formula_units_Z   1
loop_
 _symmetry_equiv_pos_site_id
 _symmetry_equiv_pos_as_xyz
  1  'x, y, z'
loop_
 _atom_site_type_symbol
 _atom_site_label
 _atom_site_symmetry_multiplicity
 _atom_site_fract_x
 _atom_site_fract_y
 _atom_site_fract_z
 _atom_site_occupancy
  Mn  Mn0  1  0.500000  0.000000  0.500000  1
  Mn  Mn1  1  0.000000  0.500000  0.500000  1
  Mn  Mn2  1  0.500000  0.500000  0.000000  1
  Fe  Fe3  1  0.500000  0.500000  0.500000  1
  O  O4  1  0.733978  0.733978  0.733978  1
  O  O5  1  0.739412  0.739412  0.293860  1
  O  O6  1  0.293860  0.739412  0.739412  1
  O  O7  1  0.739412  0.293860  0.739412  1
  O  O8  1  0.260588  0.706140  0.260588  1
  O  O9  1  0.706140  0.260588  0.260588  1
  O  O10  1  0.260588  0.260588  0.706140  1
  O  O11  1  0.266022  0.266022  0.266022  1
