# generated using pymatgen
data_NaLiV2O6
_symmetry_space_group_name_H-M   'P 1'
_cell_length_a   7.02217040
_cell_length_b   7.02563011
_cell_length_c   11.87344750
_cell_angle_alpha   74.66164488
_cell_angle_beta   74.66994071
_cell_angle_gamma   82.51460305
_symmetry_Int_Tables_number   1
_chemical_formula_structural   NaLiV2O6
_chemical_formula_sum   'Na4 Li4 V8 O24'
_cell_volume   543.66540747
_cell_formula_units_Z   4
loop_
 _symmetry_equiv_pos_site_id
 _symmetry_equiv_pos_as_xyz
  1  'x, y, z'
loop_
 _atom_site_type_symbol
 _atom_site_label
 _atom_site_symmetry_multiplicity
 _atom_site_fract_x
 _atom_site_fract_y
 _atom_site_fract_z
 _atom_site_occupancy
  Na  Na0  1  0.719036  0.280376  0.875430  1
  Na  Na1  1  0.081645  0.916057  0.375876  1
  Na  Na2  1  0.714424  0.285711  0.374555  1
  Na  Na3  1  0.282122  0.714224  0.123251  1
  Li  Li4  1  0.092637  0.906164  0.874657  1
  Li  Li5  1  0.247877  0.753268  0.628073  1
  Li  Li6  1  0.907214  0.091366  0.628452  1
  Li  Li7  1  0.908370  0.093468  0.121517  1
  V  V8  1  0.619269  0.801390  0.875927  1
  V  V9  1  0.806915  0.611984  0.630897  1
  V  V10  1  0.619338  0.800880  0.378346  1
  V  V11  1  0.799867  0.619882  0.126693  1
  V  V12  1  0.200236  0.385361  0.870662  1
  V  V13  1  0.383321  0.193825  0.623340  1
  V  V14  1  0.197762  0.376592  0.374853  1
  V  V15  1  0.384587  0.200021  0.119009  1
  O  O16  1  0.787790  0.975433  0.822549  1
  O  O17  1  0.989868  0.770587  0.587898  1
  O  O18  1  0.777893  0.982732  0.318189  1
  O  O19  1  0.388009  0.904644  0.898843  1
  O  O20  1  0.649235  0.638077  0.774978  1
  O  O21  1  0.975757  0.786249  0.072309  1
  O  O22  1  0.899702  0.377514  0.656103  1
  O  O23  1  0.659162  0.651621  0.521350  1
  O  O24  1  0.388998  0.899857  0.413458  1
  O  O25  1  0.645664  0.643412  0.273305  1
  O  O26  1  0.360824  0.357005  0.973881  1
  O  O27  1  0.902340  0.388267  0.150837  1
  O  O28  1  0.099560  0.617615  0.844590  1
  O  O29  1  0.640527  0.650221  0.023145  1
  O  O30  1  0.348533  0.355351  0.725166  1
  O  O31  1  0.617410  0.098870  0.598557  1
  O  O32  1  0.358365  0.348384  0.477595  1
  O  O33  1  0.096169  0.606043  0.343790  1
  O  O34  1  0.024990  0.218267  0.926029  1
  O  O35  1  0.349668  0.347554  0.229348  1
  O  O36  1  0.616525  0.098719  0.094751  1
  O  O37  1  0.222663  0.010940  0.673067  1
  O  O38  1  0.016662  0.217235  0.433261  1
  O  O39  1  0.219066  0.024831  0.165458  1
