# generated using pymatgen
data_Zr9VO20
_symmetry_space_group_name_H-M   'P 1'
_cell_length_a   6.47492953
_cell_length_b   7.35919013
_cell_length_c   8.11095450
_cell_angle_alpha   77.07398471
_cell_angle_beta   75.49552291
_cell_angle_gamma   71.40747659
_symmetry_Int_Tables_number   1
_chemical_formula_structural   Zr9VO20
_chemical_formula_sum   'Zr9 V1 O20'
_cell_volume   350.25854142
_cell_formula_units_Z   1
loop_
 _symmetry_equiv_pos_site_id
 _symmetry_equiv_pos_as_xyz
  1  'x, y, z'
loop_
 _atom_site_type_symbol
 _atom_site_label
 _atom_site_symmetry_multiplicity
 _atom_site_fract_x
 _atom_site_fract_y
 _atom_site_fract_z
 _atom_site_occupancy
  Zr  Zr0  1  0.303156  0.950682  0.405772  1
  Zr  Zr1  1  0.309112  0.449455  0.396895  1
  Zr  Zr2  1  0.097823  0.653393  0.804283  1
  Zr  Zr3  1  0.896520  0.845183  0.202155  1
  Zr  Zr4  1  0.492068  0.756679  0.999738  1
  Zr  Zr5  1  0.904410  0.350314  0.194104  1
  Zr  Zr6  1  0.711154  0.538761  0.604089  1
  Zr  Zr7  1  0.491495  0.256132  0.996228  1
  Zr  Zr8  1  0.698601  0.051718  0.594633  1
  V  V9  1  0.094028  0.143908  0.804617  1
  O  O10  1  0.082894  0.988120  0.651325  1
  O  O11  1  0.290144  0.769266  0.242001  1
  O  O12  1  0.585033  0.976573  0.131535  1
  O  O13  1  0.215610  0.227344  0.261309  1
  O  O14  1  0.527849  0.421414  0.158292  1
  O  O15  1  0.299371  0.636035  0.562480  1
  O  O16  1  0.809090  0.633935  0.066910  1
  O  O17  1  0.026260  0.400347  0.673388  1
  O  O18  1  0.125362  0.814783  0.971096  1
  O  O19  1  0.620886  0.818694  0.457295  1
  O  O20  1  0.399113  0.165363  0.518793  1
  O  O21  1  0.785155  0.774005  0.737369  1
  O  O22  1  0.486149  0.574954  0.836700  1
  O  O23  1  0.903544  0.166427  0.022697  1
  O  O24  1  0.680558  0.379127  0.434528  1
  O  O25  1  0.174145  0.385460  0.953686  1
  O  O26  1  0.987700  0.569022  0.346315  1
  O  O27  1  0.696301  0.234706  0.755883  1
  O  O28  1  0.918227  0.028813  0.359164  1
  O  O29  1  0.388242  0.039389  0.856723  1
