# generated using pymatgen
data_Li2VF6
_symmetry_space_group_name_H-M   'P 1'
_cell_length_a   5.39654247
_cell_length_b   5.39654247
_cell_length_c   9.94546427
_cell_angle_alpha   88.12653956
_cell_angle_beta   91.87346044
_cell_angle_gamma   118.72350667
_symmetry_Int_Tables_number   1
_chemical_formula_structural   Li2VF6
_chemical_formula_sum   'Li4 V2 F12'
_cell_volume   253.81477655
_cell_formula_units_Z   2
loop_
 _symmetry_equiv_pos_site_id
 _symmetry_equiv_pos_as_xyz
  1  'x, y, z'
loop_
 _atom_site_type_symbol
 _atom_site_label
 _atom_site_symmetry_multiplicity
 _atom_site_fract_x
 _atom_site_fract_y
 _atom_site_fract_z
 _atom_site_occupancy
  Li  Li0  1  0.275973  0.491366  0.957275  1
  Li  Li1  1  0.653008  0.017733  0.170481  1
  Li  Li2  1  0.982267  0.346992  0.670481  1
  Li  Li3  1  0.508634  0.724027  0.457275  1
  V  V4  1  0.329352  0.029613  0.846292  1
  V  V5  1  0.970387  0.670648  0.346292  1
  F  F6  1  0.556056  0.405460  0.902254  1
  F  F7  1  0.113542  0.548977  0.503896  1
  F  F8  1  0.620494  0.065767  0.740149  1
  F  F9  1  0.934233  0.379506  0.240149  1
  F  F10  1  0.184117  0.143784  0.697703  1
  F  F11  1  0.057555  0.043879  0.946182  1
  F  F12  1  0.956121  0.942445  0.446182  1
  F  F13  1  0.856216  0.815883  0.197703  1
  F  F14  1  0.124793  0.630007  0.806572  1
  F  F15  1  0.369993  0.875207  0.306572  1
  F  F16  1  0.451023  0.886458  0.003896  1
  F  F17  1  0.594540  0.443944  0.402254  1
