# generated using pymatgen
data_Li3Bi(PO4)2
_symmetry_space_group_name_H-M   'P 1'
_cell_length_a   9.06647785
_cell_length_b   9.09629651
_cell_length_c   9.22096921
_cell_angle_alpha   91.03223454
_cell_angle_beta   89.67934050
_cell_angle_gamma   112.46249403
_symmetry_Int_Tables_number   1
_chemical_formula_structural   Li3Bi(PO4)2
_chemical_formula_sum   'Li12 Bi4 P8 O32'
_cell_volume   702.65456855
_cell_formula_units_Z   4
loop_
 _symmetry_equiv_pos_site_id
 _symmetry_equiv_pos_as_xyz
  1  'x, y, z'
loop_
 _atom_site_type_symbol
 _atom_site_label
 _atom_site_symmetry_multiplicity
 _atom_site_fract_x
 _atom_site_fract_y
 _atom_site_fract_z
 _atom_site_occupancy
  Li  Li0  1  0.890022  0.376147  0.773101  1
  Li  Li1  1  0.593305  0.131934  0.282386  1
  Li  Li2  1  0.139748  0.063844  0.432648  1
  Li  Li3  1  0.614156  0.593525  0.766908  1
  Li  Li4  1  0.113218  0.058362  0.773107  1
  Li  Li5  1  0.405112  0.404861  0.246833  1
  Li  Li6  1  0.880260  0.917198  0.236643  1
  Li  Li7  1  0.860638  0.946592  0.556376  1
  Li  Li8  1  0.041738  0.119088  0.029821  1
  Li  Li9  1  0.423074  0.880741  0.692999  1
  Li  Li10  1  0.108723  0.596871  0.220446  1
  Li  Li11  1  0.088306  0.687693  0.908741  1
  Bi  Bi12  1  0.494204  0.229923  0.892482  1
  Bi  Bi13  1  0.747968  0.494304  0.436621  1
  Bi  Bi14  1  0.236599  0.502662  0.593521  1
  Bi  Bi15  1  0.509158  0.782504  0.104663  1
  P  P16  1  0.744451  0.037562  0.912168  1
  P  P17  1  0.959614  0.270918  0.416637  1
  P  P18  1  0.431314  0.238711  0.568380  1
  P  P19  1  0.762509  0.571949  0.077013  1
  P  P20  1  0.248767  0.442542  0.921662  1
  P  P21  1  0.563518  0.759545  0.422896  1
  P  P22  1  0.034360  0.736086  0.597205  1
  P  P23  1  0.248990  0.967917  0.095152  1
  O  O24  1  0.902898  0.037931  0.852207  1
  O  O25  1  0.944807  0.096504  0.402639  1
  O  O26  1  0.724975  0.194621  0.860903  1
  O  O27  1  0.807638  0.285204  0.350097  1
  O  O28  1  0.433057  0.088027  0.642017  1
  O  O29  1  0.937420  0.592482  0.074927  1
  O  O30  1  0.218181  0.951962  0.927374  1
  O  O31  1  0.020830  0.664609  0.437490  1
  O  O32  1  0.884033  0.628325  0.681798  1
  O  O33  1  0.421832  0.104660  0.118525  1
  O  O34  1  0.671055  0.491412  0.933820  1
  O  O35  1  0.479424  0.256839  0.405882  1
  O  O36  1  0.557877  0.384228  0.653222  1
  O  O37  1  0.663819  0.460509  0.200799  1
  O  O38  1  0.261123  0.241879  0.583816  1
  O  O39  1  0.749845  0.737639  0.097696  1
  O  O40  1  0.223548  0.263292  0.923970  1
  O  O41  1  0.738616  0.766833  0.430831  1
  O  O42  1  0.384926  0.531767  0.811558  1
  O  O43  1  0.459419  0.612526  0.329654  1
  O  O44  1  0.494255  0.740867  0.577809  1
  O  O45  1  0.299533  0.514292  0.075717  1
  O  O46  1  0.591910  0.893518  0.859582  1
  O  O47  1  0.113993  0.389191  0.346200  1
  O  O48  1  0.965762  0.323104  0.582474  1
  O  O49  1  0.745032  0.036240  0.082083  1
  O  O50  1  0.099437  0.465020  0.861448  1
  O  O51  1  0.564033  0.908658  0.342507  1
  O  O52  1  0.186510  0.728326  0.671374  1
  O  O53  1  0.258776  0.810084  0.149022  1
  O  O54  1  0.051027  0.911577  0.594942  1
  O  O55  1  0.120475  0.009015  0.177980  1
