# generated using pymatgen
data_Dy3Y5O12
_symmetry_space_group_name_H-M   'P 1'
_cell_length_a   9.26143430
_cell_length_b   9.26255073
_cell_length_c   9.26250508
_cell_angle_alpha   109.47092495
_cell_angle_beta   109.45737231
_cell_angle_gamma   109.47537956
_symmetry_Int_Tables_number   1
_chemical_formula_structural   Dy3Y5O12
_chemical_formula_sum   'Dy6 Y10 O24'
_cell_volume   611.74286957
_cell_formula_units_Z   2
loop_
 _symmetry_equiv_pos_site_id
 _symmetry_equiv_pos_as_xyz
  1  'x, y, z'
loop_
 _atom_site_type_symbol
 _atom_site_label
 _atom_site_symmetry_multiplicity
 _atom_site_fract_x
 _atom_site_fract_y
 _atom_site_fract_z
 _atom_site_occupancy
  Dy  Dy0  1  0.467162  0.249954  0.717057  1
  Dy  Dy1  1  0.532633  0.750063  0.282692  1
  Dy  Dy2  1  0.032890  0.750107  0.782934  1
  Dy  Dy3  1  0.250121  0.282715  0.032753  1
  Dy  Dy4  1  0.749868  0.217222  0.467304  1
  Dy  Dy5  1  0.282895  0.032776  0.249985  1
  Y  Y6  1  0.717435  0.967419  0.749909  1
  Y  Y7  1  0.499792  0.000014  0.000022  1
  Y  Y8  1  0.750056  0.717232  0.967310  1
  Y  Y9  1  0.250060  0.782878  0.532690  1
  Y  Y10  1  0.967449  0.249932  0.217379  1
  Y  Y11  1  0.500165  0.499859  0.499981  1
  Y  Y12  1  0.000121  0.000055  0.500132  1
  Y  Y13  1  0.217289  0.467296  0.750121  1
  Y  Y14  1  0.782484  0.532573  0.250013  1
  Y  Y15  1  0.000094  0.500159  0.999950  1
  O  O16  1  0.728915  0.457094  0.968184  1
  O  O17  1  0.511078  0.042920  0.771818  1
  O  O18  1  0.260178  0.031138  0.988860  1
  O  O19  1  0.457828  0.728330  0.488609  1
  O  O20  1  0.239801  0.228264  0.770968  1
  O  O21  1  0.042505  0.531501  0.270698  1
  O  O22  1  0.771095  0.739217  0.728171  1
  O  O23  1  0.988939  0.760776  0.531849  1
  O  O24  1  0.728229  0.270566  0.239853  1
  O  O25  1  0.468512  0.510710  0.739135  1
  O  O26  1  0.969329  0.229428  0.957673  1
  O  O27  1  0.228484  0.989311  0.457417  1
  O  O28  1  0.771330  0.011236  0.541898  1
  O  O29  1  0.031871  0.771098  0.042595  1
  O  O30  1  0.530697  0.488797  0.260144  1
  O  O31  1  0.271558  0.729354  0.760816  1
  O  O32  1  0.010732  0.239248  0.468614  1
  O  O33  1  0.229537  0.260169  0.271366  1
  O  O34  1  0.760229  0.771651  0.229468  1
  O  O35  1  0.957306  0.468862  0.729044  1
  O  O36  1  0.542290  0.271315  0.511132  1
  O  O37  1  0.739145  0.968476  0.010969  1
  O  O38  1  0.271083  0.542506  0.031783  1
  O  O39  1  0.488813  0.957777  0.228704  1
