# generated using pymatgen
data_Mn5Sb(PO4)6
_symmetry_space_group_name_H-M   'P 1'
_cell_length_a   8.70714940
_cell_length_b   8.70714940
_cell_length_c   8.70714940
_cell_angle_alpha   59.77628322
_cell_angle_beta   59.77628322
_cell_angle_gamma   59.77628322
_symmetry_Int_Tables_number   1
_chemical_formula_structural   Mn5Sb(PO4)6
_chemical_formula_sum   'Mn5 Sb1 P6 O24'
_cell_volume   464.40988275
_cell_formula_units_Z   1
loop_
 _symmetry_equiv_pos_site_id
 _symmetry_equiv_pos_as_xyz
  1  'x, y, z'
loop_
 _atom_site_type_symbol
 _atom_site_label
 _atom_site_symmetry_multiplicity
 _atom_site_fract_x
 _atom_site_fract_y
 _atom_site_fract_z
 _atom_site_occupancy
  Mn  Mn0  1  0.994308  0.994308  0.994308  1
  Mn  Mn1  1  0.645473  0.645473  0.645473  1
  Mn  Mn2  1  0.500655  0.500655  0.500655  1
  Mn  Mn3  1  0.854071  0.854071  0.854071  1
  Mn  Mn4  1  0.355972  0.355972  0.355972  1
  Sb  Sb5  1  0.144125  0.144125  0.144125  1
  P  P6  1  0.252431  0.545747  0.955441  1
  P  P7  1  0.955441  0.252431  0.545747  1
  P  P8  1  0.545747  0.955441  0.252431  1
  P  P9  1  0.460817  0.044833  0.746718  1
  P  P10  1  0.044833  0.746718  0.460817  1
  P  P11  1  0.746718  0.460817  0.044833  1
  O  O12  1  0.114021  0.308031  0.506330  1
  O  O13  1  0.506330  0.114021  0.308031  1
  O  O14  1  0.308031  0.506330  0.114021  1
  O  O15  1  0.084161  0.734235  0.943453  1
  O  O16  1  0.191824  0.384754  0.990547  1
  O  O17  1  0.411719  0.556479  0.762291  1
  O  O18  1  0.943453  0.084161  0.734235  1
  O  O19  1  0.762291  0.411719  0.556479  1
  O  O20  1  0.614286  0.012719  0.805875  1
  O  O21  1  0.556479  0.762291  0.411719  1
  O  O22  1  0.260693  0.061859  0.917824  1
  O  O23  1  0.012719  0.805875  0.614286  1
  O  O24  1  0.990547  0.191824  0.384754  1
  O  O25  1  0.734235  0.943453  0.084161  1
  O  O26  1  0.436364  0.241282  0.590008  1
  O  O27  1  0.384754  0.990547  0.191824  1
  O  O28  1  0.241282  0.590008  0.436364  1
  O  O29  1  0.061859  0.917824  0.260693  1
  O  O30  1  0.590008  0.436364  0.241282  1
  O  O31  1  0.805875  0.614286  0.012719  1
  O  O32  1  0.917824  0.260693  0.061859  1
  O  O33  1  0.697201  0.484228  0.889199  1
  O  O34  1  0.484228  0.889199  0.697201  1
  O  O35  1  0.889199  0.697201  0.484228  1
