# generated using pymatgen
data_Dy2Zr2O7
_symmetry_space_group_name_H-M   'P 1'
_cell_length_a   7.32189642
_cell_length_b   7.32189642
_cell_length_c   12.62676749
_cell_angle_alpha   90.00000000
_cell_angle_beta   90.00000000
_cell_angle_gamma   90.00000000
_symmetry_Int_Tables_number   1
_chemical_formula_structural   Dy2Zr2O7
_chemical_formula_sum   'Dy8 Zr8 O28'
_cell_volume   676.92311610
_cell_formula_units_Z   4
loop_
 _symmetry_equiv_pos_site_id
 _symmetry_equiv_pos_as_xyz
  1  'x, y, z'
loop_
 _atom_site_type_symbol
 _atom_site_label
 _atom_site_symmetry_multiplicity
 _atom_site_fract_x
 _atom_site_fract_y
 _atom_site_fract_z
 _atom_site_occupancy
  Dy  Dy0  1  0.637820  0.126845  0.135379  1
  Dy  Dy1  1  0.626845  0.862180  0.885379  1
  Dy  Dy2  1  0.873155  0.362180  0.364621  1
  Dy  Dy3  1  0.862180  0.626845  0.114621  1
  Dy  Dy4  1  0.137820  0.373155  0.614621  1
  Dy  Dy5  1  0.126845  0.637820  0.864621  1
  Dy  Dy6  1  0.373155  0.137820  0.385379  1
  Dy  Dy7  1  0.362180  0.873155  0.635379  1
  Zr  Zr8  1  0.601474  0.370039  0.595291  1
  Zr  Zr9  1  0.629961  0.398526  0.904709  1
  Zr  Zr10  1  0.870039  0.898526  0.345291  1
  Zr  Zr11  1  0.898526  0.870039  0.654709  1
  Zr  Zr12  1  0.101474  0.129961  0.154709  1
  Zr  Zr13  1  0.129961  0.101474  0.845291  1
  Zr  Zr14  1  0.370039  0.601474  0.404709  1
  Zr  Zr15  1  0.398526  0.629961  0.095291  1
  O  O16  1  0.569440  0.407020  0.413647  1
  O  O17  1  0.584730  0.827556  0.073919  1
  O  O18  1  0.592980  0.430560  0.086353  1
  O  O19  1  0.654283  0.136933  0.956183  1
  O  O20  1  0.672444  0.084730  0.323919  1
  O  O21  1  0.636933  0.845717  0.706183  1
  O  O22  1  0.657054  0.342946  0.750000  1
  O  O23  1  0.842946  0.842946  0.500000  1
  O  O24  1  0.863067  0.345717  0.543817  1
  O  O25  1  0.827556  0.584730  0.926081  1
  O  O26  1  0.845717  0.636933  0.293817  1
  O  O27  1  0.907020  0.930560  0.163647  1
  O  O28  1  0.915270  0.327556  0.176081  1
  O  O29  1  0.930560  0.907020  0.836353  1
  O  O30  1  0.069440  0.092980  0.336353  1
  O  O31  1  0.084730  0.672444  0.676081  1
  O  O32  1  0.092980  0.069440  0.663647  1
  O  O33  1  0.154283  0.363067  0.793817  1
  O  O34  1  0.172444  0.415270  0.426081  1
  O  O35  1  0.136933  0.654283  0.043817  1
  O  O36  1  0.157054  0.157054  0.000000  1
  O  O37  1  0.342946  0.657054  0.250000  1
  O  O38  1  0.363067  0.154283  0.206183  1
  O  O39  1  0.327556  0.915270  0.823919  1
  O  O40  1  0.345717  0.863067  0.456183  1
  O  O41  1  0.407020  0.569440  0.586353  1
  O  O42  1  0.415270  0.172444  0.573919  1
  O  O43  1  0.430560  0.592980  0.913647  1
