# generated using pymatgen
data_Hg3SeO6
_symmetry_space_group_name_H-M   'P 1'
_cell_length_a   7.28552473
_cell_length_b   7.28552473
_cell_length_c   10.63776934
_cell_angle_alpha   90.00000000
_cell_angle_beta   90.00000000
_cell_angle_gamma   120.00000000
_symmetry_Int_Tables_number   1
_chemical_formula_structural   Hg3SeO6
_chemical_formula_sum   'Hg9 Se3 O18'
_cell_volume   488.99326169
_cell_formula_units_Z   3
loop_
 _symmetry_equiv_pos_site_id
 _symmetry_equiv_pos_as_xyz
  1  'x, y, z'
loop_
 _atom_site_type_symbol
 _atom_site_label
 _atom_site_symmetry_multiplicity
 _atom_site_fract_x
 _atom_site_fract_y
 _atom_site_fract_z
 _atom_site_occupancy
  Hg  Hg0  1  0.998776  0.697425  0.661685  1
  Hg  Hg1  1  0.315956  0.810756  0.973340  1
  Hg  Hg2  1  0.189244  0.505200  0.306673  1
  Hg  Hg3  1  0.302575  0.301352  0.995018  1
  Hg  Hg4  1  0.494800  0.684044  0.640007  1
  Hg  Hg5  1  0.499915  0.187930  0.678402  1
  Hg  Hg6  1  0.688016  0.500085  0.345068  1
  Hg  Hg7  1  0.812070  0.311984  0.011735  1
  Hg  Hg8  1  0.698648  0.001224  0.328352  1
  Se  Se9  1  0.234338  0.016474  0.327566  1
  Se  Se10  1  0.782136  0.765662  0.994232  1
  Se  Se11  1  0.983526  0.217864  0.660899  1
  O  O12  1  0.000944  0.875347  0.399612  1
  O  O13  1  0.282952  0.864336  0.228492  1
  O  O14  1  0.326260  0.845895  0.707036  1
  O  O15  1  0.154105  0.480365  0.040369  1
  O  O16  1  0.135664  0.418616  0.561826  1
  O  O17  1  0.124653  0.125597  0.732946  1
  O  O18  1  0.249739  0.216585  0.240675  1
  O  O19  1  0.519635  0.673740  0.373702  1
  O  O20  1  0.581384  0.717048  0.895159  1
  O  O21  1  0.428518  0.121370  0.436473  1
  O  O22  1  0.874403  0.999056  0.066279  1
  O  O23  1  0.481731  0.153267  0.947334  1
  O  O24  1  0.671536  0.518269  0.614000  1
  O  O25  1  0.692852  0.571482  0.103140  1
  O  O26  1  0.966846  0.750261  0.907342  1
  O  O27  1  0.846733  0.328464  0.280667  1
  O  O28  1  0.878630  0.307148  0.769806  1
  O  O29  1  0.783415  0.033154  0.574009  1
