# generated using pymatgen
data_Rb10NaAl11Si13O48
_symmetry_space_group_name_H-M   'P 1'
_cell_length_a   12.06775249
_cell_length_b   12.24154934
_cell_length_c   12.65427430
_cell_angle_alpha   90.56706111
_cell_angle_beta   90.15788794
_cell_angle_gamma   90.16477281
_symmetry_Int_Tables_number   1
_chemical_formula_structural   Rb10NaAl11Si13O48
_chemical_formula_sum   'Rb10 Na1 Al11 Si13 O48'
_cell_volume   1869.28394673
_cell_formula_units_Z   1
loop_
 _symmetry_equiv_pos_site_id
 _symmetry_equiv_pos_as_xyz
  1  'x, y, z'
loop_
 _atom_site_type_symbol
 _atom_site_label
 _atom_site_symmetry_multiplicity
 _atom_site_fract_x
 _atom_site_fract_y
 _atom_site_fract_z
 _atom_site_occupancy
  Rb  Rb0  1  0.533508  0.505430  0.980024  1
  Rb  Rb1  1  0.254205  0.737877  0.737835  1
  Rb  Rb2  1  0.743903  0.741285  0.755648  1
  Rb  Rb3  1  0.493783  0.012728  0.432980  1
  Rb  Rb4  1  0.001862  0.498617  0.445836  1
  Rb  Rb5  1  0.266826  0.267007  0.278816  1
  Rb  Rb6  1  0.749131  0.243336  0.263861  1
  Rb  Rb7  1  0.237041  0.759792  0.264821  1
  Rb  Rb8  1  0.737378  0.699965  0.322232  1
  Rb  Rb9  1  0.076202  0.115027  0.044020  1
  Na  Na10  1  0.862628  0.853963  0.168693  1
  Al  Al11  1  0.625308  0.810680  0.004176  1
  Al  Al12  1  0.994008  0.805381  0.623923  1
  Al  Al13  1  0.191561  0.009431  0.393133  1
  Al  Al14  1  0.005314  0.193874  0.393380  1
  Al  Al15  1  0.803430  0.001471  0.383276  1
  Al  Al16  1  0.991364  0.811122  0.383845  1
  Al  Al17  1  0.352348  0.996829  0.172954  1
  Al  Al18  1  0.631812  0.990551  0.177553  1
  Al  Al19  1  0.000326  0.363028  0.182230  1
  Al  Al20  1  0.993487  0.634965  0.173013  1
  Al  Al21  1  0.808247  0.620958  0.000988  1
  Si  Si22  1  0.368347  0.001511  0.818995  1
  Si  Si23  1  0.618799  0.998901  0.817228  1
  Si  Si24  1  0.999558  0.362475  0.820727  1
  Si  Si25  1  0.998333  0.609715  0.811954  1
  Si  Si26  1  0.185527  0.996376  0.628121  1
  Si  Si27  1  0.994309  0.181395  0.633147  1
  Si  Si28  1  0.806109  0.999451  0.631005  1
  Si  Si29  1  0.369928  0.184214  0.002536  1
  Si  Si30  1  0.627601  0.176734  0.999726  1
  Si  Si31  1  0.188614  0.372186  0.001359  1
  Si  Si32  1  0.818956  0.357707  0.003712  1
  Si  Si33  1  0.182971  0.623619  0.992064  1
  Si  Si34  1  0.357739  0.820618  0.998643  1
  O  O35  1  0.301684  0.299344  0.985504  1
  O  O36  1  0.234470  0.498844  0.008783  1
  O  O37  1  0.702310  0.288274  0.990071  1
  O  O38  1  0.290903  0.703177  0.972781  1
  O  O39  1  0.776359  0.481064  0.023258  1
  O  O40  1  0.482064  0.784146  0.024416  1
  O  O41  1  0.681598  0.682615  0.968361  1
  O  O42  1  0.354427  0.107992  0.896892  1
  O  O43  1  0.109986  0.353712  0.897274  1
  O  O44  1  0.631934  0.111384  0.887165  1
  O  O45  1  0.116746  0.621737  0.878783  1
  O  O46  1  0.889009  0.347180  0.892335  1
  O  O47  1  0.350791  0.887213  0.884812  1
  O  O48  1  0.892550  0.628115  0.886005  1
  O  O49  1  0.637005  0.891571  0.887365  1
  O  O50  1  0.491552  0.999310  0.765263  1
  O  O51  1  0.998371  0.482405  0.763028  1
  O  O52  1  0.273303  0.003519  0.729564  1
  O  O53  1  0.007138  0.265803  0.735243  1
  O  O54  1  0.703644  0.999250  0.718166  1
  O  O55  1  0.003832  0.696310  0.717319  1
  O  O56  1  0.102958  0.101551  0.639511  1
  O  O57  1  0.882110  0.109135  0.654167  1
  O  O58  1  0.117730  0.882237  0.643462  1
  O  O59  1  0.877708  0.888971  0.653322  1
  O  O60  1  0.259469  0.998245  0.521290  1
  O  O61  1  0.989041  0.250984  0.525556  1
  O  O62  1  0.748559  0.001902  0.515419  1
  O  O63  1  0.980452  0.738305  0.503562  1
  O  O64  1  0.137738  0.140059  0.384647  1
  O  O65  1  0.893365  0.110354  0.362192  1
  O  O66  1  0.102859  0.900040  0.376044  1
  O  O67  1  0.861756  0.872791  0.350608  1
  O  O68  1  0.297940  0.000242  0.298912  1
  O  O69  1  0.685419  0.020687  0.303154  1
  O  O70  1  0.005521  0.305149  0.305928  1
  O  O71  1  0.013944  0.707835  0.288716  1
  O  O72  1  0.490722  0.977030  0.187235  1
  O  O73  1  0.984163  0.499261  0.203989  1
  O  O74  1  0.318582  0.123105  0.104541  1
  O  O75  1  0.666364  0.108774  0.100034  1
  O  O76  1  0.125853  0.331248  0.107032  1
  O  O77  1  0.893491  0.305482  0.098220  1
  O  O78  1  0.112201  0.662521  0.091285  1
  O  O79  1  0.871408  0.680226  0.111361  1
  O  O80  1  0.293178  0.891268  0.088536  1
  O  O81  1  0.687676  0.873526  0.114435  1
  O  O82  1  0.498950  0.223988  0.015896  1
