# generated using pymatgen
data_Li2Ti(BO3)2
_symmetry_space_group_name_H-M   'P 1'
_cell_length_a   4.99227181
_cell_length_b   6.87139967
_cell_length_c   8.07506031
_cell_angle_alpha   110.12188134
_cell_angle_beta   92.48470611
_cell_angle_gamma   89.55643179
_symmetry_Int_Tables_number   1
_chemical_formula_structural   Li2Ti(BO3)2
_chemical_formula_sum   'Li4 Ti2 B4 O12'
_cell_volume   259.84625442
_cell_formula_units_Z   2
loop_
 _symmetry_equiv_pos_site_id
 _symmetry_equiv_pos_as_xyz
  1  'x, y, z'
loop_
 _atom_site_type_symbol
 _atom_site_label
 _atom_site_symmetry_multiplicity
 _atom_site_fract_x
 _atom_site_fract_y
 _atom_site_fract_z
 _atom_site_occupancy
  Li  Li0  1  0.826725  0.921641  0.099824  1
  Li  Li1  1  0.628144  0.775558  0.398085  1
  Li  Li2  1  0.371856  0.224442  0.601915  1
  Li  Li3  1  0.173275  0.078359  0.900176  1
  Ti  Ti4  1  0.877602  0.589681  0.749842  1
  Ti  Ti5  1  0.122398  0.410319  0.250158  1
  B  B6  1  0.854783  0.190538  0.447563  1
  B  B7  1  0.673376  0.345542  0.113176  1
  B  B8  1  0.326624  0.654458  0.886824  1
  B  B9  1  0.145217  0.809462  0.552437  1
  O  O10  1  0.900899  0.733686  0.598904  1
  O  O11  1  0.785029  0.535821  0.218222  1
  O  O12  1  0.866087  0.197049  0.054725  1
  O  O13  1  0.742979  0.329121  0.600467  1
  O  O14  1  0.745276  0.011306  0.348187  1
  O  O15  1  0.600199  0.687275  0.909410  1
  O  O16  1  0.399801  0.312725  0.090590  1
  O  O17  1  0.254724  0.988694  0.651813  1
  O  O18  1  0.257021  0.670879  0.399533  1
  O  O19  1  0.133913  0.802951  0.945275  1
  O  O20  1  0.214971  0.464179  0.781778  1
  O  O21  1  0.099101  0.266314  0.401096  1
