# generated using pymatgen
data_LiMn2(PO4)2
_symmetry_space_group_name_H-M   'P 1'
_cell_length_a   4.86880817
_cell_length_b   10.18066115
_cell_length_c   6.13327715
_cell_angle_alpha   90.00000000
_cell_angle_beta   90.58148038
_cell_angle_gamma   90.00000000
_symmetry_Int_Tables_number   1
_chemical_formula_structural   LiMn2(PO4)2
_chemical_formula_sum   'Li2 Mn4 P4 O16'
_cell_volume   303.99670083
_cell_formula_units_Z   2
loop_
 _symmetry_equiv_pos_site_id
 _symmetry_equiv_pos_as_xyz
  1  'x, y, z'
loop_
 _atom_site_type_symbol
 _atom_site_label
 _atom_site_symmetry_multiplicity
 _atom_site_fract_x
 _atom_site_fract_y
 _atom_site_fract_z
 _atom_site_occupancy
  Li  Li0  1  0.249243  0.797048  0.743060  1
  Li  Li1  1  0.750757  0.297048  0.256940  1
  Mn  Mn2  1  0.288528  0.515498  0.998149  1
  Mn  Mn3  1  0.214457  0.077101  0.504370  1
  Mn  Mn4  1  0.785543  0.577101  0.495630  1
  Mn  Mn5  1  0.711472  0.015498  0.001851  1
  P  P6  1  0.826067  0.699926  0.992228  1
  P  P7  1  0.327356  0.393819  0.501276  1
  P  P8  1  0.672644  0.893819  0.498724  1
  P  P9  1  0.173933  0.199926  0.007772  1
  O  O10  1  0.080210  0.345711  0.004016  1
  O  O11  1  0.509932  0.687714  0.980077  1
  O  O12  1  0.045227  0.121233  0.815121  1
  O  O13  1  0.974044  0.638098  0.788692  1
  O  O14  1  0.524051  0.960941  0.699648  1
  O  O15  1  0.452595  0.470525  0.699055  1
  O  O16  1  0.425751  0.250183  0.501492  1
  O  O17  1  0.013759  0.405129  0.484274  1
  O  O18  1  0.986241  0.905129  0.515726  1
  O  O19  1  0.574249  0.750183  0.498508  1
  O  O20  1  0.547405  0.970525  0.300945  1
  O  O21  1  0.475949  0.460941  0.300352  1
  O  O22  1  0.025956  0.138098  0.211308  1
  O  O23  1  0.954773  0.621233  0.184879  1
  O  O24  1  0.490068  0.187714  0.019923  1
  O  O25  1  0.919790  0.845711  0.995984  1
