# generated using pymatgen
data_Fe5(OF4)2
_symmetry_space_group_name_H-M   'P 1'
_cell_length_a   8.05529417
_cell_length_b   4.76895620
_cell_length_c   10.74860491
_cell_angle_alpha   90.00000000
_cell_angle_beta   116.54316421
_cell_angle_gamma   90.00000000
_symmetry_Int_Tables_number   1
_chemical_formula_structural   Fe5(OF4)2
_chemical_formula_sum   'Fe10 O4 F16'
_cell_volume   369.38966689
_cell_formula_units_Z   2
loop_
 _symmetry_equiv_pos_site_id
 _symmetry_equiv_pos_as_xyz
  1  'x, y, z'
loop_
 _atom_site_type_symbol
 _atom_site_label
 _atom_site_symmetry_multiplicity
 _atom_site_fract_x
 _atom_site_fract_y
 _atom_site_fract_z
 _atom_site_occupancy
  Fe  Fe0  1  0.803272  0.478869  0.212784  1
  Fe  Fe1  1  0.376344  0.526732  0.593565  1
  Fe  Fe2  1  0.000000  0.500000  0.000000  1
  Fe  Fe3  1  0.623656  0.473268  0.406435  1
  Fe  Fe4  1  0.196728  0.521131  0.787216  1
  Fe  Fe5  1  0.376344  0.973268  0.093565  1
  Fe  Fe6  1  0.623656  0.026732  0.906435  1
  Fe  Fe7  1  0.803272  0.021131  0.712784  1
  Fe  Fe8  1  0.000000  0.000000  0.500000  1
  Fe  Fe9  1  0.196728  0.978869  0.287216  1
  O  O10  1  0.822115  0.209631  0.891808  1
  O  O11  1  0.822115  0.290369  0.391808  1
  O  O12  1  0.177885  0.709631  0.608192  1
  O  O13  1  0.177885  0.790369  0.108192  1
  F  F14  1  0.420194  0.196561  0.271455  1
  F  F15  1  0.021535  0.192641  0.683143  1
  F  F16  1  0.605466  0.193443  0.076556  1
  F  F17  1  0.221142  0.194167  0.474438  1
  F  F18  1  0.021535  0.307359  0.183143  1
  F  F19  1  0.221142  0.305833  0.974438  1
  F  F20  1  0.605466  0.306557  0.576556  1
  F  F21  1  0.420194  0.303439  0.771455  1
  F  F22  1  0.778858  0.694167  0.025562  1
  F  F23  1  0.978465  0.692641  0.816857  1
  F  F24  1  0.394534  0.693443  0.423444  1
  F  F25  1  0.579806  0.696561  0.228545  1
  F  F26  1  0.394534  0.806557  0.923444  1
  F  F27  1  0.579806  0.803439  0.728545  1
  F  F28  1  0.978465  0.807359  0.316857  1
  F  F29  1  0.778858  0.805833  0.525562  1
