# generated using pymatgen
data_LiMnF4
_symmetry_space_group_name_H-M   'P 1'
_cell_length_a   5.95635674
_cell_length_b   4.84427812
_cell_length_c   10.50041860
_cell_angle_alpha   90.00000000
_cell_angle_beta   90.13941979
_cell_angle_gamma   90.00000000
_symmetry_Int_Tables_number   1
_chemical_formula_structural   LiMnF4
_chemical_formula_sum   'Li4 Mn4 F16'
_cell_volume   302.98079218
_cell_formula_units_Z   4
loop_
 _symmetry_equiv_pos_site_id
 _symmetry_equiv_pos_as_xyz
  1  'x, y, z'
loop_
 _atom_site_type_symbol
 _atom_site_label
 _atom_site_symmetry_multiplicity
 _atom_site_fract_x
 _atom_site_fract_y
 _atom_site_fract_z
 _atom_site_occupancy
  Li  Li0  1  0.123064  0.508345  0.853192  1
  Li  Li1  1  0.123064  0.991655  0.353192  1
  Li  Li2  1  0.876936  0.008345  0.646808  1
  Li  Li3  1  0.876936  0.491655  0.146808  1
  Mn  Mn4  1  0.368329  0.031541  0.634875  1
  Mn  Mn5  1  0.368329  0.468459  0.134875  1
  Mn  Mn6  1  0.631671  0.531541  0.865125  1
  Mn  Mn7  1  0.631671  0.968459  0.365125  1
  F  F8  1  0.139019  0.250696  0.703717  1
  F  F9  1  0.139019  0.249304  0.203717  1
  F  F10  1  0.140999  0.818519  0.565435  1
  F  F11  1  0.140999  0.681481  0.065435  1
  F  F12  1  0.394042  0.313096  0.937020  1
  F  F13  1  0.394042  0.186904  0.437020  1
  F  F14  1  0.394569  0.758564  0.800242  1
  F  F15  1  0.394569  0.741436  0.300242  1
  F  F16  1  0.605431  0.258564  0.699758  1
  F  F17  1  0.605431  0.241436  0.199758  1
  F  F18  1  0.605958  0.813096  0.562980  1
  F  F19  1  0.605958  0.686904  0.062980  1
  F  F20  1  0.859001  0.318519  0.934565  1
  F  F21  1  0.859001  0.181481  0.434565  1
  F  F22  1  0.860981  0.750696  0.796283  1
  F  F23  1  0.860981  0.749304  0.296283  1
