# generated using pymatgen
data_Li2TiNiO4
_symmetry_space_group_name_H-M   'P 1'
_cell_length_a   5.06890751
_cell_length_b   2.96785722
_cell_length_c   5.11009252
_cell_angle_alpha   90.00000000
_cell_angle_beta   108.73933208
_cell_angle_gamma   90.00000000
_symmetry_Int_Tables_number   1
_chemical_formula_structural   Li2TiNiO4
_chemical_formula_sum   'Li2 Ti1 Ni1 O4'
_cell_volume   72.80002183
_cell_formula_units_Z   1
loop_
 _symmetry_equiv_pos_site_id
 _symmetry_equiv_pos_as_xyz
  1  'x, y, z'
loop_
 _atom_site_type_symbol
 _atom_site_label
 _atom_site_symmetry_multiplicity
 _atom_site_fract_x
 _atom_site_fract_y
 _atom_site_fract_z
 _atom_site_occupancy
  Li  Li0  1  0.000000  0.000000  0.000000  1
  Li  Li1  1  0.500000  0.500000  0.000000  1
  Ti  Ti2  1  0.500000  0.000000  0.500000  1
  Ni  Ni3  1  0.000000  0.500000  0.500000  1
  O  O4  1  0.741450  0.000000  0.272097  1
  O  O5  1  0.273414  0.500000  0.270348  1
  O  O6  1  0.258550  0.000000  0.727903  1
  O  O7  1  0.726586  0.500000  0.729652  1
