# generated using pymatgen
data_LiV4O5F7
_symmetry_space_group_name_H-M   'P 1'
_cell_length_a   5.16063044
_cell_length_b   5.41227605
_cell_length_c   7.51796388
_cell_angle_alpha   92.99361995
_cell_angle_beta   90.02984655
_cell_angle_gamma   93.16213260
_symmetry_Int_Tables_number   1
_chemical_formula_structural   LiV4O5F7
_chemical_formula_sum   'Li1 V4 O5 F7'
_cell_volume   209.37537459
_cell_formula_units_Z   1
loop_
 _symmetry_equiv_pos_site_id
 _symmetry_equiv_pos_as_xyz
  1  'x, y, z'
loop_
 _atom_site_type_symbol
 _atom_site_label
 _atom_site_symmetry_multiplicity
 _atom_site_fract_x
 _atom_site_fract_y
 _atom_site_fract_z
 _atom_site_occupancy
  Li  Li0  1  0.515487  0.073869  0.191395  1
  V  V1  1  0.985417  0.970214  0.494074  1
  V  V2  1  0.497763  0.520262  0.021839  1
  V  V3  1  0.470138  0.481897  0.503114  1
  V  V4  1  0.008163  0.005988  0.988826  1
  O  O5  1  0.791736  0.709338  0.462124  1
  O  O6  1  0.715173  0.818773  0.047203  1
  O  O7  1  0.421403  0.503575  0.246595  1
  O  O8  1  0.285784  0.208303  0.970072  1
  O  O9  1  0.211216  0.282925  0.536707  1
  F  F10  1  0.889401  0.023599  0.742401  1
  F  F11  1  0.794144  0.303166  0.058119  1
  F  F12  1  0.699016  0.192791  0.426793  1
  F  F13  1  0.590273  0.497680  0.753969  1
  F  F14  1  0.296046  0.793305  0.556269  1
  F  F15  1  0.203022  0.703790  0.942373  1
  F  F16  1  0.134251  0.984226  0.250843  1
