# generated using pymatgen
data_Li5SbS
_symmetry_space_group_name_H-M   'P 1'
_cell_length_a   7.90483525
_cell_length_b   8.02491860
_cell_length_c   8.50776053
_cell_angle_alpha   90.00000000
_cell_angle_beta   92.12734868
_cell_angle_gamma   90.00000000
_symmetry_Int_Tables_number   1
_chemical_formula_structural   Li5SbS
_chemical_formula_sum   'Li20 Sb4 S4'
_cell_volume   539.32343528
_cell_formula_units_Z   4
loop_
 _symmetry_equiv_pos_site_id
 _symmetry_equiv_pos_as_xyz
  1  'x, y, z'
loop_
 _atom_site_type_symbol
 _atom_site_label
 _atom_site_symmetry_multiplicity
 _atom_site_fract_x
 _atom_site_fract_y
 _atom_site_fract_z
 _atom_site_occupancy
  Li  Li0  1  0.599084  0.240532  0.425634  1
  Li  Li1  1  0.002280  0.752170  0.977479  1
  Li  Li2  1  0.518624  0.749675  0.266602  1
  Li  Li3  1  0.660934  0.404084  0.016926  1
  Li  Li4  1  0.154693  0.424621  0.734269  1
  Li  Li5  1  0.154152  0.068497  0.733368  1
  Li  Li6  1  0.662403  0.089317  0.013598  1
  Li  Li7  1  0.255286  0.417951  0.287585  1
  Li  Li8  1  0.249899  0.072443  0.283876  1
  Li  Li9  1  0.013495  0.745892  0.533030  1
  Li  Li10  1  0.337597  0.589317  0.986402  1
  Li  Li11  1  0.986505  0.245892  0.466970  1
  Li  Li12  1  0.750101  0.572443  0.716124  1
  Li  Li13  1  0.744714  0.917951  0.712415  1
  Li  Li14  1  0.339066  0.904084  0.983074  1
  Li  Li15  1  0.481376  0.249675  0.733398  1
  Li  Li16  1  0.845848  0.568497  0.266632  1
  Li  Li17  1  0.845307  0.924621  0.265731  1
  Li  Li18  1  0.400916  0.740532  0.574366  1
  Li  Li19  1  0.997720  0.252170  0.022521  1
  Sb  Sb20  1  0.664519  0.746511  0.989366  1
  Sb  Sb21  1  0.175866  0.744843  0.262677  1
  Sb  Sb22  1  0.335481  0.246511  0.010634  1
  Sb  Sb23  1  0.824134  0.244843  0.737323  1
  S  S24  1  0.817151  0.246628  0.234635  1
  S  S25  1  0.291489  0.243252  0.514352  1
  S  S26  1  0.708511  0.743252  0.485648  1
  S  S27  1  0.182849  0.746628  0.765365  1
