# generated using pymatgen
data_Ag2GeO4
_symmetry_space_group_name_H-M   'P 1'
_cell_length_a   7.98276279
_cell_length_b   6.74304440
_cell_length_c   6.02551296
_cell_angle_alpha   77.16544426
_cell_angle_beta   55.44642587
_cell_angle_gamma   47.38812986
_symmetry_Int_Tables_number   1
_chemical_formula_structural   Ag2GeO4
_chemical_formula_sum   'Ag4 Ge2 O8'
_cell_volume   189.45493093
_cell_formula_units_Z   2
loop_
 _symmetry_equiv_pos_site_id
 _symmetry_equiv_pos_as_xyz
  1  'x, y, z'
loop_
 _atom_site_type_symbol
 _atom_site_label
 _atom_site_symmetry_multiplicity
 _atom_site_fract_x
 _atom_site_fract_y
 _atom_site_fract_z
 _atom_site_occupancy
  Ag  Ag0  1  0.405783  0.094217  0.405783  1
  Ag  Ag1  1  0.094217  0.405783  0.094217  1
  Ag  Ag2  1  0.844217  0.155783  0.844217  1
  Ag  Ag3  1  0.155783  0.844217  0.155783  1
  Ge  Ge4  1  0.500000  0.500000  0.500000  1
  Ge  Ge5  1  0.750000  0.750000  0.750000  1
  O  O6  1  0.480098  0.363575  0.302419  1
  O  O7  1  0.853909  0.302419  0.363575  1
  O  O8  1  0.363575  0.480098  0.853909  1
  O  O9  1  0.302419  0.853909  0.480098  1
  O  O10  1  0.947581  0.396091  0.769902  1
  O  O11  1  0.886425  0.769902  0.396091  1
  O  O12  1  0.396091  0.947581  0.886425  1
  O  O13  1  0.769902  0.886425  0.947581  1
