# generated using pymatgen
data_Fe3Sb(PO4)6
_symmetry_space_group_name_H-M   'P 1'
_cell_length_a   8.93255838
_cell_length_b   8.93255838
_cell_length_c   8.93255838
_cell_angle_alpha   58.34223839
_cell_angle_beta   58.34223839
_cell_angle_gamma   58.34223839
_symmetry_Int_Tables_number   1
_chemical_formula_structural   Fe3Sb(PO4)6
_chemical_formula_sum   'Fe3 Sb1 P6 O24'
_cell_volume   484.85009123
_cell_formula_units_Z   1
loop_
 _symmetry_equiv_pos_site_id
 _symmetry_equiv_pos_as_xyz
  1  'x, y, z'
loop_
 _atom_site_type_symbol
 _atom_site_label
 _atom_site_symmetry_multiplicity
 _atom_site_fract_x
 _atom_site_fract_y
 _atom_site_fract_z
 _atom_site_occupancy
  Fe  Fe0  1  0.856813  0.856813  0.856813  1
  Fe  Fe1  1  0.643578  0.643578  0.643578  1
  Fe  Fe2  1  0.357355  0.357355  0.357355  1
  Sb  Sb3  1  0.144075  0.144075  0.144075  1
  P  P4  1  0.250821  0.536339  0.964226  1
  P  P5  1  0.964226  0.250821  0.536339  1
  P  P6  1  0.536339  0.964226  0.250821  1
  P  P7  1  0.464008  0.035636  0.751182  1
  P  P8  1  0.035636  0.751182  0.464008  1
  P  P9  1  0.751182  0.464008  0.035636  1
  O  O10  1  0.726124  0.490603  0.865574  1
  O  O11  1  0.490603  0.865574  0.726124  1
  O  O12  1  0.078868  0.713104  0.937455  1
  O  O13  1  0.865574  0.726124  0.490603  1
  O  O14  1  0.422942  0.560435  0.788133  1
  O  O15  1  0.227778  0.363112  0.985414  1
  O  O16  1  0.937455  0.078868  0.713104  1
  O  O17  1  0.788133  0.422942  0.560435  1
  O  O18  1  0.560435  0.788133  0.422942  1
  O  O19  1  0.632487  0.010083  0.779093  1
  O  O20  1  0.280980  0.060856  0.925626  1
  O  O21  1  0.010083  0.779093  0.632487  1
  O  O22  1  0.985414  0.227778  0.363112  1
  O  O23  1  0.713104  0.937455  0.078868  1
  O  O24  1  0.363112  0.985414  0.227778  1
  O  O25  1  0.438187  0.212722  0.579227  1
  O  O26  1  0.212722  0.579227  0.438187  1
  O  O27  1  0.060856  0.925626  0.280980  1
  O  O28  1  0.779093  0.632487  0.010083  1
  O  O29  1  0.579227  0.438187  0.212722  1
  O  O30  1  0.137766  0.272909  0.506490  1
  O  O31  1  0.925626  0.280980  0.060856  1
  O  O32  1  0.506490  0.137766  0.272909  1
  O  O33  1  0.272909  0.506490  0.137766  1
