# generated using pymatgen
data_CaFeSn(PO4)3
_symmetry_space_group_name_H-M   'P 1'
_cell_length_a   8.96791794
_cell_length_b   8.96791794
_cell_length_c   8.96791794
_cell_angle_alpha   58.14976123
_cell_angle_beta   58.14976123
_cell_angle_gamma   58.14976123
_symmetry_Int_Tables_number   1
_chemical_formula_structural   CaFeSn(PO4)3
_chemical_formula_sum   'Ca2 Fe2 Sn2 P6 O24'
_cell_volume   488.36038556
_cell_formula_units_Z   2
loop_
 _symmetry_equiv_pos_site_id
 _symmetry_equiv_pos_as_xyz
  1  'x, y, z'
loop_
 _atom_site_type_symbol
 _atom_site_label
 _atom_site_symmetry_multiplicity
 _atom_site_fract_x
 _atom_site_fract_y
 _atom_site_fract_z
 _atom_site_occupancy
  Ca  Ca0  1  0.002809  0.002809  0.002809  1
  Ca  Ca1  1  0.502809  0.502809  0.502809  1
  Fe  Fe2  1  0.647735  0.647735  0.647735  1
  Fe  Fe3  1  0.147735  0.147735  0.147735  1
  Sn  Sn4  1  0.852424  0.852424  0.852424  1
  Sn  Sn5  1  0.352424  0.352424  0.352424  1
  P  P6  1  0.251772  0.539557  0.954850  1
  P  P7  1  0.954850  0.251772  0.539557  1
  P  P8  1  0.539557  0.954850  0.251772  1
  P  P9  1  0.454850  0.039557  0.751772  1
  P  P10  1  0.039557  0.751772  0.454850  1
  P  P11  1  0.751772  0.454850  0.039557  1
  O  O12  1  0.708289  0.491653  0.878206  1
  O  O13  1  0.491653  0.878206  0.708289  1
  O  O14  1  0.082249  0.729350  0.935730  1
  O  O15  1  0.878206  0.708289  0.491653  1
  O  O16  1  0.208289  0.378206  0.991653  1
  O  O17  1  0.419893  0.561884  0.770478  1
  O  O18  1  0.935730  0.082249  0.729350  1
  O  O19  1  0.770478  0.419893  0.561884  1
  O  O20  1  0.561884  0.770478  0.419893  1
  O  O21  1  0.616516  0.018079  0.788526  1
  O  O22  1  0.270478  0.061884  0.919893  1
  O  O23  1  0.018079  0.788526  0.616516  1
  O  O24  1  0.991653  0.208289  0.378206  1
  O  O25  1  0.729350  0.935730  0.082249  1
  O  O26  1  0.378206  0.991653  0.208289  1
  O  O27  1  0.435730  0.229350  0.582249  1
  O  O28  1  0.229350  0.582249  0.435730  1
  O  O29  1  0.061884  0.919893  0.270478  1
  O  O30  1  0.582249  0.435730  0.229350  1
  O  O31  1  0.788526  0.616516  0.018079  1
  O  O32  1  0.116516  0.288526  0.518079  1
  O  O33  1  0.919893  0.270478  0.061884  1
  O  O34  1  0.518079  0.116516  0.288526  1
  O  O35  1  0.288526  0.518079  0.116516  1
