# generated using pymatgen
data_Li3Mn2(SiO4)2
_symmetry_space_group_name_H-M   'P 1'
_cell_length_a   4.92467752
_cell_length_b   5.43371773
_cell_length_c   6.65329301
_cell_angle_alpha   88.90583932
_cell_angle_beta   89.65865984
_cell_angle_gamma   89.19393020
_symmetry_Int_Tables_number   1
_chemical_formula_structural   Li3Mn2(SiO4)2
_chemical_formula_sum   'Li3 Mn2 Si2 O8'
_cell_volume   177.98455362
_cell_formula_units_Z   1
loop_
 _symmetry_equiv_pos_site_id
 _symmetry_equiv_pos_as_xyz
  1  'x, y, z'
loop_
 _atom_site_type_symbol
 _atom_site_label
 _atom_site_symmetry_multiplicity
 _atom_site_fract_x
 _atom_site_fract_y
 _atom_site_fract_z
 _atom_site_occupancy
  Li  Li0  1  0.499873  0.186048  0.000588  1
  Li  Li1  1  0.000018  0.811266  0.500229  1
  Li  Li2  1  0.005012  0.342287  0.241862  1
  Mn  Mn3  1  0.001756  0.821978  0.979973  1
  Mn  Mn4  1  0.512143  0.170251  0.501703  1
  Si  Si5  1  0.988752  0.326549  0.749297  1
  Si  Si6  1  0.496993  0.677534  0.245684  1
  O  O7  1  0.100924  0.189616  0.959089  1
  O  O8  1  0.657974  0.292927  0.751387  1
  O  O9  1  0.068736  0.616033  0.741598  1
  O  O10  1  0.100834  0.184816  0.541479  1
  O  O11  1  0.603820  0.823338  0.441059  1
  O  O12  1  0.159819  0.681483  0.242264  1
  O  O13  1  0.601950  0.386401  0.249008  1
  O  O14  1  0.604934  0.827541  0.042446  1
