# generated using pymatgen
data_Li7MgNi7O16
_symmetry_space_group_name_H-M   'P 1'
_cell_length_a   5.02092765
_cell_length_b   5.74454615
_cell_length_c   9.83455058
_cell_angle_alpha   105.88888612
_cell_angle_beta   100.89363768
_cell_angle_gamma   90.07699414
_symmetry_Int_Tables_number   1
_chemical_formula_structural   Li7MgNi7O16
_chemical_formula_sum   'Li7 Mg1 Ni7 O16'
_cell_volume   267.48037961
_cell_formula_units_Z   1
loop_
 _symmetry_equiv_pos_site_id
 _symmetry_equiv_pos_as_xyz
  1  'x, y, z'
loop_
 _atom_site_type_symbol
 _atom_site_label
 _atom_site_symmetry_multiplicity
 _atom_site_fract_x
 _atom_site_fract_y
 _atom_site_fract_z
 _atom_site_occupancy
  Li  Li0  1  0.247622  0.865469  0.742922  1
  Li  Li1  1  0.237902  0.378772  0.748374  1
  Li  Li2  1  0.503249  0.252340  0.998630  1
  Li  Li3  1  0.752378  0.134531  0.257078  1
  Li  Li4  1  0.762098  0.621228  0.251626  1
  Li  Li5  1  0.496751  0.747660  0.001370  1
  Li  Li6  1  0.000000  0.000000  0.500000  1
  Mg  Mg7  1  0.000000  0.000000  0.000000  1
  Ni  Ni8  1  0.746532  0.628120  0.749115  1
  Ni  Ni9  1  0.736018  0.133211  0.751197  1
  Ni  Ni10  1  0.000000  0.500000  0.000000  1
  Ni  Ni11  1  0.253468  0.371880  0.250885  1
  Ni  Ni12  1  0.263982  0.866789  0.248803  1
  Ni  Ni13  1  0.506937  0.751001  0.500413  1
  Ni  Ni14  1  0.493063  0.248999  0.499587  1
  O  O15  1  0.080059  0.201397  0.872062  1
  O  O16  1  0.630590  0.944380  0.864722  1
  O  O17  1  0.369410  0.055620  0.135278  1
  O  O18  1  0.913169  0.325274  0.127263  1
  O  O19  1  0.626765  0.420318  0.865183  1
  O  O20  1  0.086831  0.674726  0.872737  1
  O  O21  1  0.373235  0.579682  0.134817  1
  O  O22  1  0.919941  0.798603  0.127938  1
  O  O23  1  0.584127  0.417558  0.375244  1
  O  O24  1  0.165579  0.692866  0.366580  1
  O  O25  1  0.845285  0.848741  0.635600  1
  O  O26  1  0.599121  0.919737  0.375722  1
  O  O27  1  0.415873  0.582442  0.624756  1
  O  O28  1  0.154715  0.151259  0.364400  1
  O  O29  1  0.400879  0.080263  0.624278  1
  O  O30  1  0.834421  0.307134  0.633420  1
