# generated using pymatgen
data_K2LiVPO6
_symmetry_space_group_name_H-M   'P 1'
_cell_length_a   6.09997197
_cell_length_b   13.59082466
_cell_length_c   8.93269919
_cell_angle_alpha   90.00000000
_cell_angle_beta   113.63360879
_cell_angle_gamma   90.00000000
_symmetry_Int_Tables_number   1
_chemical_formula_structural   K2LiVPO6
_chemical_formula_sum   'K8 Li4 V4 P4 O24'
_cell_volume   678.44147367
_cell_formula_units_Z   4
loop_
 _symmetry_equiv_pos_site_id
 _symmetry_equiv_pos_as_xyz
  1  'x, y, z'
loop_
 _atom_site_type_symbol
 _atom_site_label
 _atom_site_symmetry_multiplicity
 _atom_site_fract_x
 _atom_site_fract_y
 _atom_site_fract_z
 _atom_site_occupancy
  K  K0  1  0.695877  0.896818  0.611182  1
  K  K1  1  0.304123  0.396818  0.888818  1
  K  K2  1  0.616471  0.639932  0.471450  1
  K  K3  1  0.383529  0.139932  0.028550  1
  K  K4  1  0.616471  0.860068  0.971450  1
  K  K5  1  0.383529  0.360068  0.528550  1
  K  K6  1  0.695877  0.603182  0.111182  1
  K  K7  1  0.304123  0.103182  0.388818  1
  Li  Li8  1  0.164354  0.479179  0.179811  1
  Li  Li9  1  0.164354  0.020821  0.679811  1
  Li  Li10  1  0.835646  0.979179  0.320189  1
  Li  Li11  1  0.835646  0.520821  0.820189  1
  V  V12  1  0.914188  0.205933  0.564364  1
  V  V13  1  0.085812  0.705933  0.935636  1
  V  V14  1  0.914188  0.294067  0.064364  1
  V  V15  1  0.085812  0.794067  0.435636  1
  P  P16  1  0.268767  0.890150  0.204550  1
  P  P17  1  0.268767  0.609850  0.704550  1
  P  P18  1  0.731233  0.390150  0.295450  1
  P  P19  1  0.731233  0.109850  0.795450  1
  O  O20  1  0.809259  0.739801  0.795685  1
  O  O21  1  0.959915  0.056148  0.806950  1
  O  O22  1  0.094864  0.602257  0.054324  1
  O  O23  1  0.334836  0.812168  0.349950  1
  O  O24  1  0.232130  0.829772  0.046443  1
  O  O25  1  0.040085  0.556148  0.693050  1
  O  O26  1  0.480291  0.961652  0.238685  1
  O  O27  1  0.190741  0.239801  0.704315  1
  O  O28  1  0.094864  0.897743  0.554324  1
  O  O29  1  0.519709  0.461652  0.261315  1
  O  O30  1  0.334836  0.687832  0.849950  1
  O  O31  1  0.767870  0.329772  0.453557  1
  O  O32  1  0.232130  0.670228  0.546443  1
  O  O33  1  0.665164  0.312168  0.150050  1
  O  O34  1  0.480291  0.538348  0.738685  1
  O  O35  1  0.905136  0.102257  0.445676  1
  O  O36  1  0.809259  0.760199  0.295685  1
  O  O37  1  0.519709  0.038348  0.761315  1
  O  O38  1  0.959915  0.443852  0.306950  1
  O  O39  1  0.767870  0.170228  0.953557  1
  O  O40  1  0.665164  0.187832  0.650050  1
  O  O41  1  0.905136  0.397743  0.945676  1
  O  O42  1  0.040085  0.943852  0.193050  1
  O  O43  1  0.190741  0.260199  0.204315  1
