# generated using pymatgen
data_VGaO3
_symmetry_space_group_name_H-M   'P 1'
_cell_length_a   5.13569294
_cell_length_b   5.14516745
_cell_length_c   7.87867448
_cell_angle_alpha   90.00000000
_cell_angle_beta   90.00000000
_cell_angle_gamma   90.00000000
_symmetry_Int_Tables_number   1
_chemical_formula_structural   VGaO3
_chemical_formula_sum   'V4 Ga4 O12'
_cell_volume   208.18609569
_cell_formula_units_Z   4
loop_
 _symmetry_equiv_pos_site_id
 _symmetry_equiv_pos_as_xyz
  1  'x, y, z'
loop_
 _atom_site_type_symbol
 _atom_site_label
 _atom_site_symmetry_multiplicity
 _atom_site_fract_x
 _atom_site_fract_y
 _atom_site_fract_z
 _atom_site_occupancy
  V  V0  1  0.000000  0.500000  0.500000  1
  V  V1  1  0.000000  0.500000  0.000000  1
  V  V2  1  0.500000  0.000000  0.500000  1
  V  V3  1  0.500000  0.000000  0.000000  1
  Ga  Ga4  1  0.987222  0.984733  0.750000  1
  Ga  Ga5  1  0.512778  0.484733  0.250000  1
  Ga  Ga6  1  0.487222  0.515267  0.750000  1
  Ga  Ga7  1  0.012778  0.015267  0.250000  1
  O  O8  1  0.877812  0.371225  0.250000  1
  O  O9  1  0.830828  0.842829  0.074929  1
  O  O10  1  0.830828  0.842829  0.425071  1
  O  O11  1  0.669172  0.342829  0.574929  1
  O  O12  1  0.669172  0.342829  0.925071  1
  O  O13  1  0.622188  0.871225  0.750000  1
  O  O14  1  0.377812  0.128775  0.250000  1
  O  O15  1  0.330828  0.657171  0.074929  1
  O  O16  1  0.330828  0.657171  0.425071  1
  O  O17  1  0.169172  0.157171  0.574929  1
  O  O18  1  0.169172  0.157171  0.925071  1
  O  O19  1  0.122188  0.628775  0.750000  1
