# generated using pymatgen
data_Mn6O5F7
_symmetry_space_group_name_H-M   'P 1'
_cell_length_a   4.70650263
_cell_length_b   5.73417757
_cell_length_c   15.59472061
_cell_angle_alpha   90.00000000
_cell_angle_beta   91.19189346
_cell_angle_gamma   90.00000000
_symmetry_Int_Tables_number   1
_chemical_formula_structural   Mn6O5F7
_chemical_formula_sum   'Mn12 O10 F14'
_cell_volume   420.77803963
_cell_formula_units_Z   2
loop_
 _symmetry_equiv_pos_site_id
 _symmetry_equiv_pos_as_xyz
  1  'x, y, z'
loop_
 _atom_site_type_symbol
 _atom_site_label
 _atom_site_symmetry_multiplicity
 _atom_site_fract_x
 _atom_site_fract_y
 _atom_site_fract_z
 _atom_site_occupancy
  Mn  Mn0  1  0.056349  0.160110  0.586309  1
  Mn  Mn1  1  0.992478  0.842901  0.754767  1
  Mn  Mn2  1  0.022673  0.137768  0.921084  1
  Mn  Mn3  1  0.992478  0.157099  0.254767  1
  Mn  Mn4  1  0.022673  0.862232  0.421084  1
  Mn  Mn5  1  0.056349  0.839890  0.086309  1
  Mn  Mn6  1  0.492464  0.334262  0.411797  1
  Mn  Mn7  1  0.485973  0.347358  0.075257  1
  Mn  Mn8  1  0.495081  0.348563  0.748942  1
  Mn  Mn9  1  0.492464  0.665738  0.911797  1
  Mn  Mn10  1  0.485973  0.652642  0.575257  1
  Mn  Mn11  1  0.495081  0.651437  0.248942  1
  O  O12  1  0.225570  0.109224  0.698079  1
  O  O13  1  0.213320  0.110749  0.363388  1
  O  O14  1  0.232716  0.109032  0.027753  1
  O  O15  1  0.213320  0.889251  0.863388  1
  O  O16  1  0.232716  0.890968  0.527753  1
  O  O17  1  0.225570  0.890776  0.198079  1
  O  O18  1  0.296381  0.390801  0.520048  1
  O  O19  1  0.296381  0.609199  0.020048  1
  O  O20  1  0.702006  0.623151  0.804479  1
  O  O21  1  0.702006  0.376849  0.304479  1
  F  F22  1  0.252641  0.389153  0.856944  1
  F  F23  1  0.248888  0.599898  0.688101  1
  F  F24  1  0.252641  0.610847  0.356944  1
  F  F25  1  0.248888  0.400102  0.188101  1
  F  F26  1  0.750712  0.376880  0.965732  1
  F  F27  1  0.745004  0.389522  0.636349  1
  F  F28  1  0.750712  0.623120  0.465732  1
  F  F29  1  0.745004  0.610478  0.136349  1
  F  F30  1  0.755668  0.123464  0.816776  1
  F  F31  1  0.775587  0.129938  0.483282  1
  F  F32  1  0.756487  0.877052  0.640911  1
  F  F33  1  0.775587  0.870062  0.983282  1
  F  F34  1  0.756487  0.122948  0.140911  1
  F  F35  1  0.755668  0.876536  0.316776  1
