# generated using pymatgen
data_Li2PWO6
_symmetry_space_group_name_H-M   'P 1'
_cell_length_a   8.45004941
_cell_length_b   8.45004941
_cell_length_c   7.18555160
_cell_angle_alpha   77.41431146
_cell_angle_beta   102.58568854
_cell_angle_gamma   106.49134544
_symmetry_Int_Tables_number   1
_chemical_formula_structural   Li2PWO6
_chemical_formula_sum   'Li8 P4 W4 O24'
_cell_volume   473.42251315
_cell_formula_units_Z   4
loop_
 _symmetry_equiv_pos_site_id
 _symmetry_equiv_pos_as_xyz
  1  'x, y, z'
loop_
 _atom_site_type_symbol
 _atom_site_label
 _atom_site_symmetry_multiplicity
 _atom_site_fract_x
 _atom_site_fract_y
 _atom_site_fract_z
 _atom_site_occupancy
  Li  Li0  1  0.068891  0.337551  0.913296  1
  Li  Li1  1  0.662449  0.931109  0.413296  1
  Li  Li2  1  0.989860  0.989860  0.750000  1
  Li  Li3  1  0.407432  0.407432  0.750000  1
  Li  Li4  1  0.010140  0.010140  0.250000  1
  Li  Li5  1  0.592568  0.592568  0.250000  1
  Li  Li6  1  0.337551  0.068891  0.586704  1
  Li  Li7  1  0.931109  0.662449  0.086704  1
  P  P8  1  0.697248  0.927157  0.960868  1
  P  P9  1  0.072843  0.302752  0.460868  1
  P  P10  1  0.927157  0.697248  0.539132  1
  P  P11  1  0.302752  0.072843  0.039132  1
  W  W12  1  0.279994  0.712630  0.871133  1
  W  W13  1  0.287370  0.720006  0.371133  1
  W  W14  1  0.712630  0.279994  0.628867  1
  W  W15  1  0.720006  0.287370  0.128867  1
  O  O16  1  0.261226  0.968367  0.869936  1
  O  O17  1  0.033648  0.660104  0.743122  1
  O  O18  1  0.031633  0.738774  0.369936  1
  O  O19  1  0.339896  0.966352  0.243122  1
  O  O20  1  0.330968  0.823992  0.611720  1
  O  O21  1  0.534391  0.788456  0.995917  1
  O  O22  1  0.176008  0.669032  0.111720  1
  O  O23  1  0.303038  0.502973  0.896137  1
  O  O24  1  0.211544  0.465609  0.495917  1
  O  O25  1  0.847231  0.859451  0.967748  1
  O  O26  1  0.497027  0.696962  0.396137  1
  O  O27  1  0.140549  0.152769  0.467748  1
  O  O28  1  0.859451  0.847231  0.532252  1
  O  O29  1  0.502973  0.303038  0.603863  1
  O  O30  1  0.152769  0.140549  0.032252  1
  O  O31  1  0.788456  0.534391  0.504083  1
  O  O32  1  0.696962  0.497027  0.103863  1
  O  O33  1  0.823992  0.330968  0.888280  1
  O  O34  1  0.465609  0.211544  0.004083  1
  O  O35  1  0.669032  0.176008  0.388280  1
  O  O36  1  0.660104  0.033648  0.756878  1
  O  O37  1  0.968367  0.261226  0.630064  1
  O  O38  1  0.966352  0.339896  0.256878  1
  O  O39  1  0.738774  0.031633  0.130064  1
