# generated using pymatgen
data_LiMnF3
_symmetry_space_group_name_H-M   'P 1'
_cell_length_a   5.66221098
_cell_length_b   5.66221098
_cell_length_c   5.66221098
_cell_angle_alpha   56.61427179
_cell_angle_beta   56.61427179
_cell_angle_gamma   56.61427179
_symmetry_Int_Tables_number   1
_chemical_formula_structural   LiMnF3
_chemical_formula_sum   'Li2 Mn2 F6'
_cell_volume   118.32414570
_cell_formula_units_Z   2
loop_
 _symmetry_equiv_pos_site_id
 _symmetry_equiv_pos_as_xyz
  1  'x, y, z'
loop_
 _atom_site_type_symbol
 _atom_site_label
 _atom_site_symmetry_multiplicity
 _atom_site_fract_x
 _atom_site_fract_y
 _atom_site_fract_z
 _atom_site_occupancy
  Li  Li0  1  0.143075  0.143075  0.143075  1
  Li  Li1  1  0.856925  0.856925  0.856925  1
  Mn  Mn2  1  0.645715  0.645715  0.645715  1
  Mn  Mn3  1  0.354285  0.354285  0.354285  1
  F  F4  1  0.241718  0.557405  0.950540  1
  F  F5  1  0.049460  0.758282  0.442595  1
  F  F6  1  0.442595  0.049460  0.758282  1
  F  F7  1  0.557405  0.950540  0.241718  1
  F  F8  1  0.950540  0.241718  0.557405  1
  F  F9  1  0.758282  0.442595  0.049460  1
