# generated using pymatgen
data_Sn2P2O7
_symmetry_space_group_name_H-M   'P 1'
_cell_length_a   6.98613175
_cell_length_b   7.04389743
_cell_length_c   13.01765267
_cell_angle_alpha   83.33325890
_cell_angle_beta   89.96986508
_cell_angle_gamma   89.99300105
_symmetry_Int_Tables_number   1
_chemical_formula_structural   Sn2P2O7
_chemical_formula_sum   'Sn8 P8 O28'
_cell_volume   636.26177260
_cell_formula_units_Z   4
loop_
 _symmetry_equiv_pos_site_id
 _symmetry_equiv_pos_as_xyz
  1  'x, y, z'
loop_
 _atom_site_type_symbol
 _atom_site_label
 _atom_site_symmetry_multiplicity
 _atom_site_fract_x
 _atom_site_fract_y
 _atom_site_fract_z
 _atom_site_occupancy
  Sn  Sn0  1  0.909975  0.209499  0.864287  1
  Sn  Sn1  1  0.745377  0.821016  0.649567  1
  Sn  Sn2  1  0.666954  0.197461  0.138229  1
  Sn  Sn3  1  0.660516  0.618719  0.377331  1
  Sn  Sn4  1  0.339484  0.381281  0.622669  1
  Sn  Sn5  1  0.333046  0.802539  0.861771  1
  Sn  Sn6  1  0.254623  0.178984  0.350433  1
  Sn  Sn7  1  0.090025  0.790501  0.135713  1
  P  P8  1  0.832606  0.696920  0.915457  1
  P  P9  1  0.816087  0.299444  0.587881  1
  P  P10  1  0.768114  0.099403  0.400444  1
  P  P11  1  0.576381  0.707582  0.099644  1
  P  P12  1  0.423619  0.292418  0.900356  1
  P  P13  1  0.231886  0.900597  0.599556  1
  P  P14  1  0.183913  0.700556  0.412119  1
  P  P15  1  0.167394  0.303080  0.084543  1
  O  O16  1  0.997553  0.812787  0.958799  1
  O  O17  1  0.992165  0.367500  0.640974  1
  O  O18  1  0.911691  0.527050  0.866285  1
  O  O19  1  0.912788  0.078288  0.314883  1
  O  O20  1  0.888825  0.209839  0.484554  1
  O  O21  1  0.698712  0.829217  0.845143  1
  O  O22  1  0.700686  0.141643  0.653811  1
  O  O23  1  0.701450  0.908458  0.460597  1
  O  O24  1  0.703687  0.863621  0.138883  1
  O  O25  1  0.705159  0.608687  0.014231  1
  O  O26  1  0.678198  0.465642  0.548467  1
  O  O27  1  0.602798  0.204405  0.959352  1
  O  O28  1  0.599447  0.230201  0.362071  1
  O  O29  1  0.529987  0.543466  0.180778  1
  O  O30  1  0.470013  0.456534  0.819222  1
  O  O31  1  0.400553  0.769799  0.637929  1
  O  O32  1  0.397202  0.795595  0.040648  1
  O  O33  1  0.321802  0.534358  0.451533  1
  O  O34  1  0.294841  0.391313  0.985769  1
  O  O35  1  0.296313  0.136379  0.861117  1
  O  O36  1  0.298550  0.091542  0.539403  1
  O  O37  1  0.299314  0.858357  0.346189  1
  O  O38  1  0.301288  0.170783  0.154857  1
  O  O39  1  0.111175  0.790161  0.515446  1
  O  O40  1  0.087212  0.921712  0.685117  1
  O  O41  1  0.088309  0.472950  0.133715  1
  O  O42  1  0.007835  0.632500  0.359026  1
  O  O43  1  0.002447  0.187213  0.041201  1
