# generated using pymatgen
data_VCr2O6
_symmetry_space_group_name_H-M   'P 1'
_cell_length_a   4.44210393
_cell_length_b   4.91906694
_cell_length_c   16.65831781
_cell_angle_alpha   90.00000000
_cell_angle_beta   90.00000000
_cell_angle_gamma   90.00000000
_symmetry_Int_Tables_number   1
_chemical_formula_structural   VCr2O6
_chemical_formula_sum   'V4 Cr8 O24'
_cell_volume   364.00101227
_cell_formula_units_Z   4
loop_
 _symmetry_equiv_pos_site_id
 _symmetry_equiv_pos_as_xyz
  1  'x, y, z'
loop_
 _atom_site_type_symbol
 _atom_site_label
 _atom_site_symmetry_multiplicity
 _atom_site_fract_x
 _atom_site_fract_y
 _atom_site_fract_z
 _atom_site_occupancy
  V  V0  1  0.000000  0.250000  0.387695  1
  V  V1  1  0.000000  0.750000  0.612305  1
  V  V2  1  0.500000  0.750000  0.112305  1
  V  V3  1  0.500000  0.250000  0.887695  1
  Cr  Cr4  1  0.000000  0.250000  0.050479  1
  Cr  Cr5  1  0.000000  0.750000  0.282378  1
  Cr  Cr6  1  0.000000  0.250000  0.717622  1
  Cr  Cr7  1  0.000000  0.750000  0.949521  1
  Cr  Cr8  1  0.500000  0.250000  0.217622  1
  Cr  Cr9  1  0.500000  0.250000  0.550479  1
  Cr  Cr10  1  0.500000  0.750000  0.782378  1
  Cr  Cr11  1  0.500000  0.750000  0.449521  1
  O  O12  1  0.760426  0.908046  0.041446  1
  O  O13  1  0.760426  0.408046  0.958554  1
  O  O14  1  0.725084  0.912642  0.205769  1
  O  O15  1  0.725084  0.412642  0.794231  1
  O  O16  1  0.774935  0.930132  0.371544  1
  O  O17  1  0.774935  0.430132  0.628456  1
  O  O18  1  0.725065  0.430132  0.128456  1
  O  O19  1  0.725065  0.930132  0.871544  1
  O  O20  1  0.774916  0.412642  0.294231  1
  O  O21  1  0.774916  0.912642  0.705769  1
  O  O22  1  0.739574  0.408046  0.458554  1
  O  O23  1  0.739574  0.908046  0.541446  1
  O  O24  1  0.260426  0.091954  0.458554  1
  O  O25  1  0.260426  0.591954  0.541446  1
  O  O26  1  0.225084  0.087358  0.294231  1
  O  O27  1  0.225084  0.587358  0.705769  1
  O  O28  1  0.274935  0.069868  0.128456  1
  O  O29  1  0.274935  0.569868  0.871544  1
  O  O30  1  0.225065  0.569868  0.371544  1
  O  O31  1  0.225065  0.069868  0.628456  1
  O  O32  1  0.274916  0.587358  0.205769  1
  O  O33  1  0.274916  0.087358  0.794231  1
  O  O34  1  0.239574  0.591954  0.041446  1
  O  O35  1  0.239574  0.091954  0.958554  1
