# generated using pymatgen
data_Li2Fe2C2O7
_symmetry_space_group_name_H-M   'P 1'
_cell_length_a   9.11094639
_cell_length_b   6.60875682
_cell_length_c   10.70430441
_cell_angle_alpha   90.00000000
_cell_angle_beta   101.69635007
_cell_angle_gamma   90.00000000
_symmetry_Int_Tables_number   1
_chemical_formula_structural   Li2Fe2C2O7
_chemical_formula_sum   'Li8 Fe8 C8 O28'
_cell_volume   631.14473494
_cell_formula_units_Z   4
loop_
 _symmetry_equiv_pos_site_id
 _symmetry_equiv_pos_as_xyz
  1  'x, y, z'
loop_
 _atom_site_type_symbol
 _atom_site_label
 _atom_site_symmetry_multiplicity
 _atom_site_fract_x
 _atom_site_fract_y
 _atom_site_fract_z
 _atom_site_occupancy
  Li  Li0  1  0.048281  0.706113  0.015449  1
  Li  Li1  1  0.048281  0.793887  0.515449  1
  Li  Li2  1  0.624887  0.687603  0.078580  1
  Li  Li3  1  0.375113  0.187603  0.421420  1
  Li  Li4  1  0.624887  0.812397  0.578580  1
  Li  Li5  1  0.375113  0.312397  0.921420  1
  Li  Li6  1  0.951719  0.206113  0.484551  1
  Li  Li7  1  0.951719  0.293887  0.984551  1
  Fe  Fe8  1  0.021335  0.602845  0.259749  1
  Fe  Fe9  1  0.283664  0.920553  0.175021  1
  Fe  Fe10  1  0.021335  0.897155  0.759749  1
  Fe  Fe11  1  0.283664  0.579447  0.675021  1
  Fe  Fe12  1  0.716336  0.420553  0.324979  1
  Fe  Fe13  1  0.978665  0.102845  0.240251  1
  Fe  Fe14  1  0.716336  0.079447  0.824979  1
  Fe  Fe15  1  0.978665  0.397155  0.740251  1
  C  C16  1  0.218124  0.304949  0.143386  1
  C  C17  1  0.672571  0.254309  0.051640  1
  C  C18  1  0.327429  0.754309  0.448360  1
  C  C19  1  0.218124  0.195051  0.643386  1
  C  C20  1  0.781876  0.804949  0.356614  1
  C  C21  1  0.672571  0.245691  0.551640  1
  C  C22  1  0.327429  0.745691  0.948360  1
  C  C23  1  0.781876  0.695051  0.856614  1
  O  O24  1  0.062568  0.858702  0.171313  1
  O  O25  1  0.130012  0.457169  0.104066  1
  O  O26  1  0.293608  0.214848  0.070731  1
  O  O27  1  0.411272  0.775103  0.061960  1
  O  O28  1  0.220304  0.229704  0.257167  1
  O  O29  1  0.194599  0.674381  0.424893  1
  O  O30  1  0.378651  0.865646  0.367401  1
  O  O31  1  0.621349  0.365646  0.132599  1
  O  O32  1  0.062568  0.641298  0.671313  1
  O  O33  1  0.130012  0.042831  0.604066  1
  O  O34  1  0.805401  0.174381  0.075107  1
  O  O35  1  0.293608  0.285152  0.570731  1
  O  O36  1  0.411272  0.724897  0.561960  1
  O  O37  1  0.220304  0.270296  0.757167  1
  O  O38  1  0.779696  0.729704  0.242833  1
  O  O39  1  0.588728  0.275103  0.438040  1
  O  O40  1  0.706392  0.714848  0.429269  1
  O  O41  1  0.194599  0.825619  0.924893  1
  O  O42  1  0.869988  0.957169  0.395934  1
  O  O43  1  0.937432  0.358702  0.328687  1
  O  O44  1  0.378651  0.634354  0.867401  1
  O  O45  1  0.621349  0.134354  0.632599  1
  O  O46  1  0.805401  0.325619  0.575107  1
  O  O47  1  0.779696  0.770296  0.742833  1
  O  O48  1  0.588728  0.224897  0.938040  1
  O  O49  1  0.706392  0.785152  0.929269  1
  O  O50  1  0.869988  0.542831  0.895934  1
  O  O51  1  0.937432  0.141298  0.828687  1
