# generated using pymatgen
data_Li3FeSiO5
_symmetry_space_group_name_H-M   'P 1'
_cell_length_a   4.94562878
_cell_length_b   5.47328276
_cell_length_c   15.80406316
_cell_angle_alpha   90.00000000
_cell_angle_beta   90.00000000
_cell_angle_gamma   90.00000000
_symmetry_Int_Tables_number   1
_chemical_formula_structural   Li3FeSiO5
_chemical_formula_sum   'Li12 Fe4 Si4 O20'
_cell_volume   427.79741609
_cell_formula_units_Z   4
loop_
 _symmetry_equiv_pos_site_id
 _symmetry_equiv_pos_as_xyz
  1  'x, y, z'
loop_
 _atom_site_type_symbol
 _atom_site_label
 _atom_site_symmetry_multiplicity
 _atom_site_fract_x
 _atom_site_fract_y
 _atom_site_fract_z
 _atom_site_occupancy
  Li  Li0  1  0.002560  0.664190  0.591630  1
  Li  Li1  1  0.002560  0.164190  0.908370  1
  Li  Li2  1  0.007335  0.665323  0.005885  1
  Li  Li3  1  0.007335  0.165323  0.494115  1
  Li  Li4  1  0.502560  0.835810  0.091630  1
  Li  Li5  1  0.503883  0.320155  0.804834  1
  Li  Li6  1  0.503883  0.820155  0.695166  1
  Li  Li7  1  0.502560  0.335810  0.408370  1
  Li  Li8  1  0.507335  0.834677  0.505885  1
  Li  Li9  1  0.507335  0.334677  0.994115  1
  Li  Li10  1  0.003883  0.179845  0.304834  1
  Li  Li11  1  0.003883  0.679845  0.195166  1
  Fe  Fe12  1  0.004428  0.668532  0.802509  1
  Fe  Fe13  1  0.504428  0.831468  0.302509  1
  Fe  Fe14  1  0.504428  0.331468  0.197491  1
  Fe  Fe15  1  0.004428  0.168532  0.697491  1
  Si  Si16  1  0.009969  0.663772  0.402959  1
  Si  Si17  1  0.509969  0.336228  0.597041  1
  Si  Si18  1  0.509969  0.836228  0.902959  1
  Si  Si19  1  0.009969  0.163772  0.097041  1
  O  O20  1  0.110310  0.316916  0.014386  1
  O  O21  1  0.101413  0.834048  0.701481  1
  O  O22  1  0.101413  0.334048  0.798519  1
  O  O23  1  0.106846  0.882550  0.101172  1
  O  O24  1  0.106846  0.382550  0.398828  1
  O  O25  1  0.110310  0.816916  0.485614  1
  O  O26  1  0.114915  0.311911  0.185854  1
  O  O27  1  0.114915  0.811911  0.314146  1
  O  O28  1  0.168769  0.320265  0.602447  1
  O  O29  1  0.168769  0.820265  0.897553  1
  O  O30  1  0.610310  0.183084  0.514386  1
  O  O31  1  0.601413  0.665952  0.201481  1
  O  O32  1  0.601413  0.165952  0.298519  1
  O  O33  1  0.606846  0.617450  0.601172  1
  O  O34  1  0.606846  0.117450  0.898828  1
  O  O35  1  0.610310  0.683084  0.985614  1
  O  O36  1  0.614915  0.188089  0.685854  1
  O  O37  1  0.614915  0.688089  0.814146  1
  O  O38  1  0.668769  0.179735  0.102447  1
  O  O39  1  0.668769  0.679735  0.397553  1
