# generated using pymatgen
data_LiFe2(BO3)2
_symmetry_space_group_name_H-M   'P 1'
_cell_length_a   5.24191953
_cell_length_b   9.05851752
_cell_length_c   11.39505402
_cell_angle_alpha   113.06860189
_cell_angle_beta   102.57556268
_cell_angle_gamma   89.89454034
_symmetry_Int_Tables_number   1
_chemical_formula_structural   LiFe2(BO3)2
_chemical_formula_sum   'Li4 Fe8 B8 O24'
_cell_volume   483.76949330
_cell_formula_units_Z   4
loop_
 _symmetry_equiv_pos_site_id
 _symmetry_equiv_pos_as_xyz
  1  'x, y, z'
loop_
 _atom_site_type_symbol
 _atom_site_label
 _atom_site_symmetry_multiplicity
 _atom_site_fract_x
 _atom_site_fract_y
 _atom_site_fract_z
 _atom_site_occupancy
  Li  Li0  1  0.272066  0.272133  0.882523  1
  Li  Li1  1  0.486966  0.509064  0.663098  1
  Li  Li2  1  0.254708  0.243113  0.154112  1
  Li  Li3  1  0.530451  0.536303  0.404541  1
  Fe  Fe4  1  0.023139  0.340874  0.383536  1
  Fe  Fe5  1  0.260599  0.927330  0.876240  1
  Fe  Fe6  1  0.490273  0.151839  0.631857  1
  Fe  Fe7  1  0.251015  0.570855  0.130202  1
  Fe  Fe8  1  0.768316  0.453481  0.890673  1
  Fe  Fe9  1  0.520046  0.856199  0.373573  1
  Fe  Fe10  1  0.971473  0.660731  0.630633  1
  Fe  Fe11  1  0.733941  0.059074  0.130370  1
  B  B12  1  0.014128  0.684091  0.375814  1
  B  B13  1  0.267289  0.602642  0.873249  1
  B  B14  1  0.466507  0.812119  0.622991  1
  B  B15  1  0.229200  0.902879  0.130760  1
  B  B16  1  0.527992  0.186490  0.376744  1
  B  B17  1  0.766871  0.105247  0.881390  1
  B  B18  1  0.994355  0.321929  0.636277  1
  B  B19  1  0.738338  0.385482  0.125579  1
  O  O20  1  0.030963  0.098985  0.886838  1
  O  O21  1  0.113558  0.719164  0.847562  1
  O  O22  1  0.167337  0.499564  0.919950  1
  O  O23  1  0.151653  0.209359  0.658544  1
  O  O24  1  0.089189  0.430685  0.593403  1
  O  O25  1  0.260758  0.845433  0.685811  1
  O  O26  1  0.266669  0.672793  0.347710  1
  O  O27  1  0.510025  0.591697  0.849016  1
  O  O28  1  0.620082  0.204809  0.829829  1
  O  O29  1  0.444643  0.087275  0.432062  1
  O  O30  1  0.393780  0.313258  0.367147  1
  O  O31  1  0.635718  0.016214  0.930012  1
  O  O32  1  0.349488  0.003445  0.085050  1
  O  O33  1  0.583763  0.671112  0.602834  1
  O  O34  1  0.549252  0.922469  0.577839  1
  O  O35  1  0.383480  0.808291  0.181797  1
  O  O36  1  0.471842  0.382043  0.119760  1
  O  O37  1  0.740570  0.331764  0.658262  1
  O  O38  1  0.747092  0.150029  0.325221  1
  O  O39  1  0.922620  0.572055  0.416876  1
  O  O40  1  0.864877  0.805137  0.369029  1
  O  O41  1  0.862389  0.487105  0.088916  1
  O  O42  1  0.887109  0.274204  0.164089  1
  O  O43  1  0.971140  0.906904  0.126764  1
