# generated using pymatgen
data_BaNb8O14
_symmetry_space_group_name_H-M   'P 1'
_cell_length_a   13.13519977
_cell_length_b   13.13519977
_cell_length_c   9.58439000
_cell_angle_alpha   90.00000000
_cell_angle_beta   90.00000000
_cell_angle_gamma   132.80107898
_symmetry_Int_Tables_number   1
_chemical_formula_structural   BaNb8O14
_chemical_formula_sum   'Ba4 Nb32 O56'
_cell_volume   1213.29515843
_cell_formula_units_Z   4
loop_
 _symmetry_equiv_pos_site_id
 _symmetry_equiv_pos_as_xyz
  1  'x, y, z'
loop_
 _atom_site_type_symbol
 _atom_site_label
 _atom_site_symmetry_multiplicity
 _atom_site_fract_x
 _atom_site_fract_y
 _atom_site_fract_z
 _atom_site_occupancy
  Ba  Ba0  1  0.376399  0.105998  0.494149  1
  Ba  Ba1  1  0.894002  0.623601  0.994149  1
  Ba  Ba2  1  0.623601  0.894002  0.994149  1
  Ba  Ba3  1  0.105998  0.376399  0.494149  1
  Nb  Nb4  1  0.737422  0.604620  0.623861  1
  Nb  Nb5  1  0.395380  0.262578  0.123861  1
  Nb  Nb6  1  0.892676  0.758539  0.374254  1
  Nb  Nb7  1  0.241461  0.107324  0.874254  1
  Nb  Nb8  1  0.031902  0.790471  0.617785  1
  Nb  Nb9  1  0.209529  0.968098  0.117785  1
  Nb  Nb10  1  0.538193  0.290897  0.882173  1
  Nb  Nb11  1  0.709103  0.461807  0.382173  1
  Nb  Nb12  1  0.858928  0.494103  0.622202  1
  Nb  Nb13  1  0.357679  0.991660  0.874956  1
  Nb  Nb14  1  0.008340  0.642321  0.374956  1
  Nb  Nb15  1  0.505897  0.141072  0.122202  1
  Nb  Nb16  1  0.681713  0.188774  0.637032  1
  Nb  Nb17  1  0.811226  0.318287  0.137032  1
  Nb  Nb18  1  0.188774  0.681713  0.637032  1
  Nb  Nb19  1  0.318287  0.811226  0.137032  1
  Nb  Nb20  1  0.642321  0.008340  0.374956  1
  Nb  Nb21  1  0.494103  0.858928  0.622202  1
  Nb  Nb22  1  0.991660  0.357679  0.874956  1
  Nb  Nb23  1  0.141072  0.505897  0.122202  1
  Nb  Nb24  1  0.290897  0.538193  0.882173  1
  Nb  Nb25  1  0.968098  0.209529  0.117785  1
  Nb  Nb26  1  0.461807  0.709103  0.382173  1
  Nb  Nb27  1  0.790471  0.031902  0.617785  1
  Nb  Nb28  1  0.262578  0.395380  0.123861  1
  Nb  Nb29  1  0.758539  0.892676  0.374254  1
  Nb  Nb30  1  0.604620  0.737422  0.623861  1
  Nb  Nb31  1  0.107324  0.241461  0.874254  1
  Nb  Nb32  1  0.409683  0.409683  0.616610  1
  Nb  Nb33  1  0.911055  0.911055  0.883239  1
  Nb  Nb34  1  0.088945  0.088945  0.383239  1
  Nb  Nb35  1  0.590317  0.590317  0.116610  1
  O  O36  1  0.725986  0.600358  0.243810  1
  O  O37  1  0.895744  0.771800  0.758690  1
  O  O38  1  0.399642  0.274014  0.743810  1
  O  O39  1  0.228200  0.104256  0.258690  1
  O  O40  1  0.560461  0.434085  0.506986  1
  O  O41  1  0.059866  0.933573  0.992062  1
  O  O42  1  0.066427  0.940134  0.492062  1
  O  O43  1  0.565915  0.439539  0.006986  1
  O  O44  1  0.528772  0.278955  0.259040  1
  O  O45  1  0.721045  0.471228  0.759040  1
  O  O46  1  0.031838  0.781949  0.241758  1
  O  O47  1  0.218051  0.968162  0.741758  1
  O  O48  1  0.688019  0.314971  0.508745  1
  O  O49  1  0.685029  0.311981  0.008745  1
  O  O50  1  0.177216  0.798993  0.505565  1
  O  O51  1  0.201007  0.822784  0.005565  1
  O  O52  1  0.848224  0.472890  0.247572  1
  O  O53  1  0.344297  0.967426  0.241287  1
  O  O54  1  0.032574  0.655703  0.741287  1
  O  O55  1  0.527110  0.151776  0.747572  1
  O  O56  1  0.013999  0.520062  0.511282  1
  O  O57  1  0.479938  0.986001  0.011282  1
  O  O58  1  0.161770  0.663830  0.245224  1
  O  O59  1  0.663830  0.161770  0.245224  1
  O  O60  1  0.838230  0.336170  0.745224  1
  O  O61  1  0.336170  0.838230  0.745224  1
  O  O62  1  0.986001  0.479938  0.011282  1
  O  O63  1  0.520062  0.013999  0.511282  1
  O  O64  1  0.967426  0.344297  0.241287  1
  O  O65  1  0.151776  0.527110  0.747572  1
  O  O66  1  0.655703  0.032574  0.741287  1
  O  O67  1  0.472890  0.848224  0.247572  1
  O  O68  1  0.798993  0.177216  0.505565  1
  O  O69  1  0.822784  0.201007  0.005565  1
  O  O70  1  0.314971  0.688019  0.508745  1
  O  O71  1  0.311981  0.685029  0.008745  1
  O  O72  1  0.471228  0.721045  0.759040  1
  O  O73  1  0.278955  0.528772  0.259040  1
  O  O74  1  0.781949  0.031838  0.241758  1
  O  O75  1  0.968162  0.218051  0.741758  1
  O  O76  1  0.434085  0.560461  0.506986  1
  O  O77  1  0.933573  0.059866  0.992062  1
  O  O78  1  0.439539  0.565915  0.006986  1
  O  O79  1  0.940134  0.066427  0.492062  1
  O  O80  1  0.600358  0.725986  0.243810  1
  O  O81  1  0.104256  0.228200  0.258690  1
  O  O82  1  0.274014  0.399642  0.743810  1
  O  O83  1  0.771800  0.895744  0.758690  1
  O  O84  1  0.930612  0.930612  0.270434  1
  O  O85  1  0.749507  0.749507  0.499228  1
  O  O86  1  0.250493  0.250493  0.999228  1
  O  O87  1  0.749878  0.749878  0.001253  1
  O  O88  1  0.069388  0.069387  0.770434  1
  O  O89  1  0.568612  0.568612  0.730207  1
  O  O90  1  0.250122  0.250122  0.501253  1
  O  O91  1  0.431388  0.431388  0.230207  1
