# generated using pymatgen
data_BaO
_symmetry_space_group_name_H-M   'P 1'
_cell_length_a   3.92386033
_cell_length_b   3.92386033
_cell_length_c   52.70602812
_cell_angle_alpha   90.00000000
_cell_angle_beta   90.00000000
_cell_angle_gamma   120.17807109
_symmetry_Int_Tables_number   1
_chemical_formula_structural   BaO
_chemical_formula_sum   'Ba16 O16'
_cell_volume   701.51331635
_cell_formula_units_Z   16
loop_
 _symmetry_equiv_pos_site_id
 _symmetry_equiv_pos_as_xyz
  1  'x, y, z'
loop_
 _atom_site_type_symbol
 _atom_site_label
 _atom_site_symmetry_multiplicity
 _atom_site_fract_x
 _atom_site_fract_y
 _atom_site_fract_z
 _atom_site_occupancy
  Ba  Ba0  1  0.774716  0.225284  0.250000  1
  Ba  Ba1  1  0.283865  0.716135  0.562746  1
  Ba  Ba2  1  0.283865  0.716135  0.937254  1
  Ba  Ba3  1  0.917771  0.082229  0.625285  1
  Ba  Ba4  1  0.917771  0.082229  0.874715  1
  Ba  Ba5  1  0.435586  0.564414  0.187480  1
  Ba  Ba6  1  0.435586  0.564414  0.312520  1
  Ba  Ba7  1  0.000000  0.000000  0.000000  1
  Ba  Ba8  1  0.000000  0.000000  0.500000  1
  Ba  Ba9  1  0.564414  0.435586  0.687480  1
  Ba  Ba10  1  0.564414  0.435586  0.812520  1
  Ba  Ba11  1  0.082229  0.917771  0.125285  1
  Ba  Ba12  1  0.082229  0.917771  0.374715  1
  Ba  Ba13  1  0.716135  0.283865  0.062746  1
  Ba  Ba14  1  0.716135  0.283865  0.437254  1
  Ba  Ba15  1  0.225284  0.774716  0.750000  1
  O  O16  1  0.338352  0.661648  0.030769  1
  O  O17  1  0.407588  0.592412  0.094413  1
  O  O18  1  0.759328  0.240672  0.156378  1
  O  O19  1  0.407588  0.592412  0.405587  1
  O  O20  1  0.759328  0.240672  0.343622  1
  O  O21  1  0.338352  0.661648  0.469231  1
  O  O22  1  0.893045  0.106955  0.718379  1
  O  O23  1  0.893045  0.106955  0.781622  1
  O  O24  1  0.106955  0.893045  0.218379  1
  O  O25  1  0.661648  0.338352  0.530769  1
  O  O26  1  0.661648  0.338352  0.969231  1
  O  O27  1  0.240672  0.759328  0.656378  1
  O  O28  1  0.106955  0.893045  0.281621  1
  O  O29  1  0.592412  0.407588  0.594413  1
  O  O30  1  0.592412  0.407588  0.905587  1
  O  O31  1  0.240672  0.759328  0.843622  1
