# generated using pymatgen
data_LiMn2Si2O7
_symmetry_space_group_name_H-M   'P 1'
_cell_length_a   4.86743177
_cell_length_b   4.86743177
_cell_length_c   13.51298276
_cell_angle_alpha   88.91031255
_cell_angle_beta   91.08968745
_cell_angle_gamma   64.38442494
_symmetry_Int_Tables_number   1
_chemical_formula_structural   LiMn2Si2O7
_chemical_formula_sum   'Li2 Mn4 Si4 O14'
_cell_volume   288.49840223
_cell_formula_units_Z   2
loop_
 _symmetry_equiv_pos_site_id
 _symmetry_equiv_pos_as_xyz
  1  'x, y, z'
loop_
 _atom_site_type_symbol
 _atom_site_label
 _atom_site_symmetry_multiplicity
 _atom_site_fract_x
 _atom_site_fract_y
 _atom_site_fract_z
 _atom_site_occupancy
  Li  Li0  1  0.269578  0.330922  0.913649  1
  Li  Li1  1  0.669078  0.730422  0.413649  1
  Mn  Mn2  1  0.948647  0.034313  0.015460  1
  Mn  Mn3  1  0.965687  0.051353  0.515460  1
  Mn  Mn4  1  0.968311  0.003068  0.253089  1
  Mn  Mn5  1  0.996932  0.031689  0.753089  1
  Si  Si6  1  0.616030  0.695570  0.857635  1
  Si  Si7  1  0.591941  0.702259  0.640581  1
  Si  Si8  1  0.297741  0.408059  0.140581  1
  Si  Si9  1  0.304430  0.383970  0.357635  1
  O  O10  1  0.666923  0.199432  0.147819  1
  O  O11  1  0.666725  0.131121  0.360834  1
  O  O12  1  0.800568  0.333077  0.647819  1
  O  O13  1  0.868879  0.333275  0.860834  1
  O  O14  1  0.155118  0.342317  0.247158  1
  O  O15  1  0.657683  0.844882  0.747158  1
  O  O16  1  0.653017  0.863683  0.544941  1
  O  O17  1  0.643076  0.915003  0.939571  1
  O  O18  1  0.136317  0.346983  0.044941  1
  O  O19  1  0.084997  0.356924  0.439571  1
  O  O20  1  0.226460  0.781523  0.644424  1
  O  O21  1  0.266057  0.719430  0.852856  1
  O  O22  1  0.218477  0.773540  0.144424  1
  O  O23  1  0.280570  0.733943  0.352856  1
