# generated using pymatgen
data_Bi5BO10
_symmetry_space_group_name_H-M   'P 1'
_cell_length_a   5.65100533
_cell_length_b   22.43860190
_cell_length_c   8.47987328
_cell_angle_alpha   90.00000000
_cell_angle_beta   106.82542334
_cell_angle_gamma   90.00000000
_symmetry_Int_Tables_number   1
_chemical_formula_structural   Bi5BO10
_chemical_formula_sum   'Bi20 B4 O40'
_cell_volume   1029.22315841
_cell_formula_units_Z   4
loop_
 _symmetry_equiv_pos_site_id
 _symmetry_equiv_pos_as_xyz
  1  'x, y, z'
loop_
 _atom_site_type_symbol
 _atom_site_label
 _atom_site_symmetry_multiplicity
 _atom_site_fract_x
 _atom_site_fract_y
 _atom_site_fract_z
 _atom_site_occupancy
  Bi  Bi0  1  0.280986  0.695924  0.995468  1
  Bi  Bi1  1  0.780986  0.804076  0.995468  1
  Bi  Bi2  1  0.414434  0.057511  0.284147  1
  Bi  Bi3  1  0.453675  0.314543  0.361217  1
  Bi  Bi4  1  0.448791  0.814500  0.336845  1
  Bi  Bi5  1  0.486303  0.557401  0.353874  1
  Bi  Bi6  1  0.914434  0.442489  0.284147  1
  Bi  Bi7  1  0.953675  0.185457  0.361217  1
  Bi  Bi8  1  0.948791  0.685500  0.336845  1
  Bi  Bi9  1  0.986303  0.942599  0.353874  1
  Bi  Bi10  1  0.013697  0.057401  0.646126  1
  Bi  Bi11  1  0.051209  0.314500  0.663155  1
  Bi  Bi12  1  0.046325  0.814543  0.638783  1
  Bi  Bi13  1  0.085566  0.557511  0.715853  1
  Bi  Bi14  1  0.513697  0.442599  0.646126  1
  Bi  Bi15  1  0.551209  0.185500  0.663155  1
  Bi  Bi16  1  0.546325  0.685457  0.638783  1
  Bi  Bi17  1  0.585566  0.942489  0.715853  1
  Bi  Bi18  1  0.219014  0.195924  0.004532  1
  Bi  Bi19  1  0.719014  0.304076  0.004532  1
  B  B20  1  0.294297  0.920062  0.001273  1
  B  B21  1  0.794297  0.579938  0.001273  1
  B  B22  1  0.205703  0.420062  0.998727  1
  B  B23  1  0.705703  0.079938  0.998727  1
  O  O24  1  0.071146  0.388253  0.085333  1
  O  O25  1  0.328510  0.469459  0.077750  1
  O  O26  1  0.571146  0.111747  0.085333  1
  O  O27  1  0.284989  0.904086  0.156373  1
  O  O28  1  0.488433  0.256057  0.153345  1
  O  O29  1  0.828510  0.030541  0.077750  1
  O  O30  1  0.559667  0.760419  0.158830  1
  O  O31  1  0.784989  0.595914  0.156373  1
  O  O32  1  0.988433  0.243943  0.153345  1
  O  O33  1  0.059667  0.739581  0.158830  1
  O  O34  1  0.713507  0.361396  0.249120  1
  O  O35  1  0.213507  0.138604  0.249120  1
  O  O36  1  0.828406  0.852566  0.388841  1
  O  O37  1  0.717530  0.476192  0.476228  1
  O  O38  1  0.711653  0.104356  0.463182  1
  O  O39  1  0.770674  0.252956  0.485950  1
  O  O40  1  0.729326  0.752956  0.514050  1
  O  O41  1  0.788347  0.604356  0.536818  1
  O  O42  1  0.328406  0.647434  0.388841  1
  O  O43  1  0.782470  0.976192  0.523772  1
  O  O44  1  0.217530  0.023808  0.476228  1
  O  O45  1  0.671594  0.352566  0.611159  1
  O  O46  1  0.211653  0.395644  0.463182  1
  O  O47  1  0.270674  0.247044  0.485950  1
  O  O48  1  0.229326  0.747044  0.514050  1
  O  O49  1  0.288347  0.895644  0.536818  1
  O  O50  1  0.282470  0.523808  0.523772  1
  O  O51  1  0.171594  0.147434  0.611159  1
  O  O52  1  0.786493  0.861396  0.750880  1
  O  O53  1  0.286493  0.638604  0.750880  1
  O  O54  1  0.940333  0.260419  0.841170  1
  O  O55  1  0.011567  0.756057  0.846655  1
  O  O56  1  0.215011  0.404086  0.843627  1
  O  O57  1  0.440333  0.239581  0.841170  1
  O  O58  1  0.171490  0.969459  0.922250  1
  O  O59  1  0.511567  0.743943  0.846655  1
  O  O60  1  0.715011  0.095914  0.843627  1
  O  O61  1  0.428854  0.888253  0.914667  1
  O  O62  1  0.671490  0.530541  0.922250  1
  O  O63  1  0.928854  0.611747  0.914667  1
