# generated using pymatgen
data_K2SnO2
_symmetry_space_group_name_H-M   'P 1'
_cell_length_a   7.30872890
_cell_length_b   7.57775172
_cell_length_c   9.99831079
_cell_angle_alpha   85.75389509
_cell_angle_beta   109.58856261
_cell_angle_gamma   118.64020154
_symmetry_Int_Tables_number   1
_chemical_formula_structural   K2SnO2
_chemical_formula_sum   'K8 Sn4 O8'
_cell_volume   455.34316045
_cell_formula_units_Z   4
loop_
 _symmetry_equiv_pos_site_id
 _symmetry_equiv_pos_as_xyz
  1  'x, y, z'
loop_
 _atom_site_type_symbol
 _atom_site_label
 _atom_site_symmetry_multiplicity
 _atom_site_fract_x
 _atom_site_fract_y
 _atom_site_fract_z
 _atom_site_occupancy
  K  K0  1  0.394497  0.427665  0.140751  1
  K  K1  1  0.937089  0.453406  0.172637  1
  K  K2  1  0.927382  0.932609  0.183430  1
  K  K3  1  0.241543  0.739574  0.507709  1
  K  K4  1  0.758457  0.260426  0.492291  1
  K  K5  1  0.072618  0.067391  0.816570  1
  K  K6  1  0.062911  0.546594  0.827363  1
  K  K7  1  0.605503  0.572335  0.859249  1
  Sn  Sn8  1  0.398298  0.943935  0.125173  1
  Sn  Sn9  1  0.694991  0.704511  0.474430  1
  Sn  Sn10  1  0.305009  0.295489  0.525570  1
  Sn  Sn11  1  0.601702  0.056065  0.874827  1
  O  O12  1  0.067589  0.785406  0.020456  1
  O  O13  1  0.503862  0.809706  0.007284  1
  O  O14  1  0.342287  0.514799  0.374763  1
  O  O15  1  0.804566  0.601335  0.352191  1
  O  O16  1  0.195434  0.398665  0.647809  1
  O  O17  1  0.657713  0.485201  0.625237  1
  O  O18  1  0.496138  0.190294  0.992716  1
  O  O19  1  0.932411  0.214594  0.979544  1
