# generated using pymatgen
data_Ho2WO6
_symmetry_space_group_name_H-M   'P 1'
_cell_length_a   9.86342467
_cell_length_b   9.86342467
_cell_length_c   5.38746341
_cell_angle_alpha   75.79299248
_cell_angle_beta   104.20700752
_cell_angle_gamma   111.68276334
_symmetry_Int_Tables_number   1
_chemical_formula_structural   Ho2WO6
_chemical_formula_sum   'Ho8 W4 O24'
_cell_volume   465.13042768
_cell_formula_units_Z   4
loop_
 _symmetry_equiv_pos_site_id
 _symmetry_equiv_pos_as_xyz
  1  'x, y, z'
loop_
 _atom_site_type_symbol
 _atom_site_label
 _atom_site_symmetry_multiplicity
 _atom_site_fract_x
 _atom_site_fract_y
 _atom_site_fract_z
 _atom_site_occupancy
  Ho  Ho0  1  0.105102  0.105102  0.250000  1
  Ho  Ho1  1  0.634206  0.634206  0.250000  1
  Ho  Ho2  1  0.944097  0.284676  0.617388  1
  Ho  Ho3  1  0.715324  0.055903  0.117388  1
  Ho  Ho4  1  0.284676  0.944097  0.882612  1
  Ho  Ho5  1  0.055903  0.715324  0.382612  1
  Ho  Ho6  1  0.365794  0.365794  0.750000  1
  Ho  Ho7  1  0.894898  0.894898  0.750000  1
  W  W8  1  0.505525  0.199170  0.433602  1
  W  W9  1  0.199170  0.505525  0.066398  1
  W  W10  1  0.800830  0.494475  0.933602  1
  W  W11  1  0.494475  0.800830  0.566398  1
  O  O12  1  0.892316  0.074987  0.921713  1
  O  O13  1  0.526607  0.060282  0.739886  1
  O  O14  1  0.311375  0.159471  0.578760  1
  O  O15  1  0.544540  0.389836  0.479944  1
  O  O16  1  0.389836  0.544540  0.020056  1
  O  O17  1  0.159471  0.311375  0.921240  1
  O  O18  1  0.925013  0.107684  0.421713  1
  O  O19  1  0.175717  0.379295  0.386514  1
  O  O20  1  0.620705  0.824283  0.886514  1
  O  O21  1  0.216209  0.684570  0.148890  1
  O  O22  1  0.315430  0.783791  0.648890  1
  O  O23  1  0.060282  0.526607  0.760114  1
  O  O24  1  0.939718  0.473393  0.239886  1
  O  O25  1  0.684570  0.216209  0.351110  1
  O  O26  1  0.783791  0.315430  0.851110  1
  O  O27  1  0.379295  0.175717  0.113486  1
  O  O28  1  0.824283  0.620705  0.613486  1
  O  O29  1  0.074987  0.892316  0.578287  1
  O  O30  1  0.840529  0.688625  0.078760  1
  O  O31  1  0.610164  0.455460  0.979944  1
  O  O32  1  0.455460  0.610164  0.520056  1
  O  O33  1  0.688625  0.840529  0.421240  1
  O  O34  1  0.473393  0.939718  0.260114  1
  O  O35  1  0.107684  0.925013  0.078287  1
