# generated using pymatgen
data_La2Se2O
_symmetry_space_group_name_H-M   'P 1'
_cell_length_a   4.17871618
_cell_length_b   7.38593407
_cell_length_c   16.70880754
_cell_angle_alpha   90.00000000
_cell_angle_beta   90.00000000
_cell_angle_gamma   90.00000000
_symmetry_Int_Tables_number   1
_chemical_formula_structural   La2Se2O
_chemical_formula_sum   'La8 Se8 O4'
_cell_volume   515.69599425
_cell_formula_units_Z   4
loop_
 _symmetry_equiv_pos_site_id
 _symmetry_equiv_pos_as_xyz
  1  'x, y, z'
loop_
 _atom_site_type_symbol
 _atom_site_label
 _atom_site_symmetry_multiplicity
 _atom_site_fract_x
 _atom_site_fract_y
 _atom_site_fract_z
 _atom_site_occupancy
  La  La0  1  0.250000  0.699608  0.038343  1
  La  La1  1  0.250000  0.258466  0.164518  1
  La  La2  1  0.750000  0.758466  0.335482  1
  La  La3  1  0.750000  0.199608  0.461657  1
  La  La4  1  0.250000  0.800392  0.538343  1
  La  La5  1  0.250000  0.241534  0.664518  1
  La  La6  1  0.750000  0.741534  0.835482  1
  La  La7  1  0.750000  0.300392  0.961657  1
  Se  Se8  1  0.750000  0.010405  0.100924  1
  Se  Se9  1  0.750000  0.549243  0.176458  1
  Se  Se10  1  0.250000  0.049243  0.323542  1
  Se  Se11  1  0.250000  0.510405  0.399076  1
  Se  Se12  1  0.750000  0.489595  0.600924  1
  Se  Se13  1  0.750000  0.950757  0.676458  1
  Se  Se14  1  0.250000  0.450757  0.823542  1
  Se  Se15  1  0.250000  0.989595  0.899076  1
  O  O16  1  0.250000  0.371857  0.032034  1
  O  O17  1  0.750000  0.871857  0.467966  1
  O  O18  1  0.250000  0.128143  0.532034  1
  O  O19  1  0.750000  0.628143  0.967966  1
