# generated using pymatgen
data_V4O5F7
_symmetry_space_group_name_H-M   'P 1'
_cell_length_a   5.26916736
_cell_length_b   5.35433607
_cell_length_c   17.32967889
_cell_angle_alpha   83.57841661
_cell_angle_beta   81.67176786
_cell_angle_gamma   60.73340456
_symmetry_Int_Tables_number   1
_chemical_formula_structural   V4O5F7
_chemical_formula_sum   'V8 O10 F14'
_cell_volume   421.53697344
_cell_formula_units_Z   2
loop_
 _symmetry_equiv_pos_site_id
 _symmetry_equiv_pos_as_xyz
  1  'x, y, z'
loop_
 _atom_site_type_symbol
 _atom_site_label
 _atom_site_symmetry_multiplicity
 _atom_site_fract_x
 _atom_site_fract_y
 _atom_site_fract_z
 _atom_site_occupancy
  V  V0  1  0.358698  0.396357  0.879705  1
  V  V1  1  0.860619  0.909276  0.380176  1
  V  V2  1  0.703456  0.789719  0.748191  1
  V  V3  1  0.206012  0.294440  0.247706  1
  V  V4  1  0.126026  0.147781  0.631241  1
  V  V5  1  0.630552  0.654424  0.131036  1
  V  V6  1  0.982686  0.980937  0.003033  1
  V  V7  1  0.478134  0.528331  0.505358  1
  O  O8  1  0.266959  0.678586  0.933016  1
  O  O9  1  0.764440  0.185254  0.435348  1
  O  O10  1  0.495944  0.053039  0.809994  1
  O  O11  1  0.016642  0.425824  0.686655  1
  O  O12  1  0.999715  0.555654  0.309389  1
  O  O13  1  0.507771  0.907281  0.670008  1
  O  O14  1  0.013987  0.405114  0.169034  1
  O  O15  1  0.804604  0.799603  0.042272  1
  O  O16  1  0.521905  0.924961  0.189296  1
  O  O17  1  0.246140  0.803604  0.561213  1
  F  F18  1  0.756616  0.163906  0.912834  1
  F  F19  1  0.970474  0.935562  0.710304  1
  F  F20  1  0.262024  0.667559  0.412395  1
  F  F21  1  0.474202  0.435670  0.208811  1
  F  F22  1  0.213990  0.192097  0.957740  1
  F  F23  1  0.993955  0.564716  0.831115  1
  F  F24  1  0.498834  0.069073  0.332078  1
  F  F25  1  0.290768  0.286035  0.538066  1
  F  F26  1  0.732785  0.691554  0.460065  1
  F  F27  1  0.752838  0.309718  0.583853  1
  F  F28  1  0.541437  0.538217  0.787733  1
  F  F29  1  0.043315  0.042103  0.288292  1
  F  F30  1  0.730640  0.329199  0.060582  1
  F  F31  1  0.253830  0.834402  0.083461  1
