# generated using pymatgen
data_NaCoCSO7
_symmetry_space_group_name_H-M   'P 1'
_cell_length_a   5.16044368
_cell_length_b   6.64615348
_cell_length_c   8.94552479
_cell_angle_alpha   90.00000000
_cell_angle_beta   92.06475256
_cell_angle_gamma   90.00000000
_symmetry_Int_Tables_number   1
_chemical_formula_structural   NaCoCSO7
_chemical_formula_sum   'Na2 Co2 C2 S2 O14'
_cell_volume   306.60637012
_cell_formula_units_Z   2
loop_
 _symmetry_equiv_pos_site_id
 _symmetry_equiv_pos_as_xyz
  1  'x, y, z'
loop_
 _atom_site_type_symbol
 _atom_site_label
 _atom_site_symmetry_multiplicity
 _atom_site_fract_x
 _atom_site_fract_y
 _atom_site_fract_z
 _atom_site_occupancy
  Na  Na0  1  0.765676  0.520520  0.231528  1
  Na  Na1  1  0.234324  0.020520  0.768472  1
  Co  Co2  1  0.217205  0.235830  0.344467  1
  Co  Co3  1  0.782795  0.735830  0.655533  1
  C  C4  1  0.275855  0.257091  0.082655  1
  C  C5  1  0.724145  0.757091  0.917345  1
  S  S6  1  0.276752  0.745719  0.427582  1
  S  S7  1  0.723248  0.245719  0.572418  1
  O  O8  1  0.691446  0.754257  0.053739  1
  O  O9  1  0.050306  0.253433  0.146754  1
  O  O10  1  0.462928  0.260535  0.187565  1
  O  O11  1  0.221647  0.922820  0.333050  1
  O  O12  1  0.196287  0.564683  0.341288  1
  O  O13  1  0.861123  0.256364  0.427874  1
  O  O14  1  0.563603  0.730897  0.464949  1
  O  O15  1  0.436397  0.230897  0.535051  1
  O  O16  1  0.138877  0.756364  0.572126  1
  O  O17  1  0.803713  0.064683  0.658712  1
  O  O18  1  0.778353  0.422820  0.666950  1
  O  O19  1  0.537072  0.760535  0.812435  1
  O  O20  1  0.949694  0.753433  0.853246  1
  O  O21  1  0.308554  0.254257  0.946261  1
