# generated using pymatgen
data_VO2F
_symmetry_space_group_name_H-M   'P 1'
_cell_length_a   3.61187097
_cell_length_b   4.87343157
_cell_length_c   13.62777054
_cell_angle_alpha   90.00000000
_cell_angle_beta   90.00000000
_cell_angle_gamma   90.00000000
_symmetry_Int_Tables_number   1
_chemical_formula_structural   VO2F
_chemical_formula_sum   'V4 O8 F4'
_cell_volume   239.87882453
_cell_formula_units_Z   4
loop_
 _symmetry_equiv_pos_site_id
 _symmetry_equiv_pos_as_xyz
  1  'x, y, z'
loop_
 _atom_site_type_symbol
 _atom_site_label
 _atom_site_symmetry_multiplicity
 _atom_site_fract_x
 _atom_site_fract_y
 _atom_site_fract_z
 _atom_site_occupancy
  V  V0  1  0.250000  0.074904  0.089086  1
  V  V1  1  0.750000  0.574904  0.410914  1
  V  V2  1  0.250000  0.425096  0.589086  1
  V  V3  1  0.750000  0.925096  0.910914  1
  O  O4  1  0.750000  0.977150  0.057600  1
  O  O5  1  0.250000  0.401118  0.104121  1
  O  O6  1  0.750000  0.901118  0.395879  1
  O  O7  1  0.250000  0.477150  0.442400  1
  O  O8  1  0.750000  0.522850  0.557600  1
  O  O9  1  0.250000  0.098882  0.604121  1
  O  O10  1  0.750000  0.598882  0.895879  1
  O  O11  1  0.250000  0.022850  0.942400  1
  F  F12  1  0.250000  0.927859  0.207542  1
  F  F13  1  0.750000  0.427859  0.292458  1
  F  F14  1  0.250000  0.572141  0.707542  1
  F  F15  1  0.750000  0.072141  0.792458  1
