# generated using pymatgen
data_Li3Fe2SbO6
_symmetry_space_group_name_H-M   'P 1'
_cell_length_a   6.74850658
_cell_length_b   6.74850658
_cell_length_c   6.30727039
_cell_angle_alpha   76.63507859
_cell_angle_beta   103.36492141
_cell_angle_gamma   153.30485933
_symmetry_Int_Tables_number   1
_chemical_formula_structural   Li3Fe2SbO6
_chemical_formula_sum   'Li3 Fe2 Sb1 O6'
_cell_volume   125.34968768
_cell_formula_units_Z   1
loop_
 _symmetry_equiv_pos_site_id
 _symmetry_equiv_pos_as_xyz
  1  'x, y, z'
loop_
 _atom_site_type_symbol
 _atom_site_label
 _atom_site_symmetry_multiplicity
 _atom_site_fract_x
 _atom_site_fract_y
 _atom_site_fract_z
 _atom_site_occupancy
  Li  Li0  1  0.500000  0.500000  0.500000  1
  Li  Li1  1  0.171560  0.828440  0.806944  1
  Li  Li2  1  0.828440  0.171560  0.193056  1
  Fe  Fe3  1  0.172421  0.827579  0.359576  1
  Fe  Fe4  1  0.827579  0.172421  0.640424  1
  Sb  Sb5  1  0.500000  0.500000  0.000000  1
  O  O6  1  0.653941  0.346059  0.099553  1
  O  O7  1  0.340600  0.659400  0.423423  1
  O  O8  1  0.346059  0.653941  0.900447  1
  O  O9  1  0.006389  0.993611  0.785570  1
  O  O10  1  0.993611  0.006389  0.214430  1
  O  O11  1  0.659400  0.340600  0.576577  1
