# generated using pymatgen
data_Li2VFe(P2O7)2
_symmetry_space_group_name_H-M   'P 1'
_cell_length_a   4.89307958
_cell_length_b   7.04944662
_cell_length_c   24.72827713
_cell_angle_alpha   90.09529218
_cell_angle_beta   89.97039219
_cell_angle_gamma   108.83734096
_symmetry_Int_Tables_number   1
_chemical_formula_structural   Li2VFe(P2O7)2
_chemical_formula_sum   'Li6 V3 Fe3 P12 O42'
_cell_volume   807.27816506
_cell_formula_units_Z   3
loop_
 _symmetry_equiv_pos_site_id
 _symmetry_equiv_pos_as_xyz
  1  'x, y, z'
loop_
 _atom_site_type_symbol
 _atom_site_label
 _atom_site_symmetry_multiplicity
 _atom_site_fract_x
 _atom_site_fract_y
 _atom_site_fract_z
 _atom_site_occupancy
  Li  Li0  1  0.176049  0.674785  0.379055  1
  Li  Li1  1  0.175719  0.675917  0.045636  1
  Li  Li2  1  0.176201  0.676710  0.712423  1
  Li  Li3  1  0.823828  0.324669  0.879221  1
  Li  Li4  1  0.824657  0.324330  0.545354  1
  Li  Li5  1  0.823835  0.324583  0.212635  1
  V  V6  1  0.214786  0.728234  0.833094  1
  V  V7  1  0.215290  0.728214  0.166777  1
  V  V8  1  0.783643  0.271393  0.667092  1
  Fe  Fe9  1  0.217061  0.732701  0.500457  1
  Fe  Fe10  1  0.783667  0.268346  0.333295  1
  Fe  Fe11  1  0.783160  0.267676  0.000107  1
  P  P12  1  0.400685  0.521860  0.940102  1
  P  P13  1  0.399253  0.521959  0.606319  1
  P  P14  1  0.400719  0.521924  0.273390  1
  P  P15  1  0.213222  0.086260  0.738606  1
  P  P16  1  0.212377  0.085360  0.405456  1
  P  P17  1  0.212704  0.086327  0.072199  1
  P  P18  1  0.786682  0.914570  0.905330  1
  P  P19  1  0.786947  0.913160  0.572027  1
  P  P20  1  0.786779  0.914513  0.238682  1
  P  P21  1  0.599711  0.477828  0.773323  1
  P  P22  1  0.600102  0.478258  0.439900  1
  P  P23  1  0.600655  0.478217  0.106442  1
  O  O24  1  0.049762  0.852782  0.892154  1
  O  O25  1  0.049527  0.852627  0.225352  1
  O  O26  1  0.051004  0.853060  0.558408  1
  O  O27  1  0.132480  0.885942  0.101583  1
  O  O28  1  0.131435  0.885962  0.767982  1
  O  O29  1  0.132629  0.884172  0.435371  1
  O  O30  1  0.187925  0.482518  0.987635  1
  O  O31  1  0.187704  0.482360  0.320879  1
  O  O32  1  0.187064  0.482489  0.653953  1
  O  O33  1  0.247063  0.506809  0.218745  1
  O  O34  1  0.246963  0.506502  0.885448  1
  O  O35  1  0.247915  0.507417  0.551497  1
  O  O36  1  0.397487  0.605218  0.773996  1
  O  O37  1  0.398063  0.605391  0.440274  1
  O  O38  1  0.397770  0.604768  0.107334  1
  O  O39  1  0.602591  0.917731  0.855449  1
  O  O40  1  0.600999  0.915829  0.522258  1
  O  O41  1  0.602290  0.917616  0.188812  1
  O  O42  1  0.596099  0.753656  0.949160  1
  O  O43  1  0.595097  0.752774  0.615779  1
  O  O44  1  0.596408  0.753555  0.282539  1
  O  O45  1  0.404379  0.247520  0.782535  1
  O  O46  1  0.405231  0.247427  0.115799  1
  O  O47  1  0.404839  0.246320  0.449154  1
  O  O48  1  0.398218  0.082896  0.688714  1
  O  O49  1  0.398666  0.083159  0.355611  1
  O  O50  1  0.398711  0.083833  0.022233  1
  O  O51  1  0.602215  0.394194  0.940327  1
  O  O52  1  0.602194  0.395320  0.607200  1
  O  O53  1  0.601966  0.394052  0.273709  1
  O  O54  1  0.752231  0.494170  0.718630  1
  O  O55  1  0.752706  0.491644  0.384863  1
  O  O56  1  0.751910  0.492855  0.051440  1
  O  O57  1  0.812922  0.517795  0.820659  1
  O  O58  1  0.812517  0.517553  0.487429  1
  O  O59  1  0.812780  0.517567  0.153889  1
  O  O60  1  0.868288  0.116220  0.935102  1
  O  O61  1  0.868192  0.116125  0.268483  1
  O  O62  1  0.868146  0.114137  0.601412  1
  O  O63  1  0.951012  0.148294  0.725213  1
  O  O64  1  0.948339  0.145422  0.391952  1
  O  O65  1  0.948532  0.146526  0.058539  1
