# generated using pymatgen
data_V3Fe2Te(PO4)6
_symmetry_space_group_name_H-M   'P 1'
_cell_length_a   8.64464394
_cell_length_b   8.64464394
_cell_length_c   8.64464394
_cell_angle_alpha   60.93556342
_cell_angle_beta   60.93556342
_cell_angle_gamma   60.93556342
_symmetry_Int_Tables_number   1
_chemical_formula_structural   V3Fe2Te(PO4)6
_chemical_formula_sum   'V3 Fe2 Te1 P6 O24'
_cell_volume   466.43079587
_cell_formula_units_Z   1
loop_
 _symmetry_equiv_pos_site_id
 _symmetry_equiv_pos_as_xyz
  1  'x, y, z'
loop_
 _atom_site_type_symbol
 _atom_site_label
 _atom_site_symmetry_multiplicity
 _atom_site_fract_x
 _atom_site_fract_y
 _atom_site_fract_z
 _atom_site_occupancy
  V  V0  1  0.644119  0.644119  0.644119  1
  V  V1  1  0.857154  0.857154  0.857154  1
  V  V2  1  0.357928  0.357928  0.357928  1
  Fe  Fe3  1  0.996133  0.996133  0.996133  1
  Fe  Fe4  1  0.500457  0.500457  0.500457  1
  Te  Te5  1  0.144947  0.144947  0.144947  1
  P  P6  1  0.951694  0.253267  0.554194  1
  P  P7  1  0.554194  0.951694  0.253267  1
  P  P8  1  0.253267  0.554194  0.951694  1
  P  P9  1  0.742584  0.463345  0.041961  1
  P  P10  1  0.463345  0.041961  0.742584  1
  P  P11  1  0.041961  0.742584  0.463345  1
  O  O12  1  0.503712  0.115169  0.311071  1
  O  O13  1  0.311071  0.503712  0.115169  1
  O  O14  1  0.115169  0.311071  0.503712  1
  O  O15  1  0.936547  0.093494  0.745027  1
  O  O16  1  0.974232  0.189409  0.402877  1
  O  O17  1  0.757727  0.413831  0.569989  1
  O  O18  1  0.745027  0.936547  0.093494  1
  O  O19  1  0.569989  0.757727  0.413831  1
  O  O20  1  0.813068  0.612834  0.002974  1
  O  O21  1  0.413831  0.569989  0.757727  1
  O  O22  1  0.899378  0.264611  0.050371  1
  O  O23  1  0.612834  0.002974  0.813068  1
  O  O24  1  0.402877  0.974232  0.189409  1
  O  O25  1  0.093494  0.745027  0.936547  1
  O  O26  1  0.586562  0.444241  0.237975  1
  O  O27  1  0.189409  0.402877  0.974232  1
  O  O28  1  0.444241  0.237975  0.586562  1
  O  O29  1  0.264611  0.050371  0.899378  1
  O  O30  1  0.237975  0.586562  0.444241  1
  O  O31  1  0.002974  0.813068  0.612834  1
  O  O32  1  0.050371  0.899378  0.264611  1
  O  O33  1  0.886501  0.673720  0.506887  1
  O  O34  1  0.673720  0.506887  0.886501  1
  O  O35  1  0.506887  0.886501  0.673720  1
