# generated using pymatgen
data_Li2Mn3O6
_symmetry_space_group_name_H-M   'P 1'
_cell_length_a   5.21465673
_cell_length_b   5.21465673
_cell_length_c   10.83270825
_cell_angle_alpha   71.15836707
_cell_angle_beta   108.84163293
_cell_angle_gamma   122.42565015
_symmetry_Int_Tables_number   1
_chemical_formula_structural   Li2Mn3O6
_chemical_formula_sum   'Li4 Mn6 O12'
_cell_volume   231.14600629
_cell_formula_units_Z   2
loop_
 _symmetry_equiv_pos_site_id
 _symmetry_equiv_pos_as_xyz
  1  'x, y, z'
loop_
 _atom_site_type_symbol
 _atom_site_label
 _atom_site_symmetry_multiplicity
 _atom_site_fract_x
 _atom_site_fract_y
 _atom_site_fract_z
 _atom_site_occupancy
  Li  Li0  1  0.093389  0.733703  0.241662  1
  Li  Li1  1  0.778007  0.079971  0.240042  1
  Li  Li2  1  0.266297  0.906611  0.741662  1
  Li  Li3  1  0.920029  0.221993  0.740042  1
  Mn  Mn4  1  0.322135  0.830961  0.002956  1
  Mn  Mn5  1  0.169039  0.677865  0.502956  1
  Mn  Mn6  1  0.651588  0.502462  0.989213  1
  Mn  Mn7  1  0.834024  0.014090  0.505818  1
  Mn  Mn8  1  0.497538  0.348412  0.489213  1
  Mn  Mn9  1  0.985910  0.165976  0.005818  1
  O  O10  1  0.019142  0.482717  0.107560  1
  O  O11  1  0.178579  0.295781  0.612274  1
  O  O12  1  0.458093  0.730850  0.402501  1
  O  O13  1  0.269150  0.541907  0.902501  1
  O  O14  1  0.373703  0.114398  0.099305  1
  O  O15  1  0.958962  0.864672  0.891483  1
  O  O16  1  0.517283  0.980858  0.607560  1
  O  O17  1  0.135328  0.041038  0.391483  1
  O  O18  1  0.835958  0.402085  0.390254  1
  O  O19  1  0.597915  0.164042  0.890254  1
  O  O20  1  0.704219  0.821421  0.112274  1
  O  O21  1  0.885602  0.626297  0.599305  1
