# generated using pymatgen
data_Hf2N2O
_symmetry_space_group_name_H-M   'P 1'
_cell_length_a   8.72168623
_cell_length_b   8.72604012
_cell_length_c   8.74267978
_cell_angle_alpha   109.47083676
_cell_angle_beta   109.55385526
_cell_angle_gamma   109.28551437
_symmetry_Int_Tables_number   1
_chemical_formula_structural   Hf2N2O
_chemical_formula_sum   'Hf16 N16 O8'
_cell_volume   512.85162256
_cell_formula_units_Z   8
loop_
 _symmetry_equiv_pos_site_id
 _symmetry_equiv_pos_as_xyz
  1  'x, y, z'
loop_
 _atom_site_type_symbol
 _atom_site_label
 _atom_site_symmetry_multiplicity
 _atom_site_fract_x
 _atom_site_fract_y
 _atom_site_fract_z
 _atom_site_occupancy
  Hf  Hf0  1  0.003660  0.008097  0.512097  1
  Hf  Hf1  1  0.781290  0.031197  0.740560  1
  Hf  Hf2  1  0.246247  0.278322  0.027415  1
  Hf  Hf3  1  0.755547  0.218268  0.460242  1
  Hf  Hf4  1  0.969165  0.746839  0.718728  1
  Hf  Hf5  1  0.460627  0.747274  0.216178  1
  Hf  Hf6  1  0.714292  0.455520  0.246238  1
  Hf  Hf7  1  0.011648  0.516171  0.009277  1
  Hf  Hf8  1  0.497590  0.003634  0.988453  1
  Hf  Hf9  1  0.280175  0.531437  0.745462  1
  Hf  Hf10  1  0.491497  0.488068  0.498533  1
  Hf  Hf11  1  0.531903  0.250693  0.786938  1
  Hf  Hf12  1  0.040215  0.258709  0.292605  1
  Hf  Hf13  1  0.749063  0.704282  0.964558  1
  Hf  Hf14  1  0.256505  0.789651  0.539192  1
  Hf  Hf15  1  0.213702  0.967622  0.253422  1
  N  N16  1  0.723691  0.952449  0.464612  1
  N  N17  1  0.740026  0.467216  0.513826  1
  N  N18  1  0.770927  0.234263  0.224320  1
  N  N19  1  0.229670  0.487493  0.956323  1
  N  N20  1  0.537659  0.989347  0.762774  1
  N  N21  1  0.777096  0.513996  0.050245  1
  N  N22  1  0.272284  0.225561  0.258806  1
  N  N23  1  0.033683  0.270680  0.543243  1
  N  N24  1  0.228065  0.762146  0.773558  1
  N  N25  1  0.006605  0.739632  0.966521  1
  N  N26  1  0.455116  0.229168  0.990632  1
  N  N27  1  0.259407  0.532967  0.482433  1
  N  N28  1  0.242240  0.729115  0.272623  1
  N  N29  1  0.042090  0.030861  0.772249  1
  N  N30  1  0.493004  0.460950  0.729852  1
  N  N31  1  0.269435  0.046968  0.532999  1
  O  O32  1  0.514613  0.549126  0.275793  1
  O  O33  1  0.949874  0.962742  0.225670  1
  O  O34  1  0.764315  0.272183  0.729230  1
  O  O35  1  0.552206  0.778891  0.018895  1
  O  O36  1  0.982743  0.259374  0.030468  1
  O  O37  1  0.724278  0.774786  0.738084  1
  O  O38  1  0.964239  0.727197  0.451852  1
  O  O39  1  0.463607  0.007108  0.235094  1
