# generated using pymatgen
data_Sr3WO6
_symmetry_space_group_name_H-M   'P 1'
_cell_length_a   6.92741288
_cell_length_b   6.92741288
_cell_length_c   6.92741288
_cell_angle_alpha   91.60934926
_cell_angle_beta   91.60934926
_cell_angle_gamma   91.60934926
_symmetry_Int_Tables_number   1
_chemical_formula_structural   Sr3WO6
_chemical_formula_sum   'Sr6 W2 O12'
_cell_volume   332.03903167
_cell_formula_units_Z   2
loop_
 _symmetry_equiv_pos_site_id
 _symmetry_equiv_pos_as_xyz
  1  'x, y, z'
loop_
 _atom_site_type_symbol
 _atom_site_label
 _atom_site_symmetry_multiplicity
 _atom_site_fract_x
 _atom_site_fract_y
 _atom_site_fract_z
 _atom_site_occupancy
  Sr  Sr0  1  0.747296  0.935330  0.438138  1
  Sr  Sr1  1  0.064670  0.561862  0.252704  1
  Sr  Sr2  1  0.561862  0.252704  0.064670  1
  Sr  Sr3  1  0.438138  0.747296  0.935330  1
  Sr  Sr4  1  0.935330  0.438138  0.747296  1
  Sr  Sr5  1  0.252704  0.064670  0.561862  1
  W  W6  1  0.500000  0.500000  0.500000  1
  W  W7  1  0.000000  0.000000  0.000000  1
  O  O8  1  0.728962  0.932523  0.059028  1
  O  O9  1  0.067477  0.940972  0.271038  1
  O  O10  1  0.426580  0.546571  0.228698  1
  O  O11  1  0.940972  0.271038  0.067477  1
  O  O12  1  0.453429  0.771302  0.573420  1
  O  O13  1  0.771302  0.573420  0.453429  1
  O  O14  1  0.228698  0.426580  0.546571  1
  O  O15  1  0.546571  0.228698  0.426580  1
  O  O16  1  0.059028  0.728962  0.932523  1
  O  O17  1  0.573420  0.453429  0.771302  1
  O  O18  1  0.932523  0.059028  0.728962  1
  O  O19  1  0.271038  0.067477  0.940972  1
