# generated using pymatgen
data_Li4Cr3FeO8
_symmetry_space_group_name_H-M   'P 1'
_cell_length_a   5.12221705
_cell_length_b   7.77045425
_cell_length_c   7.79070251
_cell_angle_alpha   81.87375823
_cell_angle_beta   83.79319699
_cell_angle_gamma   71.01726558
_symmetry_Int_Tables_number   1
_chemical_formula_structural   Li4Cr3FeO8
_chemical_formula_sum   'Li8 Cr6 Fe2 O16'
_cell_volume   289.63729367
_cell_formula_units_Z   2
loop_
 _symmetry_equiv_pos_site_id
 _symmetry_equiv_pos_as_xyz
  1  'x, y, z'
loop_
 _atom_site_type_symbol
 _atom_site_label
 _atom_site_symmetry_multiplicity
 _atom_site_fract_x
 _atom_site_fract_y
 _atom_site_fract_z
 _atom_site_occupancy
  Li  Li0  1  0.500360  0.875115  0.874427  1
  Li  Li1  1  0.498926  0.624337  0.628524  1
  Li  Li2  1  0.500971  0.749243  0.250776  1
  Li  Li3  1  0.499029  0.250757  0.749224  1
  Li  Li4  1  0.501074  0.375663  0.371476  1
  Li  Li5  1  0.500000  0.500000  0.000000  1
  Li  Li6  1  0.500000  0.000000  0.500000  1
  Li  Li7  1  0.499640  0.124885  0.125573  1
  Cr  Cr8  1  0.000347  0.685534  0.438488  1
  Cr  Cr9  1  0.999903  0.809631  0.062372  1
  Cr  Cr10  1  0.999653  0.314466  0.561512  1
  Cr  Cr11  1  0.000187  0.935651  0.688023  1
  Cr  Cr12  1  0.999813  0.064349  0.311977  1
  Cr  Cr13  1  0.000097  0.190369  0.937628  1
  Fe  Fe14  1  0.000068  0.561654  0.814353  1
  Fe  Fe15  1  0.999932  0.438346  0.185647  1
  O  O16  1  0.223478  0.720109  0.844971  1
  O  O17  1  0.775967  0.771662  0.658693  1
  O  O18  1  0.226580  0.848373  0.469444  1
  O  O19  1  0.776718  0.404485  0.780573  1
  O  O20  1  0.224504  0.474694  0.599355  1
  O  O21  1  0.223282  0.595515  0.219427  1
  O  O22  1  0.775496  0.525306  0.400645  1
  O  O23  1  0.226436  0.098816  0.719149  1
  O  O24  1  0.224033  0.228338  0.341307  1
  O  O25  1  0.777443  0.646415  0.029294  1
  O  O26  1  0.773420  0.151627  0.530556  1
  O  O27  1  0.222557  0.353585  0.970706  1
  O  O28  1  0.776522  0.279891  0.155029  1
  O  O29  1  0.226307  0.973369  0.094245  1
  O  O30  1  0.773564  0.901184  0.280851  1
  O  O31  1  0.773693  0.026631  0.905755  1
