# generated using pymatgen
data_Li2Fe3SbO8
_symmetry_space_group_name_H-M   'P 1'
_cell_length_a   6.00636801
_cell_length_b   6.00636801
_cell_length_c   9.77889754
_cell_angle_alpha   90.00000000
_cell_angle_beta   90.00000000
_cell_angle_gamma   120.00000000
_symmetry_Int_Tables_number   1
_chemical_formula_structural   Li2Fe3SbO8
_chemical_formula_sum   'Li4 Fe6 Sb2 O16'
_cell_volume   305.52334727
_cell_formula_units_Z   2
loop_
 _symmetry_equiv_pos_site_id
 _symmetry_equiv_pos_as_xyz
  1  'x, y, z'
loop_
 _atom_site_type_symbol
 _atom_site_label
 _atom_site_symmetry_multiplicity
 _atom_site_fract_x
 _atom_site_fract_y
 _atom_site_fract_z
 _atom_site_occupancy
  Li  Li0  1  0.333333  0.666667  0.902844  1
  Li  Li1  1  0.000000  0.000000  0.988602  1
  Li  Li2  1  0.000000  0.000000  0.488602  1
  Li  Li3  1  0.666667  0.333333  0.402844  1
  Fe  Fe4  1  0.170257  0.829743  0.213245  1
  Fe  Fe5  1  0.170257  0.340515  0.213245  1
  Fe  Fe6  1  0.659485  0.829743  0.213245  1
  Fe  Fe7  1  0.340515  0.170257  0.713245  1
  Fe  Fe8  1  0.829743  0.659485  0.713245  1
  Fe  Fe9  1  0.829743  0.170257  0.713245  1
  Sb  Sb10  1  0.333333  0.666667  0.486241  1
  Sb  Sb11  1  0.666667  0.333333  0.986241  1
  O  O12  1  0.167739  0.832261  0.595282  1
  O  O13  1  0.036679  0.518340  0.347077  1
  O  O14  1  0.333333  0.666667  0.106999  1
  O  O15  1  0.000000  0.000000  0.302402  1
  O  O16  1  0.000000  0.000000  0.802402  1
  O  O17  1  0.167739  0.335478  0.595282  1
  O  O18  1  0.481660  0.963321  0.347077  1
  O  O19  1  0.481660  0.518340  0.347077  1
  O  O20  1  0.335478  0.167739  0.095282  1
  O  O21  1  0.664522  0.832261  0.595282  1
  O  O22  1  0.518340  0.481660  0.847077  1
  O  O23  1  0.518340  0.036679  0.847077  1
  O  O24  1  0.666667  0.333333  0.606999  1
  O  O25  1  0.832261  0.664522  0.095282  1
  O  O26  1  0.963321  0.481660  0.847077  1
  O  O27  1  0.832261  0.167739  0.095282  1
