# generated using pymatgen
data_Ag2Se
_symmetry_space_group_name_H-M   'P 1'
_cell_length_a   4.67993508
_cell_length_b   7.38932843
_cell_length_c   7.79719642
_cell_angle_alpha   90.00000000
_cell_angle_beta   90.00000000
_cell_angle_gamma   90.00000000
_symmetry_Int_Tables_number   1
_chemical_formula_structural   Ag2Se
_chemical_formula_sum   'Ag8 Se4'
_cell_volume   269.63935101
_cell_formula_units_Z   4
loop_
 _symmetry_equiv_pos_site_id
 _symmetry_equiv_pos_as_xyz
  1  'x, y, z'
loop_
 _atom_site_type_symbol
 _atom_site_label
 _atom_site_symmetry_multiplicity
 _atom_site_fract_x
 _atom_site_fract_y
 _atom_site_fract_z
 _atom_site_occupancy
  Ag  Ag0  1  0.994467  0.366233  0.459162  1
  Ag  Ag1  1  0.510578  0.832455  0.287927  1
  Ag  Ag2  1  0.489422  0.332455  0.212073  1
  Ag  Ag3  1  0.005533  0.866233  0.040838  1
  Ag  Ag4  1  0.494467  0.133767  0.540838  1
  Ag  Ag5  1  0.010578  0.667545  0.712073  1
  Ag  Ag6  1  0.989422  0.167545  0.787927  1
  Ag  Ag7  1  0.505533  0.633767  0.959162  1
  Se  Se8  1  0.503203  0.044923  0.015907  1
  Se  Se9  1  0.496797  0.544923  0.484093  1
  Se  Se10  1  0.003203  0.455077  0.984093  1
  Se  Se11  1  0.996797  0.955077  0.515907  1
