# generated using pymatgen
data_Li3(NiO2)5
_symmetry_space_group_name_H-M   'P 1'
_cell_length_a   4.96465727
_cell_length_b   5.79844209
_cell_length_c   6.44000967
_cell_angle_alpha   105.09863762
_cell_angle_beta   97.01900382
_cell_angle_gamma   106.18613558
_symmetry_Int_Tables_number   1
_chemical_formula_structural   Li3(NiO2)5
_chemical_formula_sum   'Li3 Ni5 O10'
_cell_volume   168.05861484
_cell_formula_units_Z   1
loop_
 _symmetry_equiv_pos_site_id
 _symmetry_equiv_pos_as_xyz
  1  'x, y, z'
loop_
 _atom_site_type_symbol
 _atom_site_label
 _atom_site_symmetry_multiplicity
 _atom_site_fract_x
 _atom_site_fract_y
 _atom_site_fract_z
 _atom_site_occupancy
  Li  Li0  1  0.299265  0.101249  0.603915  1
  Li  Li1  1  0.500000  0.500000  0.000000  1
  Li  Li2  1  0.700735  0.898751  0.396085  1
  Ni  Ni3  1  0.899749  0.795862  0.806661  1
  Ni  Ni4  1  0.299655  0.601075  0.599662  1
  Ni  Ni5  1  0.100251  0.204138  0.193339  1
  Ni  Ni6  1  0.700345  0.398925  0.400338  1
  Ni  Ni7  1  0.500000  0.000000  0.000000  1
  O  O8  1  0.994404  0.720990  0.516139  1
  O  O9  1  0.005596  0.279010  0.483861  1
  O  O10  1  0.579420  0.460109  0.674211  1
  O  O11  1  0.420580  0.539891  0.325789  1
  O  O12  1  0.569189  0.924702  0.710807  1
  O  O13  1  0.233033  0.673696  0.885124  1
  O  O14  1  0.430811  0.075298  0.289193  1
  O  O15  1  0.766967  0.326304  0.114876  1
  O  O16  1  0.219003  0.130139  0.913753  1
  O  O17  1  0.780997  0.869861  0.086247  1
