# generated using pymatgen
data_Li3Fe4(PO4)6
_symmetry_space_group_name_H-M   'P 1'
_cell_length_a   6.41980412
_cell_length_b   8.59965944
_cell_length_c   8.83213973
_cell_angle_alpha   93.29114861
_cell_angle_beta   106.59508145
_cell_angle_gamma   105.52144112
_symmetry_Int_Tables_number   1
_chemical_formula_structural   Li3Fe4(PO4)6
_chemical_formula_sum   'Li3 Fe4 P6 O24'
_cell_volume   445.49909096
_cell_formula_units_Z   1
loop_
 _symmetry_equiv_pos_site_id
 _symmetry_equiv_pos_as_xyz
  1  'x, y, z'
loop_
 _atom_site_type_symbol
 _atom_site_label
 _atom_site_symmetry_multiplicity
 _atom_site_fract_x
 _atom_site_fract_y
 _atom_site_fract_z
 _atom_site_occupancy
  Li  Li0  1  0.741209  0.711961  0.292372  1
  Li  Li1  1  0.000000  0.500000  0.500000  1
  Li  Li2  1  0.258791  0.288039  0.707628  1
  Fe  Fe3  1  0.129394  0.363714  0.060727  1
  Fe  Fe4  1  0.628613  0.060618  0.372882  1
  Fe  Fe5  1  0.371387  0.939382  0.627118  1
  Fe  Fe6  1  0.870606  0.636286  0.939273  1
  P  P7  1  0.645481  0.347685  0.145277  1
  P  P8  1  0.246182  0.710337  0.285338  1
  P  P9  1  0.128866  0.138665  0.346123  1
  P  P10  1  0.871134  0.861335  0.653877  1
  P  P11  1  0.753818  0.289663  0.714662  1
  P  P12  1  0.354519  0.652315  0.854723  1
  O  O13  1  0.818733  0.391739  0.047951  1
  O  O14  1  0.414588  0.350447  0.028131  1
  O  O15  1  0.613923  0.173551  0.188107  1
  O  O16  1  0.468319  0.827451  0.270590  1
  O  O17  1  0.027274  0.734689  0.169769  1
  O  O18  1  0.115913  0.177532  0.176525  1
  O  O19  1  0.737407  0.476754  0.292557  1
  O  O20  1  0.904244  0.011650  0.343882  1
  O  O21  1  0.256049  0.533832  0.253055  1
  O  O22  1  0.323847  0.056757  0.407013  1
  O  O23  1  0.835014  0.712047  0.535428  1
  O  O24  1  0.231634  0.737221  0.457922  1
  O  O25  1  0.768366  0.262779  0.542078  1
  O  O26  1  0.164986  0.287953  0.464572  1
  O  O27  1  0.676153  0.943243  0.592987  1
  O  O28  1  0.743951  0.466168  0.746945  1
  O  O29  1  0.095756  0.988350  0.656118  1
  O  O30  1  0.262593  0.523246  0.707443  1
  O  O31  1  0.884087  0.822468  0.823475  1
  O  O32  1  0.972726  0.265311  0.830231  1
  O  O33  1  0.531681  0.172549  0.729410  1
  O  O34  1  0.386077  0.826449  0.811893  1
  O  O35  1  0.585412  0.649553  0.971869  1
  O  O36  1  0.181267  0.608261  0.952049  1
