# generated using pymatgen
data_Na5LiFe2P2(CO7)2
_symmetry_space_group_name_H-M   'P 1'
_cell_length_a   5.19137873
_cell_length_b   6.63074573
_cell_length_c   8.96068762
_cell_angle_alpha   90.70443485
_cell_angle_beta   91.08554614
_cell_angle_gamma   90.19921978
_symmetry_Int_Tables_number   1
_chemical_formula_structural   Na5LiFe2P2(CO7)2
_chemical_formula_sum   'Na5 Li1 Fe2 P2 C2 O14'
_cell_volume   308.37038121
_cell_formula_units_Z   1
loop_
 _symmetry_equiv_pos_site_id
 _symmetry_equiv_pos_as_xyz
  1  'x, y, z'
loop_
 _atom_site_type_symbol
 _atom_site_label
 _atom_site_symmetry_multiplicity
 _atom_site_fract_x
 _atom_site_fract_y
 _atom_site_fract_z
 _atom_site_occupancy
  Na  Na0  1  0.236647  0.753273  0.083207  1
  Na  Na1  1  0.751942  0.502169  0.262963  1
  Na  Na2  1  0.249532  0.498020  0.736984  1
  Na  Na3  1  0.250066  0.002439  0.737232  1
  Na  Na4  1  0.763474  0.248337  0.918779  1
  Li  Li5  1  0.753656  0.995178  0.271464  1
  Fe  Fe6  1  0.217575  0.247710  0.351919  1
  Fe  Fe7  1  0.781791  0.749895  0.645539  1
  P  P8  1  0.297206  0.752779  0.411397  1
  P  P9  1  0.700589  0.245821  0.584021  1
  C  C10  1  0.273892  0.247591  0.059212  1
  C  C11  1  0.728810  0.755189  0.944928  1
  O  O12  1  0.715898  0.764725  0.089459  1
  O  O13  1  0.049285  0.248955  0.122053  1
  O  O14  1  0.481602  0.242589  0.143131  1
  O  O15  1  0.203580  0.935394  0.316349  1
  O  O16  1  0.221937  0.560701  0.317172  1
  O  O17  1  0.825502  0.235728  0.428510  1
  O  O18  1  0.597208  0.763428  0.430036  1
  O  O19  1  0.401725  0.249032  0.564004  1
  O  O20  1  0.170889  0.750174  0.565584  1
  O  O21  1  0.786318  0.436623  0.676581  1
  O  O22  1  0.780047  0.062508  0.682482  1
  O  O23  1  0.520447  0.749838  0.861683  1
  O  O24  1  0.951582  0.750424  0.879990  1
  O  O25  1  0.288801  0.251483  0.915321  1
