# generated using pymatgen
data_Li4Cr3FeO8
_symmetry_space_group_name_H-M   'P 1'
_cell_length_a   5.89901883
_cell_length_b   5.89901883
_cell_length_c   5.08914016
_cell_angle_alpha   73.28372554
_cell_angle_beta   106.71627446
_cell_angle_gamma   120.22890841
_symmetry_Int_Tables_number   1
_chemical_formula_structural   Li4Cr3FeO8
_chemical_formula_sum   'Li4 Cr3 Fe1 O8'
_cell_volume   144.34756343
_cell_formula_units_Z   1
loop_
 _symmetry_equiv_pos_site_id
 _symmetry_equiv_pos_as_xyz
  1  'x, y, z'
loop_
 _atom_site_type_symbol
 _atom_site_label
 _atom_site_symmetry_multiplicity
 _atom_site_fract_x
 _atom_site_fract_y
 _atom_site_fract_z
 _atom_site_occupancy
  Li  Li0  1  0.250677  0.749323  0.502529  1
  Li  Li1  1  0.749323  0.250677  0.497471  1
  Li  Li2  1  0.500000  0.000000  0.000000  1
  Li  Li3  1  0.000000  0.500000  0.000000  1
  Cr  Cr4  1  0.251857  0.251857  0.500000  1
  Cr  Cr5  1  0.748143  0.748143  0.500000  1
  Cr  Cr6  1  0.000000  0.000000  0.000000  1
  Fe  Fe7  1  0.500000  0.500000  0.000000  1
  O  O8  1  0.612639  0.387361  0.746270  1
  O  O9  1  0.113255  0.886745  0.741708  1
  O  O10  1  0.366016  0.141043  0.239574  1
  O  O11  1  0.633984  0.858957  0.760426  1
  O  O12  1  0.141043  0.366016  0.760426  1
  O  O13  1  0.387361  0.612639  0.253730  1
  O  O14  1  0.858957  0.633984  0.239574  1
  O  O15  1  0.886745  0.113255  0.258292  1
