# generated using pymatgen
data_Nb2SbO6
_symmetry_space_group_name_H-M   'P 1'
_cell_length_a   8.94890102
_cell_length_b   8.94890102
_cell_length_c   5.62876265
_cell_angle_alpha   88.82542437
_cell_angle_beta   91.17457563
_cell_angle_gamma   147.27245549
_symmetry_Int_Tables_number   1
_chemical_formula_structural   Nb2SbO6
_chemical_formula_sum   'Nb4 Sb2 O12'
_cell_volume   243.64934433
_cell_formula_units_Z   2
loop_
 _symmetry_equiv_pos_site_id
 _symmetry_equiv_pos_as_xyz
  1  'x, y, z'
loop_
 _atom_site_type_symbol
 _atom_site_label
 _atom_site_symmetry_multiplicity
 _atom_site_fract_x
 _atom_site_fract_y
 _atom_site_fract_z
 _atom_site_occupancy
  Nb  Nb0  1  0.917791  0.571706  0.171397  1
  Nb  Nb1  1  0.428294  0.082209  0.671397  1
  Nb  Nb2  1  0.571706  0.917791  0.328603  1
  Nb  Nb3  1  0.082209  0.428294  0.828603  1
  Sb  Sb4  1  0.193351  0.193351  0.250000  1
  Sb  Sb5  1  0.806649  0.806649  0.750000  1
  O  O6  1  0.844558  0.284133  0.151060  1
  O  O7  1  0.715867  0.155442  0.651060  1
  O  O8  1  0.680673  0.403898  0.428966  1
  O  O9  1  0.596102  0.319327  0.928966  1
  O  O10  1  0.986237  0.852665  0.080618  1
  O  O11  1  0.147335  0.013763  0.580618  1
  O  O12  1  0.852665  0.986237  0.419382  1
  O  O13  1  0.013763  0.147335  0.919382  1
  O  O14  1  0.403898  0.680673  0.071034  1
  O  O15  1  0.319327  0.596102  0.571034  1
  O  O16  1  0.284133  0.844558  0.348940  1
  O  O17  1  0.155442  0.715867  0.848940  1
