# generated using pymatgen
data_LiV(CO3)2
_symmetry_space_group_name_H-M   'P 1'
_cell_length_a   6.10857280
_cell_length_b   6.10857280
_cell_length_c   5.84669507
_cell_angle_alpha   78.09864653
_cell_angle_beta   101.90135347
_cell_angle_gamma   90.27923435
_symmetry_Int_Tables_number   1
_chemical_formula_structural   LiV(CO3)2
_chemical_formula_sum   'Li2 V2 C4 O12'
_cell_volume   208.72723991
_cell_formula_units_Z   2
loop_
 _symmetry_equiv_pos_site_id
 _symmetry_equiv_pos_as_xyz
  1  'x, y, z'
loop_
 _atom_site_type_symbol
 _atom_site_label
 _atom_site_symmetry_multiplicity
 _atom_site_fract_x
 _atom_site_fract_y
 _atom_site_fract_z
 _atom_site_occupancy
  Li  Li0  1  0.611901  0.611901  0.250000  1
  Li  Li1  1  0.388099  0.388099  0.750000  1
  V  V2  1  0.194877  0.194877  0.250000  1
  V  V3  1  0.805123  0.805123  0.750000  1
  C  C4  1  0.691446  0.114509  0.286443  1
  C  C5  1  0.885491  0.308554  0.786443  1
  C  C6  1  0.114509  0.691446  0.213557  1
  C  C7  1  0.308554  0.885491  0.713557  1
  O  O8  1  0.881907  0.202029  0.294148  1
  O  O9  1  0.907744  0.671122  0.106945  1
  O  O10  1  0.514357  0.241632  0.176024  1
  O  O11  1  0.797971  0.118093  0.794148  1
  O  O12  1  0.328878  0.092256  0.606945  1
  O  O13  1  0.758368  0.485643  0.676024  1
  O  O14  1  0.241632  0.514357  0.323976  1
  O  O15  1  0.671122  0.907744  0.393055  1
  O  O16  1  0.202029  0.881907  0.205852  1
  O  O17  1  0.485643  0.758368  0.823976  1
  O  O18  1  0.092256  0.328878  0.893055  1
  O  O19  1  0.118093  0.797971  0.705852  1
