# generated using pymatgen
data_Li4Ti2Co3Sb3O16
_symmetry_space_group_name_H-M   'P 1'
_cell_length_a   6.15392336
_cell_length_b   6.15392336
_cell_length_c   9.71665356
_cell_angle_alpha   89.00592339
_cell_angle_beta   90.99407661
_cell_angle_gamma   120.37734717
_symmetry_Int_Tables_number   1
_chemical_formula_structural   Li4Ti2Co3Sb3O16
_chemical_formula_sum   'Li4 Ti2 Co3 Sb3 O16'
_cell_volume   317.39547570
_cell_formula_units_Z   1
loop_
 _symmetry_equiv_pos_site_id
 _symmetry_equiv_pos_as_xyz
  1  'x, y, z'
loop_
 _atom_site_type_symbol
 _atom_site_label
 _atom_site_symmetry_multiplicity
 _atom_site_fract_x
 _atom_site_fract_y
 _atom_site_fract_z
 _atom_site_occupancy
  Li  Li0  1  0.676005  0.323995  0.892821  1
  Li  Li1  1  0.981725  0.018275  0.983319  1
  Li  Li2  1  0.990942  0.009058  0.506005  1
  Li  Li3  1  0.324103  0.675897  0.400995  1
  Ti  Ti4  1  0.677486  0.322514  0.503420  1
  Ti  Ti5  1  0.360925  0.639075  0.971469  1
  Co  Co6  1  0.826848  0.173152  0.214567  1
  Co  Co7  1  0.176814  0.337021  0.711247  1
  Co  Co8  1  0.662979  0.823186  0.711247  1
  Sb  Sb9  1  0.333247  0.172544  0.215817  1
  Sb  Sb10  1  0.827456  0.666753  0.215817  1
  Sb  Sb11  1  0.176139  0.823861  0.715767  1
  O  O12  1  0.344360  0.153067  0.593198  1
  O  O13  1  0.509624  0.490376  0.337709  1
  O  O14  1  0.657138  0.342862  0.101938  1
  O  O15  1  0.999376  0.000624  0.318476  1
  O  O16  1  0.007868  0.992132  0.798913  1
  O  O17  1  0.846933  0.655640  0.593198  1
  O  O18  1  0.510823  0.048650  0.342275  1
  O  O19  1  0.951350  0.489177  0.342275  1
  O  O20  1  0.150381  0.849619  0.101957  1
  O  O21  1  0.827374  0.172626  0.588705  1
  O  O22  1  0.047489  0.526309  0.849138  1
  O  O23  1  0.473691  0.952511  0.849138  1
  O  O24  1  0.332332  0.667668  0.606724  1
  O  O25  1  0.169780  0.331766  0.094511  1
  O  O26  1  0.488389  0.511611  0.852681  1
  O  O27  1  0.668234  0.830220  0.094511  1
