# generated using pymatgen
data_LiMn3Al2(HO2)6
_symmetry_space_group_name_H-M   'P 1'
_cell_length_a   5.15911178
_cell_length_b   5.15911178
_cell_length_c   19.14171016
_cell_angle_alpha   87.33181177
_cell_angle_beta   92.66818823
_cell_angle_gamma   59.29505206
_symmetry_Int_Tables_number   1
_chemical_formula_structural   LiMn3Al2(HO2)6
_chemical_formula_sum   'Li2 Mn6 Al4 H12 O24'
_cell_volume   436.11445730
_cell_formula_units_Z   2
loop_
 _symmetry_equiv_pos_site_id
 _symmetry_equiv_pos_as_xyz
  1  'x, y, z'
loop_
 _atom_site_type_symbol
 _atom_site_label
 _atom_site_symmetry_multiplicity
 _atom_site_fract_x
 _atom_site_fract_y
 _atom_site_fract_z
 _atom_site_occupancy
  Li  Li0  1  0.583021  0.250177  0.750038  1
  Li  Li1  1  0.749823  0.416979  0.250038  1
  Mn  Mn2  1  0.170050  0.332695  0.500026  1
  Mn  Mn3  1  0.333443  0.499848  0.000035  1
  Mn  Mn4  1  0.500152  0.666557  0.500035  1
  Mn  Mn5  1  0.667305  0.829950  0.000026  1
  Mn  Mn6  1  0.830126  0.000611  0.500018  1
  Mn  Mn7  1  0.999389  0.169874  0.000018  1
  Al  Al8  1  0.916563  0.583826  0.749971  1
  Al  Al9  1  0.084169  0.749728  0.249972  1
  Al  Al10  1  0.416174  0.083437  0.249971  1
  Al  Al11  1  0.250272  0.915831  0.749972  1
  H  H12  1  0.435697  0.375924  0.353305  1
  H  H13  1  0.268824  0.212825  0.853248  1
  H  H14  1  0.896611  0.285388  0.646812  1
  H  H15  1  0.057467  0.451904  0.146775  1
  H  H16  1  0.787175  0.731176  0.353248  1
  H  H17  1  0.624076  0.564303  0.853305  1
  H  H18  1  0.198701  0.632565  0.646976  1
  H  H19  1  0.367435  0.801299  0.146976  1
  H  H20  1  0.132648  0.034039  0.353023  1
  H  H21  1  0.965961  0.867352  0.853023  1
  H  H22  1  0.714612  0.103389  0.146812  1
  H  H23  1  0.548096  0.942533  0.646775  1
  O  O24  1  0.478933  0.324721  0.445925  1
  O  O25  1  0.405604  0.397628  0.301554  1
  O  O26  1  0.238406  0.230956  0.801663  1
  O  O27  1  0.312726  0.176107  0.948645  1
  O  O28  1  0.928619  0.268628  0.698256  1
  O  O29  1  0.851235  0.314478  0.549988  1
  O  O30  1  0.991228  0.478823  0.054132  1
  O  O31  1  0.096054  0.435706  0.198249  1
  O  O32  1  0.769044  0.761594  0.301663  1
  O  O33  1  0.823893  0.687274  0.448645  1
  O  O34  1  0.675279  0.521067  0.945925  1
  O  O35  1  0.602372  0.594396  0.801554  1
  O  O36  1  0.368986  0.797974  0.198476  1
  O  O37  1  0.353893  0.823753  0.051401  1
  O  O38  1  0.202026  0.631014  0.698476  1
  O  O39  1  0.176247  0.646107  0.551401  1
  O  O40  1  0.981323  0.850879  0.950054  1
  O  O41  1  0.130816  0.035719  0.301611  1
  O  O42  1  0.964281  0.869184  0.801611  1
  O  O43  1  0.149121  0.018677  0.450054  1
  O  O44  1  0.564294  0.903946  0.698249  1
  O  O45  1  0.521177  0.008772  0.554132  1
  O  O46  1  0.731372  0.071381  0.198256  1
  O  O47  1  0.685522  0.148765  0.049988  1
