# generated using pymatgen
data_Li7Mn(O2F)2
_symmetry_space_group_name_H-M   'P 1'
_cell_length_a   5.51436758
_cell_length_b   5.67678766
_cell_length_c   10.25371963
_cell_angle_alpha   75.39727355
_cell_angle_beta   76.64598501
_cell_angle_gamma   61.23096813
_symmetry_Int_Tables_number   1
_chemical_formula_structural   Li7Mn(O2F)2
_chemical_formula_sum   'Li14 Mn2 O8 F4'
_cell_volume   269.98936318
_cell_formula_units_Z   2
loop_
 _symmetry_equiv_pos_site_id
 _symmetry_equiv_pos_as_xyz
  1  'x, y, z'
loop_
 _atom_site_type_symbol
 _atom_site_label
 _atom_site_symmetry_multiplicity
 _atom_site_fract_x
 _atom_site_fract_y
 _atom_site_fract_z
 _atom_site_occupancy
  Li  Li0  1  0.021920  0.719684  0.836522  1
  Li  Li1  1  0.219972  0.894636  0.322110  1
  Li  Li2  1  0.370132  0.850087  0.670479  1
  Li  Li3  1  0.623839  0.872350  0.173874  1
  Li  Li4  1  0.091388  0.420384  0.647184  1
  Li  Li5  1  0.358318  0.586297  0.154886  1
  Li  Li6  1  0.756445  0.846876  0.523755  1
  Li  Li7  1  0.394884  0.255691  0.017752  1
  Li  Li8  1  0.658920  0.463992  0.832157  1
  Li  Li9  1  0.962758  0.522169  0.347194  1
  Li  Li10  1  0.430019  0.053417  0.830649  1
  Li  Li11  1  0.546717  0.170026  0.330082  1
  Li  Li12  1  0.785137  0.137784  0.682087  1
  Li  Li13  1  0.928864  0.283990  0.173535  1
  Mn  Mn14  1  0.997314  0.009642  0.997291  1
  Mn  Mn15  1  0.512428  0.496968  0.496057  1
  O  O16  1  0.255302  0.980659  0.113488  1
  O  O17  1  0.306637  0.772589  0.878770  1
  O  O18  1  0.576807  0.802287  0.378184  1
  O  O19  1  0.279977  0.528661  0.372277  1
  O  O20  1  0.715594  0.511551  0.626170  1
  O  O21  1  0.476359  0.167827  0.613021  1
  O  O22  1  0.665904  0.215636  0.123967  1
  O  O23  1  0.730931  0.071364  0.881037  1
  F  F24  1  0.069653  0.791656  0.635035  1
  F  F25  1  0.053002  0.376962  0.853309  1
  F  F26  1  0.004110  0.580152  0.142271  1
  F  F27  1  0.891098  0.198738  0.366935  1
