# generated using pymatgen
data_Ca3Tl4O9
_symmetry_space_group_name_H-M   'P 1'
_cell_length_a   11.28700073
_cell_length_b   6.75669228
_cell_length_c   12.49799027
_cell_angle_alpha   90.00000000
_cell_angle_beta   102.54178454
_cell_angle_gamma   90.00000000
_symmetry_Int_Tables_number   1
_chemical_formula_structural   Ca3Tl4O9
_chemical_formula_sum   'Ca12 Tl16 O36'
_cell_volume   930.38789671
_cell_formula_units_Z   4
loop_
 _symmetry_equiv_pos_site_id
 _symmetry_equiv_pos_as_xyz
  1  'x, y, z'
loop_
 _atom_site_type_symbol
 _atom_site_label
 _atom_site_symmetry_multiplicity
 _atom_site_fract_x
 _atom_site_fract_y
 _atom_site_fract_z
 _atom_site_occupancy
  Ca  Ca0  1  0.198021  0.127758  0.206688  1
  Ca  Ca1  1  0.199988  0.622579  0.213640  1
  Ca  Ca2  1  0.014422  0.876253  0.627842  1
  Ca  Ca3  1  0.985578  0.123747  0.372158  1
  Ca  Ca4  1  0.800012  0.377421  0.786360  1
  Ca  Ca5  1  0.801979  0.872242  0.793312  1
  Ca  Ca6  1  0.699988  0.877421  0.213640  1
  Ca  Ca7  1  0.698021  0.372242  0.206688  1
  Ca  Ca8  1  0.514422  0.623747  0.627842  1
  Ca  Ca9  1  0.485578  0.376253  0.372158  1
  Ca  Ca10  1  0.301979  0.627758  0.793312  1
  Ca  Ca11  1  0.300012  0.122579  0.786360  1
  Tl  Tl12  1  0.101009  0.875288  0.935128  1
  Tl  Tl13  1  0.098954  0.374535  0.937326  1
  Tl  Tl14  1  0.010306  0.372250  0.629177  1
  Tl  Tl15  1  0.989694  0.627750  0.370823  1
  Tl  Tl16  1  0.901046  0.625465  0.062674  1
  Tl  Tl17  1  0.898991  0.124712  0.064872  1
  Tl  Tl18  1  0.747654  0.125635  0.500481  1
  Tl  Tl19  1  0.752346  0.625635  0.499519  1
  Tl  Tl20  1  0.601009  0.624712  0.935128  1
  Tl  Tl21  1  0.598954  0.125465  0.937326  1
  Tl  Tl22  1  0.510306  0.127750  0.629177  1
  Tl  Tl23  1  0.489694  0.872250  0.370823  1
  Tl  Tl24  1  0.401046  0.874535  0.062674  1
  Tl  Tl25  1  0.398991  0.375288  0.064872  1
  Tl  Tl26  1  0.252346  0.874365  0.499519  1
  Tl  Tl27  1  0.247654  0.374365  0.500481  1
  O  O28  1  0.121391  0.129180  0.553538  1
  O  O29  1  0.117448  0.622568  0.547300  1
  O  O30  1  0.159237  0.873802  0.783366  1
  O  O31  1  0.154614  0.376466  0.779780  1
  O  O32  1  0.124015  0.379264  0.337207  1
  O  O33  1  0.125132  0.873922  0.338271  1
  O  O34  1  0.055437  0.376776  0.102899  1
  O  O35  1  0.057364  0.873314  0.101254  1
  O  O36  1  0.942636  0.126686  0.898746  1
  O  O37  1  0.944563  0.623224  0.897101  1
  O  O38  1  0.875985  0.620736  0.662793  1
  O  O39  1  0.874868  0.126078  0.661729  1
  O  O40  1  0.845386  0.623534  0.220220  1
  O  O41  1  0.840763  0.126198  0.216634  1
  O  O42  1  0.882552  0.377432  0.452700  1
  O  O43  1  0.878609  0.870820  0.446462  1
  O  O44  1  0.748811  0.375044  0.001443  1
  O  O45  1  0.751189  0.875044  0.998557  1
  O  O46  1  0.621391  0.370820  0.553538  1
  O  O47  1  0.617448  0.877432  0.547300  1
  O  O48  1  0.659237  0.626198  0.783366  1
  O  O49  1  0.654614  0.123534  0.779780  1
  O  O50  1  0.624015  0.120736  0.337207  1
  O  O51  1  0.625132  0.626078  0.338271  1
  O  O52  1  0.557364  0.626686  0.101254  1
  O  O53  1  0.555437  0.123224  0.102899  1
  O  O54  1  0.444563  0.876776  0.897101  1
  O  O55  1  0.442636  0.373314  0.898746  1
  O  O56  1  0.375985  0.879264  0.662793  1
  O  O57  1  0.374868  0.373922  0.661729  1
  O  O58  1  0.345386  0.876466  0.220220  1
  O  O59  1  0.340763  0.373802  0.216634  1
  O  O60  1  0.382552  0.122568  0.452700  1
  O  O61  1  0.378609  0.629180  0.446462  1
  O  O62  1  0.248811  0.124956  0.001443  1
  O  O63  1  0.251189  0.624956  0.998557  1
