# generated using pymatgen
data_Mn6OF11
_symmetry_space_group_name_H-M   'P 1'
_cell_length_a   4.94857118
_cell_length_b   5.90234484
_cell_length_c   16.23636340
_cell_angle_alpha   90.00000000
_cell_angle_beta   90.58408058
_cell_angle_gamma   90.00000000
_symmetry_Int_Tables_number   1
_chemical_formula_structural   Mn6OF11
_chemical_formula_sum   'Mn12 O2 F22'
_cell_volume   474.20987890
_cell_formula_units_Z   2
loop_
 _symmetry_equiv_pos_site_id
 _symmetry_equiv_pos_as_xyz
  1  'x, y, z'
loop_
 _atom_site_type_symbol
 _atom_site_label
 _atom_site_symmetry_multiplicity
 _atom_site_fract_x
 _atom_site_fract_y
 _atom_site_fract_z
 _atom_site_occupancy
  Mn  Mn0  1  0.026008  0.184790  0.828848  1
  Mn  Mn1  1  0.000000  0.832617  0.000000  1
  Mn  Mn2  1  0.973992  0.184790  0.171152  1
  Mn  Mn3  1  0.000000  0.171125  0.500000  1
  Mn  Mn4  1  0.003620  0.832322  0.666976  1
  Mn  Mn5  1  0.996380  0.832322  0.333024  1
  Mn  Mn6  1  0.483513  0.333449  0.672854  1
  Mn  Mn7  1  0.516487  0.333449  0.327146  1
  Mn  Mn8  1  0.500000  0.328414  0.000000  1
  Mn  Mn9  1  0.504838  0.645197  0.168401  1
  Mn  Mn10  1  0.495162  0.645197  0.831599  1
  Mn  Mn11  1  0.500000  0.660326  0.500000  1
  O  O12  1  0.295874  0.410291  0.783192  1
  O  O13  1  0.704126  0.410291  0.216808  1
  F  F14  1  0.220802  0.105881  0.944409  1
  F  F15  1  0.232561  0.104804  0.610185  1
  F  F16  1  0.211248  0.117105  0.276809  1
  F  F17  1  0.244028  0.872999  0.115063  1
  F  F18  1  0.242593  0.892789  0.778906  1
  F  F19  1  0.226460  0.889639  0.443645  1
  F  F20  1  0.259335  0.391445  0.106852  1
  F  F21  1  0.280097  0.613689  0.942148  1
  F  F22  1  0.263069  0.603909  0.607661  1
  F  F23  1  0.278285  0.384863  0.437572  1
  F  F24  1  0.271641  0.620587  0.273026  1
  F  F25  1  0.719903  0.613689  0.057852  1
  F  F26  1  0.740665  0.391445  0.893148  1
  F  F27  1  0.728359  0.620587  0.726974  1
  F  F28  1  0.736931  0.603909  0.392339  1
  F  F29  1  0.721715  0.384863  0.562428  1
  F  F30  1  0.779198  0.105881  0.055591  1
  F  F31  1  0.788752  0.117105  0.723191  1
  F  F32  1  0.755972  0.872999  0.884937  1
  F  F33  1  0.757407  0.892789  0.221094  1
  F  F34  1  0.767439  0.104804  0.389815  1
  F  F35  1  0.773540  0.889639  0.556355  1
