# generated using pymatgen
data_U2H14S2O19
_symmetry_space_group_name_H-M   'P 1'
_cell_length_a   6.91562858
_cell_length_b   11.44715072
_cell_length_c   21.09466578
_cell_angle_alpha   90.00000000
_cell_angle_beta   90.00000000
_cell_angle_gamma   90.00000000
_symmetry_Int_Tables_number   1
_chemical_formula_structural   U2H14S2O19
_chemical_formula_sum   'U8 H56 S8 O76'
_cell_volume   1669.94324104
_cell_formula_units_Z   4
loop_
 _symmetry_equiv_pos_site_id
 _symmetry_equiv_pos_as_xyz
  1  'x, y, z'
loop_
 _atom_site_type_symbol
 _atom_site_label
 _atom_site_symmetry_multiplicity
 _atom_site_fract_x
 _atom_site_fract_y
 _atom_site_fract_z
 _atom_site_occupancy
  U  U0  1  0.191688  0.000268  0.420775  1
  U  U1  1  0.808312  0.500268  0.579225  1
  U  U2  1  0.191688  0.500268  0.079225  1
  U  U3  1  0.808312  0.000268  0.920775  1
  U  U4  1  0.702419  0.612459  0.298354  1
  U  U5  1  0.297581  0.112459  0.701646  1
  U  U6  1  0.702419  0.112459  0.201646  1
  U  U7  1  0.297581  0.612459  0.798354  1
  H  H8  1  0.478534  0.461560  0.207612  1
  H  H9  1  0.521466  0.961560  0.792388  1
  H  H10  1  0.478534  0.961560  0.292388  1
  H  H11  1  0.521466  0.461560  0.707612  1
  H  H12  1  0.385323  0.413921  0.273348  1
  H  H13  1  0.614677  0.913921  0.726652  1
  H  H14  1  0.385323  0.913921  0.226652  1
  H  H15  1  0.614677  0.413921  0.773348  1
  H  H16  1  0.397389  0.181271  0.504636  1
  H  H17  1  0.602611  0.681271  0.495364  1
  H  H18  1  0.397389  0.681271  0.995364  1
  H  H19  1  0.602611  0.181271  0.004636  1
  H  H20  1  0.539642  0.163996  0.446376  1
  H  H21  1  0.460358  0.663996  0.553624  1
  H  H22  1  0.539642  0.663996  0.053624  1
  H  H23  1  0.460358  0.163996  0.946376  1
  H  H24  1  0.197065  0.257924  0.313977  1
  H  H25  1  0.802935  0.757924  0.686023  1
  H  H26  1  0.197065  0.757924  0.186023  1
  H  H27  1  0.802935  0.257924  0.813977  1
  H  H28  1  0.231753  0.365772  0.358723  1
  H  H29  1  0.768247  0.865772  0.641277  1
  H  H30  1  0.231753  0.865772  0.141277  1
  H  H31  1  0.768247  0.365772  0.858723  1
  H  H32  1  0.963868  0.148374  0.521130  1
  H  H33  1  0.036132  0.648374  0.478870  1
  H  H34  1  0.963868  0.648374  0.978870  1
  H  H35  1  0.036132  0.148374  0.021130  1
  H  H36  1  0.916607  0.184110  0.449903  1
  H  H37  1  0.083393  0.684110  0.550097  1
  H  H38  1  0.916607  0.684110  0.050097  1
  H  H39  1  0.083393  0.184110  0.949903  1
  H  H40  1  0.843418  0.395391  0.227811  1
  H  H41  1  0.156582  0.895391  0.772189  1
  H  H42  1  0.843418  0.895391  0.272189  1
  H  H43  1  0.156582  0.395391  0.727811  1
  H  H44  1  0.007289  0.405857  0.282142  1
  H  H45  1  0.992711  0.905857  0.717858  1
  H  H46  1  0.007289  0.905857  0.217858  1
  H  H47  1  0.992711  0.405857  0.782142  1
  H  H48  1  0.302371  0.376921  0.467911  1
  H  H49  1  0.697629  0.876921  0.532089  1
  H  H50  1  0.302371  0.876921  0.032089  1
  H  H51  1  0.697629  0.376921  0.967911  1
  H  H52  1  0.263824  0.494576  0.429083  1
  H  H53  1  0.736176  0.994576  0.570917  1
  H  H54  1  0.263824  0.994576  0.070917  1
  H  H55  1  0.736176  0.494576  0.929083  1
  H  H56  1  0.734341  0.821489  0.071676  1
  H  H57  1  0.265659  0.321489  0.928324  1
  H  H58  1  0.734341  0.321489  0.428324  1
  H  H59  1  0.265659  0.821489  0.571676  1
  H  H60  1  0.725878  0.739336  0.133710  1
  H  H61  1  0.274122  0.239336  0.866290  1
  H  H62  1  0.725878  0.239336  0.366290  1
  H  H63  1  0.274122  0.739336  0.633710  1
  S  S64  1  0.688593  0.885624  0.396562  1
  S  S65  1  0.311407  0.385624  0.603438  1
  S  S66  1  0.688593  0.385624  0.103438  1
  S  S67  1  0.311407  0.885624  0.896562  1
  S  S68  1  0.194081  0.703623  0.349871  1
  S  S69  1  0.805919  0.203623  0.650129  1
  S  S70  1  0.194081  0.203623  0.150129  1
  S  S71  1  0.805919  0.703623  0.849871  1
  O  O72  1  0.181615  0.100945  0.354643  1
  O  O73  1  0.818385  0.600945  0.645357  1
  O  O74  1  0.181615  0.600945  0.145357  1
  O  O75  1  0.818385  0.100945  0.854643  1
  O  O76  1  0.199293  0.907471  0.489803  1
  O  O77  1  0.800707  0.407471  0.510197  1
  O  O78  1  0.199293  0.407471  0.010197  1
  O  O79  1  0.800707  0.907471  0.989803  1
  O  O80  1  0.703957  0.549666  0.376362  1
  O  O81  1  0.296043  0.049666  0.623638  1
  O  O82  1  0.703957  0.049666  0.123638  1
  O  O83  1  0.296043  0.549666  0.876362  1
  O  O84  1  0.703821  0.676230  0.219758  1
  O  O85  1  0.296179  0.176230  0.780242  1
  O  O86  1  0.703821  0.176230  0.280242  1
  O  O87  1  0.296179  0.676230  0.719758  1
  O  O88  1  0.514340  0.957890  0.379162  1
  O  O89  1  0.485660  0.457890  0.620838  1
  O  O90  1  0.514340  0.457890  0.120838  1
  O  O91  1  0.485660  0.957890  0.879162  1
  O  O92  1  0.735050  0.811655  0.339838  1
  O  O93  1  0.264950  0.311655  0.660162  1
  O  O94  1  0.735050  0.311655  0.160162  1
  O  O95  1  0.264950  0.811655  0.839838  1
  O  O96  1  0.650944  0.814385  0.452737  1
  O  O97  1  0.349056  0.314385  0.547263  1
  O  O98  1  0.650944  0.314385  0.047263  1
  O  O99  1  0.349056  0.814385  0.952737  1
  O  O100  1  0.851841  0.967445  0.407155  1
  O  O101  1  0.148159  0.467445  0.592845  1
  O  O102  1  0.851841  0.467445  0.092845  1
  O  O103  1  0.148159  0.967445  0.907155  1
  O  O104  1  0.383105  0.683176  0.318000  1
  O  O105  1  0.616895  0.183176  0.682000  1
  O  O106  1  0.383105  0.183176  0.182000  1
  O  O107  1  0.616895  0.683176  0.818000  1
  O  O108  1  0.038731  0.659665  0.306916  1
  O  O109  1  0.961269  0.159665  0.693084  1
  O  O110  1  0.038731  0.159665  0.193084  1
  O  O111  1  0.961269  0.659665  0.806916  1
  O  O112  1  0.186355  0.646095  0.411913  1
  O  O113  1  0.813645  0.146095  0.588087  1
  O  O114  1  0.186355  0.146095  0.088087  1
  O  O115  1  0.813645  0.646095  0.911913  1
  O  O116  1  0.167806  0.833054  0.356409  1
  O  O117  1  0.832194  0.333054  0.643591  1
  O  O118  1  0.167806  0.333054  0.143591  1
  O  O119  1  0.832194  0.833054  0.856409  1
  O  O120  1  0.484912  0.467554  0.254295  1
  O  O121  1  0.515088  0.967554  0.745705  1
  O  O122  1  0.484912  0.967554  0.245705  1
  O  O123  1  0.515088  0.467554  0.754295  1
  O  O124  1  0.432225  0.126592  0.470366  1
  O  O125  1  0.567775  0.626592  0.529634  1
  O  O126  1  0.432225  0.626592  0.029634  1
  O  O127  1  0.567775  0.126592  0.970366  1
  O  O128  1  0.204138  0.343651  0.312725  1
  O  O129  1  0.795862  0.843651  0.687275  1
  O  O130  1  0.204138  0.843651  0.187275  1
  O  O131  1  0.795862  0.343651  0.812725  1
  O  O132  1  0.019363  0.148316  0.477701  1
  O  O133  1  0.980637  0.648316  0.522299  1
  O  O134  1  0.019363  0.648316  0.022299  1
  O  O135  1  0.980637  0.148316  0.977701  1
  O  O136  1  0.889914  0.444431  0.263062  1
  O  O137  1  0.110086  0.944431  0.736938  1
  O  O138  1  0.889914  0.944431  0.236938  1
  O  O139  1  0.110086  0.444431  0.763062  1
  O  O140  1  0.292459  0.410717  0.425379  1
  O  O141  1  0.707541  0.910717  0.574621  1
  O  O142  1  0.292459  0.910717  0.074621  1
  O  O143  1  0.707541  0.410717  0.925379  1
  O  O144  1  0.734187  0.740619  0.087214  1
  O  O145  1  0.265813  0.240619  0.912786  1
  O  O146  1  0.734187  0.240619  0.412786  1
  O  O147  1  0.265813  0.740619  0.587214  1
