# generated using pymatgen
data_Mn3NbNi2(PO4)6
_symmetry_space_group_name_H-M   'P 1'
_cell_length_a   8.56259101
_cell_length_b   8.56259101
_cell_length_c   8.56259101
_cell_angle_alpha   61.09517228
_cell_angle_beta   61.09517228
_cell_angle_gamma   61.09517228
_symmetry_Int_Tables_number   1
_chemical_formula_structural   Mn3NbNi2(PO4)6
_chemical_formula_sum   'Mn3 Nb1 Ni2 P6 O24'
_cell_volume   454.85951576
_cell_formula_units_Z   1
loop_
 _symmetry_equiv_pos_site_id
 _symmetry_equiv_pos_as_xyz
  1  'x, y, z'
loop_
 _atom_site_type_symbol
 _atom_site_label
 _atom_site_symmetry_multiplicity
 _atom_site_fract_x
 _atom_site_fract_y
 _atom_site_fract_z
 _atom_site_occupancy
  Mn  Mn0  1  0.854931  0.854931  0.854931  1
  Mn  Mn1  1  0.642527  0.642527  0.642527  1
  Mn  Mn2  1  0.356840  0.356840  0.356840  1
  Nb  Nb3  1  0.142743  0.142743  0.142743  1
  Ni  Ni4  1  0.995544  0.995544  0.995544  1
  Ni  Ni5  1  0.499113  0.499113  0.499113  1
  P  P6  1  0.952123  0.251733  0.553030  1
  P  P7  1  0.553030  0.952123  0.251733  1
  P  P8  1  0.251733  0.553030  0.952123  1
  P  P9  1  0.742946  0.459633  0.045616  1
  P  P10  1  0.459633  0.045616  0.742946  1
  P  P11  1  0.045616  0.742946  0.459633  1
  O  O12  1  0.891652  0.681933  0.489763  1
  O  O13  1  0.681933  0.489763  0.891652  1
  O  O14  1  0.937175  0.089495  0.745837  1
  O  O15  1  0.489763  0.891652  0.681933  1
  O  O16  1  0.009247  0.177610  0.388946  1
  O  O17  1  0.757251  0.405164  0.553765  1
  O  O18  1  0.745837  0.937175  0.089495  1
  O  O19  1  0.553765  0.757251  0.405164  1
  O  O20  1  0.813940  0.610832  0.009078  1
  O  O21  1  0.405164  0.553765  0.757251  1
  O  O22  1  0.906542  0.257338  0.065140  1
  O  O23  1  0.610832  0.009078  0.813940  1
  O  O24  1  0.388946  0.009247  0.177610  1
  O  O25  1  0.089495  0.745837  0.937175  1
  O  O26  1  0.590454  0.439546  0.245433  1
  O  O27  1  0.177610  0.388946  0.009247  1
  O  O28  1  0.439546  0.245433  0.590454  1
  O  O29  1  0.257338  0.065140  0.906542  1
  O  O30  1  0.245433  0.590454  0.439546  1
  O  O31  1  0.009078  0.813940  0.610832  1
  O  O32  1  0.512667  0.108882  0.315530  1
  O  O33  1  0.065140  0.906542  0.257338  1
  O  O34  1  0.315530  0.512667  0.108882  1
  O  O35  1  0.108882  0.315530  0.512667  1
