# generated using pymatgen
data_LiFe2(BO3)2
_symmetry_space_group_name_H-M   'P 1'
_cell_length_a   5.24991226
_cell_length_b   9.08730800
_cell_length_c   10.20399730
_cell_angle_alpha   89.21346707
_cell_angle_beta   89.95162260
_cell_angle_gamma   89.52470429
_symmetry_Int_Tables_number   1
_chemical_formula_structural   LiFe2(BO3)2
_chemical_formula_sum   'Li4 Fe8 B8 O24'
_cell_volume   486.74516568
_cell_formula_units_Z   4
loop_
 _symmetry_equiv_pos_site_id
 _symmetry_equiv_pos_as_xyz
  1  'x, y, z'
loop_
 _atom_site_type_symbol
 _atom_site_label
 _atom_site_symmetry_multiplicity
 _atom_site_fract_x
 _atom_site_fract_y
 _atom_site_fract_z
 _atom_site_occupancy
  Li  Li0  1  0.180142  0.166142  0.157182  1
  Li  Li1  1  0.320504  0.329774  0.416968  1
  Li  Li2  1  0.336485  0.327545  0.907990  1
  Li  Li3  1  0.660292  0.677288  0.655906  1
  Fe  Fe4  1  0.150227  0.848222  0.628954  1
  Fe  Fe5  1  0.182865  0.506612  0.131988  1
  Fe  Fe6  1  0.318910  0.991038  0.874119  1
  Fe  Fe7  1  0.329901  0.673362  0.376676  1
  Fe  Fe8  1  0.681931  0.332541  0.631090  1
  Fe  Fe9  1  0.669315  0.993913  0.128514  1
  Fe  Fe10  1  0.837726  0.146504  0.383951  1
  Fe  Fe11  1  0.828476  0.507341  0.889267  1
  B  B12  1  0.175886  0.504152  0.620150  1
  B  B13  1  0.165296  0.837208  0.130506  1
  B  B14  1  0.343285  0.999446  0.370672  1
  B  B15  1  0.332569  0.662370  0.870896  1
  B  B16  1  0.654201  0.000235  0.635357  1
  B  B17  1  0.675868  0.323931  0.124413  1
  B  B18  1  0.827418  0.496322  0.384071  1
  B  B19  1  0.820369  0.166940  0.880532  1
  O  O20  1  0.091198  0.499068  0.353758  1
  O  O21  1  0.081708  0.158718  0.887039  1
  O  O22  1  0.195096  0.793955  0.847339  1
  O  O23  1  0.235536  0.874459  0.423826  1
  O  O24  1  0.213340  0.132041  0.362697  1
  O  O25  1  0.206923  0.537868  0.919133  1
  O  O26  1  0.322553  0.377123  0.619582  1
  O  O27  1  0.307511  0.959598  0.083208  1
  O  O28  1  0.285030  0.637729  0.582913  1
  O  O29  1  0.291625  0.715558  0.182303  1
  O  O30  1  0.411415  0.323403  0.116179  1
  O  O31  1  0.407218  0.007351  0.686792  1
  O  O32  1  0.588828  0.991728  0.320770  1
  O  O33  1  0.583552  0.657275  0.841552  1
  O  O34  1  0.695192  0.292769  0.830571  1
  O  O35  1  0.719775  0.361592  0.425787  1
  O  O36  1  0.678640  0.618855  0.378534  1
  O  O37  1  0.665840  0.053683  0.928597  1
  O  O38  1  0.815247  0.443944  0.089479  1
  O  O39  1  0.780633  0.871187  0.625705  1
  O  O40  1  0.763168  0.131014  0.589373  1
  O  O41  1  0.807114  0.193260  0.162944  1
  O  O42  1  0.908906  0.844514  0.125437  1
  O  O43  1  0.918710  0.498849  0.655765  1
