# generated using pymatgen
data_Li(CoO2)2
_symmetry_space_group_name_H-M   'P 1'
_cell_length_a   5.64438322
_cell_length_b   5.64438322
_cell_length_c   9.11001749
_cell_angle_alpha   90.00000000
_cell_angle_beta   90.00000000
_cell_angle_gamma   120.00000000
_symmetry_Int_Tables_number   1
_chemical_formula_structural   Li(CoO2)2
_chemical_formula_sum   'Li4 Co8 O16'
_cell_volume   251.35227845
_cell_formula_units_Z   4
loop_
 _symmetry_equiv_pos_site_id
 _symmetry_equiv_pos_as_xyz
  1  'x, y, z'
loop_
 _atom_site_type_symbol
 _atom_site_label
 _atom_site_symmetry_multiplicity
 _atom_site_fract_x
 _atom_site_fract_y
 _atom_site_fract_z
 _atom_site_occupancy
  Li  Li0  1  0.333333  0.666667  0.894099  1
  Li  Li1  1  0.000000  0.000000  0.998301  1
  Li  Li2  1  0.000000  0.000000  0.498301  1
  Li  Li3  1  0.666667  0.333333  0.394099  1
  Co  Co4  1  0.165673  0.331347  0.210583  1
  Co  Co5  1  0.333333  0.666667  0.482905  1
  Co  Co6  1  0.668653  0.834327  0.210583  1
  Co  Co7  1  0.165673  0.834327  0.210583  1
  Co  Co8  1  0.834327  0.165673  0.710583  1
  Co  Co9  1  0.666667  0.333333  0.982905  1
  Co  Co10  1  0.331347  0.165673  0.710583  1
  Co  Co11  1  0.834327  0.668653  0.710583  1
  O  O12  1  0.161817  0.323635  0.603147  1
  O  O13  1  0.479406  0.520594  0.337627  1
  O  O14  1  0.333333  0.666667  0.106377  1
  O  O15  1  0.000000  0.000000  0.308662  1
  O  O16  1  0.000000  0.000000  0.808662  1
  O  O17  1  0.676365  0.838183  0.603147  1
  O  O18  1  0.041189  0.520594  0.337627  1
  O  O19  1  0.479406  0.958811  0.337627  1
  O  O20  1  0.838183  0.161817  0.103147  1
  O  O21  1  0.161817  0.838183  0.603147  1
  O  O22  1  0.520594  0.041189  0.837627  1
  O  O23  1  0.958811  0.479406  0.837627  1
  O  O24  1  0.666667  0.333333  0.606377  1
  O  O25  1  0.323635  0.161817  0.103147  1
  O  O26  1  0.520594  0.479406  0.837627  1
  O  O27  1  0.838183  0.676365  0.103147  1
