# generated using pymatgen
data_Li3AlFeO5
_symmetry_space_group_name_H-M   'P 1'
_cell_length_a   5.06752388
_cell_length_b   5.33831370
_cell_length_c   16.22886516
_cell_angle_alpha   90.00000000
_cell_angle_beta   90.00000000
_cell_angle_gamma   90.00000000
_symmetry_Int_Tables_number   1
_chemical_formula_structural   Li3AlFeO5
_chemical_formula_sum   'Li12 Al4 Fe4 O20'
_cell_volume   439.02378213
_cell_formula_units_Z   4
loop_
 _symmetry_equiv_pos_site_id
 _symmetry_equiv_pos_as_xyz
  1  'x, y, z'
loop_
 _atom_site_type_symbol
 _atom_site_label
 _atom_site_symmetry_multiplicity
 _atom_site_fract_x
 _atom_site_fract_y
 _atom_site_fract_z
 _atom_site_occupancy
  Li  Li0  1  0.006222  0.663364  0.600903  1
  Li  Li1  1  0.006222  0.163364  0.899097  1
  Li  Li2  1  0.502839  0.328705  0.002232  1
  Li  Li3  1  0.502839  0.828705  0.497768  1
  Li  Li4  1  0.496198  0.327984  0.799161  1
  Li  Li5  1  0.496198  0.827984  0.700839  1
  Li  Li6  1  0.506222  0.336636  0.399097  1
  Li  Li7  1  0.506222  0.836636  0.100903  1
  Li  Li8  1  0.002839  0.671295  0.997768  1
  Li  Li9  1  0.002839  0.171295  0.502232  1
  Li  Li10  1  0.996198  0.172016  0.299161  1
  Li  Li11  1  0.996198  0.672016  0.200839  1
  Al  Al12  1  0.995409  0.165488  0.702412  1
  Al  Al13  1  0.995409  0.665488  0.797588  1
  Al  Al14  1  0.495409  0.334512  0.202412  1
  Al  Al15  1  0.495409  0.834512  0.297588  1
  Fe  Fe16  1  0.002491  0.168861  0.099433  1
  Fe  Fe17  1  0.002491  0.668861  0.400567  1
  Fe  Fe18  1  0.502491  0.331139  0.599433  1
  Fe  Fe19  1  0.502491  0.831139  0.900567  1
  O  O20  1  0.096460  0.347000  0.789458  1
  O  O21  1  0.096460  0.847000  0.710542  1
  O  O22  1  0.113897  0.354934  0.402463  1
  O  O23  1  0.113897  0.854934  0.097537  1
  O  O24  1  0.109671  0.305639  0.005531  1
  O  O25  1  0.109671  0.805639  0.494469  1
  O  O26  1  0.141701  0.324247  0.195783  1
  O  O27  1  0.141701  0.824247  0.304217  1
  O  O28  1  0.130113  0.300128  0.611167  1
  O  O29  1  0.130113  0.800128  0.888833  1
  O  O30  1  0.596460  0.653000  0.210542  1
  O  O31  1  0.596460  0.153000  0.289458  1
  O  O32  1  0.613897  0.645066  0.597537  1
  O  O33  1  0.613897  0.145066  0.902463  1
  O  O34  1  0.609671  0.194361  0.505531  1
  O  O35  1  0.609671  0.694361  0.994469  1
  O  O36  1  0.641701  0.175753  0.695783  1
  O  O37  1  0.641701  0.675753  0.804217  1
  O  O38  1  0.630113  0.199872  0.111167  1
  O  O39  1  0.630113  0.699872  0.388833  1
