# generated using pymatgen
data_Cd13I28
_symmetry_space_group_name_H-M   'P 1'
_cell_length_a   4.33877159
_cell_length_b   4.33877159
_cell_length_c   102.42968482
_cell_angle_alpha   90.00000000
_cell_angle_beta   90.00000000
_cell_angle_gamma   120.00000000
_symmetry_Int_Tables_number   1
_chemical_formula_structural   Cd13I28
_chemical_formula_sum   'Cd13 I28'
_cell_volume   1669.89837934
_cell_formula_units_Z   1
loop_
 _symmetry_equiv_pos_site_id
 _symmetry_equiv_pos_as_xyz
  1  'x, y, z'
loop_
 _atom_site_type_symbol
 _atom_site_label
 _atom_site_symmetry_multiplicity
 _atom_site_fract_x
 _atom_site_fract_y
 _atom_site_fract_z
 _atom_site_occupancy
  Cd  Cd0  1  0.333333  0.666667  0.017882  1
  Cd  Cd1  1  0.000000  0.000000  0.089687  1
  Cd  Cd2  1  0.000000  0.000000  0.231692  1
  Cd  Cd3  1  0.333333  0.666667  0.303586  1
  Cd  Cd4  1  0.000000  0.000000  0.375001  1
  Cd  Cd5  1  0.333333  0.666667  0.446372  1
  Cd  Cd6  1  0.000000  0.000000  0.517836  1
  Cd  Cd7  1  0.333333  0.666667  0.589305  1
  Cd  Cd8  1  0.000000  0.000000  0.660737  1
  Cd  Cd9  1  0.333333  0.666667  0.732133  1
  Cd  Cd10  1  0.000000  0.000000  0.803579  1
  Cd  Cd11  1  0.333333  0.666667  0.874983  1
  Cd  Cd12  1  0.333333  0.666667  0.946375  1
  I  I13  1  0.000000  0.000000  0.001007  1
  I  I14  1  0.666667  0.333333  0.034701  1
  I  I15  1  0.333333  0.666667  0.072780  1
  I  I16  1  0.666667  0.333333  0.106510  1
  I  I17  1  0.000000  0.000000  0.149099  1
  I  I18  1  0.666667  0.333333  0.172495  1
  I  I19  1  0.333333  0.666667  0.214840  1
  I  I20  1  0.666667  0.333333  0.248577  1
  I  I21  1  0.000000  0.000000  0.286742  1
  I  I22  1  0.666667  0.333333  0.320406  1
  I  I23  1  0.333333  0.666667  0.358154  1
  I  I24  1  0.666667  0.333333  0.391840  1
  I  I25  1  0.000000  0.000000  0.429608  1
  I  I26  1  0.666667  0.333333  0.463272  1
  I  I27  1  0.333333  0.666667  0.501021  1
  I  I28  1  0.666667  0.333333  0.534702  1
  I  I29  1  0.000000  0.000000  0.572439  1
  I  I30  1  0.666667  0.333333  0.606106  1
  I  I31  1  0.333333  0.666667  0.643851  1
  I  I32  1  0.666667  0.333333  0.677540  1
  I  I33  1  0.000000  0.000000  0.715310  1
  I  I34  1  0.666667  0.333333  0.748992  1
  I  I35  1  0.333333  0.666667  0.786734  1
  I  I36  1  0.666667  0.333333  0.820417  1
  I  I37  1  0.000000  0.000000  0.858222  1
  I  I38  1  0.666667  0.333333  0.891886  1
  I  I39  1  0.000000  0.000000  0.929607  1
  I  I40  1  0.666667  0.333333  0.963265  1
