# generated using pymatgen
data_Li6Bi5O14
_symmetry_space_group_name_H-M   'P 1'
_cell_length_a   8.20265857
_cell_length_b   8.20265857
_cell_length_c   10.66687213
_cell_angle_alpha   90.00000000
_cell_angle_beta   90.00000000
_cell_angle_gamma   95.33632842
_symmetry_Int_Tables_number   1
_chemical_formula_structural   Li6Bi5O14
_chemical_formula_sum   'Li12 Bi10 O28'
_cell_volume   714.59505251
_cell_formula_units_Z   2
loop_
 _symmetry_equiv_pos_site_id
 _symmetry_equiv_pos_as_xyz
  1  'x, y, z'
loop_
 _atom_site_type_symbol
 _atom_site_label
 _atom_site_symmetry_multiplicity
 _atom_site_fract_x
 _atom_site_fract_y
 _atom_site_fract_z
 _atom_site_occupancy
  Li  Li0  1  0.184832  0.353695  0.976440  1
  Li  Li1  1  0.353695  0.184832  0.476440  1
  Li  Li2  1  0.204388  0.504897  0.510589  1
  Li  Li3  1  0.504897  0.204388  0.010589  1
  Li  Li4  1  0.993601  0.006399  0.955577  1
  Li  Li5  1  0.727686  0.272314  0.433069  1
  Li  Li6  1  0.272314  0.727686  0.933069  1
  Li  Li7  1  0.006399  0.993601  0.455577  1
  Li  Li8  1  0.795612  0.495103  0.010589  1
  Li  Li9  1  0.495103  0.795612  0.510589  1
  Li  Li10  1  0.646305  0.815168  0.976440  1
  Li  Li11  1  0.815168  0.646305  0.476440  1
  Bi  Bi12  1  0.065168  0.238372  0.235382  1
  Bi  Bi13  1  0.238372  0.065168  0.735382  1
  Bi  Bi14  1  0.000792  0.628282  0.230184  1
  Bi  Bi15  1  0.628282  0.000792  0.730184  1
  Bi  Bi16  1  0.537524  0.462476  0.246901  1
  Bi  Bi17  1  0.462476  0.537524  0.746901  1
  Bi  Bi18  1  0.371718  0.999208  0.230184  1
  Bi  Bi19  1  0.999208  0.371718  0.730184  1
  Bi  Bi20  1  0.934832  0.761628  0.735382  1
  Bi  Bi21  1  0.761628  0.934832  0.235382  1
  O  O22  1  0.192316  0.080780  0.359147  1
  O  O23  1  0.080780  0.192316  0.859147  1
  O  O24  1  0.199635  0.275398  0.617875  1
  O  O25  1  0.275398  0.199635  0.117875  1
  O  O26  1  0.575648  0.994434  0.097436  1
  O  O27  1  0.994434  0.575648  0.597436  1
  O  O28  1  0.146149  0.457957  0.335762  1
  O  O29  1  0.457957  0.146149  0.835762  1
  O  O30  1  0.513340  0.214793  0.332679  1
  O  O31  1  0.214793  0.513340  0.832679  1
  O  O32  1  0.134273  0.865727  0.856085  1
  O  O33  1  0.589091  0.410909  0.062594  1
  O  O34  1  0.222220  0.777780  0.160400  1
  O  O35  1  0.865727  0.134273  0.356085  1
  O  O36  1  0.059628  0.940372  0.618507  1
  O  O37  1  0.777780  0.222220  0.660400  1
  O  O38  1  0.410909  0.589091  0.562594  1
  O  O39  1  0.940372  0.059628  0.118507  1
  O  O40  1  0.785207  0.486660  0.332679  1
  O  O41  1  0.486660  0.785207  0.832679  1
  O  O42  1  0.853851  0.542043  0.835762  1
  O  O43  1  0.542043  0.853851  0.335762  1
  O  O44  1  0.005566  0.424352  0.097436  1
  O  O45  1  0.424352  0.005566  0.597436  1
  O  O46  1  0.800365  0.724602  0.117875  1
  O  O47  1  0.724602  0.800365  0.617875  1
  O  O48  1  0.919220  0.807684  0.359147  1
  O  O49  1  0.807684  0.919220  0.859147  1
