# generated using pymatgen
data_Li32Mn5Cr11O48
_symmetry_space_group_name_H-M   'P 1'
_cell_length_a   5.01568716
_cell_length_b   5.01568716
_cell_length_c   38.45336405
_cell_angle_alpha   89.00863175
_cell_angle_beta   90.99136825
_cell_angle_gamma   60.39414501
_symmetry_Int_Tables_number   1
_chemical_formula_structural   Li32Mn5Cr11O48
_chemical_formula_sum   'Li32 Mn5 Cr11 O48'
_cell_volume   840.58176173
_cell_formula_units_Z   1
loop_
 _symmetry_equiv_pos_site_id
 _symmetry_equiv_pos_as_xyz
  1  'x, y, z'
loop_
 _atom_site_type_symbol
 _atom_site_label
 _atom_site_symmetry_multiplicity
 _atom_site_fract_x
 _atom_site_fract_y
 _atom_site_fract_z
 _atom_site_occupancy
  Li  Li0  1  0.908900  0.533424  0.062501  1
  Li  Li1  1  0.006006  0.121169  0.312397  1
  Li  Li2  1  0.935080  0.193331  0.124990  1
  Li  Li3  1  0.877221  0.253414  0.937464  1
  Li  Li4  1  0.818846  0.307814  0.750034  1
  Li  Li5  1  0.751206  0.374324  0.562428  1
  Li  Li6  1  0.687289  0.437485  0.374940  1
  Li  Li7  1  0.959240  0.839897  0.187595  1
  Li  Li8  1  0.634178  0.499708  0.187483  1
  Li  Li9  1  0.839897  0.959240  0.812405  1
  Li  Li10  1  0.720232  0.086424  0.437628  1
  Li  Li11  1  0.562512  0.562512  0.000000  1
  Li  Li12  1  0.499708  0.634178  0.812517  1
  Li  Li13  1  0.588016  0.215284  0.062629  1
  Li  Li14  1  0.467588  0.333363  0.687663  1
  Li  Li15  1  0.785512  0.660614  0.687532  1
  Li  Li16  1  0.660614  0.785512  0.312468  1
  Li  Li17  1  0.333363  0.467588  0.312337  1
  Li  Li18  1  0.215284  0.588016  0.937371  1
  Li  Li19  1  0.533424  0.908900  0.937499  1
  Li  Li20  1  0.413093  0.031569  0.562511  1
  Li  Li21  1  0.437485  0.687289  0.625060  1
  Li  Li22  1  0.282987  0.160517  0.187399  1
  Li  Li23  1  0.160517  0.282987  0.812601  1
  Li  Li24  1  0.374324  0.751206  0.437572  1
  Li  Li25  1  0.031569  0.413093  0.437489  1
  Li  Li26  1  0.307814  0.818846  0.249966  1
  Li  Li27  1  0.253414  0.877221  0.062536  1
  Li  Li28  1  0.193331  0.935080  0.875010  1
  Li  Li29  1  0.121169  0.006006  0.687603  1
  Li  Li30  1  0.060159  0.060159  0.500000  1
  Li  Li31  1  0.086424  0.720232  0.562372  1
  Mn  Mn32  1  0.978826  0.479152  0.250081  1
  Mn  Mn33  1  0.854707  0.605013  0.875031  1
  Mn  Mn34  1  0.729826  0.729826  0.500000  1
  Mn  Mn35  1  0.605013  0.854707  0.124969  1
  Mn  Mn36  1  0.479152  0.978826  0.749919  1
  Cr  Cr37  1  0.892168  0.892168  0.000000  1
  Cr  Cr38  1  0.766633  0.016428  0.625016  1
  Cr  Cr39  1  0.639344  0.151910  0.249933  1
  Cr  Cr40  1  0.526795  0.267031  0.874997  1
  Cr  Cr41  1  0.391434  0.391434  0.500000  1
  Cr  Cr42  1  0.267031  0.526795  0.125003  1
  Cr  Cr43  1  0.358568  0.108827  0.374994  1
  Cr  Cr44  1  0.233395  0.233395  0.000000  1
  Cr  Cr45  1  0.108827  0.358568  0.625006  1
  Cr  Cr46  1  0.151910  0.639344  0.750067  1
  Cr  Cr47  1  0.016428  0.766633  0.374984  1
  O  O48  1  0.907056  0.581123  0.971771  1
  O  O49  1  0.938478  0.538662  0.153314  1
  O  O50  1  0.930064  0.194983  0.028499  1
  O  O51  1  0.803674  0.320932  0.653329  1
  O  O52  1  0.951254  0.179814  0.221040  1
  O  O53  1  0.816206  0.306447  0.846524  1
  O  O54  1  0.694412  0.430561  0.471586  1
  O  O55  1  0.681313  0.439332  0.278424  1
  O  O56  1  0.555373  0.576421  0.903913  1
  O  O57  1  0.933380  0.832964  0.097081  1
  O  O58  1  0.576421  0.555373  0.096087  1
  O  O59  1  0.803351  0.963089  0.722045  1
  O  O60  1  0.667374  0.094252  0.346518  1
  O  O61  1  0.963089  0.803351  0.277955  1
  O  O62  1  0.832964  0.933380  0.902919  1
  O  O63  1  0.718863  0.047649  0.528312  1
  O  O64  1  0.781155  0.707007  0.596658  1
  O  O65  1  0.821156  0.662985  0.777793  1
  O  O66  1  0.707007  0.781155  0.403342  1
  O  O67  1  0.543889  0.218001  0.971681  1
  O  O68  1  0.417163  0.344394  0.596613  1
  O  O69  1  0.585739  0.179904  0.153003  1
  O  O70  1  0.460081  0.306442  0.777857  1
  O  O71  1  0.344394  0.417163  0.403387  1
  O  O72  1  0.662985  0.821156  0.222207  1
  O  O73  1  0.538662  0.938478  0.846686  1
  O  O74  1  0.414015  0.072530  0.472087  1
  O  O75  1  0.581123  0.907056  0.028229  1
  O  O76  1  0.457634  0.029644  0.653336  1
  O  O77  1  0.306442  0.460081  0.222143  1
  O  O78  1  0.179904  0.585739  0.846997  1
  O  O79  1  0.218001  0.543889  0.028319  1
  O  O80  1  0.288553  0.194870  0.097045  1
  O  O81  1  0.163416  0.312599  0.721688  1
  O  O82  1  0.029644  0.457634  0.346664  1
  O  O83  1  0.312599  0.163416  0.278312  1
  O  O84  1  0.194870  0.288553  0.902955  1
  O  O85  1  0.430561  0.694412  0.528414  1
  O  O86  1  0.072530  0.414015  0.527913  1
  O  O87  1  0.439332  0.681313  0.721576  1
  O  O88  1  0.320932  0.803674  0.346671  1
  O  O89  1  0.306447  0.816206  0.153476  1
  O  O90  1  0.179814  0.951254  0.778960  1
  O  O91  1  0.054697  0.070525  0.403308  1
  O  O92  1  0.194983  0.930064  0.971501  1
  O  O93  1  0.070525  0.054697  0.596692  1
  O  O94  1  0.047649  0.718863  0.471688  1
  O  O95  1  0.094252  0.667374  0.653482  1
