# generated using pymatgen
data_Li2MnP2O7
_symmetry_space_group_name_H-M   'P 1'
_cell_length_a   5.13502052
_cell_length_b   6.90942815
_cell_length_c   16.30491370
_cell_angle_alpha   90.00000000
_cell_angle_beta   90.57797279
_cell_angle_gamma   90.00000000
_symmetry_Int_Tables_number   1
_chemical_formula_structural   Li2MnP2O7
_chemical_formula_sum   'Li8 Mn4 P8 O28'
_cell_volume   578.46980726
_cell_formula_units_Z   4
loop_
 _symmetry_equiv_pos_site_id
 _symmetry_equiv_pos_as_xyz
  1  'x, y, z'
loop_
 _atom_site_type_symbol
 _atom_site_label
 _atom_site_symmetry_multiplicity
 _atom_site_fract_x
 _atom_site_fract_y
 _atom_site_fract_z
 _atom_site_occupancy
  Li  Li0  1  0.743107  0.969550  0.758184  1
  Li  Li1  1  0.743107  0.530450  0.258184  1
  Li  Li2  1  0.766946  0.204594  0.492775  1
  Li  Li3  1  0.766946  0.295406  0.992775  1
  Li  Li4  1  0.233054  0.704594  0.007225  1
  Li  Li5  1  0.233054  0.795406  0.507225  1
  Li  Li6  1  0.256893  0.469550  0.741816  1
  Li  Li7  1  0.256893  0.030450  0.241816  1
  Mn  Mn8  1  0.756170  0.579107  0.631079  1
  Mn  Mn9  1  0.756170  0.920893  0.131079  1
  Mn  Mn10  1  0.243830  0.079107  0.868921  1
  Mn  Mn11  1  0.243830  0.420893  0.368921  1
  P  P12  1  0.750773  0.786886  0.927189  1
  P  P13  1  0.750773  0.713114  0.427189  1
  P  P14  1  0.756414  0.404901  0.834405  1
  P  P15  1  0.756414  0.095099  0.334405  1
  P  P16  1  0.243586  0.904901  0.665595  1
  P  P17  1  0.243586  0.595099  0.165595  1
  P  P18  1  0.249227  0.286886  0.572811  1
  P  P19  1  0.249227  0.213114  0.072811  1
  O  O20  1  0.544903  0.317525  0.575902  1
  O  O21  1  0.544903  0.182475  0.075902  1
  O  O22  1  0.592297  0.251086  0.877035  1
  O  O23  1  0.592297  0.248914  0.377035  1
  O  O24  1  0.621866  0.510715  0.762971  1
  O  O25  1  0.621866  0.989285  0.262971  1
  O  O26  1  0.805782  0.554679  0.911841  1
  O  O27  1  0.805782  0.945321  0.411841  1
  O  O28  1  0.875978  0.690711  0.512395  1
  O  O29  1  0.875978  0.809289  0.012395  1
  O  O30  1  0.895844  0.896561  0.860576  1
  O  O31  1  0.895844  0.603439  0.360576  1
  O  O32  1  0.972375  0.829933  0.687229  1
  O  O33  1  0.972375  0.670067  0.187229  1
  O  O34  1  0.027625  0.329933  0.812771  1
  O  O35  1  0.027625  0.170067  0.312771  1
  O  O36  1  0.104156  0.396561  0.639424  1
  O  O37  1  0.104156  0.103439  0.139424  1
  O  O38  1  0.124022  0.190711  0.987605  1
  O  O39  1  0.124022  0.309289  0.487605  1
  O  O40  1  0.194218  0.054679  0.588159  1
  O  O41  1  0.194218  0.445321  0.088159  1
  O  O42  1  0.378134  0.010715  0.737029  1
  O  O43  1  0.378134  0.489285  0.237029  1
  O  O44  1  0.407703  0.751086  0.622965  1
  O  O45  1  0.407703  0.748914  0.122965  1
  O  O46  1  0.455097  0.817525  0.924098  1
  O  O47  1  0.455097  0.682475  0.424098  1
