# generated using pymatgen
data_Fe4O7F
_symmetry_space_group_name_H-M   'P 1'
_cell_length_a   7.56669293
_cell_length_b   7.56669293
_cell_length_c   4.60446537
_cell_angle_alpha   88.82961807
_cell_angle_beta   91.17038193
_cell_angle_gamma   74.97430299
_symmetry_Int_Tables_number   1
_chemical_formula_structural   Fe4O7F
_chemical_formula_sum   'Fe8 O14 F2'
_cell_volume   254.47096040
_cell_formula_units_Z   2
loop_
 _symmetry_equiv_pos_site_id
 _symmetry_equiv_pos_as_xyz
  1  'x, y, z'
loop_
 _atom_site_type_symbol
 _atom_site_label
 _atom_site_symmetry_multiplicity
 _atom_site_fract_x
 _atom_site_fract_y
 _atom_site_fract_z
 _atom_site_occupancy
  Fe  Fe0  1  0.629125  0.622807  0.498511  1
  Fe  Fe1  1  0.866724  0.886727  0.515819  1
  Fe  Fe2  1  0.377193  0.370875  0.498511  1
  Fe  Fe3  1  0.113273  0.133276  0.515819  1
  Fe  Fe4  1  0.746056  0.253944  0.006404  1
  Fe  Fe5  1  0.509063  0.002925  0.993257  1
  Fe  Fe6  1  0.266268  0.733732  0.969832  1
  Fe  Fe7  1  0.997075  0.490937  0.993257  1
  O  O8  1  0.961074  0.276200  0.814377  1
  O  O9  1  0.480158  0.783809  0.804694  1
  O  O10  1  0.723800  0.038926  0.814377  1
  O  O11  1  0.216191  0.519842  0.804694  1
  O  O12  1  0.595551  0.404449  0.703345  1
  O  O13  1  0.849635  0.655669  0.691737  1
  O  O14  1  0.097762  0.902238  0.688386  1
  O  O15  1  0.344331  0.150365  0.691737  1
  O  O16  1  0.898670  0.101330  0.306993  1
  O  O17  1  0.656128  0.848844  0.305878  1
  O  O18  1  0.151156  0.343872  0.305878  1
  O  O19  1  0.405480  0.594520  0.307865  1
  O  O20  1  0.529554  0.221225  0.191827  1
  O  O21  1  0.778775  0.470446  0.191827  1
  F  F22  1  0.029750  0.722793  0.192486  1
  F  F23  1  0.277207  0.970250  0.192486  1
