# generated using pymatgen
data_Sr3Li2
_symmetry_space_group_name_H-M   'P 1'
_cell_length_a   9.71659373
_cell_length_b   9.71659373
_cell_length_c   8.73377638
_cell_angle_alpha   90.00000000
_cell_angle_beta   90.00000000
_cell_angle_gamma   90.00000000
_symmetry_Int_Tables_number   1
_chemical_formula_structural   Sr3Li2
_chemical_formula_sum   'Sr12 Li8'
_cell_volume   824.57498744
_cell_formula_units_Z   4
loop_
 _symmetry_equiv_pos_site_id
 _symmetry_equiv_pos_as_xyz
  1  'x, y, z'
loop_
 _atom_site_type_symbol
 _atom_site_label
 _atom_site_symmetry_multiplicity
 _atom_site_fract_x
 _atom_site_fract_y
 _atom_site_fract_z
 _atom_site_occupancy
  Sr  Sr0  1  0.850320  0.149680  0.000000  1
  Sr  Sr1  1  0.649680  0.649680  0.500000  1
  Sr  Sr2  1  0.350320  0.350320  0.500000  1
  Sr  Sr3  1  0.149680  0.850320  0.000000  1
  Sr  Sr4  1  0.711540  0.711540  0.000000  1
  Sr  Sr5  1  0.211540  0.788460  0.500000  1
  Sr  Sr6  1  0.788460  0.211540  0.500000  1
  Sr  Sr7  1  0.288460  0.288460  0.000000  1
  Sr  Sr8  1  0.000000  0.500000  0.750000  1
  Sr  Sr9  1  0.000000  0.500000  0.250000  1
  Sr  Sr10  1  0.500000  0.000000  0.750000  1
  Sr  Sr11  1  0.500000  0.000000  0.250000  1
  Li  Li12  1  0.887223  0.887223  0.681876  1
  Li  Li13  1  0.112777  0.112777  0.681876  1
  Li  Li14  1  0.612777  0.387223  0.181876  1
  Li  Li15  1  0.387223  0.612777  0.181876  1
  Li  Li16  1  0.887223  0.887223  0.318124  1
  Li  Li17  1  0.387223  0.612777  0.818124  1
  Li  Li18  1  0.612777  0.387223  0.818124  1
  Li  Li19  1  0.112777  0.112777  0.318124  1
