# generated using pymatgen
data_Li2MgTi3O8
_symmetry_space_group_name_H-M   'P 1'
_cell_length_a   8.45034993
_cell_length_b   8.45034993
_cell_length_c   8.45034993
_cell_angle_alpha   90.00000000
_cell_angle_beta   90.00000000
_cell_angle_gamma   90.00000000
_symmetry_Int_Tables_number   1
_chemical_formula_structural   Li2MgTi3O8
_chemical_formula_sum   'Li8 Mg4 Ti12 O32'
_cell_volume   603.42608573
_cell_formula_units_Z   4
loop_
 _symmetry_equiv_pos_site_id
 _symmetry_equiv_pos_as_xyz
  1  'x, y, z'
loop_
 _atom_site_type_symbol
 _atom_site_label
 _atom_site_symmetry_multiplicity
 _atom_site_fract_x
 _atom_site_fract_y
 _atom_site_fract_z
 _atom_site_occupancy
  Li  Li0  1  0.002409  0.497591  0.502409  1
  Li  Li1  1  0.124555  0.875445  0.375445  1
  Li  Li2  1  0.375445  0.124555  0.875445  1
  Li  Li3  1  0.497591  0.502409  0.002409  1
  Li  Li4  1  0.502409  0.002409  0.497591  1
  Li  Li5  1  0.624555  0.624555  0.624555  1
  Li  Li6  1  0.875445  0.375445  0.124555  1
  Li  Li7  1  0.997591  0.997591  0.997591  1
  Mg  Mg8  1  0.247069  0.747069  0.752931  1
  Mg  Mg9  1  0.252931  0.252931  0.252931  1
  Mg  Mg10  1  0.747069  0.752931  0.247069  1
  Mg  Mg11  1  0.752931  0.247069  0.747069  1
  Ti  Ti12  1  0.119857  0.626818  0.134164  1
  Ti  Ti13  1  0.126818  0.365836  0.880143  1
  Ti  Ti14  1  0.134164  0.119857  0.626818  1
  Ti  Ti15  1  0.365836  0.880143  0.126818  1
  Ti  Ti16  1  0.373182  0.634164  0.380143  1
  Ti  Ti17  1  0.380143  0.373182  0.634164  1
  Ti  Ti18  1  0.619857  0.873182  0.865836  1
  Ti  Ti19  1  0.626818  0.134164  0.119857  1
  Ti  Ti20  1  0.634164  0.380143  0.373182  1
  Ti  Ti21  1  0.865836  0.619857  0.873182  1
  Ti  Ti22  1  0.873182  0.865836  0.619857  1
  Ti  Ti23  1  0.880143  0.126818  0.365836  1
  O  O24  1  0.107019  0.128188  0.389460  1
  O  O25  1  0.111802  0.611802  0.888198  1
  O  O26  1  0.110540  0.892981  0.628188  1
  O  O27  1  0.122115  0.144185  0.858909  1
  O  O28  1  0.128188  0.389460  0.107019  1
  O  O29  1  0.141091  0.622115  0.355815  1
  O  O30  1  0.138785  0.361215  0.638785  1
  O  O31  1  0.144185  0.858909  0.122115  1
  O  O32  1  0.355815  0.141091  0.622115  1
  O  O33  1  0.361215  0.638785  0.138785  1
  O  O34  1  0.358909  0.377885  0.855815  1
  O  O35  1  0.371812  0.610540  0.607019  1
  O  O36  1  0.377885  0.855815  0.358909  1
  O  O37  1  0.389460  0.107019  0.128188  1
  O  O38  1  0.388198  0.388198  0.388198  1
  O  O39  1  0.392981  0.871812  0.889460  1
  O  O40  1  0.607019  0.371812  0.610540  1
  O  O41  1  0.611802  0.888198  0.111802  1
  O  O42  1  0.610540  0.607019  0.371812  1
  O  O43  1  0.622115  0.355815  0.141091  1
  O  O44  1  0.628188  0.110540  0.892981  1
  O  O45  1  0.641091  0.877885  0.644185  1
  O  O46  1  0.638785  0.138785  0.361215  1
  O  O47  1  0.644185  0.641091  0.877885  1
  O  O48  1  0.855815  0.358909  0.377885  1
  O  O49  1  0.861215  0.861215  0.861215  1
  O  O50  1  0.858909  0.122115  0.144185  1
  O  O51  1  0.871812  0.889460  0.392981  1
  O  O52  1  0.877885  0.644185  0.641091  1
  O  O53  1  0.889460  0.392981  0.871812  1
  O  O54  1  0.888198  0.111802  0.611802  1
  O  O55  1  0.892981  0.628188  0.110540  1
