# generated using pymatgen
data_NaLi5Mn2P2(CO7)2
_symmetry_space_group_name_H-M   'P 1'
_cell_length_a   8.64415354
_cell_length_b   6.67204865
_cell_length_c   9.99528401
_cell_angle_alpha   90.00000000
_cell_angle_beta   92.35536460
_cell_angle_gamma   90.00000000
_symmetry_Int_Tables_number   1
_chemical_formula_structural   NaLi5Mn2P2(CO7)2
_chemical_formula_sum   'Na2 Li10 Mn4 P4 C4 O28'
_cell_volume   575.98310744
_cell_formula_units_Z   2
loop_
 _symmetry_equiv_pos_site_id
 _symmetry_equiv_pos_as_xyz
  1  'x, y, z'
loop_
 _atom_site_type_symbol
 _atom_site_label
 _atom_site_symmetry_multiplicity
 _atom_site_fract_x
 _atom_site_fract_y
 _atom_site_fract_z
 _atom_site_occupancy
  Na  Na0  1  0.247097  0.248978  0.372158  1
  Na  Na1  1  0.247097  0.751022  0.872158  1
  Li  Li2  1  0.085063  0.506963  0.127572  1
  Li  Li3  1  0.085063  0.493037  0.627572  1
  Li  Li4  1  0.270716  0.722670  0.384216  1
  Li  Li5  1  0.270716  0.277330  0.884216  1
  Li  Li6  1  0.734058  0.776894  0.114576  1
  Li  Li7  1  0.736175  0.224452  0.116314  1
  Li  Li8  1  0.736175  0.775548  0.616314  1
  Li  Li9  1  0.734058  0.223106  0.614576  1
  Li  Li10  1  0.911378  0.988422  0.371558  1
  Li  Li11  1  0.911378  0.011578  0.871558  1
  Mn  Mn12  1  0.354812  0.002641  0.113395  1
  Mn  Mn13  1  0.354812  0.997359  0.613395  1
  Mn  Mn14  1  0.649957  0.497763  0.389351  1
  Mn  Mn15  1  0.649957  0.502237  0.889351  1
  P  P16  1  0.409922  0.505419  0.147755  1
  P  P17  1  0.409922  0.494581  0.647755  1
  P  P18  1  0.595142  0.993643  0.357783  1
  P  P19  1  0.595142  0.006357  0.857783  1
  C  C20  1  0.038465  0.998412  0.134725  1
  C  C21  1  0.038465  0.001588  0.634725  1
  C  C22  1  0.958095  0.509547  0.360392  1
  C  C23  1  0.958095  0.490453  0.860392  1
  O  O24  1  0.100898  0.534858  0.327702  1
  O  O25  1  0.100898  0.465142  0.827702  1
  O  O26  1  0.078933  0.996126  0.011129  1
  O  O27  1  0.078933  0.003874  0.511129  1
  O  O28  1  0.143897  0.000589  0.231275  1
  O  O29  1  0.143897  0.999411  0.731275  1
  O  O30  1  0.310245  0.320315  0.102443  1
  O  O31  1  0.314988  0.688565  0.095586  1
  O  O32  1  0.314988  0.311435  0.595586  1
  O  O33  1  0.310245  0.679685  0.602443  1
  O  O34  1  0.423167  0.513930  0.304042  1
  O  O35  1  0.426861  0.978536  0.406194  1
  O  O36  1  0.423167  0.486070  0.804042  1
  O  O37  1  0.426861  0.021464  0.906194  1
  O  O38  1  0.577314  0.497567  0.096613  1
  O  O39  1  0.584471  0.998937  0.200832  1
  O  O40  1  0.577314  0.502433  0.596613  1
  O  O41  1  0.584471  0.001063  0.700832  1
  O  O42  1  0.698438  0.815258  0.407339  1
  O  O43  1  0.683405  0.181155  0.412139  1
  O  O44  1  0.683405  0.818845  0.912139  1
  O  O45  1  0.698438  0.184742  0.907339  1
  O  O46  1  0.851653  0.493969  0.264850  1
  O  O47  1  0.851653  0.506031  0.764850  1
  O  O48  1  0.921313  0.498909  0.484725  1
  O  O49  1  0.921313  0.501091  0.984725  1
  O  O50  1  0.893534  0.998635  0.165337  1
  O  O51  1  0.893534  0.001365  0.665337  1
