# generated using pymatgen
data_Ti3Ni3(TeO8)2
_symmetry_space_group_name_H-M   'P 1'
_cell_length_a   5.97604445
_cell_length_b   5.97604445
_cell_length_c   9.23429368
_cell_angle_alpha   88.86574421
_cell_angle_beta   91.13425579
_cell_angle_gamma   120.73924220
_symmetry_Int_Tables_number   1
_chemical_formula_structural   Ti3Ni3(TeO8)2
_chemical_formula_sum   'Ti3 Ni3 Te2 O16'
_cell_volume   283.37776212
_cell_formula_units_Z   1
loop_
 _symmetry_equiv_pos_site_id
 _symmetry_equiv_pos_as_xyz
  1  'x, y, z'
loop_
 _atom_site_type_symbol
 _atom_site_label
 _atom_site_symmetry_multiplicity
 _atom_site_fract_x
 _atom_site_fract_y
 _atom_site_fract_z
 _atom_site_occupancy
  Ti  Ti0  1  0.337604  0.164647  0.209198  1
  Ti  Ti1  1  0.835353  0.662396  0.209198  1
  Ti  Ti2  1  0.157862  0.842138  0.716858  1
  Ni  Ni3  1  0.828251  0.171749  0.205665  1
  Ni  Ni4  1  0.164661  0.341899  0.708192  1
  Ni  Ni5  1  0.658101  0.835339  0.708192  1
  Te  Te6  1  0.673496  0.326504  0.488131  1
  Te  Te7  1  0.338157  0.661843  0.983098  1
  O  O8  1  0.356408  0.163189  0.601400  1
  O  O9  1  0.525735  0.474265  0.346238  1
  O  O10  1  0.649915  0.350085  0.101205  1
  O  O11  1  0.005762  0.994238  0.296395  1
  O  O12  1  0.993658  0.006342  0.800696  1
  O  O13  1  0.836811  0.643592  0.601400  1
  O  O14  1  0.510911  0.041847  0.348294  1
  O  O15  1  0.958153  0.489089  0.348294  1
  O  O16  1  0.181732  0.818268  0.105661  1
  O  O17  1  0.836776  0.163224  0.592437  1
  O  O18  1  0.038907  0.533256  0.848850  1
  O  O19  1  0.466744  0.961093  0.848850  1
  O  O20  1  0.333839  0.666161  0.613524  1
  O  O21  1  0.180581  0.346653  0.097573  1
  O  O22  1  0.477310  0.522690  0.838841  1
  O  O23  1  0.653347  0.819419  0.097573  1
