# generated using pymatgen
data_W2OF8
_symmetry_space_group_name_H-M   'P 1'
_cell_length_a   9.23492042
_cell_length_b   5.50792134
_cell_length_c   15.97726866
_cell_angle_alpha   90.00000000
_cell_angle_beta   105.65947948
_cell_angle_gamma   90.00000000
_symmetry_Int_Tables_number   1
_chemical_formula_structural   W2OF8
_chemical_formula_sum   'W8 O4 F32'
_cell_volume   782.52260009
_cell_formula_units_Z   4
loop_
 _symmetry_equiv_pos_site_id
 _symmetry_equiv_pos_as_xyz
  1  'x, y, z'
loop_
 _atom_site_type_symbol
 _atom_site_label
 _atom_site_symmetry_multiplicity
 _atom_site_fract_x
 _atom_site_fract_y
 _atom_site_fract_z
 _atom_site_occupancy
  W  W0  1  0.611968  0.808558  0.876125  1
  W  W1  1  0.611968  0.191442  0.376125  1
  W  W2  1  0.979464  0.077911  0.843106  1
  W  W3  1  0.020536  0.077911  0.656894  1
  W  W4  1  0.979464  0.922089  0.343106  1
  W  W5  1  0.020536  0.922089  0.156894  1
  W  W6  1  0.388032  0.808558  0.623875  1
  W  W7  1  0.388032  0.191442  0.123875  1
  O  O8  1  0.789118  0.932839  0.867590  1
  O  O9  1  0.789118  0.067161  0.367590  1
  O  O10  1  0.210882  0.932839  0.632410  1
  O  O11  1  0.210882  0.067161  0.132410  1
  F  F12  1  0.500000  0.930022  0.750000  1
  F  F13  1  0.550345  0.109901  0.911283  1
  F  F14  1  0.687084  0.671437  0.985675  1
  F  F15  1  0.632426  0.525173  0.813755  1
  F  F16  1  0.583763  0.698107  0.623388  1
  F  F17  1  0.500000  0.069978  0.250000  1
  F  F18  1  0.550345  0.890099  0.411283  1
  F  F19  1  0.687084  0.328563  0.485675  1
  F  F20  1  0.632426  0.474827  0.313755  1
  F  F21  1  0.583763  0.301893  0.123388  1
  F  F22  1  0.853772  0.199968  0.719703  1
  F  F23  1  0.958950  0.380229  0.897595  1
  F  F24  1  0.887661  0.902281  0.563577  1
  F  F25  1  0.000000  0.813143  0.750000  1
  F  F26  1  0.853772  0.800032  0.219703  1
  F  F27  1  0.112339  0.902281  0.936423  1
  F  F28  1  0.958950  0.619771  0.397595  1
  F  F29  1  0.041050  0.380229  0.602405  1
  F  F30  1  0.887661  0.097719  0.063577  1
  F  F31  1  0.146228  0.199968  0.780297  1
  F  F32  1  0.000000  0.186857  0.250000  1
  F  F33  1  0.112339  0.097719  0.436423  1
  F  F34  1  0.041050  0.619771  0.102405  1
  F  F35  1  0.146228  0.800032  0.280297  1
  F  F36  1  0.416237  0.698107  0.876612  1
  F  F37  1  0.367574  0.525173  0.686245  1
  F  F38  1  0.312916  0.671437  0.514325  1
  F  F39  1  0.449655  0.109901  0.588717  1
  F  F40  1  0.416237  0.301893  0.376612  1
  F  F41  1  0.367574  0.474827  0.186245  1
  F  F42  1  0.312916  0.328563  0.014325  1
  F  F43  1  0.449655  0.890099  0.088717  1
