# generated using pymatgen
data_LiSbO3
_symmetry_space_group_name_H-M   'P 1'
_cell_length_a   5.40736308
_cell_length_b   5.40736308
_cell_length_c   5.21453133
_cell_angle_alpha   82.64105749
_cell_angle_beta   97.35894251
_cell_angle_gamma   57.25001585
_symmetry_Int_Tables_number   1
_chemical_formula_structural   LiSbO3
_chemical_formula_sum   'Li2 Sb2 O6'
_cell_volume   123.56572440
_cell_formula_units_Z   2
loop_
 _symmetry_equiv_pos_site_id
 _symmetry_equiv_pos_as_xyz
  1  'x, y, z'
loop_
 _atom_site_type_symbol
 _atom_site_label
 _atom_site_symmetry_multiplicity
 _atom_site_fract_x
 _atom_site_fract_y
 _atom_site_fract_z
 _atom_site_occupancy
  Li  Li0  1  0.652487  0.652487  0.000000  1
  Li  Li1  1  0.347513  0.347513  0.000000  1
  Sb  Sb2  1  0.838064  0.838064  0.500000  1
  Sb  Sb3  1  0.161936  0.161936  0.500000  1
  O  O4  1  0.795195  0.204805  0.286422  1
  O  O5  1  0.204805  0.795195  0.713578  1
  O  O6  1  0.440810  0.958690  0.266444  1
  O  O7  1  0.958690  0.440810  0.733556  1
  O  O8  1  0.559190  0.041310  0.733556  1
  O  O9  1  0.041310  0.559190  0.266444  1
