# generated using pymatgen
data_Mn3CrCo2(PO4)6
_symmetry_space_group_name_H-M   'P 1'
_cell_length_a   8.48783951
_cell_length_b   8.48783951
_cell_length_c   8.48783951
_cell_angle_alpha   60.69989479
_cell_angle_beta   60.69989479
_cell_angle_gamma   60.69989479
_symmetry_Int_Tables_number   1
_chemical_formula_structural   Mn3CrCo2(PO4)6
_chemical_formula_sum   'Mn3 Cr1 Co2 P6 O24'
_cell_volume   439.22120839
_cell_formula_units_Z   1
loop_
 _symmetry_equiv_pos_site_id
 _symmetry_equiv_pos_as_xyz
  1  'x, y, z'
loop_
 _atom_site_type_symbol
 _atom_site_label
 _atom_site_symmetry_multiplicity
 _atom_site_fract_x
 _atom_site_fract_y
 _atom_site_fract_z
 _atom_site_occupancy
  Mn  Mn0  1  0.642132  0.642132  0.642132  1
  Mn  Mn1  1  0.857691  0.857691  0.857691  1
  Mn  Mn2  1  0.357392  0.357392  0.357392  1
  Cr  Cr3  1  0.140829  0.140829  0.140829  1
  Co  Co4  1  0.000118  0.000118  0.000118  1
  Co  Co5  1  0.499353  0.499353  0.499353  1
  P  P6  1  0.958751  0.250000  0.542383  1
  P  P7  1  0.542383  0.958751  0.250000  1
  P  P8  1  0.250000  0.542383  0.958751  1
  P  P9  1  0.749709  0.459022  0.039621  1
  P  P10  1  0.459022  0.039621  0.749709  1
  P  P11  1  0.039621  0.749709  0.459022  1
  O  O12  1  0.512217  0.118202  0.308023  1
  O  O13  1  0.308023  0.512217  0.118202  1
  O  O14  1  0.118202  0.308023  0.512217  1
  O  O15  1  0.939722  0.089813  0.742647  1
  O  O16  1  0.991219  0.189885  0.385466  1
  O  O17  1  0.759621  0.417143  0.555641  1
  O  O18  1  0.742647  0.939722  0.089813  1
  O  O19  1  0.555641  0.759621  0.417143  1
  O  O20  1  0.808076  0.617983  0.009552  1
  O  O21  1  0.417143  0.555641  0.759621  1
  O  O22  1  0.910635  0.261018  0.054984  1
  O  O23  1  0.617983  0.009552  0.808076  1
  O  O24  1  0.385466  0.991219  0.189885  1
  O  O25  1  0.089813  0.742647  0.939722  1
  O  O26  1  0.585749  0.444769  0.238292  1
  O  O27  1  0.189885  0.385466  0.991219  1
  O  O28  1  0.444769  0.238292  0.585749  1
  O  O29  1  0.261018  0.054984  0.910635  1
  O  O30  1  0.238292  0.585749  0.444769  1
  O  O31  1  0.009552  0.808076  0.617983  1
  O  O32  1  0.054984  0.910635  0.261018  1
  O  O33  1  0.879723  0.687207  0.495425  1
  O  O34  1  0.687207  0.495425  0.879723  1
  O  O35  1  0.495425  0.879723  0.687207  1
