# generated using pymatgen
data_Sr5Ta4O15
_symmetry_space_group_name_H-M   'P 1'
_cell_length_a   5.71537515
_cell_length_b   5.71537515
_cell_length_c   11.71317517
_cell_angle_alpha   90.00000000
_cell_angle_beta   90.00000000
_cell_angle_gamma   120.00000000
_symmetry_Int_Tables_number   1
_chemical_formula_structural   Sr5Ta4O15
_chemical_formula_sum   'Sr5 Ta4 O15'
_cell_volume   331.35593510
_cell_formula_units_Z   1
loop_
 _symmetry_equiv_pos_site_id
 _symmetry_equiv_pos_as_xyz
  1  'x, y, z'
loop_
 _atom_site_type_symbol
 _atom_site_label
 _atom_site_symmetry_multiplicity
 _atom_site_fract_x
 _atom_site_fract_y
 _atom_site_fract_z
 _atom_site_occupancy
  Sr  Sr0  1  0.333333  0.666667  0.443874  1
  Sr  Sr1  1  0.333333  0.666667  0.778253  1
  Sr  Sr2  1  0.000000  0.000000  0.000000  1
  Sr  Sr3  1  0.666667  0.333333  0.221747  1
  Sr  Sr4  1  0.666667  0.333333  0.556126  1
  Ta  Ta5  1  0.333333  0.666667  0.103942  1
  Ta  Ta6  1  0.000000  0.000000  0.314874  1
  Ta  Ta7  1  0.000000  0.000000  0.685126  1
  Ta  Ta8  1  0.666667  0.333333  0.896058  1
  O  O9  1  0.168386  0.831614  0.610512  1
  O  O10  1  0.000000  0.500000  0.000000  1
  O  O11  1  0.164776  0.835224  0.191349  1
  O  O12  1  0.164776  0.329552  0.191349  1
  O  O13  1  0.168386  0.336772  0.610512  1
  O  O14  1  0.336772  0.168386  0.389488  1
  O  O15  1  0.670448  0.835224  0.191349  1
  O  O16  1  0.500000  0.500000  0.000000  1
  O  O17  1  0.329552  0.164776  0.808651  1
  O  O18  1  0.663228  0.831614  0.610512  1
  O  O19  1  0.500000  0.000000  0.000000  1
  O  O20  1  0.835224  0.670448  0.808651  1
  O  O21  1  0.831614  0.663228  0.389488  1
  O  O22  1  0.835224  0.164776  0.808651  1
  O  O23  1  0.831614  0.168386  0.389488  1
