# generated using pymatgen
data_Cs5YO4
_symmetry_space_group_name_H-M   'P 1'
_cell_length_a   7.00746815
_cell_length_b   8.61926099
_cell_length_c   9.94427180
_cell_angle_alpha   90.00000000
_cell_angle_beta   90.00000000
_cell_angle_gamma   90.00000000
_symmetry_Int_Tables_number   1
_chemical_formula_structural   Cs5YO4
_chemical_formula_sum   'Cs10 Y2 O8'
_cell_volume   600.62603012
_cell_formula_units_Z   2
loop_
 _symmetry_equiv_pos_site_id
 _symmetry_equiv_pos_as_xyz
  1  'x, y, z'
loop_
 _atom_site_type_symbol
 _atom_site_label
 _atom_site_symmetry_multiplicity
 _atom_site_fract_x
 _atom_site_fract_y
 _atom_site_fract_z
 _atom_site_occupancy
  Cs  Cs0  1  0.255038  0.736992  0.687145  1
  Cs  Cs1  1  0.255038  0.263008  0.687145  1
  Cs  Cs2  1  0.816823  0.000000  0.500000  1
  Cs  Cs3  1  0.255038  0.736992  0.312855  1
  Cs  Cs4  1  0.255038  0.263008  0.312855  1
  Cs  Cs5  1  0.744962  0.763008  0.187145  1
  Cs  Cs6  1  0.744962  0.236992  0.187145  1
  Cs  Cs7  1  0.183177  0.500000  0.000000  1
  Cs  Cs8  1  0.744962  0.763008  0.812855  1
  Cs  Cs9  1  0.744962  0.236992  0.812855  1
  Y  Y10  1  0.777578  0.500000  0.500000  1
  Y  Y11  1  0.222422  0.000000  0.000000  1
  O  O12  1  0.946391  0.500000  0.686574  1
  O  O13  1  0.613031  0.714953  0.500000  1
  O  O14  1  0.613031  0.285047  0.500000  1
  O  O15  1  0.946391  0.500000  0.313426  1
  O  O16  1  0.053609  0.000000  0.186574  1
  O  O17  1  0.386969  0.785047  0.000000  1
  O  O18  1  0.386969  0.214953  0.000000  1
  O  O19  1  0.053609  0.000000  0.813426  1
