# generated using pymatgen
data_LiMnF4
_symmetry_space_group_name_H-M   'P 1'
_cell_length_a   7.02374068
_cell_length_b   7.02374068
_cell_length_c   10.71111380
_cell_angle_alpha   90.00000000
_cell_angle_beta   90.00000000
_cell_angle_gamma   120.00000000
_symmetry_Int_Tables_number   1
_chemical_formula_structural   LiMnF4
_chemical_formula_sum   'Li6 Mn6 F24'
_cell_volume   457.61705538
_cell_formula_units_Z   6
loop_
 _symmetry_equiv_pos_site_id
 _symmetry_equiv_pos_as_xyz
  1  'x, y, z'
loop_
 _atom_site_type_symbol
 _atom_site_label
 _atom_site_symmetry_multiplicity
 _atom_site_fract_x
 _atom_site_fract_y
 _atom_site_fract_z
 _atom_site_occupancy
  Li  Li0  1  0.157898  0.746509  0.323184  1
  Li  Li1  1  0.253491  0.411389  0.656517  1
  Li  Li2  1  0.588611  0.842102  0.989850  1
  Li  Li3  1  0.457629  0.328421  0.087063  1
  Li  Li4  1  0.870792  0.542371  0.753730  1
  Li  Li5  1  0.671579  0.129208  0.420397  1
  Mn  Mn6  1  0.009786  0.842639  0.011588  1
  Mn  Mn7  1  0.992062  0.370073  0.067697  1
  Mn  Mn8  1  0.378011  0.007938  0.734364  1
  Mn  Mn9  1  0.157361  0.167147  0.344922  1
  Mn  Mn10  1  0.629927  0.621989  0.401031  1
  Mn  Mn11  1  0.832853  0.990214  0.678255  1
  F  F12  1  0.095179  0.643378  0.154643  1
  F  F13  1  0.277242  0.004799  0.929912  1
  F  F14  1  0.181366  0.716151  0.687035  1
  F  F15  1  0.995201  0.272443  0.263246  1
  F  F16  1  0.283849  0.465215  0.020368  1
  F  F17  1  0.185242  0.095518  0.665801  1
  F  F18  1  0.548198  0.904821  0.821309  1
  F  F19  1  0.356622  0.451802  0.487976  1
  F  F20  1  0.534785  0.818634  0.353701  1
  F  F21  1  0.171700  0.041907  0.152412  1
  F  F22  1  0.427514  0.396851  0.261224  1
  F  F23  1  0.312226  0.034758  0.405011  1
  F  F24  1  0.727557  0.722758  0.596579  1
  F  F25  1  0.567084  0.307400  0.763664  1
  F  F26  1  0.722532  0.687774  0.071677  1
  F  F27  1  0.870207  0.828300  0.819079  1
  F  F28  1  0.910276  0.814758  0.332467  1
  F  F29  1  0.740316  0.432916  0.430331  1
  F  F30  1  0.603149  0.030663  0.594558  1
  F  F31  1  0.969337  0.572486  0.927891  1
  F  F32  1  0.692600  0.259684  0.096998  1
  F  F33  1  0.965242  0.277468  0.738344  1
  F  F34  1  0.958093  0.129793  0.485745  1
  F  F35  1  0.904482  0.089724  0.999134  1
