# generated using pymatgen
data_Ba(CuO)2
_symmetry_space_group_name_H-M   'P 1'
_cell_length_a   6.52359171
_cell_length_b   6.52359171
_cell_length_c   6.52359171
_cell_angle_alpha   127.23678837
_cell_angle_beta   127.23678837
_cell_angle_gamma   77.86470510
_symmetry_Int_Tables_number   1
_chemical_formula_structural   Ba(CuO)2
_chemical_formula_sum   'Ba2 Cu4 O4'
_cell_volume   170.56239969
_cell_formula_units_Z   2
loop_
 _symmetry_equiv_pos_site_id
 _symmetry_equiv_pos_as_xyz
  1  'x, y, z'
loop_
 _atom_site_type_symbol
 _atom_site_label
 _atom_site_symmetry_multiplicity
 _atom_site_fract_x
 _atom_site_fract_y
 _atom_site_fract_z
 _atom_site_occupancy
  Ba  Ba0  1  0.000000  0.000000  0.000000  1
  Ba  Ba1  1  0.750000  0.250000  0.500000  1
  Cu  Cu2  1  0.375000  0.625000  0.250000  1
  Cu  Cu3  1  0.875000  0.625000  0.250000  1
  Cu  Cu4  1  0.375000  0.125000  0.750000  1
  Cu  Cu5  1  0.375000  0.625000  0.750000  1
  O  O6  1  0.737922  0.737922  0.000000  1
  O  O7  1  0.487922  0.987922  0.500000  1
  O  O8  1  0.012078  0.512078  0.500000  1
  O  O9  1  0.262078  0.262078  0.000000  1
