# generated using pymatgen
data_LiV4OF11
_symmetry_space_group_name_H-M   'P 1'
_cell_length_a   5.28186994
_cell_length_b   5.49902180
_cell_length_c   17.41704137
_cell_angle_alpha   84.03763164
_cell_angle_beta   81.53415248
_cell_angle_gamma   61.33332506
_symmetry_Int_Tables_number   1
_chemical_formula_structural   LiV4OF11
_chemical_formula_sum   'Li2 V8 O2 F22'
_cell_volume   438.71304936
_cell_formula_units_Z   2
loop_
 _symmetry_equiv_pos_site_id
 _symmetry_equiv_pos_as_xyz
  1  'x, y, z'
loop_
 _atom_site_type_symbol
 _atom_site_label
 _atom_site_symmetry_multiplicity
 _atom_site_fract_x
 _atom_site_fract_y
 _atom_site_fract_z
 _atom_site_occupancy
  Li  Li0  1  0.374953  0.538482  0.180351  1
  Li  Li1  1  0.625047  0.461518  0.819649  1
  V  V2  1  0.233241  0.270746  0.751582  1
  V  V3  1  0.626362  0.630825  0.624700  1
  V  V4  1  0.119000  0.150059  0.128452  1
  V  V5  1  0.881000  0.849941  0.871548  1
  V  V6  1  0.500000  0.500000  0.000000  1
  V  V7  1  0.373638  0.369175  0.375300  1
  V  V8  1  0.766759  0.729254  0.248418  1
  V  V9  1  0.000000  0.000000  0.500000  1
  O  O10  1  0.945003  0.559365  0.811712  1
  O  O11  1  0.054997  0.440635  0.188288  1
  F  F12  1  0.016353  0.417147  0.658144  1
  F  F13  1  0.537011  0.942671  0.687790  1
  F  F14  1  0.281548  0.293248  0.033416  1
  F  F15  1  0.476926  0.099328  0.837544  1
  F  F16  1  0.983647  0.582853  0.341856  1
  F  F17  1  0.523074  0.900672  0.162456  1
  F  F18  1  0.718452  0.706752  0.966584  1
  F  F19  1  0.213204  0.206248  0.465653  1
  F  F20  1  0.476462  0.475128  0.720506  1
  F  F21  1  0.462989  0.057329  0.312210  1
  F  F22  1  0.782871  0.193731  0.933914  1
  F  F23  1  0.523538  0.524872  0.279494  1
  F  F24  1  0.001114  0.060585  0.787444  1
  F  F25  1  0.702709  0.345786  0.097062  1
  F  F26  1  0.786796  0.793752  0.534347  1
  F  F27  1  0.764467  0.163604  0.410882  1
  F  F28  1  0.297291  0.654214  0.902938  1
  F  F29  1  0.998886  0.939415  0.212556  1
  F  F30  1  0.707208  0.317227  0.564307  1
  F  F31  1  0.217129  0.806269  0.066086  1
  F  F32  1  0.292792  0.682773  0.435693  1
  F  F33  1  0.235533  0.836396  0.589118  1
