# generated using pymatgen
data_Mn6O7F5
_symmetry_space_group_name_H-M   'P 1'
_cell_length_a   4.60070396
_cell_length_b   5.60435161
_cell_length_c   15.38665204
_cell_angle_alpha   90.00000000
_cell_angle_beta   90.16366599
_cell_angle_gamma   90.00000000
_symmetry_Int_Tables_number   1
_chemical_formula_structural   Mn6O7F5
_chemical_formula_sum   'Mn12 O14 F10'
_cell_volume   396.72724242
_cell_formula_units_Z   2
loop_
 _symmetry_equiv_pos_site_id
 _symmetry_equiv_pos_as_xyz
  1  'x, y, z'
loop_
 _atom_site_type_symbol
 _atom_site_label
 _atom_site_symmetry_multiplicity
 _atom_site_fract_x
 _atom_site_fract_y
 _atom_site_fract_z
 _atom_site_occupancy
  Mn  Mn0  1  0.945173  0.854120  0.588609  1
  Mn  Mn1  1  0.985807  0.168014  0.754525  1
  Mn  Mn2  1  0.014065  0.852134  0.920872  1
  Mn  Mn3  1  0.985807  0.831986  0.254525  1
  Mn  Mn4  1  0.014065  0.147866  0.420872  1
  Mn  Mn5  1  0.945173  0.145880  0.088609  1
  Mn  Mn6  1  0.502652  0.649417  0.414366  1
  Mn  Mn7  1  0.511181  0.647199  0.075662  1
  Mn  Mn8  1  0.510541  0.637479  0.745640  1
  Mn  Mn9  1  0.502652  0.350583  0.914366  1
  Mn  Mn10  1  0.511181  0.352801  0.575662  1
  Mn  Mn11  1  0.510541  0.362521  0.245640  1
  O  O12  1  0.768670  0.892586  0.697838  1
  O  O13  1  0.793786  0.891283  0.365061  1
  O  O14  1  0.760892  0.885744  0.031184  1
  O  O15  1  0.793786  0.108717  0.865061  1
  O  O16  1  0.760892  0.114256  0.531184  1
  O  O17  1  0.768670  0.107414  0.197838  1
  O  O18  1  0.713198  0.398276  0.683440  1
  O  O19  1  0.706575  0.613658  0.524105  1
  O  O20  1  0.713198  0.601724  0.183440  1
  O  O21  1  0.706575  0.386342  0.024105  1
  O  O22  1  0.281759  0.623705  0.970145  1
  O  O23  1  0.285912  0.383392  0.805315  1
  O  O24  1  0.281759  0.376295  0.470145  1
  O  O25  1  0.285912  0.616608  0.305315  1
  F  F26  1  0.772453  0.615423  0.858084  1
  F  F27  1  0.772453  0.384577  0.358084  1
  F  F28  1  0.234694  0.618158  0.632089  1
  F  F29  1  0.234694  0.381842  0.132089  1
  F  F30  1  0.263101  0.876195  0.806718  1
  F  F31  1  0.218885  0.883589  0.485034  1
  F  F32  1  0.230656  0.129035  0.641315  1
  F  F33  1  0.218885  0.116411  0.985034  1
  F  F34  1  0.230656  0.870965  0.141315  1
  F  F35  1  0.263101  0.123805  0.306718  1
