# generated using pymatgen
data_LiCo2(PO4)2
_symmetry_space_group_name_H-M   'P 1'
_cell_length_a   5.15401802
_cell_length_b   5.15401802
_cell_length_c   6.87061639
_cell_angle_alpha   89.96128448
_cell_angle_beta   90.03871552
_cell_angle_gamma   81.98558723
_symmetry_Int_Tables_number   1
_chemical_formula_structural   LiCo2(PO4)2
_chemical_formula_sum   'Li1 Co2 P2 O8'
_cell_volume   180.72770916
_cell_formula_units_Z   1
loop_
 _symmetry_equiv_pos_site_id
 _symmetry_equiv_pos_as_xyz
  1  'x, y, z'
loop_
 _atom_site_type_symbol
 _atom_site_label
 _atom_site_symmetry_multiplicity
 _atom_site_fract_x
 _atom_site_fract_y
 _atom_site_fract_z
 _atom_site_occupancy
  Li  Li0  1  0.497453  0.497453  0.000000  1
  Co  Co1  1  0.002693  0.002693  0.000000  1
  Co  Co2  1  0.500628  0.500628  0.500000  1
  P  P3  1  0.499220  0.999870  0.751088  1
  P  P4  1  0.999870  0.499220  0.248912  1
  O  O5  1  0.696656  0.554562  0.253064  1
  O  O6  1  0.095611  0.203006  0.205571  1
  O  O7  1  0.098444  0.647216  0.066341  1
  O  O8  1  0.578706  0.125935  0.563912  1
  O  O9  1  0.647216  0.098444  0.933659  1
  O  O10  1  0.125935  0.578706  0.436088  1
  O  O11  1  0.203006  0.095611  0.794429  1
  O  O12  1  0.554562  0.696656  0.746936  1
