# generated using pymatgen
data_Li5Fe2P2(CO7)2
_symmetry_space_group_name_H-M   'P 1'
_cell_length_a   5.07278264
_cell_length_b   6.49593077
_cell_length_c   8.40991185
_cell_angle_alpha   89.43161925
_cell_angle_beta   84.76441533
_cell_angle_gamma   89.48752882
_symmetry_Int_Tables_number   1
_chemical_formula_structural   Li5Fe2P2(CO7)2
_chemical_formula_sum   'Li5 Fe2 P2 C2 O14'
_cell_volume   275.94838726
_cell_formula_units_Z   1
loop_
 _symmetry_equiv_pos_site_id
 _symmetry_equiv_pos_as_xyz
  1  'x, y, z'
loop_
 _atom_site_type_symbol
 _atom_site_label
 _atom_site_symmetry_multiplicity
 _atom_site_fract_x
 _atom_site_fract_y
 _atom_site_fract_z
 _atom_site_occupancy
  Li  Li0  1  0.772929  0.241887  0.100057  1
  Li  Li1  1  0.241452  0.452023  0.281258  1
  Li  Li2  1  0.745465  0.498380  0.735441  1
  Li  Li3  1  0.740972  0.997285  0.734231  1
  Li  Li4  1  0.238084  0.753633  0.902051  1
  Fe  Fe5  1  0.796473  0.759519  0.329856  1
  Fe  Fe6  1  0.212077  0.248095  0.666051  1
  P  P7  1  0.715115  0.258141  0.414350  1
  P  P8  1  0.267686  0.744875  0.582280  1
  C  C9  1  0.706360  0.742786  0.037833  1
  C  C10  1  0.311129  0.257789  0.961970  1
  O  O11  1  0.950267  0.755040  0.073266  1
  O  O12  1  0.380091  0.287286  0.101026  1
  O  O13  1  0.527859  0.731913  0.158023  1
  O  O14  1  0.784398  0.062631  0.312222  1
  O  O15  1  0.836488  0.439107  0.307460  1
  O  O16  1  0.143940  0.731191  0.422136  1
  O  O17  1  0.413811  0.291278  0.441383  1
  O  O18  1  0.577940  0.747416  0.546340  1
  O  O19  1  0.832818  0.247116  0.577347  1
  O  O20  1  0.182909  0.565105  0.698840  1
  O  O21  1  0.173407  0.934311  0.683573  1
  O  O22  1  0.496212  0.238630  0.840717  1
  O  O23  1  0.641991  0.744860  0.891803  1
  O  O24  1  0.064895  0.247715  0.929374  1
