# generated using pymatgen
data_Li3V4(OF3)3
_symmetry_space_group_name_H-M   'P 1'
_cell_length_a   5.16014289
_cell_length_b   5.56483780
_cell_length_c   9.04025104
_cell_angle_alpha   107.07650714
_cell_angle_beta   89.92621994
_cell_angle_gamma   117.32899188
_symmetry_Int_Tables_number   1
_chemical_formula_structural   Li3V4(OF3)3
_chemical_formula_sum   'Li3 V4 O3 F9'
_cell_volume   217.71014436
_cell_formula_units_Z   1
loop_
 _symmetry_equiv_pos_site_id
 _symmetry_equiv_pos_as_xyz
  1  'x, y, z'
loop_
 _atom_site_type_symbol
 _atom_site_label
 _atom_site_symmetry_multiplicity
 _atom_site_fract_x
 _atom_site_fract_y
 _atom_site_fract_z
 _atom_site_occupancy
  Li  Li0  1  0.644101  0.390833  0.882940  1
  Li  Li1  1  0.800798  0.019305  0.593585  1
  Li  Li2  1  0.065797  0.741943  0.356456  1
  V  V3  1  0.980704  0.009998  0.005243  1
  V  V4  1  0.751481  0.245110  0.246442  1
  V  V5  1  0.530405  0.479694  0.502507  1
  V  V6  1  0.219167  0.737231  0.748158  1
  O  O7  1  0.809617  0.578258  0.687886  1
  O  O8  1  0.809729  0.186167  0.064623  1
  O  O9  1  0.702771  0.316320  0.431698  1
  F  F10  1  0.787911  0.880768  0.384022  1
  F  F11  1  0.746979  0.620326  0.125250  1
  F  F12  1  0.678175  0.943416  0.804493  1
  F  F13  1  0.332423  0.706825  0.555577  1
  F  F14  1  0.294860  0.038442  0.195103  1
  F  F15  1  0.262808  0.384471  0.873618  1
  F  F16  1  0.239583  0.119227  0.630788  1
  F  F17  1  0.165268  0.822502  0.933726  1
  F  F18  1  0.193687  0.463178  0.321464  1
