# generated using pymatgen
data_Li7(SbS)2
_symmetry_space_group_name_H-M   'P 1'
_cell_length_a   5.73488624
_cell_length_b   8.94165611
_cell_length_c   9.75480294
_cell_angle_alpha   67.27840724
_cell_angle_beta   77.79166986
_cell_angle_gamma   76.46698910
_symmetry_Int_Tables_number   1
_chemical_formula_structural   Li7(SbS)2
_chemical_formula_sum   'Li14 Sb4 S4'
_cell_volume   444.48118276
_cell_formula_units_Z   2
loop_
 _symmetry_equiv_pos_site_id
 _symmetry_equiv_pos_as_xyz
  1  'x, y, z'
loop_
 _atom_site_type_symbol
 _atom_site_label
 _atom_site_symmetry_multiplicity
 _atom_site_fract_x
 _atom_site_fract_y
 _atom_site_fract_z
 _atom_site_occupancy
  Li  Li0  1  0.559494  0.428691  0.876132  1
  Li  Li1  1  0.092375  0.260626  0.791996  1
  Li  Li2  1  0.551570  0.943332  0.875235  1
  Li  Li3  1  0.066962  0.926274  0.870113  1
  Li  Li4  1  0.359658  0.876187  0.563360  1
  Li  Li5  1  0.796625  0.644805  0.527239  1
  Li  Li6  1  0.596402  0.256153  0.669184  1
  Li  Li7  1  0.403598  0.743847  0.330816  1
  Li  Li8  1  0.203375  0.355195  0.472761  1
  Li  Li9  1  0.640342  0.123813  0.436640  1
  Li  Li10  1  0.933038  0.073726  0.129887  1
  Li  Li11  1  0.448430  0.056668  0.124765  1
  Li  Li12  1  0.907625  0.739374  0.208004  1
  Li  Li13  1  0.440506  0.571309  0.123868  1
  Sb  Sb14  1  0.892517  0.630098  0.874560  1
  Sb  Sb15  1  0.257282  0.563089  0.636756  1
  Sb  Sb16  1  0.742718  0.436911  0.363244  1
  Sb  Sb17  1  0.107483  0.369902  0.125440  1
  S  S18  1  0.735141  0.147915  0.906311  1
  S  S19  1  0.338717  0.082790  0.657911  1
  S  S20  1  0.661283  0.917210  0.342089  1
  S  S21  1  0.264859  0.852085  0.093689  1
