# generated using pymatgen
data_LiVSiO4
_symmetry_space_group_name_H-M   'P 1'
_cell_length_a   5.57673504
_cell_length_b   6.39358353
_cell_length_c   9.36837324
_cell_angle_alpha   76.09084126
_cell_angle_beta   79.88332881
_cell_angle_gamma   74.08199551
_symmetry_Int_Tables_number   1
_chemical_formula_structural   LiVSiO4
_chemical_formula_sum   'Li4 V4 Si4 O16'
_cell_volume   309.64338618
_cell_formula_units_Z   4
loop_
 _symmetry_equiv_pos_site_id
 _symmetry_equiv_pos_as_xyz
  1  'x, y, z'
loop_
 _atom_site_type_symbol
 _atom_site_label
 _atom_site_symmetry_multiplicity
 _atom_site_fract_x
 _atom_site_fract_y
 _atom_site_fract_z
 _atom_site_occupancy
  Li  Li0  1  0.698308  0.379030  0.883240  1
  Li  Li1  1  0.205307  0.435090  0.769681  1
  Li  Li2  1  0.794693  0.564910  0.230319  1
  Li  Li3  1  0.301692  0.620970  0.116760  1
  V  V4  1  0.274850  0.930806  0.791726  1
  V  V5  1  0.777868  0.166996  0.576673  1
  V  V6  1  0.222132  0.833004  0.423327  1
  V  V7  1  0.725150  0.069194  0.208274  1
  Si  Si8  1  0.817277  0.825947  0.909135  1
  Si  Si9  1  0.684907  0.707352  0.539378  1
  Si  Si10  1  0.315093  0.292648  0.460622  1
  Si  Si11  1  0.182723  0.174053  0.090865  1
  O  O12  1  0.607481  0.718755  0.872023  1
  O  O13  1  0.116518  0.678344  0.890742  1
  O  O14  1  0.241899  0.141305  0.919766  1
  O  O15  1  0.852433  0.061257  0.792168  1
  O  O16  1  0.882942  0.842421  0.558116  1
  O  O17  1  0.386090  0.790955  0.610706  1
  O  O18  1  0.782066  0.451263  0.617200  1
  O  O19  1  0.371748  0.227114  0.637034  1
  O  O20  1  0.628252  0.772886  0.362966  1
  O  O21  1  0.217934  0.548737  0.382800  1
  O  O22  1  0.613910  0.209045  0.389294  1
  O  O23  1  0.117058  0.157579  0.441884  1
  O  O24  1  0.147567  0.938743  0.207832  1
  O  O25  1  0.758101  0.858695  0.080234  1
  O  O26  1  0.883482  0.321656  0.109258  1
  O  O27  1  0.392519  0.281245  0.127977  1
