# generated using pymatgen
data_Mg9CuO10
_symmetry_space_group_name_H-M   'P 1'
_cell_length_a   6.68333121
_cell_length_b   6.68333121
_cell_length_c   10.01424513
_cell_angle_alpha   78.81392831
_cell_angle_beta   101.18607169
_cell_angle_gamma   153.83730530
_symmetry_Int_Tables_number   1
_chemical_formula_structural   Mg9CuO10
_chemical_formula_sum   'Mg9 Cu1 O10'
_cell_volume   193.27539846
_cell_formula_units_Z   1
loop_
 _symmetry_equiv_pos_site_id
 _symmetry_equiv_pos_as_xyz
  1  'x, y, z'
loop_
 _atom_site_type_symbol
 _atom_site_label
 _atom_site_symmetry_multiplicity
 _atom_site_fract_x
 _atom_site_fract_y
 _atom_site_fract_z
 _atom_site_occupancy
  Mg  Mg0  1  0.000000  0.000000  0.000000  1
  Mg  Mg1  1  0.601006  0.398994  0.801568  1
  Mg  Mg2  1  0.699249  0.300751  0.099797  1
  Mg  Mg3  1  0.097872  0.902128  0.299203  1
  Mg  Mg4  1  0.300751  0.699249  0.900203  1
  Mg  Mg5  1  0.197720  0.802280  0.600132  1
  Mg  Mg6  1  0.902128  0.097872  0.700797  1
  Mg  Mg7  1  0.802280  0.197720  0.399868  1
  Mg  Mg8  1  0.398994  0.601006  0.198432  1
  Cu  Cu9  1  0.500000  0.500000  0.500000  1
  O  O10  1  0.450420  0.549580  0.850145  1
  O  O11  1  0.549580  0.450420  0.149855  1
  O  O12  1  0.053018  0.946982  0.657901  1
  O  O13  1  0.946982  0.053018  0.342099  1
  O  O14  1  0.150500  0.849500  0.950466  1
  O  O15  1  0.649152  0.350848  0.450125  1
  O  O16  1  0.751183  0.248817  0.748463  1
  O  O17  1  0.849500  0.150500  0.049534  1
  O  O18  1  0.248817  0.751183  0.251537  1
  O  O19  1  0.350848  0.649152  0.549875  1
