# generated using pymatgen
data_Na6Mn2C4SO16
_symmetry_space_group_name_H-M   'P 1'
_cell_length_a   10.03038891
_cell_length_b   10.03038891
_cell_length_c   10.03038891
_cell_angle_alpha   60.00000000
_cell_angle_beta   60.00000000
_cell_angle_gamma   60.00000000
_symmetry_Int_Tables_number   1
_chemical_formula_structural   Na6Mn2C4SO16
_chemical_formula_sum   'Na12 Mn4 C8 S2 O32'
_cell_volume   713.57285294
_cell_formula_units_Z   2
loop_
 _symmetry_equiv_pos_site_id
 _symmetry_equiv_pos_as_xyz
  1  'x, y, z'
loop_
 _atom_site_type_symbol
 _atom_site_label
 _atom_site_symmetry_multiplicity
 _atom_site_fract_x
 _atom_site_fract_y
 _atom_site_fract_z
 _atom_site_occupancy
  Na  Na0  1  0.785616  0.214384  0.214384  1
  Na  Na1  1  0.464384  0.035616  0.464384  1
  Na  Na2  1  0.214384  0.214384  0.785616  1
  Na  Na3  1  0.785616  0.785616  0.214384  1
  Na  Na4  1  0.035616  0.464384  0.035616  1
  Na  Na5  1  0.035616  0.464384  0.464384  1
  Na  Na6  1  0.214384  0.785616  0.214384  1
  Na  Na7  1  0.214384  0.785616  0.785616  1
  Na  Na8  1  0.464384  0.464384  0.035616  1
  Na  Na9  1  0.035616  0.035616  0.464384  1
  Na  Na10  1  0.785616  0.214384  0.785616  1
  Na  Na11  1  0.464384  0.035616  0.035616  1
  Mn  Mn12  1  0.125000  0.625000  0.625000  1
  Mn  Mn13  1  0.625000  0.625000  0.125000  1
  Mn  Mn14  1  0.625000  0.125000  0.625000  1
  Mn  Mn15  1  0.625000  0.625000  0.625000  1
  C  C16  1  0.787626  0.404125  0.404125  1
  C  C17  1  0.404125  0.404125  0.404125  1
  C  C18  1  0.404125  0.404125  0.787626  1
  C  C19  1  0.404125  0.787626  0.404125  1
  C  C20  1  0.845875  0.462374  0.845875  1
  C  C21  1  0.845875  0.845875  0.845875  1
  C  C22  1  0.845875  0.845875  0.462374  1
  C  C23  1  0.462374  0.845875  0.845875  1
  S  S24  1  1.000000  0.000000  1.000000  1
  S  S25  1  0.250000  0.250000  0.250000  1
  O  O26  1  0.727979  0.826110  0.460946  1
  O  O27  1  0.460946  0.984964  0.727979  1
  O  O28  1  0.789054  0.423890  0.265036  1
  O  O29  1  0.522021  0.265036  0.423890  1
  O  O30  1  0.789054  0.522021  0.423890  1
  O  O31  1  0.060952  0.817145  0.060952  1
  O  O32  1  0.423890  0.265036  0.789054  1
  O  O33  1  0.060952  0.060952  0.817145  1
  O  O34  1  0.060952  0.060952  0.060952  1
  O  O35  1  0.423890  0.522021  0.265036  1
  O  O36  1  0.265036  0.423890  0.522021  1
  O  O37  1  0.817145  0.060952  0.060952  1
  O  O38  1  0.522021  0.789054  0.265036  1
  O  O39  1  0.265036  0.522021  0.789054  1
  O  O40  1  0.423890  0.789054  0.522021  1
  O  O41  1  0.984964  0.460946  0.826110  1
  O  O42  1  0.265036  0.789054  0.423890  1
  O  O43  1  0.826110  0.460946  0.727979  1
  O  O44  1  0.984964  0.727979  0.460946  1
  O  O45  1  0.727979  0.460946  0.984964  1
  O  O46  1  0.432855  0.189048  0.189048  1
  O  O47  1  0.984964  0.826110  0.727979  1
  O  O48  1  0.826110  0.727979  0.984964  1
  O  O49  1  0.189048  0.189048  0.189048  1
  O  O50  1  0.189048  0.189048  0.432855  1
  O  O51  1  0.826110  0.984964  0.460946  1
  O  O52  1  0.189048  0.432855  0.189048  1
  O  O53  1  0.460946  0.727979  0.826110  1
  O  O54  1  0.727979  0.984964  0.826110  1
  O  O55  1  0.460946  0.826110  0.984964  1
  O  O56  1  0.789054  0.265036  0.522021  1
  O  O57  1  0.522021  0.423890  0.789054  1
