# generated using pymatgen
data_K2Cr2AsHO10
_symmetry_space_group_name_H-M   'P 1'
_cell_length_a   7.87066451
_cell_length_b   7.87066451
_cell_length_c   14.64917257
_cell_angle_alpha   90.00000000
_cell_angle_beta   90.00000000
_cell_angle_gamma   120.00000000
_symmetry_Int_Tables_number   1
_chemical_formula_structural   K2Cr2AsHO10
_chemical_formula_sum   'K6 Cr6 As3 H3 O30'
_cell_volume   785.89862471
_cell_formula_units_Z   3
loop_
 _symmetry_equiv_pos_site_id
 _symmetry_equiv_pos_as_xyz
  1  'x, y, z'
loop_
 _atom_site_type_symbol
 _atom_site_label
 _atom_site_symmetry_multiplicity
 _atom_site_fract_x
 _atom_site_fract_y
 _atom_site_fract_z
 _atom_site_occupancy
  K  K0  1  0.564238  0.019886  0.013250  1
  K  K1  1  0.455648  0.435762  0.679917  1
  K  K2  1  0.980114  0.544352  0.346584  1
  K  K3  1  0.389406  0.394977  0.185966  1
  K  K4  1  0.005570  0.610594  0.852632  1
  K  K5  1  0.605023  0.994430  0.519299  1
  Cr  Cr6  1  0.571687  0.993989  0.272819  1
  Cr  Cr7  1  0.422302  0.428313  0.939486  1
  Cr  Cr8  1  0.006011  0.577698  0.606153  1
  Cr  Cr9  1  0.997300  0.579217  0.096615  1
  Cr  Cr10  1  0.581917  0.002700  0.763281  1
  Cr  Cr11  1  0.420783  0.418083  0.429948  1
  As  As12  1  0.873677  0.893779  0.167942  1
  As  As13  1  0.020102  0.126323  0.834608  1
  As  As14  1  0.106221  0.979898  0.501275  1
  H  H15  1  0.952414  0.969636  0.980800  1
  H  H16  1  0.017223  0.047586  0.647467  1
  H  H17  1  0.030364  0.982777  0.314134  1
  O  O18  1  0.748548  0.138222  0.340618  1
  O  O19  1  0.389674  0.251452  0.007285  1
  O  O20  1  0.861778  0.610326  0.673951  1
  O  O21  1  0.530747  0.121675  0.197781  1
  O  O22  1  0.590928  0.469253  0.864447  1
  O  O23  1  0.878325  0.409072  0.531114  1
  O  O24  1  0.376649  0.855903  0.332748  1
  O  O25  1  0.479255  0.623351  0.999415  1
  O  O26  1  0.144097  0.520745  0.666081  1
  O  O27  1  0.642503  0.831919  0.211703  1
  O  O28  1  0.189415  0.357497  0.878369  1
  O  O29  1  0.168081  0.810585  0.545036  1
  O  O30  1  0.910384  0.012187  0.068860  1
  O  O31  1  0.101802  0.089616  0.735527  1
  O  O32  1  0.987813  0.898198  0.402193  1
  O  O33  1  0.057183  0.034172  0.245011  1
  O  O34  1  0.976989  0.942817  0.911677  1
  O  O35  1  0.965828  0.023011  0.578344  1
  O  O36  1  0.846962  0.658760  0.162342  1
  O  O37  1  0.811797  0.153038  0.829008  1
  O  O38  1  0.341240  0.188203  0.495675  1
  O  O39  1  0.168027  0.765987  0.042430  1
  O  O40  1  0.597960  0.831973  0.709096  1
  O  O41  1  0.234013  0.402040  0.375763  1
  O  O42  1  0.090954  0.491440  0.168798  1
  O  O43  1  0.400486  0.909046  0.835465  1
  O  O44  1  0.508560  0.599514  0.502132  1
  O  O45  1  0.856736  0.413304  0.023171  1
  O  O46  1  0.556569  0.143264  0.689837  1
  O  O47  1  0.586696  0.443431  0.356504  1
