# generated using pymatgen
data_AgSnO3
_symmetry_space_group_name_H-M   'P 1'
_cell_length_a   6.60530041
_cell_length_b   6.60530041
_cell_length_c   3.28670323
_cell_angle_alpha   90.00000000
_cell_angle_beta   90.00000000
_cell_angle_gamma   110.18132219
_symmetry_Int_Tables_number   1
_chemical_formula_structural   AgSnO3
_chemical_formula_sum   'Ag2 Sn2 O6'
_cell_volume   134.59494567
_cell_formula_units_Z   2
loop_
 _symmetry_equiv_pos_site_id
 _symmetry_equiv_pos_as_xyz
  1  'x, y, z'
loop_
 _atom_site_type_symbol
 _atom_site_label
 _atom_site_symmetry_multiplicity
 _atom_site_fract_x
 _atom_site_fract_y
 _atom_site_fract_z
 _atom_site_occupancy
  Ag  Ag0  1  0.500000  0.500000  0.500000  1
  Ag  Ag1  1  0.000000  0.000000  0.500000  1
  Sn  Sn2  1  0.500000  0.000000  0.000000  1
  Sn  Sn3  1  0.000000  0.500000  0.000000  1
  O  O4  1  0.172534  0.432541  0.500000  1
  O  O5  1  0.432541  0.172534  0.500000  1
  O  O6  1  0.826566  0.173434  0.000000  1
  O  O7  1  0.173434  0.826566  1.000000  1
  O  O8  1  0.567459  0.827466  0.500000  1
  O  O9  1  0.827466  0.567459  0.500000  1
