# generated using pymatgen
data_Fe4O7F
_symmetry_space_group_name_H-M   'P 1'
_cell_length_a   5.51303776
_cell_length_b   5.51303776
_cell_length_c   8.82261055
_cell_angle_alpha   86.93329245
_cell_angle_beta   93.06670755
_cell_angle_gamma   106.03151276
_symmetry_Int_Tables_number   1
_chemical_formula_structural   Fe4O7F
_chemical_formula_sum   'Fe8 O14 F2'
_cell_volume   257.14371749
_cell_formula_units_Z   2
loop_
 _symmetry_equiv_pos_site_id
 _symmetry_equiv_pos_as_xyz
  1  'x, y, z'
loop_
 _atom_site_type_symbol
 _atom_site_label
 _atom_site_symmetry_multiplicity
 _atom_site_fract_x
 _atom_site_fract_y
 _atom_site_fract_z
 _atom_site_occupancy
  Fe  Fe0  1  0.874183  0.616095  0.379125  1
  Fe  Fe1  1  0.616095  0.874183  0.120875  1
  Fe  Fe2  1  0.500000  0.000000  0.500000  1
  Fe  Fe3  1  0.726707  0.726707  0.750000  1
  Fe  Fe4  1  0.273293  0.273293  0.250000  1
  Fe  Fe5  1  0.383905  0.125817  0.879125  1
  Fe  Fe6  1  0.125817  0.383905  0.620875  1
  Fe  Fe7  1  0.000000  0.500000  0.000000  1
  O  O8  1  0.808730  0.299926  0.503056  1
  O  O9  1  0.570964  0.570964  0.250000  1
  O  O10  1  0.965744  0.524002  0.778272  1
  O  O11  1  0.717976  0.774235  0.529214  1
  O  O12  1  0.475998  0.034256  0.278272  1
  O  O13  1  0.225765  0.282024  0.029214  1
  O  O14  1  0.524002  0.965744  0.721728  1
  O  O15  1  0.774235  0.717976  0.970786  1
  O  O16  1  0.282024  0.225765  0.470786  1
  O  O17  1  0.034256  0.475998  0.221728  1
  O  O18  1  0.429036  0.429036  0.750000  1
  O  O19  1  0.191270  0.700074  0.496944  1
  O  O20  1  0.700074  0.191270  0.003056  1
  O  O21  1  0.299926  0.808730  0.996944  1
  F  F22  1  0.953090  0.953090  0.250000  1
  F  F23  1  0.046910  0.046910  0.750000  1
