# generated using pymatgen
data_Li2Co3SnO8
_symmetry_space_group_name_H-M   'P 1'
_cell_length_a   8.27866529
_cell_length_b   8.27866529
_cell_length_c   8.27866529
_cell_angle_alpha   90.00000000
_cell_angle_beta   90.00000000
_cell_angle_gamma   90.00000000
_symmetry_Int_Tables_number   1
_chemical_formula_structural   Li2Co3SnO8
_chemical_formula_sum   'Li8 Co12 Sn4 O32'
_cell_volume   567.38907955
_cell_formula_units_Z   4
loop_
 _symmetry_equiv_pos_site_id
 _symmetry_equiv_pos_as_xyz
  1  'x, y, z'
loop_
 _atom_site_type_symbol
 _atom_site_label
 _atom_site_symmetry_multiplicity
 _atom_site_fract_x
 _atom_site_fract_y
 _atom_site_fract_z
 _atom_site_occupancy
  Li  Li0  1  0.500330  0.500330  0.500330  1
  Li  Li1  1  0.749670  0.749670  0.749670  1
  Li  Li2  1  0.750330  0.250330  0.249670  1
  Li  Li3  1  0.999670  0.499670  0.000330  1
  Li  Li4  1  0.000330  0.999670  0.499670  1
  Li  Li5  1  0.249670  0.750330  0.250330  1
  Li  Li6  1  0.250330  0.249670  0.750330  1
  Li  Li7  1  0.499670  0.000330  0.999670  1
  Co  Co8  1  0.614769  0.635231  0.125000  1
  Co  Co9  1  0.625000  0.885231  0.364769  1
  Co  Co10  1  0.635231  0.125000  0.614769  1
  Co  Co11  1  0.864769  0.875000  0.114769  1
  Co  Co12  1  0.875000  0.114769  0.864769  1
  Co  Co13  1  0.885231  0.364769  0.625000  1
  Co  Co14  1  0.114769  0.864769  0.875000  1
  Co  Co15  1  0.125000  0.614769  0.635231  1
  Co  Co16  1  0.135231  0.375000  0.385231  1
  Co  Co17  1  0.364769  0.625000  0.885231  1
  Co  Co18  1  0.375000  0.385231  0.135231  1
  Co  Co19  1  0.385231  0.135231  0.375000  1
  Sn  Sn20  1  0.625000  0.375000  0.875000  1
  Sn  Sn21  1  0.875000  0.625000  0.375000  1
  Sn  Sn22  1  0.125000  0.125000  0.125000  1
  Sn  Sn23  1  0.375000  0.875000  0.625000  1
  O  O24  1  0.597227  0.627768  0.889152  1
  O  O25  1  0.610848  0.402773  0.127768  1
  O  O26  1  0.616110  0.116110  0.383890  1
  O  O27  1  0.622232  0.652773  0.360848  1
  O  O28  1  0.627768  0.889152  0.597227  1
  O  O29  1  0.633890  0.866110  0.133890  1
  O  O30  1  0.639152  0.122232  0.847227  1
  O  O31  1  0.652773  0.360848  0.622232  1
  O  O32  1  0.847227  0.639152  0.122232  1
  O  O33  1  0.860848  0.877768  0.347227  1
  O  O34  1  0.866110  0.133890  0.633890  1
  O  O35  1  0.872232  0.110848  0.097227  1
  O  O36  1  0.877768  0.347227  0.860848  1
  O  O37  1  0.883890  0.883890  0.883890  1
  O  O38  1  0.889152  0.597227  0.627768  1
  O  O39  1  0.902773  0.372232  0.389152  1
  O  O40  1  0.097227  0.872232  0.110848  1
  O  O41  1  0.110848  0.097227  0.872232  1
  O  O42  1  0.116110  0.383890  0.616110  1
  O  O43  1  0.122232  0.847227  0.639152  1
  O  O44  1  0.127768  0.610848  0.402773  1
  O  O45  1  0.133890  0.633890  0.866110  1
  O  O46  1  0.139152  0.377768  0.152773  1
  O  O47  1  0.152773  0.139152  0.377768  1
  O  O48  1  0.347227  0.860848  0.877768  1
  O  O49  1  0.360848  0.622232  0.652773  1
  O  O50  1  0.366110  0.366110  0.366110  1
  O  O51  1  0.372232  0.389152  0.902773  1
  O  O52  1  0.377768  0.152773  0.139152  1
  O  O53  1  0.383890  0.616110  0.116110  1
  O  O54  1  0.389152  0.902773  0.372232  1
  O  O55  1  0.402773  0.127768  0.610848  1
