# generated using pymatgen
data_Na8SnO6
_symmetry_space_group_name_H-M   'P 1'
_cell_length_a   6.48937608
_cell_length_b   6.48937608
_cell_length_c   12.86983614
_cell_angle_alpha   90.00000000
_cell_angle_beta   90.00000000
_cell_angle_gamma   120.00000000
_symmetry_Int_Tables_number   1
_chemical_formula_structural   Na8SnO6
_chemical_formula_sum   'Na16 Sn2 O12'
_cell_volume   469.36374047
_cell_formula_units_Z   2
loop_
 _symmetry_equiv_pos_site_id
 _symmetry_equiv_pos_as_xyz
  1  'x, y, z'
loop_
 _atom_site_type_symbol
 _atom_site_label
 _atom_site_symmetry_multiplicity
 _atom_site_fract_x
 _atom_site_fract_y
 _atom_site_fract_z
 _atom_site_occupancy
  Na  Na0  1  0.000000  0.698045  0.768955  1
  Na  Na1  1  0.000000  0.602066  0.125402  1
  Na  Na2  1  0.000000  0.397934  0.625402  1
  Na  Na3  1  0.000000  0.301955  0.268955  1
  Na  Na4  1  0.333333  0.666667  0.410170  1
  Na  Na5  1  0.333333  0.666667  0.910170  1
  Na  Na6  1  0.301955  0.301955  0.768955  1
  Na  Na7  1  0.397934  0.397934  0.125402  1
  Na  Na8  1  0.602066  0.602066  0.625402  1
  Na  Na9  1  0.301955  0.000000  0.268955  1
  Na  Na10  1  0.698045  0.698045  0.268955  1
  Na  Na11  1  0.397934  0.000000  0.625402  1
  Na  Na12  1  0.666667  0.333333  0.910170  1
  Na  Na13  1  0.666667  0.333333  0.410170  1
  Na  Na14  1  0.602066  0.000000  0.125402  1
  Na  Na15  1  0.698045  0.000000  0.768955  1
  Sn  Sn16  1  0.000000  0.000000  0.996305  1
  Sn  Sn17  1  0.000000  0.000000  0.496305  1
  O  O18  1  0.000000  0.706563  0.950896  1
  O  O19  1  0.000000  0.293437  0.450896  1
  O  O20  1  0.333333  0.666667  0.219588  1
  O  O21  1  0.000000  0.000000  0.154085  1
  O  O22  1  0.000000  0.000000  0.654085  1
  O  O23  1  0.333333  0.666667  0.719588  1
  O  O24  1  0.293437  0.293437  0.950896  1
  O  O25  1  0.293437  0.000000  0.450896  1
  O  O26  1  0.706563  0.706563  0.450896  1
  O  O27  1  0.666667  0.333333  0.719588  1
  O  O28  1  0.666667  0.333333  0.219588  1
  O  O29  1  0.706563  0.000000  0.950896  1
