# generated using pymatgen
data_Li4V3Co3(WO8)2
_symmetry_space_group_name_H-M   'P 1'
_cell_length_a   5.97486152
_cell_length_b   5.97486152
_cell_length_c   9.77378169
_cell_angle_alpha   89.55830611
_cell_angle_beta   90.44169389
_cell_angle_gamma   119.53157874
_symmetry_Int_Tables_number   1
_chemical_formula_structural   Li4V3Co3(WO8)2
_chemical_formula_sum   'Li4 V3 Co3 W2 O16'
_cell_volume   303.57240896
_cell_formula_units_Z   1
loop_
 _symmetry_equiv_pos_site_id
 _symmetry_equiv_pos_as_xyz
  1  'x, y, z'
loop_
 _atom_site_type_symbol
 _atom_site_label
 _atom_site_symmetry_multiplicity
 _atom_site_fract_x
 _atom_site_fract_y
 _atom_site_fract_z
 _atom_site_occupancy
  Li  Li0  1  0.332215  0.667785  0.904730  1
  Li  Li1  1  0.002429  0.997571  0.988201  1
  Li  Li2  1  0.001769  0.998231  0.486022  1
  Li  Li3  1  0.663112  0.336888  0.405426  1
  V  V4  1  0.176149  0.823851  0.225027  1
  V  V5  1  0.835222  0.655700  0.717702  1
  V  V6  1  0.344300  0.164778  0.717702  1
  Co  Co7  1  0.657984  0.830714  0.211283  1
  Co  Co8  1  0.169286  0.342016  0.211283  1
  Co  Co9  1  0.828534  0.171466  0.711380  1
  W  W10  1  0.339032  0.660968  0.490013  1
  W  W11  1  0.667181  0.332819  0.989910  1
  O  O12  1  0.657772  0.823702  0.586007  1
  O  O13  1  0.476050  0.523950  0.352965  1
  O  O14  1  0.315798  0.684202  0.108842  1
  O  O15  1  0.009677  0.990323  0.296047  1
  O  O16  1  0.001022  0.998978  0.799470  1
  O  O17  1  0.176298  0.342228  0.586007  1
  O  O18  1  0.465049  0.961899  0.352850  1
  O  O19  1  0.038101  0.534951  0.352850  1
  O  O20  1  0.830188  0.169812  0.082402  1
  O  O21  1  0.177133  0.822867  0.592406  1
  O  O22  1  0.958793  0.487918  0.850871  1
  O  O23  1  0.512082  0.041207  0.850871  1
  O  O24  1  0.658994  0.341006  0.607023  1
  O  O25  1  0.830563  0.649656  0.089478  1
  O  O26  1  0.520067  0.479933  0.851588  1
  O  O27  1  0.350344  0.169437  0.089478  1
