# generated using pymatgen
data_La2Th5O13
_symmetry_space_group_name_H-M   'P 1'
_cell_length_a   23.09422032
_cell_length_b   23.09422032
_cell_length_c   23.09422032
_cell_angle_alpha   9.88192879
_cell_angle_beta   9.88192879
_cell_angle_gamma   9.88192879
_symmetry_Int_Tables_number   1
_chemical_formula_structural   La2Th5O13
_chemical_formula_sum   'La2 Th5 O13'
_cell_volume   314.95128970
_cell_formula_units_Z   1
loop_
 _symmetry_equiv_pos_site_id
 _symmetry_equiv_pos_as_xyz
  1  'x, y, z'
loop_
 _atom_site_type_symbol
 _atom_site_label
 _atom_site_symmetry_multiplicity
 _atom_site_fract_x
 _atom_site_fract_y
 _atom_site_fract_z
 _atom_site_occupancy
  La  La0  1  0.998727  0.998727  0.998727  1
  La  La1  1  0.716594  0.716594  0.716594  1
  Th  Th2  1  0.428750  0.428750  0.428750  1
  Th  Th3  1  0.142491  0.142491  0.142491  1
  Th  Th4  1  0.856598  0.856598  0.856598  1
  Th  Th5  1  0.570840  0.570840  0.570840  1
  Th  Th6  1  0.284701  0.284701  0.284701  1
  O  O7  1  0.030902  0.030902  0.030902  1
  O  O8  1  0.394120  0.394120  0.394120  1
  O  O9  1  0.751325  0.751325  0.751325  1
  O  O10  1  0.464711  0.464711  0.464711  1
  O  O11  1  0.107830  0.107830  0.107830  1
  O  O12  1  0.178785  0.178785  0.178785  1
  O  O13  1  0.821710  0.821710  0.821710  1
  O  O14  1  0.535913  0.535913  0.535913  1
  O  O15  1  0.893038  0.893038  0.893038  1
  O  O16  1  0.250203  0.250203  0.250203  1
  O  O17  1  0.963166  0.963166  0.963166  1
  O  O18  1  0.324079  0.324079  0.324079  1
  O  O19  1  0.606945  0.606945  0.606945  1
