# generated using pymatgen
data_Ti9Fe11O30
_symmetry_space_group_name_H-M   'P 1'
_cell_length_a   5.15913246
_cell_length_b   5.55996965
_cell_length_c   21.31199038
_cell_angle_alpha   94.80731126
_cell_angle_beta   89.68555557
_cell_angle_gamma   117.37538408
_symmetry_Int_Tables_number   1
_chemical_formula_structural   Ti9Fe11O30
_chemical_formula_sum   'Ti9 Fe11 O30'
_cell_volume   540.57867096
_cell_formula_units_Z   1
loop_
 _symmetry_equiv_pos_site_id
 _symmetry_equiv_pos_as_xyz
  1  'x, y, z'
loop_
 _atom_site_type_symbol
 _atom_site_label
 _atom_site_symmetry_multiplicity
 _atom_site_fract_x
 _atom_site_fract_y
 _atom_site_fract_z
 _atom_site_occupancy
  Ti  Ti0  1  0.189047  0.415986  0.026591  1
  Ti  Ti1  1  0.602226  0.201009  0.228522  1
  Ti  Ti2  1  0.907429  0.806062  0.124133  1
  Ti  Ti3  1  0.299294  0.592122  0.472883  1
  Ti  Ti4  1  0.292514  0.606882  0.331742  1
  Ti  Ti5  1  0.689222  0.386434  0.671243  1
  Ti  Ti6  1  0.704394  0.407504  0.528597  1
  Ti  Ti7  1  0.809801  0.615049  0.831619  1
  Ti  Ti8  1  0.096183  0.179752  0.870812  1
  Fe  Fe9  1  0.487381  0.996952  0.071122  1
  Fe  Fe10  1  0.895930  0.789867  0.269460  1
  Fe  Fe11  1  0.998384  0.001258  0.428194  1
  Fe  Fe12  1  0.205641  0.397387  0.172698  1
  Fe  Fe13  1  0.396164  0.805108  0.629853  1
  Fe  Fe14  1  0.594767  0.195338  0.369970  1
  Fe  Fe15  1  0.999737  0.995920  0.572942  1
  Fe  Fe16  1  0.105881  0.208218  0.728128  1
  Fe  Fe17  1  0.403975  0.797498  0.769972  1
  Fe  Fe18  1  0.502514  0.000905  0.929670  1
  Fe  Fe19  1  0.792874  0.574802  0.968908  1
  O  O20  1  0.198775  0.169269  0.087919  1
  O  O21  1  0.724419  0.089692  0.156357  1
  O  O22  1  0.794790  0.246502  0.009306  1
  O  O23  1  0.669300  0.576877  0.186730  1
  O  O24  1  0.659157  0.686367  0.054940  1
  O  O25  1  0.635513  0.966907  0.283642  1
  O  O26  1  0.140107  0.638541  0.109800  1
  O  O27  1  0.150132  0.894028  0.346972  1
  O  O28  1  0.196820  0.036720  0.212534  1
  O  O29  1  0.040947  0.369247  0.384777  1
  O  O30  1  0.048115  0.493893  0.256081  1
  O  O31  1  0.047084  0.747100  0.492084  1
  O  O32  1  0.552495  0.460426  0.306480  1
  O  O33  1  0.543071  0.694483  0.543850  1
  O  O34  1  0.539334  0.812842  0.411114  1
  O  O35  1  0.457669  0.184942  0.586945  1
  O  O36  1  0.459758  0.310278  0.455972  1
  O  O37  1  0.439573  0.545039  0.692521  1
  O  O38  1  0.955973  0.252882  0.506717  1
  O  O39  1  0.920637  0.498226  0.751279  1
  O  O40  1  0.947467  0.621112  0.614068  1
  O  O41  1  0.852957  0.971077  0.791584  1
  O  O42  1  0.851191  0.112356  0.653148  1
  O  O43  1  0.855237  0.369387  0.882516  1
  O  O44  1  0.369109  0.055537  0.708774  1
  O  O45  1  0.325738  0.304086  0.949530  1
  O  O46  1  0.387892  0.432513  0.818450  1
  O  O47  1  0.234726  0.744197  0.992058  1
  O  O48  1  0.241334  0.898601  0.849764  1
  O  O49  1  0.787322  0.842817  0.907030  1
