# generated using pymatgen
data_Li2V3NiO8
_symmetry_space_group_name_H-M   'P 1'
_cell_length_a   6.38628029
_cell_length_b   6.38628029
_cell_length_c   6.47193007
_cell_angle_alpha   74.12120400
_cell_angle_beta   105.87879600
_cell_angle_gamma   143.33880819
_symmetry_Int_Tables_number   1
_chemical_formula_structural   Li2V3NiO8
_chemical_formula_sum   'Li2 V3 Ni1 O8'
_cell_volume   150.91431254
_cell_formula_units_Z   1
loop_
 _symmetry_equiv_pos_site_id
 _symmetry_equiv_pos_as_xyz
  1  'x, y, z'
loop_
 _atom_site_type_symbol
 _atom_site_label
 _atom_site_symmetry_multiplicity
 _atom_site_fract_x
 _atom_site_fract_y
 _atom_site_fract_z
 _atom_site_occupancy
  Li  Li0  1  0.938620  0.061380  0.656999  1
  Li  Li1  1  0.059285  0.940715  0.360088  1
  V  V2  1  0.607152  0.392848  0.701966  1
  V  V3  1  0.388440  0.611560  0.274806  1
  V  V4  1  0.710542  0.289458  0.292155  1
  Ni  Ni5  1  0.286852  0.713148  0.690681  1
  O  O6  1  0.879028  0.120972  0.328668  1
  O  O7  1  0.759104  0.240896  0.641022  1
  O  O8  1  0.655466  0.344534  0.014688  1
  O  O9  1  0.559562  0.440438  0.359628  1
  O  O10  1  0.452132  0.547868  0.649071  1
  O  O11  1  0.354874  0.645126  0.006049  1
  O  O12  1  0.235524  0.764476  0.342830  1
  O  O13  1  0.113418  0.886582  0.681349  1
