# generated using pymatgen
data_Mn4O3F5
_symmetry_space_group_name_H-M   'P 1'
_cell_length_a   5.76209467
_cell_length_b   5.76209467
_cell_length_c   5.76209467
_cell_angle_alpha   114.27767603
_cell_angle_beta   112.08055143
_cell_angle_gamma   102.29417425
_symmetry_Int_Tables_number   1
_chemical_formula_structural   Mn4O3F5
_chemical_formula_sum   'Mn4 O3 F5'
_cell_volume   145.50744008
_cell_formula_units_Z   1
loop_
 _symmetry_equiv_pos_site_id
 _symmetry_equiv_pos_as_xyz
  1  'x, y, z'
loop_
 _atom_site_type_symbol
 _atom_site_label
 _atom_site_symmetry_multiplicity
 _atom_site_fract_x
 _atom_site_fract_y
 _atom_site_fract_z
 _atom_site_occupancy
  Mn  Mn0  1  0.007807  0.258867  0.266674  1
  Mn  Mn1  1  0.007807  0.741133  0.748940  1
  Mn  Mn2  1  0.477570  1.000000  0.477570  1
  Mn  Mn3  1  0.508550  0.500000  0.008550  1
  O  O4  1  0.180859  1.000000  0.180859  1
  O  O5  1  0.207632  0.500000  0.707632  1
  O  O6  1  0.811756  0.500000  0.311756  1
  F  F7  1  0.309384  0.557500  0.249052  1
  F  F8  1  0.309384  0.060332  0.751884  1
  F  F9  1  0.796149  0.000000  0.796149  1
  F  F10  1  0.691552  0.939668  0.249052  1
  F  F11  1  0.691552  0.442500  0.751884  1
