# generated using pymatgen
data_CrP2H15N2O11
_symmetry_space_group_name_H-M   'P 1'
_cell_length_a   9.04120519
_cell_length_b   9.04120519
_cell_length_c   7.53413413
_cell_angle_alpha   78.55017985
_cell_angle_beta   101.44982015
_cell_angle_gamma   94.74163923
_symmetry_Int_Tables_number   1
_chemical_formula_structural   CrP2H15N2O11
_chemical_formula_sum   'Cr2 P4 H30 N4 O22'
_cell_volume   590.99669718
_cell_formula_units_Z   2
loop_
 _symmetry_equiv_pos_site_id
 _symmetry_equiv_pos_as_xyz
  1  'x, y, z'
loop_
 _atom_site_type_symbol
 _atom_site_label
 _atom_site_symmetry_multiplicity
 _atom_site_fract_x
 _atom_site_fract_y
 _atom_site_fract_z
 _atom_site_occupancy
  Cr  Cr0  1  0.220434  0.779566  0.783281  1
  Cr  Cr1  1  0.779566  0.220434  0.216719  1
  P  P2  1  0.247146  0.507458  0.145936  1
  P  P3  1  0.492542  0.752854  0.145936  1
  P  P4  1  0.752854  0.492542  0.854064  1
  P  P5  1  0.507458  0.247146  0.854064  1
  H  H6  1  0.326446  0.326446  0.000000  1
  H  H7  1  0.673554  0.673554  0.000000  1
  H  H8  1  0.960945  0.642707  0.669166  1
  H  H9  1  0.357293  0.039055  0.669166  1
  H  H10  1  0.039055  0.357293  0.330834  1
  H  H11  1  0.642707  0.960945  0.330834  1
  H  H12  1  0.002494  0.750819  0.485283  1
  H  H13  1  0.249181  0.997506  0.485283  1
  H  H14  1  0.997506  0.249181  0.514717  1
  H  H15  1  0.750819  0.002494  0.514717  1
  H  H16  1  0.405017  0.594983  0.709147  1
  H  H17  1  0.594983  0.405017  0.290853  1
  H  H18  1  0.255227  0.610472  0.543335  1
  H  H19  1  0.389528  0.744773  0.543335  1
  H  H20  1  0.744773  0.389528  0.456665  1
  H  H21  1  0.610472  0.255227  0.456665  1
  H  H22  1  0.031873  0.968127  0.813059  1
  H  H23  1  0.968127  0.031873  0.186941  1
  H  H24  1  0.035090  0.831349  0.996628  1
  H  H25  1  0.168651  0.964910  0.996628  1
  H  H26  1  0.964910  0.168651  0.003372  1
  H  H27  1  0.831349  0.035090  0.003372  1
  H  H28  1  0.858802  0.720665  0.232282  1
  H  H29  1  0.279335  0.141198  0.232282  1
  H  H30  1  0.141198  0.279335  0.767718  1
  H  H31  1  0.720665  0.858802  0.767718  1
  H  H32  1  0.022444  0.653620  0.260373  1
  H  H33  1  0.346380  0.977556  0.260373  1
  H  H34  1  0.977556  0.346380  0.739627  1
  H  H35  1  0.653620  0.022444  0.739627  1
  N  N36  1  0.329921  0.670079  0.627425  1
  N  N37  1  0.670079  0.329921  0.372575  1
  N  N38  1  0.101035  0.898965  0.914441  1
  N  N39  1  0.898965  0.101035  0.085559  1
  O  O40  1  0.183587  0.588936  0.950545  1
  O  O41  1  0.411064  0.816413  0.950545  1
  O  O42  1  0.816413  0.411064  0.049455  1
  O  O43  1  0.588936  0.183587  0.049455  1
  O  O44  1  0.292382  0.346965  0.140440  1
  O  O45  1  0.653035  0.707618  0.140440  1
  O  O46  1  0.707618  0.653035  0.859560  1
  O  O47  1  0.346965  0.292382  0.859560  1
  O  O48  1  0.146961  0.506214  0.285547  1
  O  O49  1  0.493786  0.853039  0.285547  1
  O  O50  1  0.853039  0.493786  0.714453  1
  O  O51  1  0.506214  0.146961  0.714453  1
  O  O52  1  0.406514  0.593486  0.220786  1
  O  O53  1  0.593486  0.406514  0.779214  1
  O  O54  1  0.019646  0.738750  0.623995  1
  O  O55  1  0.261250  0.980354  0.623995  1
  O  O56  1  0.980354  0.261250  0.376005  1
  O  O57  1  0.738750  0.019646  0.376005  1
  O  O58  1  0.968268  0.743738  0.266455  1
  O  O59  1  0.256262  0.031732  0.266455  1
  O  O60  1  0.031732  0.256262  0.733545  1
  O  O61  1  0.743738  0.968268  0.733545  1
