# generated using pymatgen
data_SrNb2O4
_symmetry_space_group_name_H-M   'P 1'
_cell_length_a   5.15161593
_cell_length_b   5.95432732
_cell_length_c   12.61506309
_cell_angle_alpha   90.00000000
_cell_angle_beta   90.00000000
_cell_angle_gamma   90.00000000
_symmetry_Int_Tables_number   1
_chemical_formula_structural   SrNb2O4
_chemical_formula_sum   'Sr4 Nb8 O16'
_cell_volume   386.95958553
_cell_formula_units_Z   4
loop_
 _symmetry_equiv_pos_site_id
 _symmetry_equiv_pos_as_xyz
  1  'x, y, z'
loop_
 _atom_site_type_symbol
 _atom_site_label
 _atom_site_symmetry_multiplicity
 _atom_site_fract_x
 _atom_site_fract_y
 _atom_site_fract_z
 _atom_site_occupancy
  Sr  Sr0  1  0.696314  0.750000  0.003780  1
  Sr  Sr1  1  0.696314  0.250000  0.496220  1
  Sr  Sr2  1  0.303686  0.750000  0.503780  1
  Sr  Sr3  1  0.303686  0.250000  0.996220  1
  Nb  Nb4  1  0.844026  0.000000  0.250000  1
  Nb  Nb5  1  0.844026  0.500000  0.250000  1
  Nb  Nb6  1  0.658767  0.750000  0.747078  1
  Nb  Nb7  1  0.658767  0.250000  0.752922  1
  Nb  Nb8  1  0.341233  0.750000  0.247078  1
  Nb  Nb9  1  0.341233  0.250000  0.252922  1
  Nb  Nb10  1  0.155974  0.000000  0.750000  1
  Nb  Nb11  1  0.155974  0.500000  0.750000  1
  O  O12  1  0.989365  0.750000  0.645134  1
  O  O13  1  0.989365  0.250000  0.854866  1
  O  O14  1  0.989376  0.750000  0.851616  1
  O  O15  1  0.989376  0.250000  0.648384  1
  O  O16  1  0.507740  0.495397  0.143627  1
  O  O17  1  0.507740  0.004603  0.143627  1
  O  O18  1  0.507740  0.995397  0.356373  1
  O  O19  1  0.507740  0.504603  0.356373  1
  O  O20  1  0.492260  0.495397  0.643627  1
  O  O21  1  0.492260  0.995397  0.856373  1
  O  O22  1  0.492260  0.504603  0.856373  1
  O  O23  1  0.492260  0.004603  0.643627  1
  O  O24  1  0.010624  0.250000  0.148384  1
  O  O25  1  0.010624  0.750000  0.351616  1
  O  O26  1  0.010635  0.750000  0.145134  1
  O  O27  1  0.010635  0.250000  0.354866  1
