# generated using pymatgen
data_Li7FeCo3(PO4)6
_symmetry_space_group_name_H-M   'P 1'
_cell_length_a   8.80942550
_cell_length_b   8.80942550
_cell_length_c   8.80942550
_cell_angle_alpha   60.05639929
_cell_angle_beta   60.05639929
_cell_angle_gamma   60.05639929
_symmetry_Int_Tables_number   1
_chemical_formula_structural   Li7FeCo3(PO4)6
_chemical_formula_sum   'Li7 Fe1 Co3 P6 O24'
_cell_volume   484.04144498
_cell_formula_units_Z   1
loop_
 _symmetry_equiv_pos_site_id
 _symmetry_equiv_pos_as_xyz
  1  'x, y, z'
loop_
 _atom_site_type_symbol
 _atom_site_label
 _atom_site_symmetry_multiplicity
 _atom_site_fract_x
 _atom_site_fract_y
 _atom_site_fract_z
 _atom_site_occupancy
  Li  Li0  1  0.889551  0.722019  0.228288  1
  Li  Li1  1  0.524065  0.524065  0.524065  1
  Li  Li2  1  0.722019  0.228288  0.889551  1
  Li  Li3  1  0.228288  0.889551  0.722019  1
  Li  Li4  1  0.705855  0.160377  0.334682  1
  Li  Li5  1  0.334682  0.705855  0.160377  1
  Li  Li6  1  0.160377  0.334682  0.705855  1
  Fe  Fe7  1  0.145405  0.145405  0.145405  1
  Co  Co8  1  0.649042  0.649042  0.649042  1
  Co  Co9  1  0.851437  0.851437  0.851437  1
  Co  Co10  1  0.349164  0.349164  0.349164  1
  P  P11  1  0.248063  0.543091  0.956446  1
  P  P12  1  0.956446  0.248063  0.543091  1
  P  P13  1  0.543091  0.956446  0.248063  1
  P  P14  1  0.460057  0.041451  0.749927  1
  P  P15  1  0.041451  0.749927  0.460057  1
  P  P16  1  0.749927  0.460057  0.041451  1
  O  O17  1  0.077524  0.725111  0.942405  1
  O  O18  1  0.289854  0.522998  0.119298  1
  O  O19  1  0.408263  0.577998  0.767910  1
  O  O20  1  0.119298  0.289854  0.522998  1
  O  O21  1  0.767910  0.408263  0.577998  1
  O  O22  1  0.522998  0.119298  0.289854  1
  O  O23  1  0.214199  0.373197  0.991219  1
  O  O24  1  0.942405  0.077524  0.725111  1
  O  O25  1  0.991219  0.214199  0.373197  1
  O  O26  1  0.725111  0.942405  0.077524  1
  O  O27  1  0.577998  0.767910  0.408263  1
  O  O28  1  0.373197  0.991219  0.214199  1
  O  O29  1  0.448908  0.218219  0.573162  1
  O  O30  1  0.624318  0.005602  0.793103  1
  O  O31  1  0.270264  0.082478  0.905374  1
  O  O32  1  0.005602  0.793103  0.624318  1
  O  O33  1  0.082478  0.905374  0.270264  1
  O  O34  1  0.793103  0.624318  0.005602  1
  O  O35  1  0.473766  0.874294  0.719491  1
  O  O36  1  0.218219  0.573162  0.448908  1
  O  O37  1  0.874294  0.719491  0.473766  1
  O  O38  1  0.573162  0.448908  0.218219  1
  O  O39  1  0.719491  0.473766  0.874294  1
  O  O40  1  0.905374  0.270264  0.082478  1
