# generated using pymatgen
data_V2CuO6
_symmetry_space_group_name_H-M   'P 1'
_cell_length_a   3.59508090
_cell_length_b   4.92908451
_cell_length_c   6.60280203
_cell_angle_alpha   109.43286278
_cell_angle_beta   86.89430928
_cell_angle_gamma   108.43543566
_symmetry_Int_Tables_number   1
_chemical_formula_structural   V2CuO6
_chemical_formula_sum   'V2 Cu1 O6'
_cell_volume   104.50615859
_cell_formula_units_Z   1
loop_
 _symmetry_equiv_pos_site_id
 _symmetry_equiv_pos_as_xyz
  1  'x, y, z'
loop_
 _atom_site_type_symbol
 _atom_site_label
 _atom_site_symmetry_multiplicity
 _atom_site_fract_x
 _atom_site_fract_y
 _atom_site_fract_z
 _atom_site_occupancy
  V  V0  1  0.820872  0.609946  0.342122  1
  V  V1  1  0.179128  0.390054  0.657878  1
  Cu  Cu2  1  0.000000  0.000000  0.000000  1
  O  O3  1  0.968671  0.933743  0.271765  1
  O  O4  1  0.031329  0.066257  0.728235  1
  O  O5  1  0.719675  0.310126  0.109709  1
  O  O6  1  0.280325  0.689874  0.890291  1
  O  O7  1  0.691944  0.391759  0.570641  1
  O  O8  1  0.308056  0.608241  0.429359  1
