# generated using pymatgen
data_Li8Mn7Fe(BO3)8
_symmetry_space_group_name_H-M   'P 1'
_cell_length_a   7.96093982
_cell_length_b   8.07471369
_cell_length_c   8.30504492
_cell_angle_alpha   80.46777928
_cell_angle_beta   79.27179901
_cell_angle_gamma   81.66511397
_symmetry_Int_Tables_number   1
_chemical_formula_structural   Li8Mn7Fe(BO3)8
_chemical_formula_sum   'Li8 Mn7 Fe1 B8 O24'
_cell_volume   513.69265860
_cell_formula_units_Z   1
loop_
 _symmetry_equiv_pos_site_id
 _symmetry_equiv_pos_as_xyz
  1  'x, y, z'
loop_
 _atom_site_type_symbol
 _atom_site_label
 _atom_site_symmetry_multiplicity
 _atom_site_fract_x
 _atom_site_fract_y
 _atom_site_fract_z
 _atom_site_occupancy
  Li  Li0  1  0.303129  0.150664  0.220079  1
  Li  Li1  1  0.197252  0.347630  0.780954  1
  Li  Li2  1  0.697035  0.348075  0.281706  1
  Li  Li3  1  0.198085  0.849738  0.283537  1
  Li  Li4  1  0.802786  0.151325  0.718139  1
  Li  Li5  1  0.302162  0.651359  0.717695  1
  Li  Li6  1  0.803389  0.651172  0.218677  1
  Li  Li7  1  0.697036  0.848849  0.781389  1
  Mn  Mn8  1  0.676553  0.008638  0.080358  1
  Mn  Mn9  1  0.177388  0.508737  0.079674  1
  Mn  Mn10  1  0.323666  0.492406  0.419537  1
  Mn  Mn11  1  0.676258  0.508347  0.580861  1
  Mn  Mn12  1  0.823583  0.491386  0.919343  1
  Mn  Mn13  1  0.322430  0.991319  0.917820  1
  Mn  Mn14  1  0.822922  0.989203  0.419475  1
  Fe  Fe15  1  0.172604  0.011575  0.581702  1
  B  B16  1  0.004018  0.331408  0.404385  1
  B  B17  1  0.497376  0.167436  0.594978  1
  B  B18  1  0.501677  0.331739  0.903894  1
  B  B19  1  0.001864  0.832926  0.901563  1
  B  B20  1  0.998834  0.167839  0.096359  1
  B  B21  1  0.498577  0.668583  0.095950  1
  B  B22  1  0.499703  0.832514  0.406116  1
  B  B23  1  0.998429  0.668053  0.596075  1
  O  O24  1  0.132908  0.042751  0.122431  1
  O  O25  1  0.167776  0.348304  0.310692  1
  O  O26  1  0.473364  0.186693  0.017065  1
  O  O27  1  0.026288  0.313406  0.983641  1
  O  O28  1  0.332370  0.150959  0.686860  1
  O  O29  1  0.632458  0.043463  0.622240  1
  O  O30  1  0.131901  0.542600  0.622929  1
  O  O31  1  0.525703  0.313279  0.482930  1
  O  O32  1  0.026366  0.812868  0.482701  1
  O  O33  1  0.833831  0.151767  0.189245  1
  O  O34  1  0.333611  0.652832  0.188200  1
  O  O35  1  0.367996  0.456899  0.876356  1
  O  O36  1  0.632977  0.543789  0.122817  1
  O  O37  1  0.667042  0.347305  0.811940  1
  O  O38  1  0.165947  0.849175  0.806579  1
  O  O39  1  0.979403  0.185644  0.518771  1
  O  O40  1  0.473388  0.685669  0.517374  1
  O  O41  1  0.868091  0.454098  0.378677  1
  O  O42  1  0.365556  0.957582  0.382952  1
  O  O43  1  0.664469  0.848141  0.311854  1
  O  O44  1  0.975449  0.687840  0.015605  1
  O  O45  1  0.525983  0.813772  0.982549  1
  O  O46  1  0.833050  0.652548  0.688281  1
  O  O47  1  0.867319  0.957696  0.877040  1
