# generated using pymatgen
data_Li8Mn7Fe(BO3)8
_symmetry_space_group_name_H-M   'P 1'
_cell_length_a   5.25692559
_cell_length_b   9.11683301
_cell_length_c   11.60155674
_cell_angle_alpha   111.42430187
_cell_angle_beta   102.29615246
_cell_angle_gamma   89.87933694
_symmetry_Int_Tables_number   1
_chemical_formula_structural   Li8Mn7Fe(BO3)8
_chemical_formula_sum   'Li8 Mn7 Fe1 B8 O24'
_cell_volume   503.97384280
_cell_formula_units_Z   1
loop_
 _symmetry_equiv_pos_site_id
 _symmetry_equiv_pos_as_xyz
  1  'x, y, z'
loop_
 _atom_site_type_symbol
 _atom_site_label
 _atom_site_symmetry_multiplicity
 _atom_site_fract_x
 _atom_site_fract_y
 _atom_site_fract_z
 _atom_site_occupancy
  Li  Li0  1  0.030149  0.040088  0.418300  1
  Li  Li1  1  0.296293  0.284929  0.917877  1
  Li  Li2  1  0.481233  0.507153  0.667477  1
  Li  Li3  1  0.272261  0.244826  0.168001  1
  Li  Li4  1  0.529314  0.539749  0.417603  1
  Li  Li5  1  0.796708  0.784434  0.917821  1
  Li  Li6  1  0.980484  0.008464  0.667841  1
  Li  Li7  1  0.772262  0.744215  0.167840  1
  Mn  Mn8  1  0.023071  0.356088  0.383111  1
  Mn  Mn9  1  0.273360  0.939883  0.883310  1
  Mn  Mn10  1  0.477307  0.156867  0.635323  1
  Mn  Mn11  1  0.241601  0.564496  0.131643  1
  Mn  Mn12  1  0.522947  0.856274  0.383408  1
  Mn  Mn13  1  0.744591  0.065616  0.133327  1
  Mn  Mn14  1  0.975635  0.654888  0.632811  1
  Fe  Fe15  1  0.766569  0.441415  0.883087  1
  B  B16  1  0.024445  0.685659  0.375750  1
  B  B17  1  0.263828  0.602178  0.875594  1
  B  B18  1  0.236299  0.892142  0.125572  1
  B  B19  1  0.470403  0.814551  0.626138  1
  B  B20  1  0.524321  0.185524  0.375724  1
  B  B21  1  0.768366  0.106373  0.876397  1
  B  B22  1  0.735211  0.392140  0.124551  1
  B  B23  1  0.971205  0.314844  0.626651  1
  O  O24  1  0.021905  0.109857  0.861284  1
  O  O25  1  0.100962  0.711361  0.845725  1
  O  O26  1  0.168020  0.490928  0.915316  1
  O  O27  1  0.072001  0.170124  0.611729  1
  O  O28  1  0.101768  0.424941  0.596032  1
  O  O29  1  0.238074  0.849855  0.666832  1
  O  O30  1  0.268447  0.654025  0.345247  1
  O  O31  1  0.521280  0.605853  0.863112  1
  O  O32  1  0.602522  0.214979  0.847237  1
  O  O33  1  0.402755  0.085192  0.417739  1
  O  O34  1  0.404807  0.315137  0.361181  1
  O  O35  1  0.676331  0.994303  0.917021  1
  O  O36  1  0.336494  0.012999  0.095725  1
  O  O37  1  0.571409  0.670060  0.612189  1
  O  O38  1  0.600704  0.925127  0.596143  1
  O  O39  1  0.405158  0.793340  0.166160  1
  O  O40  1  0.468310  0.370562  0.110977  1
  O  O41  1  0.739793  0.350547  0.667846  1
  O  O42  1  0.768648  0.154091  0.345204  1
  O  O43  1  0.902664  0.585225  0.417866  1
  O  O44  1  0.904522  0.814947  0.360977  1
  O  O45  1  0.834609  0.512055  0.093598  1
  O  O46  1  0.905278  0.294336  0.166249  1
  O  O47  1  0.968876  0.870554  0.111052  1
