# generated using pymatgen
data_Li2Fe12P7
_symmetry_space_group_name_H-M   'P 1'
_cell_length_a   8.87054820
_cell_length_b   8.87054820
_cell_length_c   3.55244579
_cell_angle_alpha   90.00000000
_cell_angle_beta   90.00000000
_cell_angle_gamma   120.00000000
_symmetry_Int_Tables_number   1
_chemical_formula_structural   Li2Fe12P7
_chemical_formula_sum   'Li2 Fe12 P7'
_cell_volume   242.08005586
_cell_formula_units_Z   1
loop_
 _symmetry_equiv_pos_site_id
 _symmetry_equiv_pos_as_xyz
  1  'x, y, z'
loop_
 _atom_site_type_symbol
 _atom_site_label
 _atom_site_symmetry_multiplicity
 _atom_site_fract_x
 _atom_site_fract_y
 _atom_site_fract_z
 _atom_site_occupancy
  Li  Li0  1  0.333333  0.666667  0.000000  1
  Li  Li1  1  0.666667  0.333333  0.500000  1
  Fe  Fe2  1  0.160352  0.883906  0.000000  1
  Fe  Fe3  1  0.389728  0.957221  0.500000  1
  Fe  Fe4  1  0.723554  0.839648  0.000000  1
  Fe  Fe5  1  0.042779  0.432507  0.500000  1
  Fe  Fe6  1  0.567493  0.610272  0.500000  1
  Fe  Fe7  1  0.905850  0.779695  0.500000  1
  Fe  Fe8  1  0.116094  0.276446  0.000000  1
  Fe  Fe9  1  0.431637  0.382338  0.000000  1
  Fe  Fe10  1  0.950702  0.568363  0.000000  1
  Fe  Fe11  1  0.220305  0.126155  0.500000  1
  Fe  Fe12  1  0.617662  0.049298  0.000000  1
  Fe  Fe13  1  0.873845  0.094150  0.500000  1
  P  P14  1  0.121545  0.714743  0.500000  1
  P  P15  1  0.593199  0.878455  0.500000  1
  P  P16  1  0.000000  0.000000  0.000000  1
  P  P17  1  0.285257  0.406801  0.500000  1
  P  P18  1  0.713412  0.585573  0.000000  1
  P  P19  1  0.414427  0.127839  0.000000  1
  P  P20  1  0.872161  0.286588  0.000000  1
