# generated using pymatgen
data_Li3MnFe2(BO3)3
_symmetry_space_group_name_H-M   'P 1'
_cell_length_a   8.25182474
_cell_length_b   3.14540573
_cell_length_c   16.52789576
_cell_angle_alpha   90.00000000
_cell_angle_beta   119.97270289
_cell_angle_gamma   90.00000000
_symmetry_Int_Tables_number   1
_chemical_formula_structural   Li3MnFe2(BO3)3
_chemical_formula_sum   'Li6 Mn2 Fe4 B6 O18'
_cell_volume   371.61587557
_cell_formula_units_Z   2
loop_
 _symmetry_equiv_pos_site_id
 _symmetry_equiv_pos_as_xyz
  1  'x, y, z'
loop_
 _atom_site_type_symbol
 _atom_site_label
 _atom_site_symmetry_multiplicity
 _atom_site_fract_x
 _atom_site_fract_y
 _atom_site_fract_z
 _atom_site_occupancy
  Li  Li0  1  0.698124  0.500000  0.991042  1
  Li  Li1  1  0.015838  0.500000  0.357220  1
  Li  Li2  1  0.284914  0.500000  0.651963  1
  Li  Li3  1  0.698968  0.500000  0.493096  1
  Li  Li4  1  0.018092  0.500000  0.857916  1
  Li  Li5  1  0.284406  0.500000  0.149918  1
  Mn  Mn6  1  0.371000  0.000000  0.506031  1
  Mn  Mn7  1  0.640078  0.000000  0.314316  1
  Fe  Fe8  1  0.640579  0.000000  0.816475  1
  Fe  Fe9  1  0.991730  0.000000  0.179339  1
  Fe  Fe10  1  0.367862  0.000000  0.003809  1
  Fe  Fe11  1  0.992785  0.000000  0.679506  1
  B  B12  1  0.669351  0.500000  0.668640  1
  B  B13  1  0.000347  0.000000  0.999870  1
  B  B14  1  0.330683  0.500000  0.331907  1
  B  B15  1  0.667237  0.500000  0.165208  1
  B  B16  1  0.997888  0.000000  0.500068  1
  B  B17  1  0.333480  0.500000  0.833591  1
  O  O18  1  0.418151  0.500000  0.429079  1
  O  O19  1  0.747820  0.500000  0.765365  1
  O  O20  1  0.474421  0.500000  0.611775  1
  O  O21  1  0.136259  0.500000  0.278460  1
  O  O22  1  0.805966  0.000000  0.957441  1
  O  O23  1  0.781964  0.500000  0.125682  1
  O  O24  1  0.443394  0.500000  0.791388  1
  O  O25  1  0.078475  0.000000  0.443501  1
  O  O26  1  0.111955  0.000000  0.597527  1
  O  O27  1  0.418165  0.500000  0.930430  1
  O  O28  1  0.747999  0.500000  0.262249  1
  O  O29  1  0.473293  0.500000  0.108593  1
  O  O30  1  0.139430  0.500000  0.778773  1
  O  O31  1  0.805001  0.000000  0.460683  1
  O  O32  1  0.782286  0.500000  0.628448  1
  O  O33  1  0.437269  0.500000  0.288585  1
  O  O34  1  0.085311  0.000000  0.945308  1
  O  O35  1  0.109478  0.000000  0.096800  1
