# generated using pymatgen
data_H7S(NO2)2
_symmetry_space_group_name_H-M   'P 1'
_cell_length_a   5.58845479
_cell_length_b   5.61476515
_cell_length_c   8.69511939
_cell_angle_alpha   72.22756960
_cell_angle_beta   75.09293578
_cell_angle_gamma   67.39536360
_symmetry_Int_Tables_number   1
_chemical_formula_structural   H7S(NO2)2
_chemical_formula_sum   'H14 S2 N4 O8'
_cell_volume   236.79672147
_cell_formula_units_Z   2
loop_
 _symmetry_equiv_pos_site_id
 _symmetry_equiv_pos_as_xyz
  1  'x, y, z'
loop_
 _atom_site_type_symbol
 _atom_site_label
 _atom_site_symmetry_multiplicity
 _atom_site_fract_x
 _atom_site_fract_y
 _atom_site_fract_z
 _atom_site_occupancy
  H  H0  1  0.794955  0.822185  0.965171  1
  H  H1  1  0.205045  0.177815  0.034829  1
  H  H2  1  0.994840  0.756889  0.106904  1
  H  H3  1  0.005160  0.243111  0.893096  1
  H  H4  1  0.668583  0.949812  0.132348  1
  H  H5  1  0.331417  0.050188  0.867652  1
  H  H6  1  0.755212  0.621194  0.149212  1
  H  H7  1  0.244788  0.378806  0.850788  1
  H  H8  1  0.797359  0.233330  0.431549  1
  H  H9  1  0.202641  0.766670  0.568451  1
  H  H10  1  0.822722  0.100684  0.636353  1
  H  H11  1  0.177278  0.899316  0.363647  1
  H  H12  1  0.061194  0.229386  0.505445  1
  H  H13  1  0.938806  0.770614  0.494555  1
  S  S14  1  0.596905  0.624652  0.725165  1
  S  S15  1  0.403095  0.375348  0.274835  1
  N  N16  1  0.926204  0.127817  0.518399  1
  N  N17  1  0.073796  0.872183  0.481601  1
  N  N18  1  0.806171  0.790625  0.087139  1
  N  N19  1  0.193829  0.209375  0.912861  1
  O  O20  1  0.692851  0.662159  0.545108  1
  O  O21  1  0.307149  0.337841  0.454892  1
  O  O22  1  0.714215  0.342599  0.810844  1
  O  O23  1  0.285785  0.657401  0.189156  1
  O  O24  1  0.303582  0.693506  0.753673  1
  O  O25  1  0.696418  0.306494  0.246327  1
  O  O26  1  0.666527  0.804980  0.788799  1
  O  O27  1  0.333473  0.195020  0.211201  1
