# generated using pymatgen
data_Li2Fe(NiO3)2
_symmetry_space_group_name_H-M   'P 1'
_cell_length_a   6.56825462
_cell_length_b   6.63868816
_cell_length_c   8.32147075
_cell_angle_alpha   70.60628917
_cell_angle_beta   70.36165837
_cell_angle_gamma   82.33236803
_symmetry_Int_Tables_number   1
_chemical_formula_structural   Li2Fe(NiO3)2
_chemical_formula_sum   'Li6 Fe3 Ni6 O18'
_cell_volume   322.25971224
_cell_formula_units_Z   3
loop_
 _symmetry_equiv_pos_site_id
 _symmetry_equiv_pos_as_xyz
  1  'x, y, z'
loop_
 _atom_site_type_symbol
 _atom_site_label
 _atom_site_symmetry_multiplicity
 _atom_site_fract_x
 _atom_site_fract_y
 _atom_site_fract_z
 _atom_site_occupancy
  Li  Li0  1  0.834909  0.490356  0.672495  1
  Li  Li1  1  0.165091  0.509644  0.327505  1
  Li  Li2  1  0.504606  0.151134  0.335458  1
  Li  Li3  1  0.827562  0.162487  0.001518  1
  Li  Li4  1  0.495394  0.848866  0.664542  1
  Li  Li5  1  0.172438  0.837513  0.998482  1
  Fe  Fe6  1  0.500000  0.500000  0.500000  1
  Fe  Fe7  1  0.831871  0.505939  0.159634  1
  Fe  Fe8  1  0.168129  0.494061  0.840366  1
  Ni  Ni9  1  0.831379  0.837830  0.827326  1
  Ni  Ni10  1  0.836457  0.166156  0.498061  1
  Ni  Ni11  1  0.168621  0.162170  0.172674  1
  Ni  Ni12  1  0.502612  0.166458  0.832540  1
  Ni  Ni13  1  0.163543  0.833844  0.501939  1
  Ni  Ni14  1  0.497388  0.833542  0.167460  1
  O  O15  1  0.148765  0.818920  0.739391  1
  O  O16  1  0.463875  0.822139  0.433449  1
  O  O17  1  0.813946  0.831277  0.061149  1
  O  O18  1  0.490473  0.476133  0.742919  1
  O  O19  1  0.829987  0.466062  0.419221  1
  O  O20  1  0.810856  0.165660  0.732432  1
  O  O21  1  0.170013  0.533938  0.580779  1
  O  O22  1  0.509527  0.523867  0.257081  1
  O  O23  1  0.536125  0.177861  0.566551  1
  O  O24  1  0.147996  0.505142  0.082263  1
  O  O25  1  0.147294  0.141382  0.411894  1
  O  O26  1  0.482923  0.132501  0.098485  1
  O  O27  1  0.852004  0.494858  0.917737  1
  O  O28  1  0.851235  0.181080  0.260609  1
  O  O29  1  0.186054  0.168723  0.938851  1
  O  O30  1  0.852706  0.858618  0.588106  1
  O  O31  1  0.189144  0.834340  0.267568  1
  O  O32  1  0.517077  0.867499  0.901515  1
