# generated using pymatgen
data_Li4Fe2Cu3Te3O16
_symmetry_space_group_name_H-M   'P 1'
_cell_length_a   6.11329991
_cell_length_b   6.28014760
_cell_length_c   9.70003070
_cell_angle_alpha   92.18155679
_cell_angle_beta   90.61586023
_cell_angle_gamma   118.81438368
_symmetry_Int_Tables_number   1
_chemical_formula_structural   Li4Fe2Cu3Te3O16
_chemical_formula_sum   'Li4 Fe2 Cu3 Te3 O16'
_cell_volume   325.88173374
_cell_formula_units_Z   1
loop_
 _symmetry_equiv_pos_site_id
 _symmetry_equiv_pos_as_xyz
  1  'x, y, z'
loop_
 _atom_site_type_symbol
 _atom_site_label
 _atom_site_symmetry_multiplicity
 _atom_site_fract_x
 _atom_site_fract_y
 _atom_site_fract_z
 _atom_site_occupancy
  Li  Li0  1  0.683887  0.347458  0.095804  1
  Li  Li1  1  0.993494  0.005534  0.989814  1
  Li  Li2  1  0.024142  0.050934  0.519892  1
  Li  Li3  1  0.347120  0.691313  0.617869  1
  Fe  Fe4  1  0.632257  0.298774  0.526132  1
  Fe  Fe5  1  0.316371  0.620416  0.993117  1
  Cu  Cu6  1  0.828783  0.162169  0.788025  1
  Cu  Cu7  1  0.334205  0.161692  0.790501  1
  Cu  Cu8  1  0.182760  0.338877  0.288435  1
  Te  Te9  1  0.825319  0.647425  0.781885  1
  Te  Te10  1  0.663963  0.839838  0.283474  1
  Te  Te11  1  0.161841  0.823692  0.280953  1
  O  O12  1  0.822392  0.147646  0.397339  1
  O  O13  1  0.521549  0.050840  0.662053  1
  O  O14  1  0.675439  0.341858  0.884609  1
  O  O15  1  0.986972  0.975619  0.704624  1
  O  O16  1  0.961764  0.978602  0.174636  1
  O  O17  1  0.331983  0.194508  0.412684  1
  O  O18  1  0.967338  0.516104  0.644291  1
  O  O19  1  0.541394  0.516434  0.652217  1
  O  O20  1  0.159340  0.310247  0.903364  1
  O  O21  1  0.830476  0.704783  0.398491  1
  O  O22  1  0.499719  0.536213  0.168005  1
  O  O23  1  0.046898  0.511974  0.162870  1
  O  O24  1  0.376179  0.706943  0.403979  1
  O  O25  1  0.657142  0.777442  0.905135  1
  O  O26  1  0.504391  0.963656  0.153528  1
  O  O27  1  0.123182  0.779009  0.908435  1
