# generated using pymatgen
data_Li2Cr3FeO8
_symmetry_space_group_name_H-M   'P 1'
_cell_length_a   5.89004466
_cell_length_b   5.89004466
_cell_length_c   5.89004466
_cell_angle_alpha   60.21856933
_cell_angle_beta   60.21856933
_cell_angle_gamma   60.21856933
_symmetry_Int_Tables_number   1
_chemical_formula_structural   Li2Cr3FeO8
_chemical_formula_sum   'Li2 Cr3 Fe1 O8'
_cell_volume   145.20602356
_cell_formula_units_Z   1
loop_
 _symmetry_equiv_pos_site_id
 _symmetry_equiv_pos_as_xyz
  1  'x, y, z'
loop_
 _atom_site_type_symbol
 _atom_site_label
 _atom_site_symmetry_multiplicity
 _atom_site_fract_x
 _atom_site_fract_y
 _atom_site_fract_z
 _atom_site_occupancy
  Li  Li0  1  0.875558  0.875558  0.875558  1
  Li  Li1  1  0.499763  0.499763  0.499763  1
  Cr  Cr2  1  0.988783  0.502452  0.502452  1
  Cr  Cr3  1  0.502452  0.988783  0.502452  1
  Cr  Cr4  1  0.502452  0.502452  0.988783  1
  Fe  Fe5  1  0.119407  0.119407  0.119407  1
  O  O6  1  0.739335  0.739335  0.739335  1
  O  O7  1  0.751433  0.751433  0.286233  1
  O  O8  1  0.751433  0.286233  0.751433  1
  O  O9  1  0.286233  0.751433  0.751433  1
  O  O10  1  0.723879  0.251698  0.251698  1
  O  O11  1  0.251698  0.723879  0.251698  1
  O  O12  1  0.251698  0.251698  0.723879  1
  O  O13  1  0.255874  0.255874  0.255874  1
