# generated using pymatgen
data_LuH6(ClO5)3
_symmetry_space_group_name_H-M   'P 1'
_cell_length_a   7.57200536
_cell_length_b   8.50178916
_cell_length_c   10.65389264
_cell_angle_alpha   79.66596430
_cell_angle_beta   78.40469624
_cell_angle_gamma   63.82220803
_symmetry_Int_Tables_number   1
_chemical_formula_structural   LuH6(ClO5)3
_chemical_formula_sum   'Lu2 H12 Cl6 O30'
_cell_volume   599.72258157
_cell_formula_units_Z   2
loop_
 _symmetry_equiv_pos_site_id
 _symmetry_equiv_pos_as_xyz
  1  'x, y, z'
loop_
 _atom_site_type_symbol
 _atom_site_label
 _atom_site_symmetry_multiplicity
 _atom_site_fract_x
 _atom_site_fract_y
 _atom_site_fract_z
 _atom_site_occupancy
  Lu  Lu0  1  0.783440  0.016554  0.252904  1
  Lu  Lu1  1  0.216560  0.983446  0.747096  1
  H  H2  1  0.053661  0.291671  0.550406  1
  H  H3  1  0.144720  0.173581  0.974829  1
  H  H4  1  0.195662  0.282672  0.847692  1
  H  H5  1  0.366528  0.291028  0.295950  1
  H  H6  1  0.427338  0.263731  0.148247  1
  H  H7  1  0.108030  0.781721  0.394782  1
  H  H8  1  0.891970  0.218279  0.605218  1
  H  H9  1  0.572662  0.736269  0.851753  1
  H  H10  1  0.633472  0.708972  0.704050  1
  H  H11  1  0.804338  0.717328  0.152308  1
  H  H12  1  0.855280  0.826419  0.025171  1
  H  H13  1  0.946339  0.708329  0.449594  1
  Cl  Cl14  1  0.035630  0.657299  0.756108  1
  Cl  Cl15  1  0.269353  0.773653  0.070600  1
  Cl  Cl16  1  0.513261  0.211982  0.555545  1
  Cl  Cl17  1  0.486739  0.788018  0.444455  1
  Cl  Cl18  1  0.730647  0.226347  0.929400  1
  Cl  Cl19  1  0.964370  0.342701  0.243892  1
  O  O20  1  0.113271  0.287100  0.132344  1
  O  O21  1  0.021076  0.210330  0.617761  1
  O  O22  1  0.048592  0.374935  0.342266  1
  O  O23  1  0.190220  0.168923  0.882048  1
  O  O24  1  0.273212  0.604614  0.122509  1
  O  O25  1  0.136991  0.908806  0.157881  1
  O  O26  1  0.350153  0.336291  0.488402  1
  O  O27  1  0.479238  0.234320  0.230742  1
  O  O28  1  0.210750  0.503312  0.790254  1
  O  O29  1  0.097528  0.802803  0.698956  1
  O  O30  1  0.437236  0.123438  0.670826  1
  O  O31  1  0.654582  0.074102  0.472740  1
  O  O32  1  0.382957  0.703047  0.403951  1
  O  O33  1  0.184440  0.826178  0.946293  1
  O  O34  1  0.462471  0.774961  0.046823  1
  O  O35  1  0.537529  0.225039  0.953177  1
  O  O36  1  0.815560  0.173822  0.053707  1
  O  O37  1  0.617043  0.296953  0.596049  1
  O  O38  1  0.345418  0.925898  0.527260  1
  O  O39  1  0.562764  0.876562  0.329174  1
  O  O40  1  0.902472  0.197197  0.301044  1
  O  O41  1  0.789250  0.496688  0.209746  1
  O  O42  1  0.520762  0.765680  0.769258  1
  O  O43  1  0.649847  0.663709  0.511598  1
  O  O44  1  0.863009  0.091194  0.842119  1
  O  O45  1  0.726788  0.395386  0.877491  1
  O  O46  1  0.809780  0.831077  0.117952  1
  O  O47  1  0.951408  0.625065  0.657734  1
  O  O48  1  0.978924  0.789670  0.382239  1
  O  O49  1  0.886729  0.712900  0.867656  1
