# generated using pymatgen
data_Li2AgF3
_symmetry_space_group_name_H-M   'P 1'
_cell_length_a   2.87380412
_cell_length_b   7.19616720
_cell_length_c   14.70573268
_cell_angle_alpha   90.00000000
_cell_angle_beta   90.00000000
_cell_angle_gamma   90.00000000
_symmetry_Int_Tables_number   1
_chemical_formula_structural   Li2AgF3
_chemical_formula_sum   'Li8 Ag4 F12'
_cell_volume   304.12006570
_cell_formula_units_Z   4
loop_
 _symmetry_equiv_pos_site_id
 _symmetry_equiv_pos_as_xyz
  1  'x, y, z'
loop_
 _atom_site_type_symbol
 _atom_site_label
 _atom_site_symmetry_multiplicity
 _atom_site_fract_x
 _atom_site_fract_y
 _atom_site_fract_z
 _atom_site_occupancy
  Li  Li0  1  0.250000  0.942527  0.332555  1
  Li  Li1  1  0.750000  0.840500  0.506004  1
  Li  Li2  1  0.250000  0.659500  0.006004  1
  Li  Li3  1  0.750000  0.557473  0.832555  1
  Li  Li4  1  0.250000  0.442527  0.167445  1
  Li  Li5  1  0.750000  0.340500  0.993996  1
  Li  Li6  1  0.250000  0.159500  0.493996  1
  Li  Li7  1  0.750000  0.057473  0.667445  1
  Ag  Ag8  1  0.750000  0.973054  0.124393  1
  Ag  Ag9  1  0.250000  0.526946  0.624393  1
  Ag  Ag10  1  0.750000  0.473054  0.375607  1
  Ag  Ag11  1  0.250000  0.026946  0.875607  1
  F  F12  1  0.250000  0.960725  0.582820  1
  F  F13  1  0.750000  0.852955  0.259589  1
  F  F14  1  0.750000  0.822858  0.964698  1
  F  F15  1  0.250000  0.677142  0.464698  1
  F  F16  1  0.250000  0.647045  0.759589  1
  F  F17  1  0.750000  0.539275  0.082820  1
  F  F18  1  0.250000  0.460725  0.917180  1
  F  F19  1  0.750000  0.352955  0.240411  1
  F  F20  1  0.750000  0.322858  0.535302  1
  F  F21  1  0.250000  0.177142  0.035302  1
  F  F22  1  0.250000  0.147045  0.740411  1
  F  F23  1  0.750000  0.039275  0.417180  1
