# generated using pymatgen
data_Li4Cr3CoO8
_symmetry_space_group_name_H-M   'P 1'
_cell_length_a   5.10246342
_cell_length_b   5.85750948
_cell_length_c   10.55784045
_cell_angle_alpha   74.02828253
_cell_angle_beta   76.20292760
_cell_angle_gamma   73.31669852
_symmetry_Int_Tables_number   1
_chemical_formula_structural   Li4Cr3CoO8
_chemical_formula_sum   'Li8 Cr6 Co2 O16'
_cell_volume   286.20786787
_cell_formula_units_Z   2
loop_
 _symmetry_equiv_pos_site_id
 _symmetry_equiv_pos_as_xyz
  1  'x, y, z'
loop_
 _atom_site_type_symbol
 _atom_site_label
 _atom_site_symmetry_multiplicity
 _atom_site_fract_x
 _atom_site_fract_y
 _atom_site_fract_z
 _atom_site_occupancy
  Li  Li0  1  0.498232  0.249592  0.501283  1
  Li  Li1  1  0.499595  0.871904  0.752559  1
  Li  Li2  1  0.504098  0.621506  0.250550  1
  Li  Li3  1  0.500000  0.000000  0.000000  1
  Li  Li4  1  0.501768  0.750408  0.498717  1
  Li  Li5  1  0.495902  0.378494  0.749450  1
  Li  Li6  1  0.500405  0.128096  0.247441  1
  Li  Li7  1  0.500000  0.500000  0.000000  1
  Cr  Cr8  1  0.999797  0.060275  0.627483  1
  Cr  Cr9  1  0.000058  0.436901  0.373409  1
  Cr  Cr10  1  0.000204  0.811228  0.122771  1
  Cr  Cr11  1  0.999942  0.563099  0.626591  1
  Cr  Cr12  1  0.999796  0.188772  0.877229  1
  Cr  Cr13  1  0.000203  0.939725  0.372517  1
  Co  Co14  1  0.000249  0.313868  0.123415  1
  Co  Co15  1  0.999751  0.686132  0.876585  1
  O  O16  1  0.781318  0.643921  0.057469  1
  O  O17  1  0.223120  0.470453  0.187063  1
  O  O18  1  0.772841  0.400847  0.561272  1
  O  O19  1  0.227518  0.223631  0.690930  1
  O  O20  1  0.223185  0.845459  0.937868  1
  O  O21  1  0.775355  0.019865  0.814288  1
  O  O22  1  0.772482  0.776369  0.309070  1
  O  O23  1  0.227159  0.599153  0.438728  1
  O  O24  1  0.776815  0.154541  0.062132  1
  O  O25  1  0.224645  0.980135  0.185712  1
  O  O26  1  0.773131  0.902018  0.560071  1
  O  O27  1  0.223939  0.721385  0.694746  1
  O  O28  1  0.776880  0.529547  0.812937  1
  O  O29  1  0.776061  0.278615  0.305254  1
  O  O30  1  0.218682  0.356079  0.942531  1
  O  O31  1  0.226869  0.097982  0.439929  1
