# generated using pymatgen
data_Li3MnP2HO8
_symmetry_space_group_name_H-M   'P 1'
_cell_length_a   4.95988330
_cell_length_b   8.42345197
_cell_length_c   7.77031520
_cell_angle_alpha   90.00000000
_cell_angle_beta   103.70204755
_cell_angle_gamma   90.00000000
_symmetry_Int_Tables_number   1
_chemical_formula_structural   Li3MnP2HO8
_chemical_formula_sum   'Li6 Mn2 P4 H2 O16'
_cell_volume   315.39962867
_cell_formula_units_Z   2
loop_
 _symmetry_equiv_pos_site_id
 _symmetry_equiv_pos_as_xyz
  1  'x, y, z'
loop_
 _atom_site_type_symbol
 _atom_site_label
 _atom_site_symmetry_multiplicity
 _atom_site_fract_x
 _atom_site_fract_y
 _atom_site_fract_z
 _atom_site_occupancy
  Li  Li0  1  0.080871  0.793529  0.316130  1
  Li  Li1  1  0.135172  0.640043  0.611948  1
  Li  Li2  1  0.864828  0.140043  0.388052  1
  Li  Li3  1  0.919129  0.293529  0.683870  1
  Li  Li4  1  0.609858  0.846524  0.055722  1
  Li  Li5  1  0.390142  0.346524  0.944278  1
  Mn  Mn6  1  0.750483  0.496540  0.251893  1
  Mn  Mn7  1  0.249517  0.996540  0.748107  1
  P  P8  1  0.115652  0.642546  0.973789  1
  P  P9  1  0.884348  0.142546  0.026211  1
  P  P10  1  0.622677  0.857655  0.470768  1
  P  P11  1  0.377323  0.357655  0.529232  1
  H  H12  1  0.702999  0.499624  0.757672  1
  H  H13  1  0.297001  0.999624  0.242328  1
  O  O14  1  0.174190  0.480548  0.426810  1
  O  O15  1  0.241233  0.795142  0.913984  1
  O  O16  1  0.086464  0.184817  0.906390  1
  O  O17  1  0.960329  0.553715  0.800098  1
  O  O18  1  0.825810  0.980548  0.573190  1
  O  O19  1  0.782207  0.708492  0.435098  1
  O  O20  1  0.039671  0.053715  0.199902  1
  O  O21  1  0.913536  0.684817  0.093610  1
  O  O22  1  0.627019  0.322159  0.447354  1
  O  O23  1  0.493519  0.928104  0.276782  1
  O  O24  1  0.758767  0.295142  0.086016  1
  O  O25  1  0.651432  0.034090  0.922829  1
  O  O26  1  0.506481  0.428104  0.723218  1
  O  O27  1  0.372981  0.822159  0.552646  1
  O  O28  1  0.217793  0.208492  0.564902  1
  O  O29  1  0.348568  0.534090  0.077171  1
