# generated using pymatgen
data_LiMn5(CuO6)2
_symmetry_space_group_name_H-M   'P 1'
_cell_length_a   5.10285102
_cell_length_b   5.10285102
_cell_length_c   9.64478343
_cell_angle_alpha   86.19888183
_cell_angle_beta   93.80111817
_cell_angle_gamma   63.72130112
_symmetry_Int_Tables_number   1
_chemical_formula_structural   LiMn5(CuO6)2
_chemical_formula_sum   'Li1 Mn5 Cu2 O12'
_cell_volume   223.40320815
_cell_formula_units_Z   1
loop_
 _symmetry_equiv_pos_site_id
 _symmetry_equiv_pos_as_xyz
  1  'x, y, z'
loop_
 _atom_site_type_symbol
 _atom_site_label
 _atom_site_symmetry_multiplicity
 _atom_site_fract_x
 _atom_site_fract_y
 _atom_site_fract_z
 _atom_site_occupancy
  Li  Li0  1  0.074713  0.074713  0.500000  1
  Mn  Mn1  1  0.922716  0.922716  0.000000  1
  Mn  Mn2  1  0.585073  0.585073  0.000000  1
  Mn  Mn3  1  0.413641  0.413641  0.500000  1
  Mn  Mn4  1  0.489430  0.004560  0.741869  1
  Mn  Mn5  1  0.004560  0.489430  0.258131  1
  Cu  Cu6  1  0.743669  0.743669  0.500000  1
  Cu  Cu7  1  0.254800  0.254800  0.000000  1
  O  O8  1  0.820789  0.690727  0.876222  1
  O  O9  1  0.935027  0.251042  0.101895  1
  O  O10  1  0.690727  0.820789  0.123778  1
  O  O11  1  0.710818  0.467945  0.397101  1
  O  O12  1  0.735761  0.049446  0.599639  1
  O  O13  1  0.467945  0.710818  0.602899  1
  O  O14  1  0.575248  0.259893  0.900468  1
  O  O15  1  0.251042  0.935027  0.898105  1
  O  O16  1  0.259893  0.575248  0.099532  1
  O  O17  1  0.324356  0.193654  0.368725  1
  O  O18  1  0.049446  0.735761  0.400361  1
  O  O19  1  0.193654  0.324356  0.631275  1
