# generated using pymatgen
data_Li3V2(O2F)2
_symmetry_space_group_name_H-M   'P 1'
_cell_length_a   5.93486320
_cell_length_b   7.37887315
_cell_length_c   7.89195892
_cell_angle_alpha   90.89757935
_cell_angle_beta   100.37795928
_cell_angle_gamma   90.37673552
_symmetry_Int_Tables_number   1
_chemical_formula_structural   Li3V2(O2F)2
_chemical_formula_sum   'Li9 V6 O12 F6'
_cell_volume   339.89831211
_cell_formula_units_Z   3
loop_
 _symmetry_equiv_pos_site_id
 _symmetry_equiv_pos_as_xyz
  1  'x, y, z'
loop_
 _atom_site_type_symbol
 _atom_site_label
 _atom_site_symmetry_multiplicity
 _atom_site_fract_x
 _atom_site_fract_y
 _atom_site_fract_z
 _atom_site_occupancy
  Li  Li0  1  0.085521  0.641654  0.426821  1
  Li  Li1  1  0.048582  0.358178  0.198728  1
  Li  Li2  1  0.448365  0.631381  0.790656  1
  Li  Li3  1  0.276850  0.629109  0.102939  1
  Li  Li4  1  0.389134  0.374113  0.552507  1
  Li  Li5  1  0.573262  0.400379  0.224284  1
  Li  Li6  1  0.722574  0.366149  0.907847  1
  Li  Li7  1  0.950400  0.629969  0.787850  1
  Li  Li8  1  0.889737  0.356231  0.563497  1
  V  V9  1  0.991336  0.000049  0.997331  1
  V  V10  1  0.166441  0.005337  0.672139  1
  V  V11  1  0.493453  0.005471  0.997549  1
  V  V12  1  0.342106  0.002610  0.337154  1
  V  V13  1  0.665128  0.990589  0.661404  1
  V  V14  1  0.834747  0.989850  0.328320  1
  O  O15  1  0.119020  0.139346  0.462260  1
  O  O16  1  0.210255  0.852545  0.872625  1
  O  O17  1  0.048598  0.855976  0.234370  1
  O  O18  1  0.268641  0.137412  0.117103  1
  O  O19  1  0.448679  0.141869  0.772431  1
  O  O20  1  0.393242  0.860436  0.563215  1
  O  O21  1  0.637336  0.142423  0.447877  1
  O  O22  1  0.713913  0.857068  0.876413  1
  O  O23  1  0.554919  0.864066  0.218371  1
  O  O24  1  0.928091  0.141555  0.767046  1
  O  O25  1  0.781778  0.146620  0.116948  1
  O  O26  1  0.892773  0.856859  0.553586  1
  F  F27  1  0.001356  0.501645  0.997904  1
  F  F28  1  0.166198  0.518854  0.649371  1
  F  F29  1  0.318098  0.489852  0.322656  1
  F  F30  1  0.499946  0.503523  0.003289  1
  F  F31  1  0.670117  0.484201  0.685948  1
  F  F32  1  0.858292  0.465393  0.345118  1
