# generated using pymatgen
data_Li4Fe3Co3(WO8)2
_symmetry_space_group_name_H-M   'P 1'
_cell_length_a   5.93832717
_cell_length_b   5.94053146
_cell_length_c   9.78823397
_cell_angle_alpha   89.10765569
_cell_angle_beta   89.02789800
_cell_angle_gamma   60.23736168
_symmetry_Int_Tables_number   1
_chemical_formula_structural   Li4Fe3Co3(WO8)2
_chemical_formula_sum   'Li4 Fe3 Co3 W2 O16'
_cell_volume   299.69598967
_cell_formula_units_Z   1
loop_
 _symmetry_equiv_pos_site_id
 _symmetry_equiv_pos_as_xyz
  1  'x, y, z'
loop_
 _atom_site_type_symbol
 _atom_site_label
 _atom_site_symmetry_multiplicity
 _atom_site_fract_x
 _atom_site_fract_y
 _atom_site_fract_z
 _atom_site_occupancy
  Li  Li0  1  0.663958  0.665798  0.089377  1
  Li  Li1  1  0.003359  0.000188  0.010957  1
  Li  Li2  1  0.002634  0.006169  0.514308  1
  Li  Li3  1  0.326874  0.324726  0.591834  1
  Fe  Fe4  1  0.824944  0.832987  0.780665  1
  Fe  Fe5  1  0.657767  0.166135  0.284365  1
  Fe  Fe6  1  0.166695  0.657718  0.285904  1
  Co  Co7  1  0.822423  0.343383  0.787338  1
  Co  Co8  1  0.340285  0.827992  0.788630  1
  Co  Co9  1  0.170124  0.171130  0.286236  1
  W  W10  1  0.655612  0.659840  0.514995  1
  W  W11  1  0.329175  0.336177  0.012581  1
  O  O12  1  0.826258  0.346982  0.411864  1
  O  O13  1  0.519353  0.506388  0.642205  1
  O  O14  1  0.668287  0.657560  0.884868  1
  O  O15  1  0.001348  0.011292  0.703246  1
  O  O16  1  0.999461  0.998342  0.198923  1
  O  O17  1  0.345850  0.822204  0.412565  1
  O  O18  1  0.957024  0.515295  0.656512  1
  O  O19  1  0.521568  0.956570  0.650649  1
  O  O20  1  0.175012  0.178665  0.918945  1
  O  O21  1  0.831183  0.826035  0.414612  1
  O  O22  1  0.493009  0.039152  0.144541  1
  O  O23  1  0.037622  0.494966  0.145576  1
  O  O24  1  0.338085  0.336136  0.391498  1
  O  O25  1  0.661998  0.177355  0.907495  1
  O  O26  1  0.482549  0.481426  0.152815  1
  O  O27  1  0.177842  0.659089  0.908654  1
