# generated using pymatgen
data_Cr(PO3)2
_symmetry_space_group_name_H-M   'P 1'
_cell_length_a   7.33335735
_cell_length_b   9.34821541
_cell_length_c   13.72555863
_cell_angle_alpha   90.00000000
_cell_angle_beta   90.00000000
_cell_angle_gamma   90.00000000
_symmetry_Int_Tables_number   1
_chemical_formula_structural   Cr(PO3)2
_chemical_formula_sum   'Cr8 P16 O48'
_cell_volume   940.93925867
_cell_formula_units_Z   8
loop_
 _symmetry_equiv_pos_site_id
 _symmetry_equiv_pos_as_xyz
  1  'x, y, z'
loop_
 _atom_site_type_symbol
 _atom_site_label
 _atom_site_symmetry_multiplicity
 _atom_site_fract_x
 _atom_site_fract_y
 _atom_site_fract_z
 _atom_site_occupancy
  Cr  Cr0  1  0.448632  0.007930  0.716973  1
  Cr  Cr1  1  0.948632  0.007930  0.783027  1
  Cr  Cr2  1  0.948632  0.492070  0.283027  1
  Cr  Cr3  1  0.448632  0.492070  0.216973  1
  Cr  Cr4  1  0.051368  0.507930  0.716973  1
  Cr  Cr5  1  0.551368  0.507930  0.783027  1
  Cr  Cr6  1  0.051368  0.992070  0.216973  1
  Cr  Cr7  1  0.551368  0.992070  0.283027  1
  P  P8  1  0.570348  0.204592  0.899873  1
  P  P9  1  0.070348  0.204592  0.600127  1
  P  P10  1  0.671583  0.220466  0.105416  1
  P  P11  1  0.171583  0.220466  0.394584  1
  P  P12  1  0.671583  0.279534  0.605416  1
  P  P13  1  0.171583  0.279534  0.894584  1
  P  P14  1  0.070348  0.295408  0.100127  1
  P  P15  1  0.570348  0.295408  0.399873  1
  P  P16  1  0.929652  0.704592  0.899873  1
  P  P17  1  0.429652  0.704592  0.600127  1
  P  P18  1  0.828417  0.720466  0.105416  1
  P  P19  1  0.328417  0.720466  0.394584  1
  P  P20  1  0.328417  0.779534  0.894584  1
  P  P21  1  0.828417  0.779534  0.605416  1
  P  P22  1  0.429652  0.795408  0.100127  1
  P  P23  1  0.929652  0.795408  0.399873  1
  O  O24  1  0.622880  0.097119  0.822259  1
  O  O25  1  0.122880  0.097119  0.677741  1
  O  O26  1  0.208670  0.103948  0.320707  1
  O  O27  1  0.708670  0.103948  0.179293  1
  O  O28  1  0.642680  0.141835  0.001696  1
  O  O29  1  0.142680  0.141835  0.498304  1
  O  O30  1  0.625122  0.141620  0.388372  1
  O  O31  1  0.125122  0.141620  0.111628  1
  O  O32  1  0.353036  0.188012  0.912257  1
  O  O33  1  0.853036  0.188012  0.587743  1
  O  O34  1  0.519753  0.175598  0.623667  1
  O  O35  1  0.019753  0.175598  0.876333  1
  O  O36  1  0.519753  0.324402  0.123667  1
  O  O37  1  0.019753  0.324402  0.376333  1
  O  O38  1  0.853036  0.311988  0.087743  1
  O  O39  1  0.353036  0.311988  0.412257  1
  O  O40  1  0.125122  0.358380  0.611628  1
  O  O41  1  0.625122  0.358380  0.888372  1
  O  O42  1  0.642680  0.358165  0.501696  1
  O  O43  1  0.142680  0.358165  0.998304  1
  O  O44  1  0.708670  0.396052  0.679293  1
  O  O45  1  0.208670  0.396052  0.820707  1
  O  O46  1  0.122880  0.402881  0.177741  1
  O  O47  1  0.622880  0.402881  0.322259  1
  O  O48  1  0.377120  0.597119  0.677741  1
  O  O49  1  0.877120  0.597119  0.822259  1
  O  O50  1  0.791330  0.603948  0.179293  1
  O  O51  1  0.291330  0.603948  0.320707  1
  O  O52  1  0.857320  0.641835  0.001696  1
  O  O53  1  0.357320  0.641835  0.498304  1
  O  O54  1  0.374878  0.641620  0.111628  1
  O  O55  1  0.874878  0.641620  0.388372  1
  O  O56  1  0.146964  0.688012  0.912257  1
  O  O57  1  0.646964  0.688012  0.587743  1
  O  O58  1  0.480247  0.675598  0.876333  1
  O  O59  1  0.980247  0.675598  0.623667  1
  O  O60  1  0.980247  0.824402  0.123667  1
  O  O61  1  0.480247  0.824402  0.376333  1
  O  O62  1  0.646964  0.811988  0.087743  1
  O  O63  1  0.146964  0.811988  0.412257  1
  O  O64  1  0.874878  0.858380  0.888372  1
  O  O65  1  0.374878  0.858380  0.611628  1
  O  O66  1  0.857320  0.858165  0.501696  1
  O  O67  1  0.357320  0.858165  0.998304  1
  O  O68  1  0.791330  0.896052  0.679293  1
  O  O69  1  0.291330  0.896052  0.820707  1
  O  O70  1  0.377120  0.902881  0.177741  1
  O  O71  1  0.877120  0.902881  0.322259  1
