# generated using pymatgen
data_Li4Mn(PO4)2
_symmetry_space_group_name_H-M   'P 1'
_cell_length_a   4.93464506
_cell_length_b   5.28321253
_cell_length_c   6.21104045
_cell_angle_alpha   95.38501078
_cell_angle_beta   94.27071697
_cell_angle_gamma   98.91096602
_symmetry_Int_Tables_number   1
_chemical_formula_structural   Li4Mn(PO4)2
_chemical_formula_sum   'Li4 Mn1 P2 O8'
_cell_volume   158.61276223
_cell_formula_units_Z   1
loop_
 _symmetry_equiv_pos_site_id
 _symmetry_equiv_pos_as_xyz
  1  'x, y, z'
loop_
 _atom_site_type_symbol
 _atom_site_label
 _atom_site_symmetry_multiplicity
 _atom_site_fract_x
 _atom_site_fract_y
 _atom_site_fract_z
 _atom_site_occupancy
  Li  Li0  1  0.158034  0.297633  0.535189  1
  Li  Li1  1  0.327576  0.589416  0.190189  1
  Li  Li2  1  0.672424  0.410584  0.809811  1
  Li  Li3  1  0.841966  0.702367  0.464811  1
  Mn  Mn4  1  0.000000  0.000000  0.000000  1
  P  P5  1  0.365374  0.813616  0.720063  1
  P  P6  1  0.634626  0.186384  0.279937  1
  O  O7  1  0.220751  0.665879  0.898944  1
  O  O8  1  0.243067  0.679819  0.494421  1
  O  O9  1  0.319388  0.195181  0.253770  1
  O  O10  1  0.298154  0.094055  0.754150  1
  O  O11  1  0.701846  0.905945  0.245850  1
  O  O12  1  0.680612  0.804819  0.746230  1
  O  O13  1  0.756933  0.320181  0.505579  1
  O  O14  1  0.779249  0.334121  0.101056  1
