# generated using pymatgen
data_Li2Fe3(SiO4)2
_symmetry_space_group_name_H-M   'P 1'
_cell_length_a   5.06315726
_cell_length_b   8.94267930
_cell_length_c   13.44848486
_cell_angle_alpha   108.48354965
_cell_angle_beta   99.31954197
_cell_angle_gamma   90.96059252
_symmetry_Int_Tables_number   1
_chemical_formula_structural   Li2Fe3(SiO4)2
_chemical_formula_sum   'Li6 Fe9 Si6 O24'
_cell_volume   568.37785137
_cell_formula_units_Z   3
loop_
 _symmetry_equiv_pos_site_id
 _symmetry_equiv_pos_as_xyz
  1  'x, y, z'
loop_
 _atom_site_type_symbol
 _atom_site_label
 _atom_site_symmetry_multiplicity
 _atom_site_fract_x
 _atom_site_fract_y
 _atom_site_fract_z
 _atom_site_occupancy
  Li  Li0  1  0.455921  0.362354  0.777731  1
  Li  Li1  1  0.385621  0.623579  0.685891  1
  Li  Li2  1  0.257434  0.522210  0.468944  1
  Li  Li3  1  0.481083  0.096449  0.856434  1
  Li  Li4  1  0.732467  0.346914  0.358484  1
  Li  Li5  1  0.627387  0.229841  0.098842  1
  Fe  Fe6  1  0.012379  0.013822  0.994645  1
  Fe  Fe7  1  0.274535  0.209895  0.493657  1
  Fe  Fe8  1  0.200538  0.450313  0.186540  1
  Fe  Fe9  1  0.287698  0.863651  0.345891  1
  Fe  Fe10  1  0.929579  0.598709  0.832982  1
  Fe  Fe11  1  0.594873  0.534019  0.035894  1
  Fe  Fe12  1  0.691366  0.926503  0.189525  1
  Fe  Fe13  1  0.923343  0.125534  0.690977  1
  Fe  Fe14  1  0.849974  0.712323  0.540303  1
  Si  Si15  1  0.026999  0.320301  0.933997  1
  Si  Si16  1  0.493459  0.801989  0.934755  1
  Si  Si17  1  0.197589  0.154096  0.250631  1
  Si  Si18  1  0.378503  0.925315  0.601913  1
  Si  Si19  1  0.825330  0.405339  0.593851  1
  Si  Si20  1  0.757262  0.637896  0.286296  1
  O  O21  1  0.043562  0.539851  0.588838  1
  O  O22  1  0.006963  0.253635  0.597994  1
  O  O23  1  0.174277  0.250357  0.829892  1
  O  O24  1  0.071347  0.912352  0.625661  1
  O  O25  1  0.378278  0.979069  0.958377  1
  O  O26  1  0.071202  0.239999  0.357518  1
  O  O27  1  0.313260  0.657218  0.837979  1
  O  O28  1  0.379401  0.990986  0.499021  1
  O  O29  1  0.399658  0.276605  0.222292  1
  O  O30  1  0.476208  0.742983  0.572089  1
  O  O31  1  0.558581  0.058059  0.707019  1
  O  O32  1  0.382674  0.009374  0.264115  1
  O  O33  1  0.279580  0.391055  0.034845  1
  O  O34  1  0.429647  0.650406  0.279766  1
  O  O35  1  0.787931  0.813541  0.899638  1
  O  O36  1  0.579892  0.360935  0.489830  1
  O  O37  1  0.678845  0.463988  0.700268  1
  O  O38  1  0.822357  0.457694  0.918178  1
  O  O39  1  0.830629  0.194595  0.960785  1
  O  O40  1  0.531242  0.757562  0.047817  1
  O  O41  1  0.892061  0.583151  0.386562  1
  O  O42  1  0.808635  0.499942  0.174490  1
  O  O43  1  0.881264  0.811588  0.288987  1
  O  O44  1  0.936268  0.081905  0.150659  1
