# generated using pymatgen
data_MgB2H6O7
_symmetry_space_group_name_H-M   'P 1'
_cell_length_a   7.69188569
_cell_length_b   7.69188569
_cell_length_c   8.22368526
_cell_angle_alpha   90.00000000
_cell_angle_beta   90.00000000
_cell_angle_gamma   90.00000000
_symmetry_Int_Tables_number   1
_chemical_formula_structural   MgB2H6O7
_chemical_formula_sum   'Mg4 B8 H24 O28'
_cell_volume   486.55520574
_cell_formula_units_Z   4
loop_
 _symmetry_equiv_pos_site_id
 _symmetry_equiv_pos_as_xyz
  1  'x, y, z'
loop_
 _atom_site_type_symbol
 _atom_site_label
 _atom_site_symmetry_multiplicity
 _atom_site_fract_x
 _atom_site_fract_y
 _atom_site_fract_z
 _atom_site_occupancy
  Mg  Mg0  1  0.750000  0.250000  0.750000  1
  Mg  Mg1  1  0.750000  0.750000  0.250000  1
  Mg  Mg2  1  0.250000  0.250000  0.250000  1
  Mg  Mg3  1  0.250000  0.750000  0.750000  1
  B  B4  1  0.613782  0.122382  0.105992  1
  B  B5  1  0.622382  0.886218  0.605992  1
  B  B6  1  0.877618  0.613782  0.894008  1
  B  B7  1  0.886218  0.377618  0.394008  1
  B  B8  1  0.113782  0.622382  0.394008  1
  B  B9  1  0.122382  0.386218  0.894008  1
  B  B10  1  0.377618  0.113782  0.605992  1
  B  B11  1  0.386218  0.877618  0.105992  1
  H  H12  1  0.538757  0.136790  0.347365  1
  H  H13  1  0.603900  0.639894  0.685653  1
  H  H14  1  0.639894  0.396100  0.314347  1
  H  H15  1  0.635238  0.697240  0.956250  1
  H  H16  1  0.636790  0.961243  0.847365  1
  H  H17  1  0.697240  0.364762  0.043750  1
  H  H18  1  0.802760  0.135238  0.456250  1
  H  H19  1  0.863210  0.538757  0.652635  1
  H  H20  1  0.860106  0.103900  0.185653  1
  H  H21  1  0.864762  0.802760  0.543750  1
  H  H22  1  0.896100  0.860106  0.814347  1
  H  H23  1  0.961243  0.363210  0.152635  1
  H  H24  1  0.038757  0.636790  0.152635  1
  H  H25  1  0.103900  0.139894  0.814347  1
  H  H26  1  0.135238  0.197240  0.543750  1
  H  H27  1  0.139894  0.896100  0.185653  1
  H  H28  1  0.136790  0.461243  0.652635  1
  H  H29  1  0.197240  0.864762  0.456250  1
  H  H30  1  0.302760  0.635238  0.043750  1
  H  H31  1  0.363210  0.038757  0.847365  1
  H  H32  1  0.364762  0.302760  0.956250  1
  H  H33  1  0.360106  0.603900  0.314347  1
  H  H34  1  0.396100  0.360106  0.685653  1
  H  H35  1  0.461243  0.863210  0.347365  1
  O  O36  1  0.500000  0.000000  0.016585  1
  O  O37  1  0.500000  0.000000  0.516585  1
  O  O38  1  0.524615  0.738288  0.666356  1
  O  O39  1  0.520484  0.208089  0.247590  1
  O  O40  1  0.658831  0.264477  0.990513  1
  O  O41  1  0.708089  0.979516  0.747590  1
  O  O42  1  0.738288  0.475385  0.333644  1
  O  O43  1  0.735523  0.658831  0.009487  1
  O  O44  1  0.764477  0.841169  0.490513  1
  O  O45  1  0.761712  0.024615  0.166356  1
  O  O46  1  0.791911  0.520484  0.752410  1
  O  O47  1  0.841169  0.235523  0.509487  1
  O  O48  1  0.975385  0.761712  0.833644  1
  O  O49  1  0.979516  0.291911  0.252410  1
  O  O50  1  0.000000  0.500000  0.483415  1
  O  O51  1  0.000000  0.500000  0.983415  1
  O  O52  1  0.020484  0.708089  0.252410  1
  O  O53  1  0.024615  0.238288  0.833644  1
  O  O54  1  0.158831  0.764477  0.509487  1
  O  O55  1  0.208089  0.479516  0.752410  1
  O  O56  1  0.238288  0.975385  0.166356  1
  O  O57  1  0.235523  0.158831  0.490513  1
  O  O58  1  0.264477  0.341169  0.009487  1
  O  O59  1  0.261712  0.524615  0.333644  1
  O  O60  1  0.291911  0.020484  0.747590  1
  O  O61  1  0.341169  0.735523  0.990513  1
  O  O62  1  0.479516  0.791911  0.247590  1
  O  O63  1  0.475385  0.261712  0.666356  1
