# generated using pymatgen
data_Li6V2C4SO16
_symmetry_space_group_name_H-M   'P 1'
_cell_length_a   9.47050646
_cell_length_b   9.47050646
_cell_length_c   9.47050646
_cell_angle_alpha   60.00000000
_cell_angle_beta   60.00000000
_cell_angle_gamma   60.00000000
_symmetry_Int_Tables_number   1
_chemical_formula_structural   Li6V2C4SO16
_chemical_formula_sum   'Li12 V4 C8 S2 O32'
_cell_volume   600.62667422
_cell_formula_units_Z   2
loop_
 _symmetry_equiv_pos_site_id
 _symmetry_equiv_pos_as_xyz
  1  'x, y, z'
loop_
 _atom_site_type_symbol
 _atom_site_label
 _atom_site_symmetry_multiplicity
 _atom_site_fract_x
 _atom_site_fract_y
 _atom_site_fract_z
 _atom_site_occupancy
  Li  Li0  1  0.467402  0.467402  0.032598  1
  Li  Li1  1  0.032598  0.467402  0.032598  1
  Li  Li2  1  0.032598  0.467402  0.467402  1
  Li  Li3  1  0.467402  0.032598  0.032598  1
  Li  Li4  1  0.782598  0.217402  0.782598  1
  Li  Li5  1  0.217402  0.217402  0.782598  1
  Li  Li6  1  0.467402  0.032598  0.467402  1
  Li  Li7  1  0.032598  0.032598  0.467402  1
  Li  Li8  1  0.217402  0.782598  0.782598  1
  Li  Li9  1  0.782598  0.217402  0.217402  1
  Li  Li10  1  0.782598  0.782598  0.217402  1
  Li  Li11  1  0.217402  0.782598  0.217402  1
  V  V12  1  0.625000  0.625000  0.125000  1
  V  V13  1  0.125000  0.625000  0.625000  1
  V  V14  1  0.625000  0.625000  0.625000  1
  V  V15  1  0.625000  0.125000  0.625000  1
  C  C16  1  0.850073  0.449782  0.850073  1
  C  C17  1  0.449782  0.850073  0.850073  1
  C  C18  1  0.850073  0.850073  0.850073  1
  C  C19  1  0.850073  0.850073  0.449782  1
  C  C20  1  0.399927  0.399927  0.800218  1
  C  C21  1  0.800218  0.399927  0.399927  1
  C  C22  1  0.399927  0.399927  0.399927  1
  C  C23  1  0.399927  0.800218  0.399927  1
  S  S24  1  1.000000  1.000000  1.000000  1
  S  S25  1  0.250000  0.250000  0.250000  1
  O  O26  1  0.064488  0.806535  0.064488  1
  O  O27  1  0.806535  0.064488  0.064488  1
  O  O28  1  0.064488  0.064488  0.064488  1
  O  O29  1  0.064488  0.064488  0.806535  1
  O  O30  1  0.717282  0.449059  0.991000  1
  O  O31  1  0.991000  0.449059  0.842659  1
  O  O32  1  0.842659  0.717282  0.991000  1
  O  O33  1  0.842659  0.449059  0.717282  1
  O  O34  1  0.449059  0.842659  0.991000  1
  O  O35  1  0.449059  0.717282  0.842659  1
  O  O36  1  0.991000  0.842659  0.717282  1
  O  O37  1  0.717282  0.991000  0.842659  1
  O  O38  1  0.991000  0.717282  0.449059  1
  O  O39  1  0.449059  0.991000  0.717282  1
  O  O40  1  0.717282  0.842659  0.449059  1
  O  O41  1  0.407341  0.259000  0.800941  1
  O  O42  1  0.842659  0.991000  0.449059  1
  O  O43  1  0.532718  0.407341  0.800941  1
  O  O44  1  0.800941  0.259000  0.532718  1
  O  O45  1  0.259000  0.532718  0.800941  1
  O  O46  1  0.532718  0.259000  0.407341  1
  O  O47  1  0.259000  0.407341  0.532718  1
  O  O48  1  0.800941  0.532718  0.407341  1
  O  O49  1  0.800941  0.407341  0.259000  1
  O  O50  1  0.407341  0.800941  0.532718  1
  O  O51  1  0.407341  0.532718  0.259000  1
  O  O52  1  0.259000  0.800941  0.407341  1
  O  O53  1  0.532718  0.800941  0.259000  1
  O  O54  1  0.185512  0.185512  0.443465  1
  O  O55  1  0.443465  0.185512  0.185512  1
  O  O56  1  0.185512  0.185512  0.185512  1
  O  O57  1  0.185512  0.443465  0.185512  1
