# generated using pymatgen
data_Li2FeO2F
_symmetry_space_group_name_H-M   'P 1'
_cell_length_a   5.21167785
_cell_length_b   5.21167785
_cell_length_c   5.14627236
_cell_angle_alpha   81.07450701
_cell_angle_beta   98.92549299
_cell_angle_gamma   59.30891564
_symmetry_Int_Tables_number   1
_chemical_formula_structural   Li2FeO2F
_chemical_formula_sum   'Li4 Fe2 O4 F2'
_cell_volume   114.13922137
_cell_formula_units_Z   2
loop_
 _symmetry_equiv_pos_site_id
 _symmetry_equiv_pos_as_xyz
  1  'x, y, z'
loop_
 _atom_site_type_symbol
 _atom_site_label
 _atom_site_symmetry_multiplicity
 _atom_site_fract_x
 _atom_site_fract_y
 _atom_site_fract_z
 _atom_site_occupancy
  Li  Li0  1  0.500000  0.500000  0.500000  1
  Li  Li1  1  0.000000  0.000000  0.000000  1
  Li  Li2  1  0.821667  0.821667  0.500000  1
  Li  Li3  1  0.178333  0.178333  0.500000  1
  Fe  Fe4  1  0.684412  0.684412  0.000000  1
  Fe  Fe5  1  0.315588  0.315588  0.000000  1
  O  O6  1  0.424728  0.908829  0.232663  1
  O  O7  1  0.908829  0.424728  0.767337  1
  O  O8  1  0.575272  0.091171  0.767337  1
  O  O9  1  0.091171  0.575272  0.232663  1
  F  F10  1  0.737846  0.262154  0.245782  1
  F  F11  1  0.262154  0.737846  0.754218  1
