# generated using pymatgen
data_Rb2PrO3
_symmetry_space_group_name_H-M   'P 1'
_cell_length_a   6.86066209
_cell_length_b   6.86066209
_cell_length_c   6.58113690
_cell_angle_alpha   90.00000000
_cell_angle_beta   90.00000000
_cell_angle_gamma   113.35200837
_symmetry_Int_Tables_number   1
_chemical_formula_structural   Rb2PrO3
_chemical_formula_sum   'Rb4 Pr2 O6'
_cell_volume   284.39162529
_cell_formula_units_Z   2
loop_
 _symmetry_equiv_pos_site_id
 _symmetry_equiv_pos_as_xyz
  1  'x, y, z'
loop_
 _atom_site_type_symbol
 _atom_site_label
 _atom_site_symmetry_multiplicity
 _atom_site_fract_x
 _atom_site_fract_y
 _atom_site_fract_z
 _atom_site_occupancy
  Rb  Rb0  1  0.812793  0.477123  0.266590  1
  Rb  Rb1  1  0.522877  0.187207  0.766590  1
  Rb  Rb2  1  0.187207  0.522877  0.766590  1
  Rb  Rb3  1  0.477123  0.812793  0.266590  1
  Pr  Pr4  1  0.102008  0.102008  0.237573  1
  Pr  Pr5  1  0.897992  0.897992  0.737573  1
  O  O6  1  0.852313  0.114069  0.999039  1
  O  O7  1  0.885931  0.147687  0.499039  1
  O  O8  1  0.608524  0.608524  0.671170  1
  O  O9  1  0.391476  0.391476  0.171170  1
  O  O10  1  0.114069  0.852313  0.999039  1
  O  O11  1  0.147687  0.885931  0.499039  1
