# generated using pymatgen
data_LiV2P4(HO8)2
_symmetry_space_group_name_H-M   'P 1'
_cell_length_a   7.76431800
_cell_length_b   9.28607478
_cell_length_c   9.29850629
_cell_angle_alpha   116.56680302
_cell_angle_beta   101.90811608
_cell_angle_gamma   101.92122343
_symmetry_Int_Tables_number   1
_chemical_formula_structural   LiV2P4(HO8)2
_chemical_formula_sum   'Li2 V4 P8 H4 O32'
_cell_volume   551.46183243
_cell_formula_units_Z   2
loop_
 _symmetry_equiv_pos_site_id
 _symmetry_equiv_pos_as_xyz
  1  'x, y, z'
loop_
 _atom_site_type_symbol
 _atom_site_label
 _atom_site_symmetry_multiplicity
 _atom_site_fract_x
 _atom_site_fract_y
 _atom_site_fract_z
 _atom_site_occupancy
  Li  Li0  1  0.357285  0.630140  0.907875  1
  Li  Li1  1  0.852753  0.870440  0.290310  1
  V  V2  1  0.499735  0.010794  0.745508  1
  V  V3  1  0.990081  0.500514  0.000734  1
  V  V4  1  0.003335  0.491878  0.504975  1
  V  V5  1  0.487921  0.001835  0.248764  1
  P  P6  1  0.268859  0.355976  0.392454  1
  P  P7  1  0.265242  0.349875  0.893967  1
  P  P8  1  0.231670  0.843679  0.510217  1
  P  P9  1  0.229050  0.856704  0.997823  1
  P  P10  1  0.766854  0.147636  0.497817  1
  P  P11  1  0.763332  0.153703  0.992067  1
  P  P12  1  0.732828  0.646992  0.602413  1
  P  P13  1  0.732926  0.659589  0.102739  1
  H  H14  1  0.510424  0.508114  0.735207  1
  H  H15  1  0.492547  0.494611  0.259304  1
  H  H16  1  0.989021  0.009465  0.507888  1
  H  H17  1  0.999730  0.000125  0.999650  1
  O  O18  1  0.052052  0.949030  0.937509  1
  O  O19  1  0.340076  0.951047  0.872416  1
  O  O20  1  0.629952  0.180264  0.816376  1
  O  O21  1  0.681263  0.835093  0.946297  1
  O  O22  1  0.158174  0.444173  0.930923  1
  O  O23  1  0.159338  0.446636  0.428598  1
  O  O24  1  0.317405  0.177150  0.541581  1
  O  O25  1  0.362079  0.829245  0.684409  1
  O  O26  1  0.439566  0.451970  0.868130  1
  O  O27  1  0.443773  0.458345  0.361099  1
  O  O28  1  0.656159  0.058802  0.623083  1
  O  O29  1  0.818308  0.326745  0.466943  1
  O  O30  1  0.824291  0.332534  0.978352  1
  O  O31  1  0.056587  0.946402  0.429881  1
  O  O32  1  0.131077  0.322305  0.745042  1
  O  O33  1  0.131955  0.347114  0.228385  1
  O  O34  1  0.863852  0.661725  0.763716  1
  O  O35  1  0.863266  0.674800  0.262029  1
  O  O36  1  0.942988  0.043097  0.574333  1
  O  O37  1  0.184212  0.666990  0.531099  1
  O  O38  1  0.183108  0.678682  0.010988  1
  O  O39  1  0.352418  0.935051  0.386408  1
  O  O40  1  0.553152  0.551579  0.628983  1
  O  O41  1  0.558529  0.555154  0.125578  1
  O  O42  1  0.633739  0.154421  0.325424  1
  O  O43  1  0.684040  0.823751  0.438829  1
  O  O44  1  0.844342  0.552782  0.572273  1
  O  O45  1  0.853565  0.568166  0.070363  1
  O  O46  1  0.324960  0.169672  0.059351  1
  O  O47  1  0.366749  0.840645  0.173970  1
  O  O48  1  0.659894  0.056956  0.124951  1
  O  O49  1  0.939394  0.051353  0.067927  1
