# generated using pymatgen
data_Li9Cr4(BO3)8
_symmetry_space_group_name_H-M   'P 1'
_cell_length_a   6.03887758
_cell_length_b   8.94388988
_cell_length_c   9.46049152
_cell_angle_alpha   65.62891844
_cell_angle_beta   88.99489782
_cell_angle_gamma   89.37733534
_symmetry_Int_Tables_number   1
_chemical_formula_structural   Li9Cr4(BO3)8
_chemical_formula_sum   'Li9 Cr4 B8 O24'
_cell_volume   465.36423805
_cell_formula_units_Z   1
loop_
 _symmetry_equiv_pos_site_id
 _symmetry_equiv_pos_as_xyz
  1  'x, y, z'
loop_
 _atom_site_type_symbol
 _atom_site_label
 _atom_site_symmetry_multiplicity
 _atom_site_fract_x
 _atom_site_fract_y
 _atom_site_fract_z
 _atom_site_occupancy
  Li  Li0  1  0.251372  0.146367  0.086087  1
  Li  Li1  1  0.219282  0.127538  0.573840  1
  Li  Li2  1  0.428928  0.302280  0.673207  1
  Li  Li3  1  0.761573  0.383228  0.486302  1
  Li  Li4  1  0.255019  0.603747  0.011076  1
  Li  Li5  1  0.774454  0.378893  0.997449  1
  Li  Li6  1  0.547589  0.705508  0.340852  1
  Li  Li7  1  0.792150  0.868331  0.426666  1
  Li  Li8  1  0.919171  0.724531  0.837060  1
  Cr  Cr9  1  0.533349  0.230358  0.282229  1
  Cr  Cr10  1  0.967261  0.230075  0.780496  1
  Cr  Cr11  1  0.046008  0.761336  0.223543  1
  Cr  Cr12  1  0.465751  0.761656  0.720992  1
  B  B13  1  0.716253  0.051532  0.080207  1
  B  B14  1  0.784072  0.053254  0.576754  1
  B  B15  1  0.336863  0.451165  0.313399  1
  B  B16  1  0.841348  0.543852  0.189592  1
  B  B17  1  0.153818  0.455853  0.803091  1
  B  B18  1  0.673777  0.547320  0.687531  1
  B  B19  1  0.223022  0.941025  0.424759  1
  B  B20  1  0.277342  0.946104  0.918332  1
  O  O21  1  0.598909  0.176476  0.098414  1
  O  O22  1  0.287551  0.089692  0.308098  1
  O  O23  1  0.728081  0.084689  0.422148  1
  O  O24  1  0.901520  0.173405  0.598661  1
  O  O25  1  0.242427  0.101353  0.797688  1
  O  O26  1  0.768502  0.400998  0.190438  1
  O  O27  1  0.779024  0.086249  0.926168  1
  O  O28  1  0.334185  0.415048  0.184870  1
  O  O29  1  0.431421  0.321916  0.442476  1
  O  O30  1  0.963635  0.662858  0.071462  1
  O  O31  1  0.714465  0.395999  0.685176  1
  O  O32  1  0.818763  0.585599  0.316786  1
  O  O33  1  0.156466  0.421492  0.672201  1
  O  O34  1  0.282971  0.602432  0.307565  1
  O  O35  1  0.061457  0.321412  0.929713  1
  O  O36  1  0.592236  0.680637  0.560371  1
  O  O37  1  0.685985  0.572801  0.822455  1
  O  O38  1  0.203494  0.931021  0.067149  1
  O  O39  1  0.214112  0.596825  0.811414  1
  O  O40  1  0.762710  0.902371  0.198243  1
  O  O41  1  0.103768  0.831724  0.388252  1
  O  O42  1  0.265221  0.919279  0.573757  1
  O  O43  1  0.734143  0.903671  0.687438  1
  O  O44  1  0.372298  0.819681  0.897789  1
