# generated using pymatgen
data_Mn3OF6
_symmetry_space_group_name_H-M   'P 1'
_cell_length_a   5.94582576
_cell_length_b   6.62645671
_cell_length_c   8.08164465
_cell_angle_alpha   109.78444551
_cell_angle_beta   106.44800875
_cell_angle_gamma   84.98923235
_symmetry_Int_Tables_number   1
_chemical_formula_structural   Mn3OF6
_chemical_formula_sum   'Mn6 O2 F12'
_cell_volume   287.34561180
_cell_formula_units_Z   2
loop_
 _symmetry_equiv_pos_site_id
 _symmetry_equiv_pos_as_xyz
  1  'x, y, z'
loop_
 _atom_site_type_symbol
 _atom_site_label
 _atom_site_symmetry_multiplicity
 _atom_site_fract_x
 _atom_site_fract_y
 _atom_site_fract_z
 _atom_site_occupancy
  Mn  Mn0  1  0.354857  0.718830  0.065686  1
  Mn  Mn1  1  0.929536  0.853930  0.781437  1
  Mn  Mn2  1  0.779849  0.568277  0.351637  1
  Mn  Mn3  1  0.220151  0.431723  0.648363  1
  Mn  Mn4  1  0.070464  0.146070  0.218563  1
  Mn  Mn5  1  0.645143  0.281170  0.934314  1
  O  O6  1  0.900902  0.389399  0.151284  1
  O  O7  1  0.099098  0.610601  0.848716  1
  F  F8  1  0.769577  0.987323  0.995158  1
  F  F9  1  0.652247  0.809721  0.253785  1
  F  F10  1  0.167554  0.862132  0.245355  1
  F  F11  1  0.659934  0.694968  0.563846  1
  F  F12  1  0.094848  0.694863  0.558636  1
  F  F13  1  0.457761  0.432237  0.128003  1
  F  F14  1  0.542239  0.567763  0.871997  1
  F  F15  1  0.905152  0.305137  0.441364  1
  F  F16  1  0.340066  0.305032  0.436154  1
  F  F17  1  0.832446  0.137868  0.754645  1
  F  F18  1  0.347753  0.190279  0.746215  1
  F  F19  1  0.230423  0.012677  0.004842  1
