# generated using pymatgen
data_Li6Mn5Fe(BO3)6
_symmetry_space_group_name_H-M   'P 1'
_cell_length_a   8.85269710
_cell_length_b   8.85269710
_cell_length_c   8.27335513
_cell_angle_alpha   62.25567932
_cell_angle_beta   117.74432068
_cell_angle_gamma   137.81196343
_symmetry_Int_Tables_number   1
_chemical_formula_structural   Li6Mn5Fe(BO3)6
_chemical_formula_sum   'Li6 Mn5 Fe1 B6 O18'
_cell_volume   377.35686039
_cell_formula_units_Z   1
loop_
 _symmetry_equiv_pos_site_id
 _symmetry_equiv_pos_as_xyz
  1  'x, y, z'
loop_
 _atom_site_type_symbol
 _atom_site_label
 _atom_site_symmetry_multiplicity
 _atom_site_fract_x
 _atom_site_fract_y
 _atom_site_fract_z
 _atom_site_occupancy
  Li  Li0  1  0.240415  0.258627  0.698401  1
  Li  Li1  1  0.741373  0.759585  0.698401  1
  Li  Li2  1  0.400851  0.099704  0.283582  1
  Li  Li3  1  0.900296  0.599149  0.283582  1
  Li  Li4  1  0.107453  0.391596  0.016887  1
  Li  Li5  1  0.608404  0.892547  0.016887  1
  Mn  Mn6  1  0.179998  0.820002  0.988007  1
  Mn  Mn7  1  0.679644  0.320356  0.987791  1
  Mn  Mn8  1  0.505896  0.494104  0.370974  1
  Mn  Mn9  1  0.006261  0.993739  0.372217  1
  Mn  Mn10  1  0.314464  0.685536  0.641229  1
  Fe  Fe11  1  0.815804  0.184196  0.639725  1
  B  B12  1  0.585226  0.918466  0.334228  1
  B  B13  1  0.081534  0.414774  0.334228  1
  B  B14  1  0.418389  0.083787  0.666505  1
  B  B15  1  0.916213  0.581611  0.666505  1
  B  B16  1  0.998917  0.001083  0.999792  1
  B  B17  1  0.499988  0.500012  0.999969  1
  O  O18  1  0.461306  0.538694  0.806619  1
  O  O19  1  0.958128  0.041872  0.805429  1
  O  O20  1  0.036345  0.455597  0.442122  1
  O  O21  1  0.544403  0.963655  0.442122  1
  O  O22  1  0.095826  0.904174  0.112899  1
  O  O23  1  0.596796  0.403204  0.115740  1
  O  O24  1  0.680040  0.819707  0.419880  1
  O  O25  1  0.180293  0.319960  0.419880  1
  O  O26  1  0.029593  0.470389  0.140811  1
  O  O27  1  0.529611  0.970407  0.140811  1
  O  O28  1  0.375250  0.123761  0.777642  1
  O  O29  1  0.876239  0.624750  0.777642  1
  O  O30  1  0.441955  0.558045  0.077623  1
  O  O31  1  0.942022  0.057978  0.079454  1
  O  O32  1  0.516522  0.988249  0.748313  1
  O  O33  1  0.011751  0.483478  0.748313  1
  O  O34  1  0.361648  0.138837  0.472897  1
  O  O35  1  0.861163  0.638352  0.472897  1
