# generated using pymatgen
data_Ba2In2O5
_symmetry_space_group_name_H-M   'P 1'
_cell_length_a   9.66237603
_cell_length_b   9.66237603
_cell_length_c   8.69514316
_cell_angle_alpha   90.00000000
_cell_angle_beta   90.00000000
_cell_angle_gamma   130.01063393
_symmetry_Int_Tables_number   1
_chemical_formula_structural   Ba2In2O5
_chemical_formula_sum   'Ba8 In8 O20'
_cell_volume   621.77166304
_cell_formula_units_Z   4
loop_
 _symmetry_equiv_pos_site_id
 _symmetry_equiv_pos_as_xyz
  1  'x, y, z'
loop_
 _atom_site_type_symbol
 _atom_site_label
 _atom_site_symmetry_multiplicity
 _atom_site_fract_x
 _atom_site_fract_y
 _atom_site_fract_z
 _atom_site_occupancy
  Ba  Ba0  1  0.372326  0.127674  0.252685  1
  Ba  Ba1  1  0.138374  0.361626  0.254858  1
  Ba  Ba2  1  0.868107  0.631893  0.256901  1
  Ba  Ba3  1  0.368107  0.131893  0.743099  1
  Ba  Ba4  1  0.133019  0.366981  0.743190  1
  Ba  Ba5  1  0.633019  0.866981  0.256810  1
  Ba  Ba6  1  0.872326  0.627674  0.747315  1
  Ba  Ba7  1  0.638374  0.861626  0.745142  1
  In  In8  1  0.995431  0.004569  1.000000  1
  In  In9  1  0.755924  0.244076  0.000000  1
  In  In10  1  0.749183  0.250817  0.500000  1
  In  In11  1  0.002443  0.997557  0.500000  1
  In  In12  1  0.255924  0.744076  1.000000  1
  In  In13  1  0.495431  0.504569  1.000000  1
  In  In14  1  0.502443  0.497557  0.500000  1
  In  In15  1  0.249183  0.750817  0.500000  1
  O  O16  1  0.874813  0.125187  1.000000  1
  O  O17  1  0.727995  0.237662  0.255197  1
  O  O18  1  0.503658  0.494882  0.245744  1
  O  O19  1  0.238861  0.261139  0.500868  1
  O  O20  1  0.781309  0.718691  0.000027  1
  O  O21  1  0.965264  0.534736  0.013410  1
  O  O22  1  0.630085  0.369915  0.500000  1
  O  O23  1  0.867111  0.132889  0.500000  1
  O  O24  1  0.374813  0.625187  1.000000  1
  O  O25  1  0.738861  0.761139  0.499132  1
  O  O26  1  0.281309  0.218691  0.999973  1
  O  O27  1  0.005118  0.996342  0.245744  1
  O  O28  1  0.505118  0.496342  0.754256  1
  O  O29  1  0.762338  0.272005  0.744803  1
  O  O30  1  0.262338  0.772005  0.255197  1
  O  O31  1  0.130085  0.869915  0.500000  1
  O  O32  1  0.367111  0.632889  0.500000  1
  O  O33  1  0.227995  0.737662  0.744803  1
  O  O34  1  0.003658  0.994882  0.754256  1
  O  O35  1  0.465264  0.034736  0.986590  1
