# generated using pymatgen
data_BeH8SeO8
_symmetry_space_group_name_H-M   'P 1'
_cell_length_a   8.32782218
_cell_length_b   8.32782218
_cell_length_c   10.90323684
_cell_angle_alpha   90.00000000
_cell_angle_beta   90.00000000
_cell_angle_gamma   92.36903251
_symmetry_Int_Tables_number   1
_chemical_formula_structural   BeH8SeO8
_chemical_formula_sum   'Be4 H32 Se4 O32'
_cell_volume   755.52178283
_cell_formula_units_Z   4
loop_
 _symmetry_equiv_pos_site_id
 _symmetry_equiv_pos_as_xyz
  1  'x, y, z'
loop_
 _atom_site_type_symbol
 _atom_site_label
 _atom_site_symmetry_multiplicity
 _atom_site_fract_x
 _atom_site_fract_y
 _atom_site_fract_z
 _atom_site_occupancy
  Be  Be0  1  0.247383  0.247383  0.267456  1
  Be  Be1  1  0.752617  0.752617  0.732544  1
  Be  Be2  1  0.252617  0.252617  0.767456  1
  Be  Be3  1  0.747383  0.747383  0.232544  1
  H  H4  1  0.351271  0.059238  0.135161  1
  H  H5  1  0.940762  0.648729  0.864839  1
  H  H6  1  0.440762  0.148729  0.635161  1
  H  H7  1  0.851271  0.559238  0.364839  1
  H  H8  1  0.648729  0.940762  0.864839  1
  H  H9  1  0.059238  0.351271  0.135161  1
  H  H10  1  0.559238  0.851271  0.364839  1
  H  H11  1  0.148729  0.440762  0.635161  1
  H  H12  1  0.485630  0.202759  0.166178  1
  H  H13  1  0.797241  0.514370  0.833822  1
  H  H14  1  0.297241  0.014370  0.666178  1
  H  H15  1  0.985630  0.702759  0.333822  1
  H  H16  1  0.514370  0.797241  0.833822  1
  H  H17  1  0.202759  0.485630  0.166178  1
  H  H18  1  0.702759  0.985630  0.333822  1
  H  H19  1  0.014370  0.297241  0.666178  1
  H  H20  1  0.137835  0.001790  0.337973  1
  H  H21  1  0.998210  0.862165  0.662027  1
  H  H22  1  0.498210  0.362165  0.837973  1
  H  H23  1  0.637835  0.501790  0.162027  1
  H  H24  1  0.862165  0.998210  0.662027  1
  H  H25  1  0.001790  0.137835  0.337973  1
  H  H26  1  0.501790  0.637835  0.162027  1
  H  H27  1  0.362165  0.498210  0.837973  1
  H  H28  1  0.433448  0.297376  0.422035  1
  H  H29  1  0.702624  0.566552  0.577965  1
  H  H30  1  0.202624  0.066552  0.922035  1
  H  H31  1  0.933448  0.797376  0.077965  1
  H  H32  1  0.566552  0.702624  0.577965  1
  H  H33  1  0.297376  0.433448  0.422035  1
  H  H34  1  0.797376  0.933448  0.077965  1
  H  H35  1  0.066552  0.202624  0.922035  1
  Se  Se36  1  0.746740  0.253260  0.000000  1
  Se  Se37  1  0.246740  0.753260  0.500000  1
  Se  Se38  1  0.253260  0.746740  1.000000  1
  Se  Se39  1  0.753260  0.246740  0.500000  1
  O  O40  1  0.709485  0.055557  0.983086  1
  O  O41  1  0.944443  0.290515  0.016914  1
  O  O42  1  0.444443  0.790515  0.483086  1
  O  O43  1  0.209485  0.555557  0.516914  1
  O  O44  1  0.290515  0.944443  0.016914  1
  O  O45  1  0.055557  0.709485  0.983086  1
  O  O46  1  0.555557  0.209485  0.516914  1
  O  O47  1  0.790515  0.444443  0.483086  1
  O  O48  1  0.648129  0.313417  0.125093  1
  O  O49  1  0.686583  0.351871  0.874907  1
  O  O50  1  0.186583  0.851871  0.625093  1
  O  O51  1  0.148129  0.813417  0.374907  1
  O  O52  1  0.351871  0.686583  0.874907  1
  O  O53  1  0.313417  0.648129  0.125093  1
  O  O54  1  0.813417  0.148129  0.374907  1
  O  O55  1  0.851871  0.186583  0.625093  1
  O  O56  1  0.114509  0.114509  0.312716  1
  O  O57  1  0.885491  0.885491  0.687284  1
  O  O58  1  0.385491  0.385491  0.812716  1
  O  O59  1  0.614509  0.614509  0.187284  1
  O  O60  1  0.349524  0.349524  0.370919  1
  O  O61  1  0.650476  0.650476  0.629081  1
  O  O62  1  0.150476  0.150476  0.870919  1
  O  O63  1  0.849524  0.849524  0.129081  1
  O  O64  1  0.382305  0.147969  0.193728  1
  O  O65  1  0.852031  0.617695  0.806272  1
  O  O66  1  0.352031  0.117695  0.693728  1
  O  O67  1  0.882305  0.647969  0.306272  1
  O  O68  1  0.617695  0.852031  0.806272  1
  O  O69  1  0.147969  0.382305  0.193728  1
  O  O70  1  0.647969  0.882305  0.306272  1
  O  O71  1  0.117695  0.352031  0.693728  1
