# generated using pymatgen
data_Y(BO2)3
_symmetry_space_group_name_H-M   'P 1'
_cell_length_a   6.29391754
_cell_length_b   6.29391754
_cell_length_c   6.28516101
_cell_angle_alpha   62.88425249
_cell_angle_beta   117.11574751
_cell_angle_gamma   100.99208372
_symmetry_Int_Tables_number   1
_chemical_formula_structural   Y(BO2)3
_chemical_formula_sum   'Y2 B6 O12'
_cell_volume   197.20736683
_cell_formula_units_Z   2
loop_
 _symmetry_equiv_pos_site_id
 _symmetry_equiv_pos_as_xyz
  1  'x, y, z'
loop_
 _atom_site_type_symbol
 _atom_site_label
 _atom_site_symmetry_multiplicity
 _atom_site_fract_x
 _atom_site_fract_y
 _atom_site_fract_z
 _atom_site_occupancy
  Y  Y0  1  0.703697  0.703697  0.750000  1
  Y  Y1  1  0.296303  0.296303  0.250000  1
  B  B2  1  0.282764  0.282764  0.750000  1
  B  B3  1  0.159521  0.711524  0.585960  1
  B  B4  1  0.288476  0.840479  0.085960  1
  B  B5  1  0.711524  0.159521  0.914040  1
  B  B6  1  0.840479  0.288476  0.414040  1
  B  B7  1  0.717236  0.717236  0.250000  1
  O  O8  1  0.087831  0.290613  0.503831  1
  O  O9  1  0.497939  0.287756  0.706583  1
  O  O10  1  0.291085  0.893446  0.496405  1
  O  O11  1  0.106554  0.708915  0.996405  1
  O  O12  1  0.287756  0.497939  0.793417  1
  O  O13  1  0.290613  0.087831  0.996169  1
  O  O14  1  0.709387  0.912169  0.003831  1
  O  O15  1  0.712244  0.502061  0.206583  1
  O  O16  1  0.893446  0.291085  0.003595  1
  O  O17  1  0.708915  0.106554  0.503595  1
  O  O18  1  0.502061  0.712244  0.293417  1
  O  O19  1  0.912169  0.709387  0.496169  1
