# generated using pymatgen
data_Li7Fe5O12
_symmetry_space_group_name_H-M   'P 1'
_cell_length_a   5.10713109
_cell_length_b   5.10713109
_cell_length_c   9.66784870
_cell_angle_alpha   85.54020571
_cell_angle_beta   94.45979429
_cell_angle_gamma   61.78974338
_symmetry_Int_Tables_number   1
_chemical_formula_structural   Li7Fe5O12
_chemical_formula_sum   'Li7 Fe5 O12'
_cell_volume   219.64913934
_cell_formula_units_Z   1
loop_
 _symmetry_equiv_pos_site_id
 _symmetry_equiv_pos_as_xyz
  1  'x, y, z'
loop_
 _atom_site_type_symbol
 _atom_site_label
 _atom_site_symmetry_multiplicity
 _atom_site_fract_x
 _atom_site_fract_y
 _atom_site_fract_z
 _atom_site_occupancy
  Li  Li0  1  0.748520  0.748520  0.500000  1
  Li  Li1  1  0.828230  0.343950  0.742009  1
  Li  Li2  1  0.667059  0.159303  0.255796  1
  Li  Li3  1  0.343950  0.828230  0.257991  1
  Li  Li4  1  0.159303  0.667059  0.744204  1
  Li  Li5  1  0.253919  0.253919  0.000000  1
  Li  Li6  1  0.077038  0.077038  0.500000  1
  Fe  Fe7  1  0.921962  0.921962  0.000000  1
  Fe  Fe8  1  0.999974  0.488235  0.258130  1
  Fe  Fe9  1  0.488235  0.999974  0.741870  1
  Fe  Fe10  1  0.579327  0.579327  0.000000  1
  Fe  Fe11  1  0.421126  0.421126  0.500000  1
  O  O12  1  0.074956  0.746041  0.383757  1
  O  O13  1  0.746041  0.074956  0.616243  1
  O  O14  1  0.842866  0.660009  0.870503  1
  O  O15  1  0.660009  0.842866  0.129497  1
  O  O16  1  0.709421  0.453039  0.377552  1
  O  O17  1  0.453039  0.709421  0.622448  1
  O  O18  1  0.564577  0.270559  0.883086  1
  O  O19  1  0.270559  0.564577  0.116914  1
  O  O20  1  0.360147  0.160923  0.373016  1
  O  O21  1  0.160923  0.360147  0.626984  1
  O  O22  1  0.227265  0.941553  0.879279  1
  O  O23  1  0.941553  0.227265  0.120721  1
