# generated using pymatgen
data_Li4Ti3Mn3(CuO8)2
_symmetry_space_group_name_H-M   'P 1'
_cell_length_a   5.88646947
_cell_length_b   5.88646947
_cell_length_c   9.70629905
_cell_angle_alpha   89.97972174
_cell_angle_beta   90.02027826
_cell_angle_gamma   120.67037189
_symmetry_Int_Tables_number   1
_chemical_formula_structural   Li4Ti3Mn3(CuO8)2
_chemical_formula_sum   'Li4 Ti3 Mn3 Cu2 O16'
_cell_volume   289.28141468
_cell_formula_units_Z   1
loop_
 _symmetry_equiv_pos_site_id
 _symmetry_equiv_pos_as_xyz
  1  'x, y, z'
loop_
 _atom_site_type_symbol
 _atom_site_label
 _atom_site_symmetry_multiplicity
 _atom_site_fract_x
 _atom_site_fract_y
 _atom_site_fract_z
 _atom_site_occupancy
  Li  Li0  1  0.324020  0.675980  0.109372  1
  Li  Li1  1  0.012433  0.987567  0.003957  1
  Li  Li2  1  0.999254  0.000746  0.501715  1
  Li  Li3  1  0.669710  0.330290  0.606155  1
  Ti  Ti4  1  0.181261  0.328336  0.786784  1
  Ti  Ti5  1  0.671664  0.818739  0.786784  1
  Ti  Ti6  1  0.821033  0.178967  0.286872  1
  Mn  Mn7  1  0.177745  0.822255  0.783434  1
  Mn  Mn8  1  0.328290  0.179043  0.285265  1
  Mn  Mn9  1  0.820957  0.671710  0.285265  1
  Cu  Cu10  1  0.331318  0.668682  0.508751  1
  Cu  Cu11  1  0.668140  0.331860  0.009900  1
  O  O12  1  0.151389  0.327193  0.396246  1
  O  O13  1  0.495631  0.504369  0.679684  1
  O  O14  1  0.336609  0.663391  0.894424  1
  O  O15  1  0.013782  0.986218  0.685165  1
  O  O16  1  0.991997  0.008003  0.187693  1
  O  O17  1  0.672807  0.848611  0.396246  1
  O  O18  1  0.047120  0.514017  0.663626  1
  O  O19  1  0.485983  0.952880  0.663626  1
  O  O20  1  0.852763  0.147237  0.891076  1
  O  O21  1  0.149395  0.850605  0.386295  1
  O  O22  1  0.509743  0.049806  0.165232  1
  O  O23  1  0.950194  0.490257  0.165232  1
  O  O24  1  0.656746  0.343254  0.393053  1
  O  O25  1  0.327868  0.147879  0.895202  1
  O  O26  1  0.503256  0.496744  0.177085  1
  O  O27  1  0.852121  0.672132  0.895202  1
