# generated using pymatgen
data_Li3Cr2P2(CO7)2
_symmetry_space_group_name_H-M   'P 1'
_cell_length_a   5.09126012
_cell_length_b   6.38192605
_cell_length_c   8.30207156
_cell_angle_alpha   90.17449030
_cell_angle_beta   95.16965021
_cell_angle_gamma   90.32176581
_symmetry_Int_Tables_number   1
_chemical_formula_structural   Li3Cr2P2(CO7)2
_chemical_formula_sum   'Li3 Cr2 P2 C2 O14'
_cell_volume   268.64806658
_cell_formula_units_Z   1
loop_
 _symmetry_equiv_pos_site_id
 _symmetry_equiv_pos_as_xyz
  1  'x, y, z'
loop_
 _atom_site_type_symbol
 _atom_site_label
 _atom_site_symmetry_multiplicity
 _atom_site_fract_x
 _atom_site_fract_y
 _atom_site_fract_z
 _atom_site_occupancy
  Li  Li0  1  0.249167  0.544071  0.723944  1
  Li  Li1  1  0.745492  0.030027  0.272865  1
  Li  Li2  1  0.231597  0.255032  0.093082  1
  Cr  Cr3  1  0.796981  0.245386  0.676538  1
  Cr  Cr4  1  0.201621  0.742047  0.324389  1
  P  P5  1  0.728263  0.748114  0.583665  1
  P  P6  1  0.277249  0.248412  0.421389  1
  C  C7  1  0.695754  0.249492  0.956762  1
  C  C8  1  0.297898  0.749438  0.045177  1
  O  O9  1  0.358596  0.723171  0.905530  1
  O  O10  1  0.940699  0.246749  0.919050  1
  O  O11  1  0.522361  0.272157  0.831168  1
  O  O12  1  0.796368  0.941649  0.687429  1
  O  O13  1  0.833540  0.557077  0.680805  1
  O  O14  1  0.141365  0.267998  0.576796  1
  O  O15  1  0.426303  0.723726  0.537206  1
  O  O16  1  0.578467  0.224615  0.461020  1
  O  O17  1  0.867042  0.768022  0.422527  1
  O  O18  1  0.170844  0.062710  0.310556  1
  O  O19  1  0.215134  0.438100  0.304882  1
  O  O20  1  0.477092  0.778171  0.173174  1
  O  O21  1  0.058290  0.744697  0.091579  1
  O  O22  1  0.626960  0.227451  0.097907  1
