# generated using pymatgen
data_Fe10OF19
_symmetry_space_group_name_H-M   'P 1'
_cell_length_a   17.41728531
_cell_length_b   17.41728531
_cell_length_c   3.27023003
_cell_angle_alpha   90.00000000
_cell_angle_beta   90.00000000
_cell_angle_gamma   157.47468722
_symmetry_Int_Tables_number   1
_chemical_formula_structural   Fe10OF19
_chemical_formula_sum   'Fe10 O1 F19'
_cell_volume   380.05094346
_cell_formula_units_Z   1
loop_
 _symmetry_equiv_pos_site_id
 _symmetry_equiv_pos_as_xyz
  1  'x, y, z'
loop_
 _atom_site_type_symbol
 _atom_site_label
 _atom_site_symmetry_multiplicity
 _atom_site_fract_x
 _atom_site_fract_y
 _atom_site_fract_z
 _atom_site_occupancy
  Fe  Fe0  1  0.988019  0.988019  0.000000  1
  Fe  Fe1  1  0.528285  0.528285  0.500000  1
  Fe  Fe2  1  0.598878  0.399241  0.000000  1
  Fe  Fe3  1  0.100169  0.900096  0.500000  1
  Fe  Fe4  1  0.700083  0.299886  0.500000  1
  Fe  Fe5  1  0.199902  0.799884  0.000000  1
  Fe  Fe6  1  0.799884  0.199902  0.000000  1
  Fe  Fe7  1  0.900096  0.100169  0.500000  1
  Fe  Fe8  1  0.299886  0.700083  0.500000  1
  Fe  Fe9  1  0.399241  0.598878  0.000000  1
  O  O10  1  0.685760  0.685760  0.000000  1
  F  F11  1  0.306113  0.306113  0.000000  1
  F  F12  1  0.897440  0.697129  1.000000  1
  F  F13  1  0.551357  0.433844  0.500000  1
  F  F14  1  0.047090  0.965868  0.500000  1
  F  F15  1  0.640824  0.360395  0.500000  1
  F  F16  1  0.302438  0.100149  0.000000  1
  F  F17  1  0.900896  0.500671  1.000000  1
  F  F18  1  0.499057  0.098938  0.000000  1
  F  F19  1  0.158739  0.838934  0.500000  1
  F  F20  1  0.759752  0.240160  0.500000  1
  F  F21  1  0.240160  0.759752  0.500000  1
  F  F22  1  0.838934  0.158739  0.500000  1
  F  F23  1  0.500671  0.900896  0.000000  1
  F  F24  1  0.098938  0.499057  0.000000  1
  F  F25  1  0.697129  0.897440  0.000000  1
  F  F26  1  0.360395  0.640824  0.500000  1
  F  F27  1  0.965868  0.047090  0.500000  1
  F  F28  1  0.433844  0.551357  0.500000  1
  F  F29  1  0.100149  0.302438  0.000000  1
