# generated using pymatgen
data_Li7Mn3Co3O16
_symmetry_space_group_name_H-M   'P 1'
_cell_length_a   5.67569749
_cell_length_b   5.67569749
_cell_length_c   9.92152442
_cell_angle_alpha   87.55805035
_cell_angle_beta   92.44194965
_cell_angle_gamma   120.12309149
_symmetry_Int_Tables_number   1
_chemical_formula_structural   Li7Mn3Co3O16
_chemical_formula_sum   'Li7 Mn3 Co3 O16'
_cell_volume   276.10985846
_cell_formula_units_Z   1
loop_
 _symmetry_equiv_pos_site_id
 _symmetry_equiv_pos_as_xyz
  1  'x, y, z'
loop_
 _atom_site_type_symbol
 _atom_site_label
 _atom_site_symmetry_multiplicity
 _atom_site_fract_x
 _atom_site_fract_y
 _atom_site_fract_z
 _atom_site_occupancy
  Li  Li0  1  0.975570  0.024430  0.490862  1
  Li  Li1  1  0.662689  0.337311  0.977865  1
  Li  Li2  1  0.666072  0.333928  0.421080  1
  Li  Li3  1  0.664976  0.335024  0.203384  1
  Li  Li4  1  0.658924  0.827751  0.955923  1
  Li  Li5  1  0.314953  0.685047  0.499140  1
  Li  Li6  1  0.172249  0.341076  0.955923  1
  Mn  Mn7  1  0.826506  0.670496  0.717953  1
  Mn  Mn8  1  0.329504  0.173494  0.717953  1
  Mn  Mn9  1  0.163283  0.836717  0.205555  1
  Co  Co10  1  0.830873  0.169127  0.709680  1
  Co  Co11  1  0.662028  0.834240  0.212376  1
  Co  Co12  1  0.165760  0.337972  0.212376  1
  O  O13  1  0.996842  0.003158  0.820858  1
  O  O14  1  0.002683  0.997317  0.309705  1
  O  O15  1  0.836931  0.163069  0.105249  1
  O  O16  1  0.958632  0.463007  0.824875  1
  O  O17  1  0.536993  0.041368  0.824875  1
  O  O18  1  0.655687  0.344313  0.611951  1
  O  O19  1  0.821830  0.688552  0.104478  1
  O  O20  1  0.511340  0.488660  0.832072  1
  O  O21  1  0.672611  0.854661  0.613184  1
  O  O22  1  0.490853  0.509147  0.313501  1
  O  O23  1  0.311448  0.178170  0.104478  1
  O  O24  1  0.496938  0.981904  0.315108  1
  O  O25  1  0.328706  0.671294  0.104554  1
  O  O26  1  0.145339  0.327389  0.613184  1
  O  O27  1  0.018096  0.503062  0.315108  1
  O  O28  1  0.142299  0.857701  0.610208  1
