# generated using pymatgen
data_Nb2NiO6
_symmetry_space_group_name_H-M   'P 1'
_cell_length_a   4.79661430
_cell_length_b   4.79661430
_cell_length_c   9.17898041
_cell_angle_alpha   90.00000000
_cell_angle_beta   90.00000000
_cell_angle_gamma   90.00000000
_symmetry_Int_Tables_number   1
_chemical_formula_structural   Nb2NiO6
_chemical_formula_sum   'Nb4 Ni2 O12'
_cell_volume   211.18547203
_cell_formula_units_Z   2
loop_
 _symmetry_equiv_pos_site_id
 _symmetry_equiv_pos_as_xyz
  1  'x, y, z'
loop_
 _atom_site_type_symbol
 _atom_site_label
 _atom_site_symmetry_multiplicity
 _atom_site_fract_x
 _atom_site_fract_y
 _atom_site_fract_z
 _atom_site_occupancy
  Nb  Nb0  1  0.000000  0.000000  0.831200  1
  Nb  Nb1  1  0.000000  0.000000  0.168800  1
  Nb  Nb2  1  0.500000  0.500000  0.668800  1
  Nb  Nb3  1  0.500000  0.500000  0.331200  1
  Ni  Ni4  1  0.000000  0.000000  0.500000  1
  Ni  Ni5  1  0.500000  0.500000  0.000000  1
  O  O6  1  0.201901  0.798099  0.673202  1
  O  O7  1  0.190763  0.809237  0.000000  1
  O  O8  1  0.201901  0.798099  0.326798  1
  O  O9  1  0.298099  0.298099  0.826798  1
  O  O10  1  0.298099  0.298099  0.173202  1
  O  O11  1  0.309237  0.309237  0.500000  1
  O  O12  1  0.701901  0.701901  0.826798  1
  O  O13  1  0.701901  0.701901  0.173202  1
  O  O14  1  0.690763  0.690763  0.500000  1
  O  O15  1  0.798099  0.201901  0.673202  1
  O  O16  1  0.809237  0.190763  0.000000  1
  O  O17  1  0.798099  0.201901  0.326798  1
