# generated using pymatgen
data_LiFe2F9
_symmetry_space_group_name_H-M   'P 1'
_cell_length_a   7.31588055
_cell_length_b   7.31588055
_cell_length_c   8.25030684
_cell_angle_alpha   62.24471920
_cell_angle_beta   117.75528080
_cell_angle_gamma   115.20508779
_symmetry_Int_Tables_number   1
_chemical_formula_structural   LiFe2F9
_chemical_formula_sum   'Li2 Fe4 F18'
_cell_volume   333.26762810
_cell_formula_units_Z   2
loop_
 _symmetry_equiv_pos_site_id
 _symmetry_equiv_pos_as_xyz
  1  'x, y, z'
loop_
 _atom_site_type_symbol
 _atom_site_label
 _atom_site_symmetry_multiplicity
 _atom_site_fract_x
 _atom_site_fract_y
 _atom_site_fract_z
 _atom_site_occupancy
  Li  Li0  1  0.955688  0.765207  0.218860  1
  Li  Li1  1  0.234793  0.044312  0.718860  1
  Fe  Fe2  1  0.949170  0.366154  0.704709  1
  Fe  Fe3  1  0.158132  0.354279  0.201371  1
  Fe  Fe4  1  0.633846  0.050830  0.204709  1
  Fe  Fe5  1  0.645721  0.841868  0.701371  1
  F  F6  1  0.177094  0.125984  0.185694  1
  F  F7  1  0.753784  0.153914  0.585389  1
  F  F8  1  0.989430  0.584486  0.482974  1
  F  F9  1  0.118342  0.488554  0.901712  1
  F  F10  1  0.415858  0.890557  0.683782  1
  F  F11  1  0.751187  0.846722  0.272576  1
  F  F12  1  0.438041  0.486166  0.250378  1
  F  F13  1  0.133190  0.193587  0.447800  1
  F  F14  1  0.720546  0.392981  0.700331  1
  F  F15  1  0.874016  0.822906  0.685694  1
  F  F16  1  0.415514  0.010570  0.982974  1
  F  F17  1  0.846086  0.246216  0.085389  1
  F  F18  1  0.153278  0.248813  0.772576  1
  F  F19  1  0.511446  0.881658  0.401712  1
  F  F20  1  0.109443  0.584142  0.183782  1
  F  F21  1  0.513834  0.561959  0.750378  1
  F  F22  1  0.806413  0.866810  0.947800  1
  F  F23  1  0.607019  0.279454  0.200331  1
