# generated using pymatgen
data_Mg3P2(HO)16
_symmetry_space_group_name_H-M   'P 1'
_cell_length_a   14.12049516
_cell_length_b   14.12049516
_cell_length_c   10.00757963
_cell_angle_alpha   88.11858050
_cell_angle_beta   91.88141950
_cell_angle_gamma   19.08708853
_symmetry_Int_Tables_number   1
_chemical_formula_structural   Mg3P2(HO)16
_chemical_formula_sum   'Mg6 P4 H32 O32'
_cell_volume   639.58324715
_cell_formula_units_Z   2
loop_
 _symmetry_equiv_pos_site_id
 _symmetry_equiv_pos_as_xyz
  1  'x, y, z'
loop_
 _atom_site_type_symbol
 _atom_site_label
 _atom_site_symmetry_multiplicity
 _atom_site_fract_x
 _atom_site_fract_y
 _atom_site_fract_z
 _atom_site_occupancy
  Mg  Mg0  1  0.182985  0.182985  0.250000  1
  Mg  Mg1  1  0.076064  0.076064  0.250000  1
  Mg  Mg2  1  0.627257  0.627257  0.750000  1
  Mg  Mg3  1  0.372743  0.372743  0.250000  1
  Mg  Mg4  1  0.817015  0.817015  0.750000  1
  Mg  Mg5  1  0.923936  0.923936  0.750000  1
  P  P6  1  0.442244  0.296425  0.937269  1
  P  P7  1  0.296425  0.442244  0.562731  1
  P  P8  1  0.703575  0.557756  0.437269  1
  P  P9  1  0.557756  0.703575  0.062731  1
  H  H10  1  0.082921  0.095342  0.874287  1
  H  H11  1  0.153614  0.184719  0.870653  1
  H  H12  1  0.184719  0.153614  0.629347  1
  H  H13  1  0.095342  0.082921  0.625713  1
  H  H14  1  0.196016  0.824773  0.650534  1
  H  H15  1  0.504400  0.963218  0.792573  1
  H  H16  1  0.337112  0.812920  0.549876  1
  H  H17  1  0.462078  0.917344  0.563752  1
  H  H18  1  0.135604  0.414932  0.624647  1
  H  H19  1  0.326694  0.598303  0.623249  1
  H  H20  1  0.175227  0.803984  0.150534  1
  H  H21  1  0.036782  0.495600  0.292573  1
  H  H22  1  0.187080  0.662888  0.049876  1
  H  H23  1  0.082656  0.537922  0.063752  1
  H  H24  1  0.598303  0.326694  0.876751  1
  H  H25  1  0.414932  0.135604  0.875353  1
  H  H26  1  0.585068  0.864396  0.124647  1
  H  H27  1  0.401697  0.673306  0.123249  1
  H  H28  1  0.917344  0.462078  0.936248  1
  H  H29  1  0.812920  0.337112  0.950124  1
  H  H30  1  0.963218  0.504400  0.707427  1
  H  H31  1  0.824773  0.196016  0.849466  1
  H  H32  1  0.673306  0.401697  0.376751  1
  H  H33  1  0.864396  0.585068  0.375353  1
  H  H34  1  0.537922  0.082656  0.436248  1
  H  H35  1  0.662888  0.187080  0.450124  1
  H  H36  1  0.495600  0.036782  0.207427  1
  H  H37  1  0.803984  0.175227  0.349466  1
  H  H38  1  0.904658  0.917079  0.374287  1
  H  H39  1  0.815281  0.846386  0.370653  1
  H  H40  1  0.846386  0.815281  0.129347  1
  H  H41  1  0.917079  0.904658  0.125713  1
  O  O42  1  0.056393  0.417790  0.348206  1
  O  O43  1  0.407785  0.852191  0.907489  1
  O  O44  1  0.054626  0.685148  0.648317  1
  O  O45  1  0.157283  0.792353  0.647494  1
  O  O46  1  0.398845  0.968618  0.653844  1
  O  O47  1  0.280330  0.868407  0.643060  1
  O  O48  1  0.299660  0.532007  0.909408  1
  O  O49  1  0.209814  0.435616  0.909533  1
  O  O50  1  0.147809  0.592215  0.407489  1
  O  O51  1  0.417790  0.056393  0.151794  1
  O  O52  1  0.314852  0.945374  0.148317  1
  O  O53  1  0.207647  0.842717  0.147494  1
  O  O54  1  0.031382  0.601155  0.153844  1
  O  O55  1  0.131593  0.719670  0.143060  1
  O  O56  1  0.467993  0.700340  0.409408  1
  O  O57  1  0.564384  0.790186  0.409533  1
  O  O58  1  0.435616  0.209814  0.590467  1
  O  O59  1  0.532007  0.299660  0.590592  1
  O  O60  1  0.868407  0.280330  0.856940  1
  O  O61  1  0.968618  0.398845  0.846156  1
  O  O62  1  0.792353  0.157283  0.852506  1
  O  O63  1  0.685148  0.054626  0.851683  1
  O  O64  1  0.582210  0.943607  0.848206  1
  O  O65  1  0.852191  0.407785  0.592511  1
  O  O66  1  0.790186  0.564384  0.090467  1
  O  O67  1  0.700340  0.467993  0.090592  1
  O  O68  1  0.719670  0.131593  0.356940  1
  O  O69  1  0.601155  0.031382  0.346156  1
  O  O70  1  0.842717  0.207647  0.352506  1
  O  O71  1  0.945374  0.314852  0.351683  1
  O  O72  1  0.592215  0.147809  0.092511  1
  O  O73  1  0.943607  0.582210  0.651794  1
