# generated using pymatgen
data_Y(BO2)3
_symmetry_space_group_name_H-M   'P 1'
_cell_length_a   4.26953172
_cell_length_b   4.44450454
_cell_length_c   18.39919568
_cell_angle_alpha   90.00000000
_cell_angle_beta   90.00000000
_cell_angle_gamma   90.00000000
_symmetry_Int_Tables_number   1
_chemical_formula_structural   Y(BO2)3
_chemical_formula_sum   'Y4 B12 O24'
_cell_volume   349.14227454
_cell_formula_units_Z   4
loop_
 _symmetry_equiv_pos_site_id
 _symmetry_equiv_pos_as_xyz
  1  'x, y, z'
loop_
 _atom_site_type_symbol
 _atom_site_label
 _atom_site_symmetry_multiplicity
 _atom_site_fract_x
 _atom_site_fract_y
 _atom_site_fract_z
 _atom_site_occupancy
  Y  Y0  1  0.399134  0.178621  0.165348  1
  Y  Y1  1  0.899134  0.178621  0.334652  1
  Y  Y2  1  0.399134  0.821379  0.665348  1
  Y  Y3  1  0.899134  0.821379  0.834652  1
  B  B4  1  0.303011  0.825121  0.001266  1
  B  B5  1  0.830909  0.670542  0.073684  1
  B  B6  1  0.874019  0.645221  0.212589  1
  B  B7  1  0.374019  0.645221  0.287411  1
  B  B8  1  0.330909  0.670542  0.426316  1
  B  B9  1  0.803011  0.825121  0.498734  1
  B  B10  1  0.303011  0.174879  0.501266  1
  B  B11  1  0.830909  0.329458  0.573684  1
  B  B12  1  0.874019  0.354779  0.712589  1
  B  B13  1  0.374019  0.354779  0.787411  1
  B  B14  1  0.330909  0.329458  0.926316  1
  B  B15  1  0.803011  0.174879  0.998734  1
  O  O16  1  0.660835  0.866040  0.015967  1
  O  O17  1  0.744768  0.355718  0.062699  1
  O  O18  1  0.165725  0.730989  0.068614  1
  O  O19  1  0.724553  0.764552  0.145842  1
  O  O20  1  0.882243  0.318232  0.209587  1
  O  O21  1  0.193362  0.759457  0.223280  1
  O  O22  1  0.693362  0.759457  0.276720  1
  O  O23  1  0.382243  0.318232  0.290413  1
  O  O24  1  0.224553  0.764552  0.354158  1
  O  O25  1  0.665725  0.730989  0.431386  1
  O  O26  1  0.244768  0.355718  0.437301  1
  O  O27  1  0.160835  0.866040  0.484033  1
  O  O28  1  0.660835  0.133960  0.515967  1
  O  O29  1  0.744768  0.644282  0.562699  1
  O  O30  1  0.165725  0.269011  0.568614  1
  O  O31  1  0.724553  0.235448  0.645842  1
  O  O32  1  0.882243  0.681768  0.709587  1
  O  O33  1  0.193362  0.240543  0.723280  1
  O  O34  1  0.693362  0.240543  0.776720  1
  O  O35  1  0.382243  0.681768  0.790413  1
  O  O36  1  0.224553  0.235448  0.854158  1
  O  O37  1  0.665725  0.269011  0.931386  1
  O  O38  1  0.244768  0.644282  0.937301  1
  O  O39  1  0.160835  0.133960  0.984033  1
