# generated using pymatgen
data_Fe2O3F
_symmetry_space_group_name_H-M   'P 1'
_cell_length_a   4.65740101
_cell_length_b   5.53865801
_cell_length_c   12.99020595
_cell_angle_alpha   101.56037415
_cell_angle_beta   90.38409841
_cell_angle_gamma   90.75981902
_symmetry_Int_Tables_number   1
_chemical_formula_structural   Fe2O3F
_chemical_formula_sum   'Fe10 O15 F5'
_cell_volume   328.25061665
_cell_formula_units_Z   5
loop_
 _symmetry_equiv_pos_site_id
 _symmetry_equiv_pos_as_xyz
  1  'x, y, z'
loop_
 _atom_site_type_symbol
 _atom_site_label
 _atom_site_symmetry_multiplicity
 _atom_site_fract_x
 _atom_site_fract_y
 _atom_site_fract_z
 _atom_site_occupancy
  Fe  Fe0  1  0.524562  0.507642  0.008566  1
  Fe  Fe1  1  0.471626  0.894216  0.592334  1
  Fe  Fe2  1  0.500852  0.698315  0.799564  1
  Fe  Fe3  1  0.515316  0.088100  0.395202  1
  Fe  Fe4  1  0.502140  0.299990  0.201090  1
  Fe  Fe5  1  0.982695  0.403804  0.606829  1
  Fe  Fe6  1  0.012890  0.800122  0.198558  1
  Fe  Fe7  1  0.999414  0.199927  0.800182  1
  Fe  Fe8  1  0.963980  0.618114  0.407275  1
  Fe  Fe9  1  0.022536  0.992361  0.991514  1
  O  O10  1  0.797803  0.453241  0.746057  1
  O  O11  1  0.814016  0.855066  0.332236  1
  O  O12  1  0.815042  0.250025  0.934300  1
  O  O13  1  0.796891  0.652589  0.544198  1
  O  O14  1  0.695188  0.754586  0.937982  1
  O  O15  1  0.688996  0.151370  0.535182  1
  O  O16  1  0.688547  0.354490  0.338357  1
  O  O17  1  0.707521  0.555547  0.145887  1
  O  O18  1  0.302254  0.644441  0.662188  1
  O  O19  1  0.311495  0.042904  0.258684  1
  O  O20  1  0.314424  0.248915  0.065577  1
  O  O21  1  0.296603  0.844654  0.453941  1
  O  O22  1  0.202623  0.945412  0.853104  1
  O  O23  1  0.196373  0.749188  0.062685  1
  O  O24  1  0.185598  0.149870  0.665469  1
  F  F25  1  0.810293  0.058950  0.136119  1
  F  F26  1  0.690245  0.956602  0.734752  1
  F  F27  1  0.307244  0.444318  0.866415  1
  F  F28  1  0.188163  0.346822  0.460735  1
  F  F29  1  0.194670  0.538419  0.265018  1
