# generated using pymatgen
data_Li4CrFe3O8
_symmetry_space_group_name_H-M   'P 1'
_cell_length_a   5.16054434
_cell_length_b   5.95163945
_cell_length_c   5.17951989
_cell_angle_alpha   90.00000000
_cell_angle_beta   109.46109781
_cell_angle_gamma   90.00000000
_symmetry_Int_Tables_number   1
_chemical_formula_structural   Li4CrFe3O8
_chemical_formula_sum   'Li4 Cr1 Fe3 O8'
_cell_volume   149.99351853
_cell_formula_units_Z   1
loop_
 _symmetry_equiv_pos_site_id
 _symmetry_equiv_pos_as_xyz
  1  'x, y, z'
loop_
 _atom_site_type_symbol
 _atom_site_label
 _atom_site_symmetry_multiplicity
 _atom_site_fract_x
 _atom_site_fract_y
 _atom_site_fract_z
 _atom_site_occupancy
  Li  Li0  1  0.000000  0.249216  0.000000  1
  Li  Li1  1  0.000000  0.750784  0.000000  1
  Li  Li2  1  0.500000  0.000000  0.000000  1
  Li  Li3  1  0.500000  0.500000  0.000000  1
  Cr  Cr4  1  0.000000  0.000000  0.500000  1
  Fe  Fe5  1  0.000000  0.500000  0.500000  1
  Fe  Fe6  1  0.500000  0.250052  0.500000  1
  Fe  Fe7  1  0.500000  0.749948  0.500000  1
  O  O8  1  0.758204  0.248884  0.272523  1
  O  O9  1  0.758204  0.751116  0.272523  1
  O  O10  1  0.744541  0.000000  0.726650  1
  O  O11  1  0.255459  0.000000  0.273350  1
  O  O12  1  0.741834  0.500000  0.729399  1
  O  O13  1  0.241796  0.248884  0.727477  1
  O  O14  1  0.258166  0.500000  0.270601  1
  O  O15  1  0.241796  0.751116  0.727477  1
