# generated using pymatgen
data_SrLa3Mn4O12
_symmetry_space_group_name_H-M   'P 1'
_cell_length_a   7.87811789
_cell_length_b   7.87811789
_cell_length_c   7.87811789
_cell_angle_alpha   90.57165750
_cell_angle_beta   90.57165750
_cell_angle_gamma   90.57165750
_symmetry_Int_Tables_number   1
_chemical_formula_structural   SrLa3Mn4O12
_chemical_formula_sum   'Sr2 La6 Mn8 O24'
_cell_volume   488.87985025
_cell_formula_units_Z   2
loop_
 _symmetry_equiv_pos_site_id
 _symmetry_equiv_pos_as_xyz
  1  'x, y, z'
loop_
 _atom_site_type_symbol
 _atom_site_label
 _atom_site_symmetry_multiplicity
 _atom_site_fract_x
 _atom_site_fract_y
 _atom_site_fract_z
 _atom_site_occupancy
  Sr  Sr0  1  0.250000  0.250000  0.250000  1
  Sr  Sr1  1  0.750000  0.750000  0.750000  1
  La  La2  1  0.751877  0.250000  0.748123  1
  La  La3  1  0.748123  0.751877  0.250000  1
  La  La4  1  0.251877  0.248123  0.750000  1
  La  La5  1  0.250000  0.748123  0.751877  1
  La  La6  1  0.248123  0.750000  0.251877  1
  La  La7  1  0.750000  0.251877  0.248123  1
  Mn  Mn8  1  0.000000  0.000000  0.000000  1
  Mn  Mn9  1  0.500000  0.000000  0.500000  1
  Mn  Mn10  1  0.500000  0.500000  0.000000  1
  Mn  Mn11  1  0.000000  0.500000  0.000000  1
  Mn  Mn12  1  0.000000  0.000000  0.500000  1
  Mn  Mn13  1  0.000000  0.500000  0.500000  1
  Mn  Mn14  1  0.500000  0.500000  0.500000  1
  Mn  Mn15  1  0.500000  0.000000  0.000000  1
  O  O16  1  0.474199  0.249964  0.534354  1
  O  O17  1  0.465646  0.525801  0.750036  1
  O  O18  1  0.469478  0.750000  0.030522  1
  O  O19  1  0.476525  0.023475  0.250000  1
  O  O20  1  0.750000  0.523475  0.976525  1
  O  O21  1  0.749964  0.974199  0.034354  1
  O  O22  1  0.965646  0.250036  0.025801  1
  O  O23  1  0.750000  0.030522  0.469478  1
  O  O24  1  0.969478  0.530522  0.250000  1
  O  O25  1  0.750036  0.465646  0.525801  1
  O  O26  1  0.025801  0.965646  0.250036  1
  O  O27  1  0.023475  0.250000  0.476525  1
  O  O28  1  0.976525  0.750000  0.523475  1
  O  O29  1  0.974199  0.034354  0.749964  1
  O  O30  1  0.249964  0.534354  0.474199  1
  O  O31  1  0.030522  0.469478  0.750000  1
  O  O32  1  0.250000  0.969478  0.530522  1
  O  O33  1  0.034354  0.749964  0.974199  1
  O  O34  1  0.250036  0.025801  0.965646  1
  O  O35  1  0.250000  0.476525  0.023475  1
  O  O36  1  0.523475  0.976525  0.750000  1
  O  O37  1  0.530522  0.250000  0.969478  1
  O  O38  1  0.534354  0.474199  0.249964  1
  O  O39  1  0.525801  0.750036  0.465646  1
