# generated using pymatgen
data_Li2VCrO4
_symmetry_space_group_name_H-M   'P 1'
_cell_length_a   5.16929171
_cell_length_b   5.99799546
_cell_length_c   7.87453476
_cell_angle_alpha   79.17740403
_cell_angle_beta   77.10468000
_cell_angle_gamma   73.28698279
_symmetry_Int_Tables_number   1
_chemical_formula_structural   Li2VCrO4
_chemical_formula_sum   'Li6 V3 Cr3 O12'
_cell_volume   225.93564513
_cell_formula_units_Z   3
loop_
 _symmetry_equiv_pos_site_id
 _symmetry_equiv_pos_as_xyz
  1  'x, y, z'
loop_
 _atom_site_type_symbol
 _atom_site_label
 _atom_site_symmetry_multiplicity
 _atom_site_fract_x
 _atom_site_fract_y
 _atom_site_fract_z
 _atom_site_occupancy
  Li  Li0  1  0.000000  0.000000  0.000000  1
  Li  Li1  1  0.002755  0.162104  0.335742  1
  Li  Li2  1  0.000000  0.500000  0.000000  1
  Li  Li3  1  0.002663  0.327390  0.667461  1
  Li  Li4  1  0.997337  0.672610  0.332539  1
  Li  Li5  1  0.997245  0.837896  0.664258  1
  V  V6  1  0.499620  0.336410  0.166607  1
  V  V7  1  0.500000  0.500000  0.500000  1
  V  V8  1  0.500380  0.663590  0.833393  1
  Cr  Cr9  1  0.500000  0.000000  0.500000  1
  Cr  Cr10  1  0.500857  0.162636  0.833032  1
  Cr  Cr11  1  0.499143  0.837364  0.166968  1
  O  O12  1  0.723877  0.008666  0.252385  1
  O  O13  1  0.274014  0.160973  0.079990  1
  O  O14  1  0.274376  0.327324  0.416289  1
  O  O15  1  0.727393  0.165185  0.587083  1
  O  O16  1  0.273044  0.664436  0.082365  1
  O  O17  1  0.726600  0.512738  0.252220  1
  O  O18  1  0.273400  0.487262  0.747780  1
  O  O19  1  0.726956  0.335564  0.917635  1
  O  O20  1  0.272607  0.834815  0.412917  1
  O  O21  1  0.725624  0.672676  0.583711  1
  O  O22  1  0.725986  0.839027  0.920010  1
  O  O23  1  0.276123  0.991334  0.747615  1
