# generated using pymatgen
data_Li2Ti3Ni(PO4)6
_symmetry_space_group_name_H-M   'P 1'
_cell_length_a   8.69453558
_cell_length_b   8.69453558
_cell_length_c   8.69453558
_cell_angle_alpha   59.60682978
_cell_angle_beta   59.60682978
_cell_angle_gamma   59.60682978
_symmetry_Int_Tables_number   1
_chemical_formula_structural   Li2Ti3Ni(PO4)6
_chemical_formula_sum   'Li2 Ti3 Ni1 P6 O24'
_cell_volume   460.60208683
_cell_formula_units_Z   1
loop_
 _symmetry_equiv_pos_site_id
 _symmetry_equiv_pos_as_xyz
  1  'x, y, z'
loop_
 _atom_site_type_symbol
 _atom_site_label
 _atom_site_symmetry_multiplicity
 _atom_site_fract_x
 _atom_site_fract_y
 _atom_site_fract_z
 _atom_site_occupancy
  Li  Li0  1  0.011604  0.011604  0.011604  1
  Li  Li1  1  0.498228  0.498228  0.498228  1
  Ti  Ti2  1  0.857808  0.857808  0.857808  1
  Ti  Ti3  1  0.644495  0.644495  0.644495  1
  Ti  Ti4  1  0.354825  0.354825  0.354825  1
  Ni  Ni5  1  0.142806  0.142806  0.142806  1
  P  P6  1  0.251352  0.538615  0.956947  1
  P  P7  1  0.956947  0.251352  0.538615  1
  P  P8  1  0.538615  0.956947  0.251352  1
  P  P9  1  0.459260  0.041076  0.750518  1
  P  P10  1  0.041076  0.750518  0.459260  1
  P  P11  1  0.750518  0.459260  0.041076  1
  O  O12  1  0.684489  0.510254  0.880833  1
  O  O13  1  0.510254  0.880833  0.684489  1
  O  O14  1  0.078871  0.724221  0.946772  1
  O  O15  1  0.880833  0.684489  0.510254  1
  O  O16  1  0.414042  0.574615  0.764938  1
  O  O17  1  0.211518  0.375193  0.982004  1
  O  O18  1  0.946772  0.078871  0.724221  1
  O  O19  1  0.764938  0.414042  0.574615  1
  O  O20  1  0.574615  0.764938  0.414042  1
  O  O21  1  0.625133  0.999288  0.803061  1
  O  O22  1  0.271569  0.049112  0.915062  1
  O  O23  1  0.999288  0.803061  0.625133  1
  O  O24  1  0.982004  0.211518  0.375193  1
  O  O25  1  0.724221  0.946772  0.078871  1
  O  O26  1  0.375193  0.982004  0.211518  1
  O  O27  1  0.436796  0.233799  0.585715  1
  O  O28  1  0.233799  0.585715  0.436796  1
  O  O29  1  0.049112  0.915062  0.271569  1
  O  O30  1  0.803061  0.625133  0.999288  1
  O  O31  1  0.585715  0.436796  0.233799  1
  O  O32  1  0.122928  0.306338  0.495913  1
  O  O33  1  0.915062  0.271569  0.049112  1
  O  O34  1  0.495913  0.122928  0.306338  1
  O  O35  1  0.306338  0.495913  0.122928  1
