# generated using pymatgen
data_CdBiO3
_symmetry_space_group_name_H-M   'P 1'
_cell_length_a   6.09700737
_cell_length_b   6.09700737
_cell_length_c   6.09700737
_cell_angle_alpha   57.84846478
_cell_angle_beta   57.84846478
_cell_angle_gamma   57.84846478
_symmetry_Int_Tables_number   1
_chemical_formula_structural   CdBiO3
_chemical_formula_sum   'Cd2 Bi2 O6'
_cell_volume   152.34766216
_cell_formula_units_Z   2
loop_
 _symmetry_equiv_pos_site_id
 _symmetry_equiv_pos_as_xyz
  1  'x, y, z'
loop_
 _atom_site_type_symbol
 _atom_site_label
 _atom_site_symmetry_multiplicity
 _atom_site_fract_x
 _atom_site_fract_y
 _atom_site_fract_z
 _atom_site_occupancy
  Cd  Cd0  1  0.363932  0.363932  0.363932  1
  Cd  Cd1  1  0.634879  0.634879  0.634879  1
  Bi  Bi2  1  0.141882  0.141882  0.141882  1
  Bi  Bi3  1  0.849670  0.849670  0.849670  1
  O  O4  1  0.740256  0.041868  0.482395  1
  O  O5  1  0.041868  0.482395  0.740256  1
  O  O6  1  0.482395  0.740256  0.041868  1
  O  O7  1  0.567017  0.215735  0.961936  1
  O  O8  1  0.961936  0.567017  0.215735  1
  O  O9  1  0.215735  0.961936  0.567017  1
