# generated using pymatgen
data_Ba2Ti6N2O11
_symmetry_space_group_name_H-M   'P 1'
_cell_length_a   7.95663220
_cell_length_b   7.95663220
_cell_length_c   9.24111935
_cell_angle_alpha   81.59884691
_cell_angle_beta   98.40115309
_cell_angle_gamma   151.26493750
_symmetry_Int_Tables_number   1
_chemical_formula_structural   Ba2Ti6N2O11
_chemical_formula_sum   'Ba2 Ti6 N2 O11'
_cell_volume   278.04508070
_cell_formula_units_Z   1
loop_
 _symmetry_equiv_pos_site_id
 _symmetry_equiv_pos_as_xyz
  1  'x, y, z'
loop_
 _atom_site_type_symbol
 _atom_site_label
 _atom_site_symmetry_multiplicity
 _atom_site_fract_x
 _atom_site_fract_y
 _atom_site_fract_z
 _atom_site_occupancy
  Ba  Ba0  1  0.552602  0.447398  0.765576  1
  Ba  Ba1  1  0.450867  0.549133  0.225871  1
  Ti  Ti2  1  0.119239  0.880761  0.088815  1
  Ti  Ti3  1  0.168103  0.831897  0.440015  1
  Ti  Ti4  1  0.248781  0.751219  0.777915  1
  Ti  Ti5  1  0.763283  0.236717  0.233128  1
  Ti  Ti6  1  0.826619  0.173381  0.571733  1
  Ti  Ti7  1  0.875069  0.124931  0.897275  1
  N  N8  1  0.762497  0.237503  0.754051  1
  N  N9  1  0.361168  0.638832  0.897055  1
  O  O10  1  0.073504  0.926496  0.294213  1
  O  O11  1  0.125679  0.874321  0.609100  1
  O  O12  1  0.164226  0.835774  0.911362  1
  O  O13  1  0.638612  0.361388  0.115024  1
  O  O14  1  0.699849  0.300151  0.427532  1
  O  O15  1  0.240151  0.759849  0.239801  1
  O  O16  1  0.298097  0.701903  0.568217  1
  O  O17  1  0.834431  0.165569  0.095382  1
  O  O18  1  0.865211  0.134789  0.383222  1
  O  O19  1  0.928499  0.071501  0.701878  1
  O  O20  1  0.003512  0.996488  0.002837  1
