# generated using pymatgen
data_Li2Cr2O7
_symmetry_space_group_name_H-M   'P 1'
_cell_length_a   6.07895380
_cell_length_b   7.63595385
_cell_length_c   12.97772052
_cell_angle_alpha   89.74495737
_cell_angle_beta   79.13282286
_cell_angle_gamma   89.33944788
_symmetry_Int_Tables_number   1
_chemical_formula_structural   Li2Cr2O7
_chemical_formula_sum   'Li8 Cr8 O28'
_cell_volume   591.56379805
_cell_formula_units_Z   4
loop_
 _symmetry_equiv_pos_site_id
 _symmetry_equiv_pos_as_xyz
  1  'x, y, z'
loop_
 _atom_site_type_symbol
 _atom_site_label
 _atom_site_symmetry_multiplicity
 _atom_site_fract_x
 _atom_site_fract_y
 _atom_site_fract_z
 _atom_site_occupancy
  Li  Li0  1  0.917302  0.193084  0.839969  1
  Li  Li1  1  0.385780  0.879458  0.844726  1
  Li  Li2  1  0.806145  0.567052  0.677592  1
  Li  Li3  1  0.229471  0.249780  0.583544  1
  Li  Li4  1  0.770529  0.750220  0.416456  1
  Li  Li5  1  0.193855  0.432948  0.322408  1
  Li  Li6  1  0.614220  0.120542  0.155274  1
  Li  Li7  1  0.082698  0.806916  0.160031  1
  Cr  Cr8  1  0.882346  0.647993  0.891605  1
  Cr  Cr9  1  0.409247  0.275060  0.884208  1
  Cr  Cr10  1  0.748680  0.056386  0.616028  1
  Cr  Cr11  1  0.301719  0.670932  0.585273  1
  Cr  Cr12  1  0.698281  0.329068  0.414727  1
  Cr  Cr13  1  0.251320  0.943614  0.383972  1
  Cr  Cr14  1  0.590753  0.724940  0.115792  1
  Cr  Cr15  1  0.117654  0.352007  0.108395  1
  O  O16  1  0.273055  0.418724  0.984720  1
  O  O17  1  0.610313  0.165470  0.924780  1
  O  O18  1  0.093572  0.766003  0.909817  1
  O  O19  1  0.962684  0.471909  0.821722  1
  O  O20  1  0.713717  0.761787  0.831292  1
  O  O21  1  0.222766  0.133432  0.859141  1
  O  O22  1  0.513509  0.390629  0.781953  1
  O  O23  1  0.545591  0.997128  0.708296  1
  O  O24  1  0.944776  0.145443  0.671748  1
  O  O25  1  0.190714  0.802646  0.677657  1
  O  O26  1  0.541346  0.598185  0.607057  1
  O  O27  1  0.835962  0.882393  0.546309  1
  O  O28  1  0.625991  0.212557  0.538900  1
  O  O29  1  0.124740  0.506175  0.585423  1
  O  O30  1  0.875260  0.493825  0.414577  1
  O  O31  1  0.374009  0.787443  0.461100  1
  O  O32  1  0.164038  0.117607  0.453691  1
  O  O33  1  0.458654  0.401815  0.392943  1
  O  O34  1  0.809286  0.197354  0.322343  1
  O  O35  1  0.055224  0.854557  0.328252  1
  O  O36  1  0.454409  0.002872  0.291704  1
  O  O37  1  0.486491  0.609371  0.218047  1
  O  O38  1  0.777234  0.866568  0.140859  1
  O  O39  1  0.286283  0.238213  0.168708  1
  O  O40  1  0.037316  0.528091  0.178278  1
  O  O41  1  0.906428  0.233997  0.090183  1
  O  O42  1  0.389687  0.834530  0.075220  1
  O  O43  1  0.726945  0.581276  0.015280  1
