# generated using pymatgen
data_LiV2(PO4)3
_symmetry_space_group_name_H-M   'P 1'
_cell_length_a   9.60232713
_cell_length_b   9.60232713
_cell_length_c   8.05362619
_cell_angle_alpha   74.62007152
_cell_angle_beta   105.37992848
_cell_angle_gamma   143.45646965
_symmetry_Int_Tables_number   1
_chemical_formula_structural   LiV2(PO4)3
_chemical_formula_sum   'Li2 V4 P6 O24'
_cell_volume   424.56186761
_cell_formula_units_Z   2
loop_
 _symmetry_equiv_pos_site_id
 _symmetry_equiv_pos_as_xyz
  1  'x, y, z'
loop_
 _atom_site_type_symbol
 _atom_site_label
 _atom_site_symmetry_multiplicity
 _atom_site_fract_x
 _atom_site_fract_y
 _atom_site_fract_z
 _atom_site_occupancy
  Li  Li0  1  0.410752  0.410752  0.750000  1
  Li  Li1  1  0.589248  0.589248  0.250000  1
  V  V2  1  0.299720  0.030602  0.592401  1
  V  V3  1  0.969398  0.700280  0.092401  1
  V  V4  1  0.030602  0.299720  0.907599  1
  V  V5  1  0.700280  0.969398  0.407599  1
  P  P6  1  0.853679  0.496127  0.731233  1
  P  P7  1  0.503873  0.146321  0.231233  1
  P  P8  1  0.496127  0.853679  0.768767  1
  P  P9  1  0.146321  0.503873  0.268767  1
  P  P10  1  0.938075  0.938075  0.750000  1
  P  P11  1  0.061925  0.061925  0.250000  1
  O  O12  1  0.815262  0.748319  0.904976  1
  O  O13  1  0.251681  0.184738  0.404976  1
  O  O14  1  0.167314  0.042749  0.728694  1
  O  O15  1  0.957251  0.832686  0.228694  1
  O  O16  1  0.592104  0.334941  0.686683  1
  O  O17  1  0.983056  0.702234  0.588049  1
  O  O18  1  0.933953  0.583905  0.913558  1
  O  O19  1  0.665059  0.407896  0.186683  1
  O  O20  1  0.297766  0.016944  0.088049  1
  O  O21  1  0.375845  0.901161  0.757544  1
  O  O22  1  0.416095  0.066047  0.413558  1
  O  O23  1  0.098839  0.624155  0.257544  1
  O  O24  1  0.901161  0.375845  0.742456  1
  O  O25  1  0.583905  0.933953  0.586442  1
  O  O26  1  0.624155  0.098839  0.242456  1
  O  O27  1  0.702234  0.983056  0.911951  1
  O  O28  1  0.334941  0.592104  0.813317  1
  O  O29  1  0.066047  0.416095  0.086442  1
  O  O30  1  0.016944  0.297766  0.411951  1
  O  O31  1  0.407896  0.665059  0.313317  1
  O  O32  1  0.042749  0.167314  0.771306  1
  O  O33  1  0.832686  0.957251  0.271306  1
  O  O34  1  0.748319  0.815262  0.595024  1
  O  O35  1  0.184738  0.251681  0.095024  1
