# generated using pymatgen
data_Li2AgF3
_symmetry_space_group_name_H-M   'P 1'
_cell_length_a   5.45793556
_cell_length_b   5.45793556
_cell_length_c   5.52020202
_cell_angle_alpha   80.88672702
_cell_angle_beta   99.11327298
_cell_angle_gamma   60.22491008
_symmetry_Int_Tables_number   1
_chemical_formula_structural   Li2AgF3
_chemical_formula_sum   'Li4 Ag2 F6'
_cell_volume   135.43277386
_cell_formula_units_Z   2
loop_
 _symmetry_equiv_pos_site_id
 _symmetry_equiv_pos_as_xyz
  1  'x, y, z'
loop_
 _atom_site_type_symbol
 _atom_site_label
 _atom_site_symmetry_multiplicity
 _atom_site_fract_x
 _atom_site_fract_y
 _atom_site_fract_z
 _atom_site_occupancy
  Li  Li0  1  0.000000  0.000000  0.000000  1
  Li  Li1  1  0.844788  0.844788  0.500000  1
  Li  Li2  1  0.500000  0.500000  0.500000  1
  Li  Li3  1  0.155212  0.155212  0.500000  1
  Ag  Ag4  1  0.677467  0.677467  0.000000  1
  Ag  Ag5  1  0.322533  0.322533  0.000000  1
  F  F6  1  0.893675  0.406264  0.693918  1
  F  F7  1  0.803955  0.196045  0.250067  1
  F  F8  1  0.406264  0.893675  0.306082  1
  F  F9  1  0.593736  0.106325  0.693918  1
  F  F10  1  0.196045  0.803955  0.749933  1
  F  F11  1  0.106325  0.593736  0.306082  1
