# generated using pymatgen
data_Li4Cr3Co3(NiO8)2
_symmetry_space_group_name_H-M   'P 1'
_cell_length_a   5.75382594
_cell_length_b   5.75382594
_cell_length_c   9.56453573
_cell_angle_alpha   89.99218145
_cell_angle_beta   90.00781855
_cell_angle_gamma   119.84231713
_symmetry_Int_Tables_number   1
_chemical_formula_structural   Li4Cr3Co3(NiO8)2
_chemical_formula_sum   'Li4 Cr3 Co3 Ni2 O16'
_cell_volume   274.66026017
_cell_formula_units_Z   1
loop_
 _symmetry_equiv_pos_site_id
 _symmetry_equiv_pos_as_xyz
  1  'x, y, z'
loop_
 _atom_site_type_symbol
 _atom_site_label
 _atom_site_symmetry_multiplicity
 _atom_site_fract_x
 _atom_site_fract_y
 _atom_site_fract_z
 _atom_site_occupancy
  Li  Li0  1  0.329736  0.670264  0.891538  1
  Li  Li1  1  0.004910  0.995090  0.996439  1
  Li  Li2  1  0.004335  0.995665  0.498872  1
  Li  Li3  1  0.662831  0.337169  0.396226  1
  Cr  Cr4  1  0.663414  0.831852  0.214431  1
  Cr  Cr5  1  0.168148  0.336586  0.214431  1
  Cr  Cr6  1  0.830996  0.169004  0.714449  1
  Co  Co7  1  0.169012  0.830988  0.214180  1
  Co  Co8  1  0.830899  0.663356  0.713474  1
  Co  Co9  1  0.336644  0.169101  0.713474  1
  Ni  Ni10  1  0.333045  0.666955  0.491501  1
  Ni  Ni11  1  0.666524  0.333476  0.989328  1
  O  O12  1  0.682930  0.840158  0.608794  1
  O  O13  1  0.481241  0.518759  0.328781  1
  O  O14  1  0.330348  0.669652  0.104071  1
  O  O15  1  0.004619  0.995381  0.314588  1
  O  O16  1  0.004646  0.995354  0.811660  1
  O  O17  1  0.159842  0.317070  0.608794  1
  O  O18  1  0.478212  0.964729  0.328936  1
  O  O19  1  0.035271  0.521788  0.328936  1
  O  O20  1  0.840226  0.159774  0.107895  1
  O  O21  1  0.158763  0.841237  0.612852  1
  O  O22  1  0.962693  0.485458  0.826686  1
  O  O23  1  0.514542  0.037307  0.826686  1
  O  O24  1  0.662369  0.337631  0.607351  1
  O  O25  1  0.843182  0.682189  0.109435  1
  O  O26  1  0.517982  0.482018  0.824601  1
  O  O27  1  0.317811  0.156818  0.109435  1
