# generated using pymatgen
data_Ba2La4Mn5SnO18
_symmetry_space_group_name_H-M   'P 1'
_cell_length_a   5.62074541
_cell_length_b   5.68698024
_cell_length_c   12.65070111
_cell_angle_alpha   102.75066637
_cell_angle_beta   102.37154454
_cell_angle_gamma   89.94751151
_symmetry_Int_Tables_number   1
_chemical_formula_structural   Ba2La4Mn5SnO18
_chemical_formula_sum   'Ba2 La4 Mn5 Sn1 O18'
_cell_volume   384.79314442
_cell_formula_units_Z   1
loop_
 _symmetry_equiv_pos_site_id
 _symmetry_equiv_pos_as_xyz
  1  'x, y, z'
loop_
 _atom_site_type_symbol
 _atom_site_label
 _atom_site_symmetry_multiplicity
 _atom_site_fract_x
 _atom_site_fract_y
 _atom_site_fract_z
 _atom_site_occupancy
  Ba  Ba0  1  0.584214  0.089061  0.173061  1
  Ba  Ba1  1  0.916140  0.416744  0.827601  1
  La  La2  1  0.749819  0.248913  0.500336  1
  La  La3  1  0.086958  0.589931  0.179908  1
  La  La4  1  0.412279  0.913806  0.819032  1
  La  La5  1  0.249200  0.742292  0.500170  1
  Mn  Mn6  1  0.332346  0.329644  0.662830  1
  Mn  Mn7  1  0.668494  0.669712  0.337033  1
  Mn  Mn8  1  0.169174  0.171038  0.340081  1
  Mn  Mn9  1  0.500591  0.503544  0.000711  1
  Mn  Mn10  1  0.829477  0.827644  0.659653  1
  Sn  Sn11  1  0.998781  0.001048  0.999970  1
  O  O12  1  0.597325  0.575951  0.671184  1
  O  O13  1  0.952575  0.905914  0.358520  1
  O  O14  1  0.123103  0.624423  0.676771  1
  O  O15  1  0.081832  0.015785  0.170371  1
  O  O16  1  0.250730  0.308190  0.502340  1
  O  O17  1  0.230784  0.718504  0.989899  1
  O  O18  1  0.282667  0.241317  0.010628  1
  O  O19  1  0.451536  0.953864  0.364372  1
  O  O20  1  0.414632  0.340185  0.823908  1
  O  O21  1  0.589998  0.620333  0.176527  1
  O  O22  1  0.547121  0.043780  0.641109  1
  O  O23  1  0.693228  0.771746  0.973549  1
  O  O24  1  0.796638  0.309982  0.026041  1
  O  O25  1  0.751089  0.684996  0.500524  1
  O  O26  1  0.911156  0.946003  0.826413  1
  O  O27  1  0.905233  0.403845  0.328780  1
  O  O28  1  0.045652  0.084760  0.635158  1
  O  O29  1  0.377230  0.447045  0.323520  1
