# generated using pymatgen
data_Li3Ag2F5
_symmetry_space_group_name_H-M   'P 1'
_cell_length_a   5.75753436
_cell_length_b   8.16435538
_cell_length_c   11.94921904
_cell_angle_alpha   90.15139358
_cell_angle_beta   97.84943079
_cell_angle_gamma   98.98155311
_symmetry_Int_Tables_number   1
_chemical_formula_structural   Li3Ag2F5
_chemical_formula_sum   'Li12 Ag8 F20'
_cell_volume   549.44139988
_cell_formula_units_Z   4
loop_
 _symmetry_equiv_pos_site_id
 _symmetry_equiv_pos_as_xyz
  1  'x, y, z'
loop_
 _atom_site_type_symbol
 _atom_site_label
 _atom_site_symmetry_multiplicity
 _atom_site_fract_x
 _atom_site_fract_y
 _atom_site_fract_z
 _atom_site_occupancy
  Li  Li0  1  0.021180  0.713380  0.403009  1
  Li  Li1  1  0.007243  0.418068  0.562418  1
  Li  Li2  1  0.364499  0.634843  0.757953  1
  Li  Li3  1  0.159452  0.506585  0.009073  1
  Li  Li4  1  0.568898  0.985846  0.770100  1
  Li  Li5  1  0.506728  0.685929  0.242880  1
  Li  Li6  1  0.570561  0.373286  0.711008  1
  Li  Li7  1  0.494179  0.073063  0.213076  1
  Li  Li8  1  0.633965  0.398482  0.207694  1
  Li  Li9  1  0.997762  0.837588  0.604678  1
  Li  Li10  1  0.913126  0.123081  0.411037  1
  Li  Li11  1  0.923055  0.152363  0.036526  1
  Ag  Ag12  1  0.067494  0.167461  0.766386  1
  Ag  Ag13  1  0.373346  0.970463  0.989476  1
  Ag  Ag14  1  0.102185  0.409674  0.259227  1
  Ag  Ag15  1  0.567469  0.401592  0.953841  1
  Ag  Ag16  1  0.519154  0.496647  0.471785  1
  Ag  Ag17  1  0.447207  0.063223  0.518506  1
  Ag  Ag18  1  0.969877  0.796388  0.863355  1
  Ag  Ag19  1  0.968838  0.816950  0.121928  1
  F  F20  1  0.051762  0.941064  0.460021  1
  F  F21  1  0.106227  0.292583  0.946730  1
  F  F22  1  0.281108  0.658075  0.906815  1
  F  F23  1  0.287801  0.846449  0.704967  1
  F  F24  1  0.127354  0.314492  0.440915  1
  F  F25  1  0.266393  0.434440  0.671503  1
  F  F26  1  0.310415  0.686983  0.355748  1
  F  F27  1  0.164099  0.077049  0.149406  1
  F  F28  1  0.382558  0.497106  0.141196  1
  F  F29  1  0.490720  0.191629  0.803559  1
  F  F30  1  0.750185  0.977545  0.926167  1
  F  F31  1  0.578330  0.876572  0.166677  1
  F  F32  1  0.677327  0.574555  0.794946  1
  F  F33  1  0.794545  0.953417  0.674615  1
  F  F34  1  0.623124  0.177541  0.348642  1
  F  F35  1  0.721727  0.291243  0.597931  1
  F  F36  1  0.773700  0.583074  0.302895  1
  F  F37  1  0.686065  0.220859  0.118138  1
  F  F38  1  0.916610  0.625544  0.537747  1
  F  F39  1  0.902745  0.551086  0.078703  1
