# generated using pymatgen
data_Li3Fe4(BO3)4
_symmetry_space_group_name_H-M   'P 1'
_cell_length_a   5.23778167
_cell_length_b   9.03743471
_cell_length_c   11.46157115
_cell_angle_alpha   113.02474799
_cell_angle_beta   101.99519802
_cell_angle_gamma   89.38977812
_symmetry_Int_Tables_number   1
_chemical_formula_structural   Li3Fe4(BO3)4
_chemical_formula_sum   'Li6 Fe8 B8 O24'
_cell_volume   486.91614932
_cell_formula_units_Z   2
loop_
 _symmetry_equiv_pos_site_id
 _symmetry_equiv_pos_as_xyz
  1  'x, y, z'
loop_
 _atom_site_type_symbol
 _atom_site_label
 _atom_site_symmetry_multiplicity
 _atom_site_fract_x
 _atom_site_fract_y
 _atom_site_fract_z
 _atom_site_occupancy
  Li  Li0  1  0.829792  0.173683  0.333683  1
  Li  Li1  1  0.641540  0.306806  0.598861  1
  Li  Li2  1  0.390158  0.037772  0.087633  1
  Li  Li3  1  0.082009  0.411247  0.836948  1
  Li  Li4  1  0.318228  0.677543  0.331334  1
  Li  Li5  1  0.578405  0.899537  0.834302  1
  Fe  Fe6  1  0.600235  0.600822  0.874615  1
  Fe  Fe7  1  0.909395  0.879429  0.118205  1
  Fe  Fe8  1  0.160294  0.486045  0.622082  1
  Fe  Fe9  1  0.340192  0.026770  0.371855  1
  Fe  Fe10  1  0.650852  0.975322  0.621775  1
  Fe  Fe11  1  0.844594  0.517418  0.363187  1
  Fe  Fe12  1  0.091412  0.092851  0.870437  1
  Fe  Fe13  1  0.393262  0.396943  0.110440  1
  B  B14  1  0.359968  0.358529  0.373652  1
  B  B15  1  0.105529  0.766538  0.872983  1
  B  B16  1  0.848128  0.853745  0.377924  1
  B  B17  1  0.592011  0.260539  0.860814  1
  B  B18  1  0.142565  0.147256  0.623633  1
  B  B19  1  0.404995  0.737529  0.125790  1
  B  B20  1  0.657478  0.639686  0.618211  1
  B  B21  1  0.901566  0.227981  0.130292  1
  O  O22  1  0.861579  0.786076  0.902190  1
  O  O23  1  0.555246  0.531489  0.659107  1
  O  O24  1  0.769830  0.102762  0.138620  1
  O  O25  1  0.507024  0.237254  0.388854  1
  O  O26  1  0.108980  0.369687  0.399382  1
  O  O27  1  0.200413  0.613775  0.830424  1
  O  O28  1  0.733958  0.380953  0.853542  1
  O  O29  1  0.944900  0.969827  0.344356  1
  O  O30  1  0.305062  0.892168  0.165268  1
  O  O31  1  0.386200  0.120859  0.588077  1
  O  O32  1  0.022106  0.285042  0.630503  1
  O  O33  1  0.615779  0.716239  0.067894  1
  O  O34  1  0.356913  0.284647  0.901994  1
  O  O35  1  0.610542  0.874512  0.421542  1
  O  O36  1  0.682267  0.102948  0.823096  1
  O  O37  1  0.023774  0.035711  0.655105  1
  O  O38  1  0.294505  0.619017  0.148134  1
  O  O39  1  0.799651  0.380107  0.172035  1
  O  O40  1  0.862292  0.599457  0.555088  1
  O  O41  1  0.555644  0.787375  0.644100  1
  O  O42  1  0.974455  0.716999  0.365904  1
  O  O43  1  0.259001  0.901318  0.890671  1
  O  O44  1  0.456812  0.473228  0.337578  1
  O  O45  1  0.131459  0.207848  0.084450  1
