# generated using pymatgen
data_Ba8LiTa7O24
_symmetry_space_group_name_H-M   'P 1'
_cell_length_a   5.89823172
_cell_length_b   5.89823172
_cell_length_c   19.14726751
_cell_angle_alpha   90.00000000
_cell_angle_beta   90.00000000
_cell_angle_gamma   120.00000000
_symmetry_Int_Tables_number   1
_chemical_formula_structural   Ba8LiTa7O24
_chemical_formula_sum   'Ba8 Li1 Ta7 O24'
_cell_volume   576.87417424
_cell_formula_units_Z   1
loop_
 _symmetry_equiv_pos_site_id
 _symmetry_equiv_pos_as_xyz
  1  'x, y, z'
loop_
 _atom_site_type_symbol
 _atom_site_label
 _atom_site_symmetry_multiplicity
 _atom_site_fract_x
 _atom_site_fract_y
 _atom_site_fract_z
 _atom_site_occupancy
  Ba  Ba0  1  0.333333  0.666667  0.249897  1
  Ba  Ba1  1  0.333333  0.666667  0.854551  1
  Ba  Ba2  1  0.000000  0.000000  0.993715  1
  Ba  Ba3  1  0.000000  0.000000  0.500518  1
  Ba  Ba4  1  0.333333  0.666667  0.634383  1
  Ba  Ba5  1  0.666667  0.333333  0.132358  1
  Ba  Ba6  1  0.666667  0.333333  0.753681  1
  Ba  Ba7  1  0.666667  0.333333  0.364950  1
  Li  Li8  1  0.000000  0.000000  0.832842  1
  Ta  Ta9  1  0.333333  0.666667  0.060847  1
  Ta  Ta10  1  0.000000  0.000000  0.182102  1
  Ta  Ta11  1  0.000000  0.000000  0.317987  1
  Ta  Ta12  1  0.000000  0.000000  0.688708  1
  Ta  Ta13  1  0.333333  0.666667  0.439212  1
  Ta  Ta14  1  0.666667  0.333333  0.560093  1
  Ta  Ta15  1  0.666667  0.333333  0.936079  1
  O  O16  1  0.158103  0.841897  0.742603  1
  O  O17  1  0.000640  0.500320  0.004906  1
  O  O18  1  0.998503  0.499251  0.498869  1
  O  O19  1  0.169870  0.830130  0.124450  1
  O  O20  1  0.169190  0.830810  0.376710  1
  O  O21  1  0.169870  0.339740  0.124450  1
  O  O22  1  0.169190  0.338380  0.376710  1
  O  O23  1  0.158103  0.316206  0.742603  1
  O  O24  1  0.321787  0.160894  0.249661  1
  O  O25  1  0.661620  0.830810  0.376710  1
  O  O26  1  0.660260  0.830130  0.124450  1
  O  O27  1  0.499680  0.500320  0.004906  1
  O  O28  1  0.500749  0.499251  0.498869  1
  O  O29  1  0.336482  0.168241  0.619918  1
  O  O30  1  0.348840  0.174420  0.882293  1
  O  O31  1  0.683794  0.841897  0.742603  1
  O  O32  1  0.831759  0.663518  0.619918  1
  O  O33  1  0.499680  0.999360  0.004906  1
  O  O34  1  0.500749  0.001497  0.498869  1
  O  O35  1  0.825580  0.651160  0.882293  1
  O  O36  1  0.839106  0.678213  0.249661  1
  O  O37  1  0.825580  0.174420  0.882293  1
  O  O38  1  0.831759  0.168241  0.619918  1
  O  O39  1  0.839106  0.160894  0.249661  1
