# generated using pymatgen
data_AgH3O2
_symmetry_space_group_name_H-M   'P 1'
_cell_length_a   6.14015095
_cell_length_b   6.32702798
_cell_length_c   12.19979281
_cell_angle_alpha   90.00000000
_cell_angle_beta   90.00000000
_cell_angle_gamma   90.00000000
_symmetry_Int_Tables_number   1
_chemical_formula_structural   AgH3O2
_chemical_formula_sum   'Ag8 H24 O16'
_cell_volume   473.94861461
_cell_formula_units_Z   8
loop_
 _symmetry_equiv_pos_site_id
 _symmetry_equiv_pos_as_xyz
  1  'x, y, z'
loop_
 _atom_site_type_symbol
 _atom_site_label
 _atom_site_symmetry_multiplicity
 _atom_site_fract_x
 _atom_site_fract_y
 _atom_site_fract_z
 _atom_site_occupancy
  Ag  Ag0  1  0.305821  0.659546  0.079905  1
  Ag  Ag1  1  0.805821  0.840454  0.079905  1
  Ag  Ag2  1  0.805821  0.340454  0.420095  1
  Ag  Ag3  1  0.305821  0.159546  0.420095  1
  Ag  Ag4  1  0.694179  0.840454  0.579905  1
  Ag  Ag5  1  0.194179  0.659546  0.579905  1
  Ag  Ag6  1  0.694179  0.340454  0.920095  1
  Ag  Ag7  1  0.194179  0.159546  0.920095  1
  H  H8  1  0.898333  0.423794  0.134167  1
  H  H9  1  0.398333  0.076206  0.134167  1
  H  H10  1  0.572896  0.276213  0.134675  1
  H  H11  1  0.072896  0.223787  0.134675  1
  H  H12  1  0.621959  0.559028  0.213072  1
  H  H13  1  0.121959  0.940972  0.213072  1
  H  H14  1  0.621959  0.059028  0.286928  1
  H  H15  1  0.121959  0.440972  0.286928  1
  H  H16  1  0.072896  0.723787  0.365325  1
  H  H17  1  0.572896  0.776213  0.365325  1
  H  H18  1  0.898333  0.923794  0.365833  1
  H  H19  1  0.398333  0.576206  0.365833  1
  H  H20  1  0.601667  0.423794  0.634167  1
  H  H21  1  0.101667  0.076206  0.634167  1
  H  H22  1  0.927104  0.276213  0.634675  1
  H  H23  1  0.427104  0.223787  0.634675  1
  H  H24  1  0.378041  0.940972  0.713072  1
  H  H25  1  0.878041  0.559028  0.713072  1
  H  H26  1  0.378041  0.440972  0.786928  1
  H  H27  1  0.878041  0.059028  0.786928  1
  H  H28  1  0.927104  0.776213  0.865325  1
  H  H29  1  0.427104  0.723787  0.865325  1
  H  H30  1  0.601667  0.923794  0.865833  1
  H  H31  1  0.101667  0.576206  0.865833  1
  O  O32  1  0.142862  0.973857  0.134291  1
  O  O33  1  0.642862  0.526143  0.134291  1
  O  O34  1  0.056308  0.382802  0.140559  1
  O  O35  1  0.556308  0.117198  0.140559  1
  O  O36  1  0.056308  0.882802  0.359441  1
  O  O37  1  0.556308  0.617198  0.359441  1
  O  O38  1  0.142862  0.473857  0.365709  1
  O  O39  1  0.642862  0.026143  0.365709  1
  O  O40  1  0.357138  0.973857  0.634291  1
  O  O41  1  0.857138  0.526143  0.634291  1
  O  O42  1  0.443692  0.382802  0.640559  1
  O  O43  1  0.943692  0.117198  0.640559  1
  O  O44  1  0.443692  0.882802  0.859441  1
  O  O45  1  0.943692  0.617198  0.859441  1
  O  O46  1  0.357138  0.473857  0.865709  1
  O  O47  1  0.857138  0.026143  0.865709  1
