# generated using pymatgen
data_Ti5Ni(PO4)6
_symmetry_space_group_name_H-M   'P 1'
_cell_length_a   8.40320767
_cell_length_b   8.40320767
_cell_length_c   8.40320767
_cell_angle_alpha   62.48676277
_cell_angle_beta   62.48676277
_cell_angle_gamma   62.48676277
_symmetry_Int_Tables_number   1
_chemical_formula_structural   Ti5Ni(PO4)6
_chemical_formula_sum   'Ti5 Ni1 P6 O24'
_cell_volume   442.84028424
_cell_formula_units_Z   1
loop_
 _symmetry_equiv_pos_site_id
 _symmetry_equiv_pos_as_xyz
  1  'x, y, z'
loop_
 _atom_site_type_symbol
 _atom_site_label
 _atom_site_symmetry_multiplicity
 _atom_site_fract_x
 _atom_site_fract_y
 _atom_site_fract_z
 _atom_site_occupancy
  Ti  Ti0  1  0.999795  0.999795  0.999795  1
  Ti  Ti1  1  0.500764  0.500764  0.500764  1
  Ti  Ti2  1  0.859308  0.859308  0.859308  1
  Ti  Ti3  1  0.641702  0.641702  0.641702  1
  Ti  Ti4  1  0.359107  0.359107  0.359107  1
  Ni  Ni5  1  0.142794  0.142794  0.142794  1
  P  P6  1  0.956554  0.249236  0.540860  1
  P  P7  1  0.540860  0.956554  0.249236  1
  P  P8  1  0.753123  0.454516  0.043308  1
  P  P9  1  0.454516  0.043308  0.753123  1
  P  P10  1  0.043308  0.753123  0.454516  1
  P  P11  1  0.249236  0.540860  0.956554  1
  O  O12  1  0.887805  0.672977  0.506197  1
  O  O13  1  0.672977  0.506197  0.887805  1
  O  O14  1  0.942562  0.096449  0.744321  1
  O  O15  1  0.506197  0.887805  0.672977  1
  O  O16  1  0.986284  0.180170  0.391059  1
  O  O17  1  0.755493  0.405684  0.564986  1
  O  O18  1  0.744321  0.942562  0.096449  1
  O  O19  1  0.564986  0.755493  0.405684  1
  O  O20  1  0.822942  0.613721  0.000426  1
  O  O21  1  0.405684  0.564986  0.755493  1
  O  O22  1  0.901144  0.255900  0.053683  1
  O  O23  1  0.613721  0.000426  0.822942  1
  O  O24  1  0.391059  0.986284  0.180170  1
  O  O25  1  0.096449  0.744321  0.942562  1
  O  O26  1  0.596153  0.443701  0.242355  1
  O  O27  1  0.180170  0.391059  0.986284  1
  O  O28  1  0.443701  0.242355  0.596153  1
  O  O29  1  0.255900  0.053683  0.901144  1
  O  O30  1  0.242355  0.596153  0.443701  1
  O  O31  1  0.000426  0.822942  0.613721  1
  O  O32  1  0.499176  0.114512  0.321230  1
  O  O33  1  0.053683  0.901144  0.255900  1
  O  O34  1  0.321230  0.499176  0.114512  1
  O  O35  1  0.114512  0.321230  0.499176  1
