# generated using pymatgen
data_Li2NbCr3O8
_symmetry_space_group_name_H-M   'P 1'
_cell_length_a   5.98174824
_cell_length_b   5.98174824
_cell_length_c   9.62227295
_cell_angle_alpha   90.00000000
_cell_angle_beta   90.00000000
_cell_angle_gamma   120.00000000
_symmetry_Int_Tables_number   1
_chemical_formula_structural   Li2NbCr3O8
_chemical_formula_sum   'Li4 Nb2 Cr6 O16'
_cell_volume   298.17042571
_cell_formula_units_Z   2
loop_
 _symmetry_equiv_pos_site_id
 _symmetry_equiv_pos_as_xyz
  1  'x, y, z'
loop_
 _atom_site_type_symbol
 _atom_site_label
 _atom_site_symmetry_multiplicity
 _atom_site_fract_x
 _atom_site_fract_y
 _atom_site_fract_z
 _atom_site_occupancy
  Li  Li0  1  0.333333  0.666667  0.899150  1
  Li  Li1  1  0.000000  0.000000  0.993378  1
  Li  Li2  1  0.000000  0.000000  0.493378  1
  Li  Li3  1  0.666667  0.333333  0.399150  1
  Nb  Nb4  1  0.333333  0.666667  0.493148  1
  Nb  Nb5  1  0.666667  0.333333  0.993148  1
  Cr  Cr6  1  0.170155  0.829845  0.215320  1
  Cr  Cr7  1  0.170155  0.340311  0.215320  1
  Cr  Cr8  1  0.659689  0.829845  0.215320  1
  Cr  Cr9  1  0.340311  0.170155  0.715320  1
  Cr  Cr10  1  0.829845  0.659689  0.715320  1
  Cr  Cr11  1  0.829845  0.170155  0.715320  1
  O  O12  1  0.167158  0.832842  0.594190  1
  O  O13  1  0.039743  0.519872  0.341103  1
  O  O14  1  0.333333  0.666667  0.108544  1
  O  O15  1  0.000000  0.000000  0.307887  1
  O  O16  1  0.000000  0.000000  0.807887  1
  O  O17  1  0.167158  0.334316  0.594190  1
  O  O18  1  0.480128  0.960257  0.341103  1
  O  O19  1  0.480128  0.519872  0.341103  1
  O  O20  1  0.334316  0.167158  0.094190  1
  O  O21  1  0.665684  0.832842  0.594190  1
  O  O22  1  0.519872  0.480128  0.841103  1
  O  O23  1  0.519872  0.039743  0.841103  1
  O  O24  1  0.666667  0.333333  0.608544  1
  O  O25  1  0.832842  0.665684  0.094190  1
  O  O26  1  0.960257  0.480128  0.841103  1
  O  O27  1  0.832842  0.167158  0.094190  1
