# generated using pymatgen
data_Na9Cu2O7
_symmetry_space_group_name_H-M   'P 1'
_cell_length_a   9.90268935
_cell_length_b   9.90268935
_cell_length_c   9.90268935
_cell_angle_alpha   90.00000000
_cell_angle_beta   90.00000000
_cell_angle_gamma   90.00000000
_symmetry_Int_Tables_number   1
_chemical_formula_structural   Na9Cu2O7
_chemical_formula_sum   'Na36 Cu8 O28'
_cell_volume   971.08996441
_cell_formula_units_Z   4
loop_
 _symmetry_equiv_pos_site_id
 _symmetry_equiv_pos_as_xyz
  1  'x, y, z'
loop_
 _atom_site_type_symbol
 _atom_site_label
 _atom_site_symmetry_multiplicity
 _atom_site_fract_x
 _atom_site_fract_y
 _atom_site_fract_z
 _atom_site_occupancy
  Na  Na0  1  0.011031  0.291475  0.835689  1
  Na  Na1  1  0.038148  0.784267  0.170203  1
  Na  Na2  1  0.069636  0.069636  0.069636  1
  Na  Na3  1  0.103669  0.603669  0.896331  1
  Na  Na4  1  0.164311  0.511031  0.208525  1
  Na  Na5  1  0.170203  0.038148  0.784267  1
  Na  Na6  1  0.208525  0.164311  0.511031  1
  Na  Na7  1  0.215733  0.670203  0.461852  1
  Na  Na8  1  0.234850  0.234850  0.234850  1
  Na  Na9  1  0.265150  0.765150  0.734850  1
  Na  Na10  1  0.284267  0.329797  0.961852  1
  Na  Na11  1  0.291475  0.835689  0.011031  1
  Na  Na12  1  0.329797  0.961852  0.284267  1
  Na  Na13  1  0.335689  0.488969  0.708525  1
  Na  Na14  1  0.396331  0.396331  0.396331  1
  Na  Na15  1  0.430364  0.930364  0.569636  1
  Na  Na16  1  0.461852  0.215733  0.670203  1
  Na  Na17  1  0.488969  0.708525  0.335689  1
  Na  Na18  1  0.511031  0.208525  0.164311  1
  Na  Na19  1  0.538148  0.715733  0.829797  1
  Na  Na20  1  0.569636  0.430364  0.930364  1
  Na  Na21  1  0.603669  0.896331  0.103669  1
  Na  Na22  1  0.664311  0.988969  0.791475  1
  Na  Na23  1  0.670203  0.461852  0.215733  1
  Na  Na24  1  0.708525  0.335689  0.488969  1
  Na  Na25  1  0.715733  0.829797  0.538148  1
  Na  Na26  1  0.734850  0.265150  0.765150  1
  Na  Na27  1  0.765150  0.734850  0.265150  1
  Na  Na28  1  0.784267  0.170203  0.038148  1
  Na  Na29  1  0.791475  0.664311  0.988969  1
  Na  Na30  1  0.829797  0.538148  0.715733  1
  Na  Na31  1  0.835689  0.011031  0.291475  1
  Na  Na32  1  0.896331  0.103669  0.603669  1
  Na  Na33  1  0.930364  0.569636  0.430364  1
  Na  Na34  1  0.961852  0.284267  0.329797  1
  Na  Na35  1  0.988969  0.791475  0.664311  1
  Cu  Cu36  1  0.067889  0.932111  0.432111  1
  Cu  Cu37  1  0.097452  0.402548  0.597452  1
  Cu  Cu38  1  0.402548  0.597452  0.097452  1
  Cu  Cu39  1  0.432111  0.067889  0.932111  1
  Cu  Cu40  1  0.567889  0.567889  0.567889  1
  Cu  Cu41  1  0.597452  0.097452  0.402548  1
  Cu  Cu42  1  0.902548  0.902548  0.902548  1
  Cu  Cu43  1  0.932111  0.432111  0.067889  1
  O  O44  1  0.075715  0.313134  0.076020  1
  O  O45  1  0.085312  0.837323  0.910213  1
  O  O46  1  0.076020  0.075715  0.313134  1
  O  O47  1  0.089787  0.585312  0.662677  1
  O  O48  1  0.162677  0.410213  0.414688  1
  O  O49  1  0.186866  0.923980  0.575715  1
  O  O50  1  0.220308  0.279692  0.720308  1
  O  O51  1  0.279692  0.720308  0.220308  1
  O  O52  1  0.313134  0.076020  0.075715  1
  O  O53  1  0.337323  0.589787  0.914688  1
  O  O54  1  0.410213  0.414688  0.162677  1
  O  O55  1  0.423980  0.924285  0.813134  1
  O  O56  1  0.414688  0.162677  0.410213  1
  O  O57  1  0.424285  0.686866  0.576020  1
  O  O58  1  0.575715  0.186866  0.923980  1
  O  O59  1  0.585312  0.662677  0.089787  1
  O  O60  1  0.576020  0.424285  0.686866  1
  O  O61  1  0.589787  0.914688  0.337323  1
  O  O62  1  0.662677  0.089787  0.585312  1
  O  O63  1  0.686866  0.576020  0.424285  1
  O  O64  1  0.720308  0.220308  0.279692  1
  O  O65  1  0.779692  0.779692  0.779692  1
  O  O66  1  0.813134  0.423980  0.924285  1
  O  O67  1  0.837323  0.910213  0.085312  1
  O  O68  1  0.910213  0.085312  0.837323  1
  O  O69  1  0.923980  0.575715  0.186866  1
  O  O70  1  0.914688  0.337323  0.589787  1
  O  O71  1  0.924285  0.813134  0.423980  1
