# generated using pymatgen
data_Ti5NbO12
_symmetry_space_group_name_H-M   'P 1'
_cell_length_a   5.57277546
_cell_length_b   5.57277546
_cell_length_c   7.27697432
_cell_angle_alpha   71.21734152
_cell_angle_beta   108.78265848
_cell_angle_gamma   106.50141739
_symmetry_Int_Tables_number   1
_chemical_formula_structural   Ti5NbO12
_chemical_formula_sum   'Ti5 Nb1 O12'
_cell_volume   198.42003795
_cell_formula_units_Z   1
loop_
 _symmetry_equiv_pos_site_id
 _symmetry_equiv_pos_as_xyz
  1  'x, y, z'
loop_
 _atom_site_type_symbol
 _atom_site_label
 _atom_site_symmetry_multiplicity
 _atom_site_fract_x
 _atom_site_fract_y
 _atom_site_fract_z
 _atom_site_occupancy
  Ti  Ti0  1  0.337772  0.662228  0.839567  1
  Ti  Ti1  1  0.662193  0.337807  0.670809  1
  Ti  Ti2  1  0.337807  0.662193  0.329191  1
  Ti  Ti3  1  0.662228  0.337772  0.160433  1
  Ti  Ti4  1  0.000000  0.000000  0.000000  1
  Nb  Nb5  1  0.000000  0.000000  0.500000  1
  O  O6  1  0.971707  0.632325  0.669294  1
  O  O7  1  0.632325  0.971707  0.330706  1
  O  O8  1  0.768860  0.231140  0.964782  1
  O  O9  1  0.102008  0.897992  0.295003  1
  O  O10  1  0.434662  0.565338  0.629191  1
  O  O11  1  0.897992  0.102008  0.704997  1
  O  O12  1  0.231140  0.768860  0.035218  1
  O  O13  1  0.565338  0.434662  0.370809  1
  O  O14  1  0.695712  0.695712  0.000000  1
  O  O15  1  0.367675  0.028293  0.669294  1
  O  O16  1  0.028293  0.367675  0.330706  1
  O  O17  1  0.304288  0.304288  0.000000  1
