# generated using pymatgen
data_Li7V4O11F
_symmetry_space_group_name_H-M   'P 1'
_cell_length_a   5.03006905
_cell_length_b   5.07154088
_cell_length_c   9.40358122
_cell_angle_alpha   93.92560221
_cell_angle_beta   93.09269088
_cell_angle_gamma   116.01302942
_symmetry_Int_Tables_number   1
_chemical_formula_structural   Li7V4O11F
_chemical_formula_sum   'Li7 V4 O11 F1'
_cell_volume   214.13400367
_cell_formula_units_Z   1
loop_
 _symmetry_equiv_pos_site_id
 _symmetry_equiv_pos_as_xyz
  1  'x, y, z'
loop_
 _atom_site_type_symbol
 _atom_site_label
 _atom_site_symmetry_multiplicity
 _atom_site_fract_x
 _atom_site_fract_y
 _atom_site_fract_z
 _atom_site_occupancy
  Li  Li0  1  0.388006  0.864943  0.123435  1
  Li  Li1  1  0.695373  0.530156  0.121319  1
  Li  Li2  1  0.778437  0.934053  0.370681  1
  Li  Li3  1  0.125186  0.642979  0.376383  1
  Li  Li4  1  0.865061  0.364077  0.626074  1
  Li  Li5  1  0.279129  0.422831  0.861904  1
  Li  Li6  1  0.616795  0.141396  0.875010  1
  V  V7  1  0.052332  0.230009  0.120798  1
  V  V8  1  0.470207  0.271577  0.370892  1
  V  V9  1  0.544897  0.743697  0.633163  1
  V  V10  1  0.966989  0.794368  0.870915  1
  O  O11  1  0.392396  0.540819  0.244315  1
  O  O12  1  0.742137  0.608810  0.492051  1
  O  O13  1  0.505082  0.998073  0.497642  1
  O  O14  1  0.739407  0.866966  0.009625  1
  O  O15  1  0.878971  0.042063  0.743926  1
  O  O16  1  0.751596  0.248730  0.251444  1
  O  O17  1  0.122880  0.978707  0.264343  1
  O  O18  1  0.302707  0.141144  0.993808  1
  O  O19  1  0.012456  0.494916  0.005362  1
  O  O20  1  0.252556  0.736815  0.752980  1
  O  O21  1  0.634602  0.484897  0.762523  1
  F  F22  1  0.181000  0.369772  0.506407  1
