# generated using pymatgen
data_Li5Fe3Sb2(PO4)6
_symmetry_space_group_name_H-M   'P 1'
_cell_length_a   8.82099344
_cell_length_b   8.91803612
_cell_length_c   8.93619892
_cell_angle_alpha   119.86411430
_cell_angle_beta   118.78352471
_cell_angle_gamma   90.37057339
_symmetry_Int_Tables_number   1
_chemical_formula_structural   Li5Fe3Sb2(PO4)6
_chemical_formula_sum   'Li5 Fe3 Sb2 P6 O24'
_cell_volume   505.48899513
_cell_formula_units_Z   1
loop_
 _symmetry_equiv_pos_site_id
 _symmetry_equiv_pos_as_xyz
  1  'x, y, z'
loop_
 _atom_site_type_symbol
 _atom_site_label
 _atom_site_symmetry_multiplicity
 _atom_site_fract_x
 _atom_site_fract_y
 _atom_site_fract_z
 _atom_site_occupancy
  Li  Li0  1  0.772206  0.122097  0.540389  1
  Li  Li1  1  0.313745  0.837462  0.497525  1
  Li  Li2  1  0.320523  0.162642  0.996232  1
  Li  Li3  1  0.312243  0.681242  0.146558  1
  Li  Li4  1  0.532792  0.814237  0.366118  1
  Fe  Fe5  1  0.535915  0.163541  0.686054  1
  Fe  Fe6  1  0.967246  0.333522  0.319694  1
  Fe  Fe7  1  0.050609  0.652895  0.689135  1
  Sb  Sb8  1  0.012106  0.991277  0.029619  1
  Sb  Sb9  1  0.553968  0.489191  0.024817  1
  P  P10  1  0.745673  0.753227  0.792279  1
  P  P11  1  0.737371  0.051974  0.183950  1
  P  P12  1  0.734711  0.455221  0.489904  1
  P  P13  1  0.232177  0.549145  0.486014  1
  P  P14  1  0.215736  0.970218  0.777467  1
  P  P15  1  0.255271  0.246312  0.210697  1
  O  O16  1  0.091195  0.331287  0.186328  1
  O  O17  1  0.060801  0.501281  0.400980  1
  O  O18  1  0.749029  0.929145  0.796533  1
  O  O19  1  0.023011  0.090958  0.583077  1
  O  O20  1  0.563894  0.789032  0.605098  1
  O  O21  1  0.753078  0.598916  0.994240  1
  O  O22  1  0.721144  0.081241  0.987896  1
  O  O23  1  0.740265  0.244540  0.160007  1
  O  O24  1  0.408300  0.399238  0.597997  1
  O  O25  1  0.732849  0.410323  0.332853  1
  O  O26  1  0.218810  0.729597  0.291815  1
  O  O27  1  0.368147  0.036886  0.751795  1
  O  O28  1  0.568185  0.019479  0.184797  1
  O  O29  1  0.737492  0.264688  0.651712  1
  O  O30  1  0.254745  0.607594  0.631274  1
  O  O31  1  0.558599  0.607914  0.357116  1
  O  O32  1  0.251766  0.766073  0.855795  1
  O  O33  1  0.221301  0.976049  0.956709  1
  O  O34  1  0.271121  0.363810  0.022106  1
  O  O35  1  0.437929  0.195407  0.412653  1
  O  O36  1  0.920081  0.909016  0.375758  1
  O  O37  1  0.233097  0.062360  0.219758  1
  O  O38  1  0.909291  0.489394  0.604695  1
  O  O39  1  0.913578  0.698574  0.802551  1
