# generated using pymatgen
data_VOF
_symmetry_space_group_name_H-M   'P 1'
_cell_length_a   6.02412563
_cell_length_b   6.02412563
_cell_length_c   6.02412563
_cell_angle_alpha   100.28066530
_cell_angle_beta   100.28066530
_cell_angle_gamma   100.28066530
_symmetry_Int_Tables_number   1
_chemical_formula_structural   VOF
_chemical_formula_sum   'V6 O6 F6'
_cell_volume   206.59808075
_cell_formula_units_Z   6
loop_
 _symmetry_equiv_pos_site_id
 _symmetry_equiv_pos_as_xyz
  1  'x, y, z'
loop_
 _atom_site_type_symbol
 _atom_site_label
 _atom_site_symmetry_multiplicity
 _atom_site_fract_x
 _atom_site_fract_y
 _atom_site_fract_z
 _atom_site_occupancy
  V  V0  1  0.329309  0.601877  0.146067  1
  V  V1  1  0.398123  0.853933  0.670691  1
  V  V2  1  0.853933  0.670691  0.398123  1
  V  V3  1  0.146067  0.329309  0.601877  1
  V  V4  1  0.601877  0.146067  0.329309  1
  V  V5  1  0.670691  0.398123  0.853933  1
  O  O6  1  0.582693  0.822532  0.425339  1
  O  O7  1  0.177468  0.574661  0.417307  1
  O  O8  1  0.574661  0.417307  0.177468  1
  O  O9  1  0.425339  0.582693  0.822532  1
  O  O10  1  0.822532  0.425339  0.582693  1
  O  O11  1  0.417307  0.177468  0.574661  1
  F  F12  1  0.667878  0.073476  0.906533  1
  F  F13  1  0.926524  0.093467  0.332122  1
  F  F14  1  0.093467  0.332122  0.926524  1
  F  F15  1  0.906533  0.667878  0.073476  1
  F  F16  1  0.073476  0.906533  0.667878  1
  F  F17  1  0.332122  0.926524  0.093467  1
