# generated using pymatgen
data_Li10Fe4S9
_symmetry_space_group_name_H-M   'P 1'
_cell_length_a   11.74872760
_cell_length_b   11.74872760
_cell_length_c   5.71949332
_cell_angle_alpha   90.00000000
_cell_angle_beta   90.00000000
_cell_angle_gamma   90.00000000
_symmetry_Int_Tables_number   1
_chemical_formula_structural   Li10Fe4S9
_chemical_formula_sum   'Li20 Fe8 S18'
_cell_volume   789.47653489
_cell_formula_units_Z   2
loop_
 _symmetry_equiv_pos_site_id
 _symmetry_equiv_pos_as_xyz
  1  'x, y, z'
loop_
 _atom_site_type_symbol
 _atom_site_label
 _atom_site_symmetry_multiplicity
 _atom_site_fract_x
 _atom_site_fract_y
 _atom_site_fract_z
 _atom_site_occupancy
  Li  Li0  1  0.149839  0.316472  0.215056  1
  Li  Li1  1  0.850161  0.316472  0.215056  1
  Li  Li2  1  0.816472  0.350161  0.715056  1
  Li  Li3  1  0.183528  0.350161  0.715056  1
  Li  Li4  1  0.000000  0.500000  0.175140  1
  Li  Li5  1  0.000000  0.500000  0.675140  1
  Li  Li6  1  0.816472  0.649839  0.715056  1
  Li  Li7  1  0.183528  0.649839  0.715056  1
  Li  Li8  1  0.850161  0.683528  0.215056  1
  Li  Li9  1  0.149839  0.683528  0.215056  1
  Li  Li10  1  0.350161  0.816472  0.284944  1
  Li  Li11  1  0.649839  0.816472  0.284944  1
  Li  Li12  1  0.316472  0.850161  0.784944  1
  Li  Li13  1  0.683528  0.850161  0.784944  1
  Li  Li14  1  0.500000  0.000000  0.824860  1
  Li  Li15  1  0.500000  0.000000  0.324860  1
  Li  Li16  1  0.683528  0.149839  0.784944  1
  Li  Li17  1  0.316472  0.149839  0.784944  1
  Li  Li18  1  0.350161  0.183528  0.284944  1
  Li  Li19  1  0.649839  0.183528  0.284944  1
  Fe  Fe20  1  0.500000  0.346765  0.768515  1
  Fe  Fe21  1  0.653235  0.500000  0.231485  1
  Fe  Fe22  1  0.346765  0.500000  0.231485  1
  Fe  Fe23  1  0.500000  0.653235  0.768515  1
  Fe  Fe24  1  0.000000  0.846765  0.731485  1
  Fe  Fe25  1  0.846765  0.000000  0.268515  1
  Fe  Fe26  1  0.153235  0.000000  0.268515  1
  Fe  Fe27  1  0.000000  0.153235  0.731485  1
  S  S28  1  0.335484  0.335484  0.000000  1
  S  S29  1  0.664516  0.335484  0.000000  1
  S  S30  1  0.000000  0.333611  0.927647  1
  S  S31  1  0.500000  0.500000  0.500000  1
  S  S32  1  0.833611  0.500000  0.427647  1
  S  S33  1  0.166389  0.500000  0.427647  1
  S  S34  1  0.000000  0.666389  0.927647  1
  S  S35  1  0.335484  0.664516  0.000000  1
  S  S36  1  0.664516  0.664516  0.000000  1
  S  S37  1  0.835484  0.835484  0.500000  1
  S  S38  1  0.164516  0.835484  0.500000  1
  S  S39  1  0.500000  0.833611  0.572353  1
  S  S40  1  0.666389  0.000000  0.072353  1
  S  S41  1  0.000000  0.000000  0.000000  1
  S  S42  1  0.333611  0.000000  0.072353  1
  S  S43  1  0.500000  0.166389  0.572353  1
  S  S44  1  0.835484  0.164516  0.500000  1
  S  S45  1  0.164516  0.164516  0.500000  1
