# generated using pymatgen
data_Li7Ni(O2F)2
_symmetry_space_group_name_H-M   'P 1'
_cell_length_a   5.41489556
_cell_length_b   5.45772269
_cell_length_c   5.52466602
_cell_angle_alpha   91.86411276
_cell_angle_beta   117.83810586
_cell_angle_gamma   111.29816306
_symmetry_Int_Tables_number   1
_chemical_formula_structural   Li7Ni(O2F)2
_chemical_formula_sum   'Li7 Ni1 O4 F2'
_cell_volume   130.40308453
_cell_formula_units_Z   1
loop_
 _symmetry_equiv_pos_site_id
 _symmetry_equiv_pos_as_xyz
  1  'x, y, z'
loop_
 _atom_site_type_symbol
 _atom_site_label
 _atom_site_symmetry_multiplicity
 _atom_site_fract_x
 _atom_site_fract_y
 _atom_site_fract_z
 _atom_site_occupancy
  Li  Li0  1  0.594995  0.125976  0.322749  1
  Li  Li1  1  0.756205  0.519724  0.706063  1
  Li  Li2  1  0.122179  0.201367  0.642634  1
  Li  Li3  1  0.323031  0.664684  0.988633  1
  Li  Li4  1  0.897863  0.762211  0.357793  1
  Li  Li5  1  0.157310  0.451460  0.282387  1
  Li  Li6  1  0.458796  0.934337  0.681617  1
  Ni  Ni7  1  0.014209  0.999441  0.003430  1
  O  O8  1  0.860858  0.221294  0.768666  1
  O  O9  1  0.867245  0.073604  0.220817  1
  O  O10  1  0.120880  0.881256  0.767519  1
  O  O11  1  0.205091  0.811016  0.252065  1
  F  F12  1  0.540596  0.464228  0.289038  1
  F  F13  1  0.415317  0.550377  0.708565  1
