# generated using pymatgen
data_LiFe2OF5
_symmetry_space_group_name_H-M   'P 1'
_cell_length_a   5.22232486
_cell_length_b   5.22232486
_cell_length_c   13.72668650
_cell_angle_alpha   90.00000000
_cell_angle_beta   90.00000000
_cell_angle_gamma   120.00000000
_symmetry_Int_Tables_number   1
_chemical_formula_structural   LiFe2OF5
_chemical_formula_sum   'Li3 Fe6 O3 F15'
_cell_volume   324.20829000
_cell_formula_units_Z   3
loop_
 _symmetry_equiv_pos_site_id
 _symmetry_equiv_pos_as_xyz
  1  'x, y, z'
loop_
 _atom_site_type_symbol
 _atom_site_label
 _atom_site_symmetry_multiplicity
 _atom_site_fract_x
 _atom_site_fract_y
 _atom_site_fract_z
 _atom_site_occupancy
  Li  Li0  1  0.310673  0.643100  0.004710  1
  Li  Li1  1  0.356900  0.667573  0.338043  1
  Li  Li2  1  0.332427  0.689327  0.671376  1
  Fe  Fe3  1  0.649548  0.313300  0.828830  1
  Fe  Fe4  1  0.686700  0.336248  0.162164  1
  Fe  Fe5  1  0.663752  0.350452  0.495497  1
  Fe  Fe6  1  0.002392  0.019060  0.162102  1
  Fe  Fe7  1  0.980940  0.983333  0.495436  1
  Fe  Fe8  1  0.016667  0.997608  0.828769  1
  O  O9  1  0.332360  0.016805  0.759805  1
  O  O10  1  0.684445  0.667640  0.426472  1
  O  O11  1  0.983195  0.315555  0.093138  1
  F  F12  1  0.345161  0.310428  0.243593  1
  F  F13  1  0.333577  0.318960  0.912408  1
  F  F14  1  0.319415  0.300620  0.575519  1
  F  F15  1  0.332593  0.013798  0.423841  1
  F  F16  1  0.333671  0.016503  0.089385  1
  F  F17  1  0.699380  0.018795  0.908852  1
  F  F18  1  0.689572  0.034733  0.576926  1
  F  F19  1  0.681040  0.014618  0.245742  1
  F  F20  1  0.681205  0.667407  0.090507  1
  F  F21  1  0.682832  0.666329  0.756051  1
  F  F22  1  0.986202  0.318795  0.757174  1
  F  F23  1  0.983497  0.317168  0.422718  1
  F  F24  1  0.965267  0.654839  0.910260  1
  F  F25  1  0.981205  0.680585  0.242185  1
  F  F26  1  0.985382  0.666423  0.579075  1
