# generated using pymatgen
data_LiCr3P3(HO6)2
_symmetry_space_group_name_H-M   'P 1'
_cell_length_a   8.78920287
_cell_length_b   8.78920287
_cell_length_c   6.60020644
_cell_angle_alpha   72.55396170
_cell_angle_beta   107.44603830
_cell_angle_gamma   91.36211738
_symmetry_Int_Tables_number   1
_chemical_formula_structural   LiCr3P3(HO6)2
_chemical_formula_sum   'Li2 Cr6 P6 H4 O24'
_cell_volume   462.81144693
_cell_formula_units_Z   2
loop_
 _symmetry_equiv_pos_site_id
 _symmetry_equiv_pos_as_xyz
  1  'x, y, z'
loop_
 _atom_site_type_symbol
 _atom_site_label
 _atom_site_symmetry_multiplicity
 _atom_site_fract_x
 _atom_site_fract_y
 _atom_site_fract_z
 _atom_site_occupancy
  Li  Li0  1  0.985243  0.985243  0.750000  1
  Li  Li1  1  0.014757  0.014757  0.250000  1
  Cr  Cr2  1  0.373969  0.946009  0.636858  1
  Cr  Cr3  1  0.053991  0.626031  0.136858  1
  Cr  Cr4  1  0.278156  0.278156  0.750000  1
  Cr  Cr5  1  0.721844  0.721844  0.250000  1
  Cr  Cr6  1  0.946009  0.373969  0.863142  1
  Cr  Cr7  1  0.626031  0.053991  0.363142  1
  P  P8  1  0.104873  0.677161  0.608494  1
  P  P9  1  0.322839  0.895127  0.108494  1
  P  P10  1  0.676878  0.676878  0.750000  1
  P  P11  1  0.323122  0.323122  0.250000  1
  P  P12  1  0.677161  0.104873  0.891506  1
  P  P13  1  0.895127  0.322839  0.391506  1
  H  H14  1  0.375775  0.624823  0.682618  1
  H  H15  1  0.375177  0.624225  0.182618  1
  H  H16  1  0.624823  0.375775  0.817382  1
  H  H17  1  0.624225  0.375177  0.317382  1
  O  O18  1  0.144820  0.854422  0.586219  1
  O  O19  1  0.036604  0.604765  0.803524  1
  O  O20  1  0.145578  0.855180  0.086219  1
  O  O21  1  0.395235  0.963396  0.303524  1
  O  O22  1  0.019189  0.323876  0.612958  1
  O  O23  1  0.258069  0.570052  0.644158  1
  O  O24  1  0.498564  0.707262  0.726903  1
  O  O25  1  0.779337  0.719809  0.960025  1
  O  O26  1  0.676124  0.980811  0.112958  1
  O  O27  1  0.429948  0.741931  0.144158  1
  O  O28  1  0.292738  0.501436  0.226903  1
  O  O29  1  0.719809  0.779337  0.539975  1
  O  O30  1  0.280191  0.220663  0.460025  1
  O  O31  1  0.707262  0.498564  0.773097  1
  O  O32  1  0.570052  0.258069  0.855842  1
  O  O33  1  0.323876  0.019189  0.887042  1
  O  O34  1  0.220663  0.280191  0.039975  1
  O  O35  1  0.501436  0.292738  0.273097  1
  O  O36  1  0.741931  0.429948  0.355842  1
  O  O37  1  0.980811  0.676124  0.387042  1
  O  O38  1  0.604765  0.036604  0.696476  1
  O  O39  1  0.854422  0.144820  0.913781  1
  O  O40  1  0.963396  0.395235  0.196476  1
  O  O41  1  0.855180  0.145578  0.413781  1
