# generated using pymatgen
data_Na4Mn2As(CO4)4
_symmetry_space_group_name_H-M   'P 1'
_cell_length_a   10.15977263
_cell_length_b   9.97882909
_cell_length_c   9.92891956
_cell_angle_alpha   61.37270167
_cell_angle_beta   59.55570115
_cell_angle_gamma   59.07159719
_symmetry_Int_Tables_number   1
_chemical_formula_structural   Na4Mn2As(CO4)4
_chemical_formula_sum   'Na8 Mn4 As2 C8 O32'
_cell_volume   711.14197644
_cell_formula_units_Z   2
loop_
 _symmetry_equiv_pos_site_id
 _symmetry_equiv_pos_as_xyz
  1  'x, y, z'
loop_
 _atom_site_type_symbol
 _atom_site_label
 _atom_site_symmetry_multiplicity
 _atom_site_fract_x
 _atom_site_fract_y
 _atom_site_fract_z
 _atom_site_occupancy
  Na  Na0  1  0.963855  0.536145  0.536145  1
  Na  Na1  1  0.540441  0.540442  0.959558  1
  Na  Na2  1  0.290442  0.290442  0.709558  1
  Na  Na3  1  0.713855  0.286145  0.286145  1
  Na  Na4  1  0.536145  0.963855  0.963855  1
  Na  Na5  1  0.959558  0.959559  0.540441  1
  Na  Na6  1  0.709559  0.709558  0.290441  1
  Na  Na7  1  0.286145  0.713855  0.713855  1
  Mn  Mn8  1  0.125000  0.625000  0.125000  1
  Mn  Mn9  1  0.125000  0.125000  0.125000  1
  Mn  Mn10  1  0.125000  0.125000  0.625000  1
  Mn  Mn11  1  0.625000  0.125000  0.125000  1
  As  As12  1  0.500000  0.500000  0.500000  1
  As  As13  1  0.750000  0.750000  0.750000  1
  C  C14  1  0.919770  0.265053  0.913455  1
  C  C15  1  0.336545  0.348278  0.330230  1
  C  C16  1  0.901722  0.913455  0.265053  1
  C  C17  1  0.265053  0.919770  0.901722  1
  C  C18  1  0.984947  0.330230  0.348278  1
  C  C19  1  0.348278  0.336545  0.984947  1
  C  C20  1  0.913455  0.901722  0.919770  1
  C  C21  1  0.330230  0.984947  0.336545  1
  O  O22  1  0.948567  0.271198  0.766660  1
  O  O23  1  0.289889  0.568063  0.579319  1
  O  O24  1  0.036551  0.255764  0.941781  1
  O  O25  1  0.308219  0.484095  0.213449  1
  O  O26  1  0.765905  0.941781  0.255764  1
  O  O27  1  0.228145  0.324885  0.472771  1
  O  O28  1  0.562729  0.579319  0.568063  1
  O  O29  1  0.579319  0.562729  0.289889  1
  O  O30  1  0.324885  0.228145  0.974200  1
  O  O31  1  0.255764  0.036551  0.765905  1
  O  O32  1  0.483340  0.236425  0.301433  1
  O  O33  1  0.568063  0.289889  0.562729  1
  O  O34  1  0.013575  0.766660  0.271198  1
  O  O35  1  0.271198  0.948567  0.013575  1
  O  O36  1  0.777229  0.275800  0.021855  1
  O  O37  1  0.974200  0.472771  0.324885  1
  O  O38  1  0.275800  0.777229  0.925115  1
  O  O39  1  0.472771  0.974200  0.228145  1
  O  O40  1  0.978802  0.301433  0.236425  1
  O  O41  1  0.236425  0.483340  0.978802  1
  O  O42  1  0.681937  0.960111  0.687271  1
  O  O43  1  0.766660  0.013575  0.948567  1
  O  O44  1  0.994236  0.213449  0.484095  1
  O  O45  1  0.925115  0.021855  0.275800  1
  O  O46  1  0.670681  0.687271  0.960111  1
  O  O47  1  0.687271  0.670681  0.681937  1
  O  O48  1  0.021855  0.925115  0.777229  1
  O  O49  1  0.484095  0.308219  0.994236  1
  O  O50  1  0.941781  0.765905  0.036551  1
  O  O51  1  0.213449  0.994236  0.308219  1
  O  O52  1  0.960111  0.681937  0.670681  1
  O  O53  1  0.301433  0.978802  0.483340  1
