# generated using pymatgen
data_Li9Mn14O32
_symmetry_space_group_name_H-M   'P 1'
_cell_length_a   5.87159713
_cell_length_b   5.87159713
_cell_length_c   19.43612177
_cell_angle_alpha   81.12011451
_cell_angle_beta   98.87988549
_cell_angle_gamma   120.07158337
_symmetry_Int_Tables_number   1
_chemical_formula_structural   Li9Mn14O32
_chemical_formula_sum   'Li9 Mn14 O32'
_cell_volume   570.60194098
_cell_formula_units_Z   1
loop_
 _symmetry_equiv_pos_site_id
 _symmetry_equiv_pos_as_xyz
  1  'x, y, z'
loop_
 _atom_site_type_symbol
 _atom_site_label
 _atom_site_symmetry_multiplicity
 _atom_site_fract_x
 _atom_site_fract_y
 _atom_site_fract_z
 _atom_site_occupancy
  Li  Li0  1  0.094736  0.905264  0.777368  1
  Li  Li1  1  0.399066  0.600934  0.717289  1
  Li  Li2  1  0.351628  0.648372  0.533671  1
  Li  Li3  1  0.875062  0.124938  0.624638  1
  Li  Li4  1  0.653989  0.346011  0.471809  1
  Li  Li5  1  0.249947  0.750053  0.250414  1
  Li  Li6  1  0.595167  0.404833  0.285595  1
  Li  Li7  1  0.905198  0.094802  0.214890  1
  Li  Li8  1  0.843796  0.156204  0.032350  1
  Mn  Mn9  1  0.499594  0.500406  0.999362  1
  Mn  Mn10  1  0.125019  0.375295  0.875052  1
  Mn  Mn11  1  0.624705  0.874981  0.875052  1
  Mn  Mn12  1  0.625715  0.374285  0.875471  1
  Mn  Mn13  1  0.374718  0.125163  0.624611  1
  Mn  Mn14  1  0.750188  0.249812  0.746625  1
  Mn  Mn15  1  0.874837  0.625282  0.624611  1
  Mn  Mn16  1  0.126931  0.379227  0.374552  1
  Mn  Mn17  1  0.126344  0.873656  0.374257  1
  Mn  Mn18  1  0.620773  0.873069  0.374552  1
  Mn  Mn19  1  0.999772  0.000228  0.502439  1
  Mn  Mn20  1  0.372385  0.627615  0.125596  1
  Mn  Mn21  1  0.372405  0.118825  0.125681  1
  Mn  Mn22  1  0.881175  0.627595  0.125681  1
  O  O23  1  0.332107  0.667893  0.934672  1
  O  O24  1  0.330876  0.230227  0.934065  1
  O  O25  1  0.769773  0.669124  0.934065  1
  O  O26  1  0.440583  0.559417  0.821184  1
  O  O27  1  0.021529  0.434748  0.689096  1
  O  O28  1  0.474836  0.079098  0.817508  1
  O  O29  1  0.811181  0.188819  0.929599  1
  O  O30  1  0.069275  0.930725  0.676443  1
  O  O31  1  0.919979  0.080021  0.814836  1
  O  O32  1  0.173066  0.826934  0.565601  1
  O  O33  1  0.185142  0.272214  0.560781  1
  O  O34  1  0.920902  0.525164  0.817508  1
  O  O35  1  0.577220  0.422780  0.684141  1
  O  O36  1  0.565252  0.978471  0.689096  1
  O  O37  1  0.272720  0.168581  0.433199  1
  O  O38  1  0.680859  0.319141  0.573070  1
  O  O39  1  0.727786  0.814858  0.560781  1
  O  O40  1  0.309174  0.690826  0.427828  1
  O  O41  1  0.426918  0.573082  0.322805  1
  O  O42  1  0.428109  0.032548  0.322754  1
  O  O43  1  0.831419  0.727280  0.433199  1
  O  O44  1  0.072180  0.927820  0.177162  1
  O  O45  1  0.831086  0.168914  0.434889  1
  O  O46  1  0.072352  0.466597  0.177176  1
  O  O47  1  0.533403  0.927648  0.177176  1
  O  O48  1  0.939880  0.060120  0.322192  1
  O  O49  1  0.190663  0.809337  0.073034  1
  O  O50  1  0.559574  0.440426  0.177599  1
  O  O51  1  0.967452  0.571891  0.322754  1
  O  O52  1  0.227745  0.331241  0.065121  1
  O  O53  1  0.668799  0.331201  0.065231  1
  O  O54  1  0.668759  0.772255  0.065121  1
