# generated using pymatgen
data_SrLaTaMnO6
_symmetry_space_group_name_H-M   'P 1'
_cell_length_a   5.70244678
_cell_length_b   5.87813238
_cell_length_c   9.93306198
_cell_angle_alpha   90.00000000
_cell_angle_beta   125.14756125
_cell_angle_gamma   90.00000000
_symmetry_Int_Tables_number   1
_chemical_formula_structural   SrLaTaMnO6
_chemical_formula_sum   'Sr2 La2 Ta2 Mn2 O12'
_cell_volume   272.24689823
_cell_formula_units_Z   2
loop_
 _symmetry_equiv_pos_site_id
 _symmetry_equiv_pos_as_xyz
  1  'x, y, z'
loop_
 _atom_site_type_symbol
 _atom_site_label
 _atom_site_symmetry_multiplicity
 _atom_site_fract_x
 _atom_site_fract_y
 _atom_site_fract_z
 _atom_site_occupancy
  Sr  Sr0  1  0.241041  0.288537  0.248344  1
  Sr  Sr1  1  0.241041  0.711463  0.748344  1
  La  La2  1  0.757352  0.807830  0.245311  1
  La  La3  1  0.757352  0.192170  0.745311  1
  Ta  Ta4  1  0.001009  0.744411  0.999729  1
  Ta  Ta5  1  0.001009  0.255589  0.499729  1
  Mn  Mn6  1  0.501168  0.740456  0.499170  1
  Mn  Mn7  1  0.501168  0.259544  0.999170  1
  O  O8  1  0.687194  0.779955  0.761291  1
  O  O9  1  0.847056  0.020254  0.046662  1
  O  O10  1  0.241943  0.054435  0.463011  1
  O  O11  1  0.757771  0.563528  0.048105  1
  O  O12  1  0.128176  0.543288  0.449950  1
  O  O13  1  0.337289  0.279324  0.738426  1
  O  O14  1  0.687194  0.220045  0.261291  1
  O  O15  1  0.847056  0.979746  0.546662  1
  O  O16  1  0.241943  0.945565  0.963011  1
  O  O17  1  0.757771  0.436472  0.548105  1
  O  O18  1  0.128176  0.456712  0.949950  1
  O  O19  1  0.337289  0.720676  0.238426  1
