# generated using pymatgen
data_LuScO3
_symmetry_space_group_name_H-M   'P 1'
_cell_length_a   5.37916221
_cell_length_b   5.68960742
_cell_length_c   7.94217846
_cell_angle_alpha   90.00000000
_cell_angle_beta   90.00000000
_cell_angle_gamma   90.00000000
_symmetry_Int_Tables_number   1
_chemical_formula_structural   LuScO3
_chemical_formula_sum   'Lu4 Sc4 O12'
_cell_volume   243.07292311
_cell_formula_units_Z   4
loop_
 _symmetry_equiv_pos_site_id
 _symmetry_equiv_pos_as_xyz
  1  'x, y, z'
loop_
 _atom_site_type_symbol
 _atom_site_label
 _atom_site_symmetry_multiplicity
 _atom_site_fract_x
 _atom_site_fract_y
 _atom_site_fract_z
 _atom_site_occupancy
  Lu  Lu0  1  0.018544  0.936423  0.250000  1
  Lu  Lu1  1  0.481456  0.436423  0.250000  1
  Lu  Lu2  1  0.518544  0.563577  0.750000  1
  Lu  Lu3  1  0.981456  0.063577  0.750000  1
  Sc  Sc4  1  0.000000  0.500000  0.000000  1
  Sc  Sc5  1  0.000000  0.500000  0.500000  1
  Sc  Sc6  1  0.500000  0.000000  0.000000  1
  Sc  Sc7  1  0.500000  0.000000  0.500000  1
  O  O8  1  0.138515  0.435353  0.750000  1
  O  O9  1  0.183697  0.186960  0.428221  1
  O  O10  1  0.183697  0.186960  0.071779  1
  O  O11  1  0.316303  0.686960  0.428221  1
  O  O12  1  0.316303  0.686960  0.071779  1
  O  O13  1  0.361485  0.935353  0.750000  1
  O  O14  1  0.638515  0.064647  0.250000  1
  O  O15  1  0.683697  0.313040  0.928221  1
  O  O16  1  0.683697  0.313040  0.571779  1
  O  O17  1  0.816303  0.813040  0.928221  1
  O  O18  1  0.816303  0.813040  0.571779  1
  O  O19  1  0.861485  0.564647  0.250000  1
