# generated using pymatgen
data_Li4V5O10
_symmetry_space_group_name_H-M   'P 1'
_cell_length_a   5.15323020
_cell_length_b   5.24448408
_cell_length_c   7.83990135
_cell_angle_alpha   71.13480694
_cell_angle_beta   71.88974888
_cell_angle_gamma   80.47308383
_symmetry_Int_Tables_number   1
_chemical_formula_structural   Li4V5O10
_chemical_formula_sum   'Li4 V5 O10'
_cell_volume   190.06853053
_cell_formula_units_Z   1
loop_
 _symmetry_equiv_pos_site_id
 _symmetry_equiv_pos_as_xyz
  1  'x, y, z'
loop_
 _atom_site_type_symbol
 _atom_site_label
 _atom_site_symmetry_multiplicity
 _atom_site_fract_x
 _atom_site_fract_y
 _atom_site_fract_z
 _atom_site_occupancy
  Li  Li0  1  0.499109  0.767458  0.425154  1
  Li  Li1  1  0.978987  0.494140  0.510087  1
  Li  Li2  1  0.491313  0.388630  0.222244  1
  Li  Li3  1  0.493805  0.220444  0.598227  1
  V  V4  1  0.020822  0.898769  0.689123  1
  V  V5  1  0.502584  0.002822  0.995064  1
  V  V6  1  0.993563  0.318200  0.888894  1
  V  V7  1  0.006071  0.691978  0.106882  1
  V  V8  1  0.992031  0.096116  0.315954  1
  O  O9  1  0.234464  0.966648  0.861880  1
  O  O10  1  0.776697  0.878112  0.520780  1
  O  O11  1  0.781784  0.673884  0.945572  1
  O  O12  1  0.250689  0.779122  0.234473  1
  O  O13  1  0.209448  0.550374  0.657375  1
  O  O14  1  0.781172  0.443563  0.335969  1
  O  O15  1  0.760528  0.211155  0.761254  1
  O  O16  1  0.215930  0.319947  0.069028  1
  O  O17  1  0.235637  0.136280  0.452816  1
  O  O18  1  0.762781  0.051594  0.139191  1
