# generated using pymatgen
data_Na3CrH14(C3O8)2
_symmetry_space_group_name_H-M   'P 1'
_cell_length_a   6.50876026
_cell_length_b   7.75789062
_cell_length_c   8.83398415
_cell_angle_alpha   78.63903809
_cell_angle_beta   82.42773424
_cell_angle_gamma   79.28539021
_symmetry_Int_Tables_number   1
_chemical_formula_structural   Na3CrH14(C3O8)2
_chemical_formula_sum   'Na3 Cr1 H14 C6 O16'
_cell_volume   427.59905523
_cell_formula_units_Z   1
loop_
 _symmetry_equiv_pos_site_id
 _symmetry_equiv_pos_as_xyz
  1  'x, y, z'
loop_
 _atom_site_type_symbol
 _atom_site_label
 _atom_site_symmetry_multiplicity
 _atom_site_fract_x
 _atom_site_fract_y
 _atom_site_fract_z
 _atom_site_occupancy
  Na  Na0  1  0.000000  0.500000  0.500000  1
  Na  Na1  1  0.290663  0.553398  0.125726  1
  Na  Na2  1  0.709337  0.446602  0.874274  1
  Cr  Cr3  1  0.000000  0.000000  0.000000  1
  H  H4  1  0.050443  0.257893  0.257651  1
  H  H5  1  0.949557  0.742107  0.742349  1
  H  H6  1  0.892369  0.438193  0.219304  1
  H  H7  1  0.107631  0.561807  0.780696  1
  H  H8  1  0.431313  0.347433  0.576585  1
  H  H9  1  0.568687  0.652567  0.423415  1
  H  H10  1  0.379116  0.274580  0.435585  1
  H  H11  1  0.620884  0.725420  0.564415  1
  H  H12  1  0.401641  0.153849  0.950036  1
  H  H13  1  0.598359  0.846151  0.049964  1
  H  H14  1  0.305948  0.969717  0.708173  1
  H  H15  1  0.694052  0.030283  0.291827  1
  H  H16  1  0.203002  0.951839  0.415726  1
  H  H17  1  0.796998  0.048161  0.584274  1
  C  C18  1  0.276607  0.268171  0.918821  1
  C  C19  1  0.723393  0.731829  0.081179  1
  C  C20  1  0.367349  0.856380  0.796707  1
  C  C21  1  0.632651  0.143620  0.203293  1
  C  C22  1  0.180369  0.892570  0.315749  1
  C  C23  1  0.819631  0.107430  0.684251  1
  O  O24  1  0.091741  0.235299  0.914876  1
  O  O25  1  0.908259  0.764701  0.085124  1
  O  O26  1  0.322071  0.423195  0.888513  1
  O  O27  1  0.677929  0.576805  0.111487  1
  O  O28  1  0.272969  0.848322  0.935860  1
  O  O29  1  0.727031  0.151678  0.064140  1
  O  O30  1  0.522851  0.745813  0.760475  1
  O  O31  1  0.477149  0.254187  0.239525  1
  O  O32  1  0.101850  0.010651  0.204528  1
  O  O33  1  0.898150  0.989349  0.795472  1
  O  O34  1  0.231748  0.728251  0.321402  1
  O  O35  1  0.768252  0.271749  0.678598  1
  O  O36  1  0.019944  0.383070  0.271921  1
  O  O37  1  0.980056  0.616930  0.728079  1
  O  O38  1  0.319887  0.303742  0.538772  1
  O  O39  1  0.680113  0.696258  0.461228  1
