# generated using pymatgen
data_LiTi4O8
_symmetry_space_group_name_H-M   'P 1'
_cell_length_a   5.06662592
_cell_length_b   2.97440986
_cell_length_c   9.63663855
_cell_angle_alpha   90.00000000
_cell_angle_beta   91.11676437
_cell_angle_gamma   90.00000000
_symmetry_Int_Tables_number   1
_chemical_formula_structural   LiTi4O8
_chemical_formula_sum   'Li1 Ti4 O8'
_cell_volume   145.19869775
_cell_formula_units_Z   1
loop_
 _symmetry_equiv_pos_site_id
 _symmetry_equiv_pos_as_xyz
  1  'x, y, z'
loop_
 _atom_site_type_symbol
 _atom_site_label
 _atom_site_symmetry_multiplicity
 _atom_site_fract_x
 _atom_site_fract_y
 _atom_site_fract_z
 _atom_site_occupancy
  Li  Li0  1  0.065461  0.500000  0.535111  1
  Ti  Ti1  1  0.961482  0.000000  0.138593  1
  Ti  Ti2  1  0.534929  0.000000  0.643513  1
  Ti  Ti3  1  0.473776  0.500000  0.355745  1
  Ti  Ti4  1  0.041535  0.500000  0.867083  1
  O  O5  1  0.830065  0.000000  0.771208  1
  O  O6  1  0.807865  0.500000  0.035311  1
  O  O7  1  0.697207  0.500000  0.532434  1
  O  O8  1  0.678393  0.000000  0.273575  1
  O  O9  1  0.308250  0.500000  0.717529  1
  O  O10  1  0.291016  0.000000  0.467673  1
  O  O11  1  0.198742  0.000000  0.964589  1
  O  O12  1  0.172279  0.500000  0.228137  1
