# generated using pymatgen
data_Li10Co(SiO5)2
_symmetry_space_group_name_H-M   'P 1'
_cell_length_a   15.34483337
_cell_length_b   15.34483337
_cell_length_c   5.18435330
_cell_angle_alpha   80.87489839
_cell_angle_beta   99.12510161
_cell_angle_gamma   156.78350452
_symmetry_Int_Tables_number   1
_chemical_formula_structural   Li10Co(SiO5)2
_chemical_formula_sum   'Li20 Co2 Si4 O20'
_cell_volume   474.87016033
_cell_formula_units_Z   2
loop_
 _symmetry_equiv_pos_site_id
 _symmetry_equiv_pos_as_xyz
  1  'x, y, z'
loop_
 _atom_site_type_symbol
 _atom_site_label
 _atom_site_symmetry_multiplicity
 _atom_site_fract_x
 _atom_site_fract_y
 _atom_site_fract_z
 _atom_site_occupancy
  Li  Li0  1  0.489044  0.510956  0.230212  1
  Li  Li1  1  0.226341  0.364507  0.604844  1
  Li  Li2  1  0.635493  0.773659  0.604844  1
  Li  Li3  1  0.866482  0.133518  0.718825  1
  Li  Li4  1  0.083299  0.348837  0.252017  1
  Li  Li5  1  0.651163  0.916701  0.252017  1
  Li  Li6  1  0.324054  0.675946  0.563916  1
  Li  Li7  1  0.049267  0.442433  0.890650  1
  Li  Li8  1  0.557567  0.950733  0.890650  1
  Li  Li9  1  0.268077  0.731923  0.170907  1
  Li  Li10  1  0.728360  0.271640  0.818844  1
  Li  Li11  1  0.437384  0.051532  0.097354  1
  Li  Li12  1  0.948468  0.562616  0.097354  1
  Li  Li13  1  0.672521  0.327479  0.423649  1
  Li  Li14  1  0.348744  0.090741  0.735347  1
  Li  Li15  1  0.909259  0.651256  0.735347  1
  Li  Li16  1  0.129983  0.870017  0.272326  1
  Li  Li17  1  0.777248  0.646698  0.388747  1
  Li  Li18  1  0.353302  0.222752  0.388747  1
  Li  Li19  1  0.507756  0.492244  0.760836  1
  Co  Co20  1  0.963477  0.036523  0.369390  1
  Co  Co21  1  0.036523  0.963477  0.630610  1
  Si  Si22  1  0.398294  0.601706  0.986406  1
  Si  Si23  1  0.779571  0.220429  0.365161  1
  Si  Si24  1  0.216770  0.783230  0.624572  1
  Si  Si25  1  0.598337  0.401663  0.004816  1
  O  O26  1  0.448136  0.551864  0.891074  1
  O  O27  1  0.905831  0.094169  0.443280  1
  O  O28  1  0.402898  0.597102  0.309961  1
  O  O29  1  0.154099  0.414565  0.869168  1
  O  O30  1  0.585435  0.845901  0.869168  1
  O  O31  1  0.030333  0.420565  0.275805  1
  O  O32  1  0.579435  0.969667  0.275805  1
  O  O33  1  0.785091  0.214909  0.686175  1
  O  O34  1  0.270242  0.729758  0.774164  1
  O  O35  1  0.726560  0.273440  0.215972  1
  O  O36  1  0.211440  0.788560  0.304255  1
  O  O37  1  0.969831  0.586297  0.714375  1
  O  O38  1  0.413703  0.030169  0.714375  1
  O  O39  1  0.414070  0.159717  0.119270  1
  O  O40  1  0.845901  0.585435  0.130832  1
  O  O41  1  0.593406  0.406594  0.680647  1
  O  O42  1  0.094169  0.905831  0.556720  1
  O  O43  1  0.548412  0.451588  0.100932  1
  O  O44  1  0.250806  0.254908  0.495589  1
  O  O45  1  0.745092  0.749194  0.495589  1
