# generated using pymatgen
data_AlH10SO9F
_symmetry_space_group_name_H-M   'P 1'
_cell_length_a   10.89669191
_cell_length_b   11.32891588
_cell_length_c   13.10879814
_cell_angle_alpha   90.00000000
_cell_angle_beta   90.00000000
_cell_angle_gamma   90.00000000
_symmetry_Int_Tables_number   1
_chemical_formula_structural   AlH10SO9F
_chemical_formula_sum   'Al8 H80 S8 O72 F8'
_cell_volume   1618.25105904
_cell_formula_units_Z   8
loop_
 _symmetry_equiv_pos_site_id
 _symmetry_equiv_pos_as_xyz
  1  'x, y, z'
loop_
 _atom_site_type_symbol
 _atom_site_label
 _atom_site_symmetry_multiplicity
 _atom_site_fract_x
 _atom_site_fract_y
 _atom_site_fract_z
 _atom_site_occupancy
  Al  Al0  1  0.500000  0.500000  0.000000  1
  Al  Al1  1  0.000000  0.000000  0.000000  1
  Al  Al2  1  0.000000  0.500000  0.500000  1
  Al  Al3  1  0.500000  0.000000  0.500000  1
  Al  Al4  1  0.000000  0.500000  0.000000  1
  Al  Al5  1  0.500000  0.000000  0.000000  1
  Al  Al6  1  0.500000  0.500000  0.500000  1
  Al  Al7  1  0.000000  0.000000  0.500000  1
  H  H8  1  0.651780  0.570923  0.859815  1
  H  H9  1  0.848220  0.070923  0.140185  1
  H  H10  1  0.151780  0.429077  0.640185  1
  H  H11  1  0.348220  0.929077  0.359815  1
  H  H12  1  0.348220  0.429077  0.140185  1
  H  H13  1  0.151780  0.929077  0.859815  1
  H  H14  1  0.848220  0.570923  0.359815  1
  H  H15  1  0.651780  0.070923  0.640185  1
  H  H16  1  0.600778  0.440684  0.828091  1
  H  H17  1  0.899222  0.940684  0.171909  1
  H  H18  1  0.100778  0.559316  0.671909  1
  H  H19  1  0.399222  0.059316  0.328091  1
  H  H20  1  0.399222  0.559316  0.171909  1
  H  H21  1  0.100778  0.059316  0.828091  1
  H  H22  1  0.899222  0.440684  0.328091  1
  H  H23  1  0.600778  0.940684  0.671909  1
  H  H24  1  0.040681  0.650443  0.856672  1
  H  H25  1  0.459319  0.150443  0.143328  1
  H  H26  1  0.540681  0.349557  0.643328  1
  H  H27  1  0.959319  0.849557  0.356672  1
  H  H28  1  0.959319  0.349557  0.143328  1
  H  H29  1  0.540681  0.849557  0.856672  1
  H  H30  1  0.459319  0.650443  0.356672  1
  H  H31  1  0.040681  0.150443  0.643328  1
  H  H32  1  0.895806  0.655073  0.885478  1
  H  H33  1  0.604194  0.155073  0.114522  1
  H  H34  1  0.395806  0.344927  0.614522  1
  H  H35  1  0.104194  0.844927  0.385478  1
  H  H36  1  0.104194  0.344927  0.114522  1
  H  H37  1  0.395806  0.844927  0.885478  1
  H  H38  1  0.604194  0.655073  0.385478  1
  H  H39  1  0.895806  0.155073  0.614522  1
  H  H40  1  0.963596  0.377419  0.834950  1
  H  H41  1  0.536404  0.877419  0.165050  1
  H  H42  1  0.463596  0.622581  0.665050  1
  H  H43  1  0.036404  0.122581  0.334950  1
  H  H44  1  0.036404  0.622581  0.165050  1
  H  H45  1  0.463596  0.122581  0.834950  1
  H  H46  1  0.536404  0.377419  0.334950  1
  H  H47  1  0.963596  0.877419  0.665050  1
  H  H48  1  0.110302  0.369094  0.866787  1
  H  H49  1  0.389698  0.869094  0.133213  1
  H  H50  1  0.610302  0.630906  0.633213  1
  H  H51  1  0.889698  0.130906  0.366787  1
  H  H52  1  0.889698  0.630906  0.133213  1
  H  H53  1  0.610302  0.130906  0.866787  1
  H  H54  1  0.389698  0.369094  0.366787  1
  H  H55  1  0.110302  0.869094  0.633213  1
  H  H56  1  0.280195  0.558590  0.963495  1
  H  H57  1  0.219805  0.058590  0.036505  1
  H  H58  1  0.780195  0.441410  0.536505  1
  H  H59  1  0.719805  0.941410  0.463495  1
  H  H60  1  0.719805  0.441410  0.036505  1
  H  H61  1  0.780195  0.941410  0.963495  1
  H  H62  1  0.219805  0.558590  0.463495  1
  H  H63  1  0.280195  0.058590  0.536505  1
  H  H64  1  0.365018  0.600182  0.864311  1
  H  H65  1  0.134982  0.100182  0.135689  1
  H  H66  1  0.865018  0.399818  0.635689  1
  H  H67  1  0.634982  0.899818  0.364311  1
  H  H68  1  0.634982  0.399818  0.135689  1
  H  H69  1  0.865018  0.899818  0.864311  1
  H  H70  1  0.134982  0.600182  0.364311  1
  H  H71  1  0.365018  0.100182  0.635689  1
  H  H72  1  0.365718  0.328945  0.922468  1
  H  H73  1  0.134282  0.828945  0.077532  1
  H  H74  1  0.865718  0.671055  0.577532  1
  H  H75  1  0.634282  0.171055  0.422468  1
  H  H76  1  0.634282  0.671055  0.077532  1
  H  H77  1  0.865718  0.171055  0.922468  1
  H  H78  1  0.134282  0.328945  0.422468  1
  H  H79  1  0.365718  0.828945  0.577532  1
  H  H80  1  0.470234  0.274433  0.999671  1
  H  H81  1  0.029766  0.774433  0.000329  1
  H  H82  1  0.970234  0.725567  0.500329  1
  H  H83  1  0.529766  0.225567  0.499671  1
  H  H84  1  0.529766  0.725567  0.000329  1
  H  H85  1  0.970234  0.225567  0.999671  1
  H  H86  1  0.029766  0.274433  0.499671  1
  H  H87  1  0.470234  0.774433  0.500329  1
  S  S88  1  0.246920  0.738753  0.747791  1
  S  S89  1  0.253080  0.238753  0.252209  1
  S  S90  1  0.746920  0.261247  0.752209  1
  S  S91  1  0.753080  0.761247  0.247791  1
  S  S92  1  0.753080  0.261247  0.252209  1
  S  S93  1  0.746920  0.761247  0.747791  1
  S  S94  1  0.253080  0.738753  0.247791  1
  S  S95  1  0.246920  0.238753  0.752209  1
  O  O96  1  0.131113  0.668533  0.756895  1
  O  O97  1  0.368887  0.168533  0.243105  1
  O  O98  1  0.631113  0.331467  0.743105  1
  O  O99  1  0.868887  0.831467  0.256895  1
  O  O100  1  0.868887  0.331467  0.243105  1
  O  O101  1  0.631113  0.831467  0.756895  1
  O  O102  1  0.368887  0.668533  0.256895  1
  O  O103  1  0.131113  0.168533  0.743105  1
  O  O104  1  0.244340  0.804757  0.649158  1
  O  O105  1  0.255660  0.304757  0.350842  1
  O  O106  1  0.744340  0.195243  0.850842  1
  O  O107  1  0.755660  0.695243  0.149158  1
  O  O108  1  0.755660  0.195243  0.350842  1
  O  O109  1  0.744340  0.695243  0.649158  1
  O  O110  1  0.255660  0.804757  0.149158  1
  O  O111  1  0.244340  0.304757  0.850842  1
  O  O112  1  0.355927  0.659183  0.750266  1
  O  O113  1  0.144073  0.159183  0.249734  1
  O  O114  1  0.855927  0.340817  0.749734  1
  O  O115  1  0.644073  0.840817  0.250266  1
  O  O116  1  0.644073  0.340817  0.249734  1
  O  O117  1  0.855927  0.840817  0.750266  1
  O  O118  1  0.144073  0.659183  0.250266  1
  O  O119  1  0.355927  0.159183  0.749734  1
  O  O120  1  0.255368  0.822411  0.835817  1
  O  O121  1  0.244632  0.322411  0.164183  1
  O  O122  1  0.755368  0.177589  0.664183  1
  O  O123  1  0.744632  0.677589  0.335817  1
  O  O124  1  0.744632  0.177589  0.164183  1
  O  O125  1  0.755368  0.677589  0.835817  1
  O  O126  1  0.244632  0.822411  0.335817  1
  O  O127  1  0.255368  0.322411  0.664183  1
  O  O128  1  0.586497  0.510591  0.873237  1
  O  O129  1  0.913503  0.010591  0.126763  1
  O  O130  1  0.086497  0.489409  0.626763  1
  O  O131  1  0.413503  0.989409  0.373237  1
  O  O132  1  0.413503  0.489409  0.126763  1
  O  O133  1  0.086497  0.989409  0.873237  1
  O  O134  1  0.913503  0.510591  0.373237  1
  O  O135  1  0.586497  0.010591  0.626763  1
  O  O136  1  0.980418  0.642507  0.914689  1
  O  O137  1  0.519582  0.142507  0.085311  1
  O  O138  1  0.480418  0.357493  0.585311  1
  O  O139  1  0.019582  0.857493  0.414689  1
  O  O140  1  0.019582  0.357493  0.085311  1
  O  O141  1  0.480418  0.857493  0.914689  1
  O  O142  1  0.519582  0.642507  0.414689  1
  O  O143  1  0.980418  0.142507  0.585311  1
  O  O144  1  0.029299  0.408310  0.880556  1
  O  O145  1  0.470701  0.908310  0.119444  1
  O  O146  1  0.529299  0.591690  0.619444  1
  O  O147  1  0.970701  0.091690  0.380556  1
  O  O148  1  0.970701  0.591690  0.119444  1
  O  O149  1  0.529299  0.091690  0.880556  1
  O  O150  1  0.470701  0.408310  0.380556  1
  O  O151  1  0.029299  0.908310  0.619444  1
  O  O152  1  0.365824  0.571737  0.936939  1
  O  O153  1  0.134176  0.071737  0.063061  1
  O  O154  1  0.865824  0.428263  0.563061  1
  O  O155  1  0.634176  0.928263  0.436939  1
  O  O156  1  0.634176  0.428263  0.063061  1
  O  O157  1  0.865824  0.928263  0.936939  1
  O  O158  1  0.134176  0.571737  0.436939  1
  O  O159  1  0.365824  0.071737  0.563061  1
  O  O160  1  0.440723  0.346183  0.964608  1
  O  O161  1  0.059277  0.846183  0.035392  1
  O  O162  1  0.940723  0.653817  0.535392  1
  O  O163  1  0.559277  0.153817  0.464608  1
  O  O164  1  0.559277  0.653817  0.035392  1
  O  O165  1  0.940723  0.153817  0.964608  1
  O  O166  1  0.059277  0.346183  0.464608  1
  O  O167  1  0.440723  0.846183  0.535392  1
  F  F168  1  0.159087  0.528230  0.009731  1
  F  F169  1  0.340913  0.028230  0.990269  1
  F  F170  1  0.659087  0.471770  0.490269  1
  F  F171  1  0.840913  0.971770  0.509731  1
  F  F172  1  0.840913  0.471770  0.990269  1
  F  F173  1  0.659087  0.971770  0.009731  1
  F  F174  1  0.340913  0.528230  0.509731  1
  F  F175  1  0.159087  0.028230  0.490269  1
