# generated using pymatgen
data_Li2NbCo3O8
_symmetry_space_group_name_H-M   'P 1'
_cell_length_a   8.23195598
_cell_length_b   8.23195598
_cell_length_c   8.23195598
_cell_angle_alpha   90.00000000
_cell_angle_beta   90.00000000
_cell_angle_gamma   90.00000000
_symmetry_Int_Tables_number   1
_chemical_formula_structural   Li2NbCo3O8
_chemical_formula_sum   'Li8 Nb4 Co12 O32'
_cell_volume   557.83931458
_cell_formula_units_Z   4
loop_
 _symmetry_equiv_pos_site_id
 _symmetry_equiv_pos_as_xyz
  1  'x, y, z'
loop_
 _atom_site_type_symbol
 _atom_site_label
 _atom_site_symmetry_multiplicity
 _atom_site_fract_x
 _atom_site_fract_y
 _atom_site_fract_z
 _atom_site_occupancy
  Li  Li0  1  0.992330  0.992330  0.992330  1
  Li  Li1  1  0.257670  0.257670  0.257670  1
  Li  Li2  1  0.242330  0.742330  0.757670  1
  Li  Li3  1  0.507670  0.007670  0.492330  1
  Li  Li4  1  0.492330  0.507670  0.007670  1
  Li  Li5  1  0.757670  0.242330  0.742330  1
  Li  Li6  1  0.742330  0.757670  0.242330  1
  Li  Li7  1  0.007670  0.492330  0.507670  1
  Nb  Nb8  1  0.125000  0.875000  0.375000  1
  Nb  Nb9  1  0.375000  0.125000  0.875000  1
  Nb  Nb10  1  0.625000  0.625000  0.625000  1
  Nb  Nb11  1  0.875000  0.375000  0.125000  1
  Co  Co12  1  0.122307  0.127693  0.625000  1
  Co  Co13  1  0.125000  0.377693  0.872307  1
  Co  Co14  1  0.127693  0.625000  0.122307  1
  Co  Co15  1  0.372307  0.375000  0.622307  1
  Co  Co16  1  0.375000  0.622307  0.372307  1
  Co  Co17  1  0.377693  0.872307  0.125000  1
  Co  Co18  1  0.622307  0.372307  0.375000  1
  Co  Co19  1  0.625000  0.122307  0.127693  1
  Co  Co20  1  0.627693  0.875000  0.877693  1
  Co  Co21  1  0.872307  0.125000  0.377693  1
  Co  Co22  1  0.875000  0.877693  0.627693  1
  Co  Co23  1  0.877693  0.627693  0.875000  1
  O  O24  1  0.112016  0.119875  0.387892  1
  O  O25  1  0.112108  0.887984  0.619875  1
  O  O26  1  0.108709  0.608709  0.891291  1
  O  O27  1  0.130125  0.137984  0.862108  1
  O  O28  1  0.119875  0.387892  0.112016  1
  O  O29  1  0.141291  0.358709  0.641291  1
  O  O30  1  0.137892  0.630125  0.362016  1
  O  O31  1  0.137984  0.862108  0.130125  1
  O  O32  1  0.362016  0.137892  0.630125  1
  O  O33  1  0.362108  0.369875  0.862016  1
  O  O34  1  0.358709  0.641291  0.141291  1
  O  O35  1  0.380125  0.612108  0.612016  1
  O  O36  1  0.369875  0.862016  0.362108  1
  O  O37  1  0.391291  0.391291  0.391291  1
  O  O38  1  0.387892  0.112016  0.119875  1
  O  O39  1  0.387984  0.880125  0.887892  1
  O  O40  1  0.612016  0.380125  0.612108  1
  O  O41  1  0.612108  0.612016  0.380125  1
  O  O42  1  0.608709  0.891291  0.108709  1
  O  O43  1  0.630125  0.362016  0.137892  1
  O  O44  1  0.619875  0.112108  0.887984  1
  O  O45  1  0.641291  0.141291  0.358709  1
  O  O46  1  0.637892  0.869875  0.637984  1
  O  O47  1  0.637984  0.637892  0.869875  1
  O  O48  1  0.862016  0.362108  0.369875  1
  O  O49  1  0.862108  0.130125  0.137984  1
  O  O50  1  0.858709  0.858709  0.858709  1
  O  O51  1  0.880125  0.887892  0.387984  1
  O  O52  1  0.869875  0.637984  0.637892  1
  O  O53  1  0.891291  0.108709  0.608709  1
  O  O54  1  0.887892  0.387984  0.880125  1
  O  O55  1  0.887984  0.619875  0.112108  1
