# generated using pymatgen
data_Sb6O5F8
_symmetry_space_group_name_H-M   'P 1'
_cell_length_a   4.24631771
_cell_length_b   6.25583709
_cell_length_c   14.20583306
_cell_angle_alpha   93.77927617
_cell_angle_beta   97.97563564
_cell_angle_gamma   90.80480597
_symmetry_Int_Tables_number   1
_chemical_formula_structural   Sb6O5F8
_chemical_formula_sum   'Sb6 O5 F8'
_cell_volume   372.80198666
_cell_formula_units_Z   1
loop_
 _symmetry_equiv_pos_site_id
 _symmetry_equiv_pos_as_xyz
  1  'x, y, z'
loop_
 _atom_site_type_symbol
 _atom_site_label
 _atom_site_symmetry_multiplicity
 _atom_site_fract_x
 _atom_site_fract_y
 _atom_site_fract_z
 _atom_site_occupancy
  Sb  Sb0  1  0.280145  0.132248  0.084573  1
  Sb  Sb1  1  0.093881  0.308438  0.742588  1
  Sb  Sb2  1  0.720317  0.198563  0.402770  1
  Sb  Sb3  1  0.388568  0.868749  0.565056  1
  Sb  Sb4  1  0.710430  0.794624  0.958929  1
  Sb  Sb5  1  0.034032  0.779966  0.253802  1
  O  O6  1  0.028004  0.963618  0.373097  1
  O  O7  1  0.770708  0.035851  0.062919  1
  O  O8  1  0.232705  0.874169  0.988686  1
  O  O9  1  0.338773  0.978457  0.205037  1
  O  O10  1  0.682278  0.089353  0.527970  1
  F  F11  1  0.626770  0.920298  0.694978  1
  F  F12  1  0.108414  0.597901  0.705027  1
  F  F13  1  0.621601  0.355322  0.761032  1
  F  F14  1  0.102495  0.368083  0.457780  1
  F  F15  1  0.752085  0.571441  0.051096  1
  F  F16  1  0.167793  0.402027  0.877610  1
  F  F17  1  0.657916  0.634856  0.531714  1
  F  F18  1  0.410620  0.626034  0.312220  1
