# generated using pymatgen
data_LiFe2(BO3)2
_symmetry_space_group_name_H-M   'P 1'
_cell_length_a   5.25187124
_cell_length_b   9.10990939
_cell_length_c   11.31420297
_cell_angle_alpha   113.11543027
_cell_angle_beta   103.15344016
_cell_angle_gamma   89.27219398
_symmetry_Int_Tables_number   1
_chemical_formula_structural   LiFe2(BO3)2
_chemical_formula_sum   'Li4 Fe8 B8 O24'
_cell_volume   483.01844734
_cell_formula_units_Z   4
loop_
 _symmetry_equiv_pos_site_id
 _symmetry_equiv_pos_as_xyz
  1  'x, y, z'
loop_
 _atom_site_type_symbol
 _atom_site_label
 _atom_site_symmetry_multiplicity
 _atom_site_fract_x
 _atom_site_fract_y
 _atom_site_fract_z
 _atom_site_occupancy
  Li  Li0  1  0.028196  0.032009  0.400123  1
  Li  Li1  1  0.531529  0.534740  0.414466  1
  Li  Li2  1  0.983811  0.007526  0.662838  1
  Li  Li3  1  0.746693  0.739601  0.141023  1
  Fe  Fe4  1  0.036285  0.349249  0.378036  1
  Fe  Fe5  1  0.272993  0.928938  0.876120  1
  Fe  Fe6  1  0.464921  0.165388  0.629250  1
  Fe  Fe7  1  0.235349  0.561344  0.132604  1
  Fe  Fe8  1  0.767115  0.433875  0.872152  1
  Fe  Fe9  1  0.530856  0.851984  0.385838  1
  Fe  Fe10  1  0.978090  0.649464  0.631321  1
  Fe  Fe11  1  0.733963  0.073183  0.130452  1
  B  B12  1  0.017436  0.681966  0.371448  1
  B  B13  1  0.274140  0.607891  0.887987  1
  B  B14  1  0.486831  0.821968  0.629129  1
  B  B15  1  0.235445  0.892079  0.128254  1
  B  B16  1  0.517884  0.184617  0.371913  1
  B  B17  1  0.765539  0.106127  0.879774  1
  B  B18  1  0.969824  0.310050  0.622475  1
  B  B19  1  0.734335  0.400243  0.131140  1
  O  O20  1  0.006148  0.067498  0.856201  1
  O  O21  1  0.141460  0.714464  0.842062  1
  O  O22  1  0.135998  0.516066  0.932028  1
  O  O23  1  0.076678  0.164096  0.602551  1
  O  O24  1  0.059309  0.416076  0.580580  1
  O  O25  1  0.256429  0.852648  0.677854  1
  O  O26  1  0.260064  0.653116  0.334380  1
  O  O27  1  0.535823  0.596328  0.898032  1
  O  O28  1  0.637213  0.224114  0.849703  1
  O  O29  1  0.411913  0.078810  0.412732  1
  O  O30  1  0.408193  0.320871  0.375298  1
  O  O31  1  0.638871  0.019157  0.932226  1
  O  O32  1  0.364062  0.982623  0.080565  1
  O  O33  1  0.598815  0.682414  0.609810  1
  O  O34  1  0.588319  0.937399  0.595208  1
  O  O35  1  0.376009  0.778732  0.163909  1
  O  O36  1  0.481200  0.416767  0.139066  1
  O  O37  1  0.756320  0.343452  0.682750  1
  O  O38  1  0.752879  0.147273  0.326572  1
  O  O39  1  0.912496  0.579374  0.413076  1
  O  O40  1  0.894869  0.813147  0.361718  1
  O  O41  1  0.858602  0.506491  0.094044  1
  O  O42  1  0.874121  0.285482  0.162532  1
  O  O43  1  0.981768  0.912657  0.139246  1
