# generated using pymatgen
data_Li4VP2(O4F)2
_symmetry_space_group_name_H-M   'P 1'
_cell_length_a   6.46183848
_cell_length_b   10.94536940
_cell_length_c   10.58411810
_cell_angle_alpha   90.00000000
_cell_angle_beta   90.18439119
_cell_angle_gamma   90.00000000
_symmetry_Int_Tables_number   1
_chemical_formula_structural   Li4VP2(O4F)2
_chemical_formula_sum   'Li16 V4 P8 O32 F8'
_cell_volume   748.58125760
_cell_formula_units_Z   4
loop_
 _symmetry_equiv_pos_site_id
 _symmetry_equiv_pos_as_xyz
  1  'x, y, z'
loop_
 _atom_site_type_symbol
 _atom_site_label
 _atom_site_symmetry_multiplicity
 _atom_site_fract_x
 _atom_site_fract_y
 _atom_site_fract_z
 _atom_site_occupancy
  Li  Li0  1  0.251192  0.475926  0.960693  1
  Li  Li1  1  0.251192  0.524074  0.460693  1
  Li  Li2  1  0.271175  0.153793  0.727076  1
  Li  Li3  1  0.271175  0.846207  0.227076  1
  Li  Li4  1  0.500388  0.245330  0.495163  1
  Li  Li5  1  0.498723  0.755290  0.510182  1
  Li  Li6  1  0.498723  0.244710  0.010182  1
  Li  Li7  1  0.500388  0.754670  0.995163  1
  Li  Li8  1  0.505657  0.418829  0.767131  1
  Li  Li9  1  0.505657  0.581171  0.267131  1
  Li  Li10  1  0.734562  0.661694  0.774460  1
  Li  Li11  1  0.734562  0.338306  0.274460  1
  Li  Li12  1  0.730320  0.978314  0.538373  1
  Li  Li13  1  0.730320  0.021686  0.038373  1
  Li  Li14  1  0.968982  0.917353  0.754790  1
  Li  Li15  1  0.968982  0.082647  0.254790  1
  V  V16  1  0.007436  0.253295  0.502662  1
  V  V17  1  0.007250  0.748657  0.502479  1
  V  V18  1  0.007250  0.251343  0.002479  1
  V  V19  1  0.007436  0.746705  0.002662  1
  P  P20  1  0.245369  0.007198  0.966982  1
  P  P21  1  0.245369  0.992802  0.466982  1
  P  P22  1  0.265569  0.667316  0.760497  1
  P  P23  1  0.265569  0.332684  0.260497  1
  P  P24  1  0.746206  0.171382  0.742451  1
  P  P25  1  0.746206  0.828618  0.242451  1
  P  P26  1  0.735748  0.508476  0.529491  1
  P  P27  1  0.735748  0.491524  0.029491  1
  O  O28  1  0.063305  0.917447  0.536565  1
  O  O29  1  0.063305  0.082553  0.036565  1
  O  O30  1  0.066851  0.730420  0.826459  1
  O  O31  1  0.066851  0.269580  0.326459  1
  O  O32  1  0.237961  0.699775  0.616005  1
  O  O33  1  0.237961  0.300225  0.116005  1
  O  O34  1  0.230085  0.126288  0.524649  1
  O  O35  1  0.230085  0.873712  0.024649  1
  O  O36  1  0.198628  0.006714  0.826152  1
  O  O37  1  0.198628  0.993286  0.326152  1
  O  O38  1  0.256238  0.530176  0.780805  1
  O  O39  1  0.256238  0.469824  0.280805  1
  O  O40  1  0.449682  0.936052  0.504558  1
  O  O41  1  0.449682  0.063948  0.004558  1
  O  O42  1  0.459858  0.728234  0.811173  1
  O  O43  1  0.459858  0.271766  0.311173  1
  O  O44  1  0.547979  0.234691  0.696762  1
  O  O45  1  0.547979  0.765309  0.196762  1
  O  O46  1  0.553746  0.432807  0.958785  1
  O  O47  1  0.553746  0.567193  0.458785  1
  O  O48  1  0.754060  0.035455  0.715773  1
  O  O49  1  0.754060  0.964545  0.215773  1
  O  O50  1  0.713955  0.510511  0.671966  1
  O  O51  1  0.713955  0.489489  0.171966  1
  O  O52  1  0.774808  0.624592  0.977689  1
  O  O53  1  0.774808  0.375408  0.477689  1
  O  O54  1  0.783464  0.201408  0.885296  1
  O  O55  1  0.783464  0.798592  0.385296  1
  O  O56  1  0.937845  0.232551  0.669914  1
  O  O57  1  0.937845  0.767449  0.169914  1
  O  O58  1  0.938868  0.417164  0.990282  1
  O  O59  1  0.938868  0.582836  0.490282  1
  F  F60  1  0.225519  0.365727  0.538662  1
  F  F61  1  0.225519  0.634273  0.038662  1
  F  F62  1  0.219519  0.264604  0.878416  1
  F  F63  1  0.219519  0.735396  0.378416  1
  F  F64  1  0.791167  0.771714  0.628146  1
  F  F65  1  0.791167  0.228286  0.128146  1
  F  F66  1  0.803023  0.866735  0.951168  1
  F  F67  1  0.803023  0.133265  0.451168  1
