# generated using pymatgen
data_Li2FeF4
_symmetry_space_group_name_H-M   'P 1'
_cell_length_a   2.88914782
_cell_length_b   9.46873412
_cell_length_c   10.26799660
_cell_angle_alpha   90.00000000
_cell_angle_beta   90.00000000
_cell_angle_gamma   90.00000000
_symmetry_Int_Tables_number   1
_chemical_formula_structural   Li2FeF4
_chemical_formula_sum   'Li8 Fe4 F16'
_cell_volume   280.89719396
_cell_formula_units_Z   4
loop_
 _symmetry_equiv_pos_site_id
 _symmetry_equiv_pos_as_xyz
  1  'x, y, z'
loop_
 _atom_site_type_symbol
 _atom_site_label
 _atom_site_symmetry_multiplicity
 _atom_site_fract_x
 _atom_site_fract_y
 _atom_site_fract_z
 _atom_site_occupancy
  Li  Li0  1  0.750000  0.580506  0.897332  1
  Li  Li1  1  0.750000  0.562123  0.378285  1
  Li  Li2  1  0.250000  0.937877  0.878285  1
  Li  Li3  1  0.250000  0.919494  0.397332  1
  Li  Li4  1  0.750000  0.080506  0.602668  1
  Li  Li5  1  0.750000  0.062123  0.121715  1
  Li  Li6  1  0.250000  0.437877  0.621715  1
  Li  Li7  1  0.250000  0.419494  0.102668  1
  Fe  Fe8  1  0.750000  0.760412  0.157149  1
  Fe  Fe9  1  0.250000  0.739588  0.657149  1
  Fe  Fe10  1  0.750000  0.260412  0.342851  1
  Fe  Fe11  1  0.250000  0.239588  0.842851  1
  F  F12  1  0.250000  0.561299  0.776485  1
  F  F13  1  0.750000  0.601305  0.563300  1
  F  F14  1  0.250000  0.625751  0.046281  1
  F  F15  1  0.250000  0.694873  0.306801  1
  F  F16  1  0.750000  0.805127  0.806801  1
  F  F17  1  0.750000  0.874249  0.546281  1
  F  F18  1  0.250000  0.898695  0.063300  1
  F  F19  1  0.750000  0.938701  0.276485  1
  F  F20  1  0.250000  0.061299  0.723515  1
  F  F21  1  0.750000  0.101305  0.936700  1
  F  F22  1  0.250000  0.125751  0.453719  1
  F  F23  1  0.250000  0.194873  0.193199  1
  F  F24  1  0.750000  0.305127  0.693199  1
  F  F25  1  0.750000  0.374249  0.953719  1
  F  F26  1  0.250000  0.398695  0.436700  1
  F  F27  1  0.750000  0.438701  0.223515  1
