# generated using pymatgen
data_LiVF5
_symmetry_space_group_name_H-M   'P 1'
_cell_length_a   5.26554553
_cell_length_b   8.94225201
_cell_length_c   9.49580201
_cell_angle_alpha   90.00000000
_cell_angle_beta   121.59407702
_cell_angle_gamma   90.00000000
_symmetry_Int_Tables_number   1
_chemical_formula_structural   LiVF5
_chemical_formula_sum   'Li4 V4 F20'
_cell_volume   380.84646259
_cell_formula_units_Z   4
loop_
 _symmetry_equiv_pos_site_id
 _symmetry_equiv_pos_as_xyz
  1  'x, y, z'
loop_
 _atom_site_type_symbol
 _atom_site_label
 _atom_site_symmetry_multiplicity
 _atom_site_fract_x
 _atom_site_fract_y
 _atom_site_fract_z
 _atom_site_occupancy
  Li  Li0  1  0.169561  0.592825  0.289185  1
  Li  Li1  1  0.830439  0.092825  0.210815  1
  Li  Li2  1  0.169561  0.907175  0.789185  1
  Li  Li3  1  0.830439  0.407175  0.710815  1
  V  V4  1  0.491798  0.129046  0.624237  1
  V  V5  1  0.508202  0.629046  0.875763  1
  V  V6  1  0.491798  0.370954  0.124237  1
  V  V7  1  0.508202  0.870954  0.375763  1
  F  F8  1  0.811859  0.713577  0.878234  1
  F  F9  1  0.452827  0.718437  0.491650  1
  F  F10  1  0.159687  0.800067  0.199334  1
  F  F11  1  0.232997  0.019114  0.407360  1
  F  F12  1  0.525499  0.476086  0.746189  1
  F  F13  1  0.474501  0.976086  0.753811  1
  F  F14  1  0.767003  0.519114  0.092640  1
  F  F15  1  0.188141  0.213577  0.621766  1
  F  F16  1  0.452827  0.781563  0.991650  1
  F  F17  1  0.840313  0.300067  0.300666  1
  F  F18  1  0.159687  0.699933  0.699334  1
  F  F19  1  0.547173  0.218437  0.008350  1
  F  F20  1  0.811859  0.786423  0.378234  1
  F  F21  1  0.232997  0.480886  0.907360  1
  F  F22  1  0.525499  0.023914  0.246189  1
  F  F23  1  0.474501  0.523914  0.253811  1
  F  F24  1  0.767003  0.980886  0.592640  1
  F  F25  1  0.840313  0.199933  0.800666  1
  F  F26  1  0.547173  0.281563  0.508350  1
  F  F27  1  0.188141  0.286423  0.121766  1
