# generated using pymatgen
data_LiTi2VO6
_symmetry_space_group_name_H-M   'P 1'
_cell_length_a   5.63305132
_cell_length_b   8.97046878
_cell_length_c   9.94534206
_cell_angle_alpha   90.00000000
_cell_angle_beta   103.71587460
_cell_angle_gamma   90.00000000
_symmetry_Int_Tables_number   1
_chemical_formula_structural   LiTi2VO6
_chemical_formula_sum   'Li4 Ti8 V4 O24'
_cell_volume   488.21822146
_cell_formula_units_Z   4
loop_
 _symmetry_equiv_pos_site_id
 _symmetry_equiv_pos_as_xyz
  1  'x, y, z'
loop_
 _atom_site_type_symbol
 _atom_site_label
 _atom_site_symmetry_multiplicity
 _atom_site_fract_x
 _atom_site_fract_y
 _atom_site_fract_z
 _atom_site_occupancy
  Li  Li0  1  0.963059  0.991192  0.240388  1
  Li  Li1  1  0.463059  0.508808  0.240388  1
  Li  Li2  1  0.536941  0.491192  0.759612  1
  Li  Li3  1  0.036941  0.008808  0.759612  1
  Ti  Ti4  1  0.828302  0.657629  0.054446  1
  Ti  Ti5  1  0.328302  0.842371  0.054446  1
  Ti  Ti6  1  0.735731  0.844496  0.451929  1
  Ti  Ti7  1  0.235731  0.655504  0.451929  1
  Ti  Ti8  1  0.764269  0.344496  0.548071  1
  Ti  Ti9  1  0.264269  0.155504  0.548071  1
  Ti  Ti10  1  0.671698  0.157629  0.945554  1
  Ti  Ti11  1  0.171698  0.342371  0.945554  1
  V  V12  1  0.952803  0.335286  0.248569  1
  V  V13  1  0.452803  0.164714  0.248569  1
  V  V14  1  0.547197  0.835286  0.751431  1
  V  V15  1  0.047197  0.664714  0.751431  1
  O  O16  1  0.659920  0.812825  0.112685  1
  O  O17  1  0.748511  0.490502  0.130513  1
  O  O18  1  0.740455  0.164941  0.137819  1
  O  O19  1  0.159920  0.687175  0.112685  1
  O  O20  1  0.248511  0.009498  0.130513  1
  O  O21  1  0.240455  0.335059  0.137819  1
  O  O22  1  0.004988  0.801855  0.384350  1
  O  O23  1  0.670484  0.333217  0.355755  1
  O  O24  1  0.643163  0.022063  0.380514  1
  O  O25  1  0.504988  0.698145  0.384350  1
  O  O26  1  0.170484  0.166783  0.355755  1
  O  O27  1  0.143163  0.477937  0.380514  1
  O  O28  1  0.856837  0.522063  0.619486  1
  O  O29  1  0.829516  0.833217  0.644245  1
  O  O30  1  0.495012  0.301855  0.615650  1
  O  O31  1  0.356837  0.977937  0.619486  1
  O  O32  1  0.329516  0.666783  0.644245  1
  O  O33  1  0.995012  0.198145  0.615650  1
  O  O34  1  0.759545  0.664941  0.862181  1
  O  O35  1  0.751489  0.990502  0.869487  1
  O  O36  1  0.840080  0.312825  0.887315  1
  O  O37  1  0.259545  0.835059  0.862181  1
  O  O38  1  0.251489  0.509498  0.869487  1
  O  O39  1  0.340080  0.187175  0.887315  1
