# generated using pymatgen
data_V3Zn7H3SO19
_symmetry_space_group_name_H-M   'P 1'
_cell_length_a   12.96714647
_cell_length_b   12.96714647
_cell_length_c   5.27397511
_cell_angle_alpha   90.00000000
_cell_angle_beta   90.00000000
_cell_angle_gamma   120.00000000
_symmetry_Int_Tables_number   1
_chemical_formula_structural   V3Zn7H3SO19
_chemical_formula_sum   'V6 Zn14 H6 S2 O38'
_cell_volume   767.99349254
_cell_formula_units_Z   2
loop_
 _symmetry_equiv_pos_site_id
 _symmetry_equiv_pos_as_xyz
  1  'x, y, z'
loop_
 _atom_site_type_symbol
 _atom_site_label
 _atom_site_symmetry_multiplicity
 _atom_site_fract_x
 _atom_site_fract_y
 _atom_site_fract_z
 _atom_site_occupancy
  V  V0  1  0.150913  0.849087  0.026459  1
  V  V1  1  0.150913  0.301826  0.026459  1
  V  V2  1  0.301826  0.150913  0.526459  1
  V  V3  1  0.698174  0.849087  0.026459  1
  V  V4  1  0.849087  0.698174  0.526459  1
  V  V5  1  0.849087  0.150913  0.526459  1
  Zn  Zn6  1  0.079182  0.654599  0.503297  1
  Zn  Zn7  1  0.079182  0.424583  0.503297  1
  Zn  Zn8  1  0.345401  0.920818  0.503297  1
  Zn  Zn9  1  0.000000  0.000000  0.321244  1
  Zn  Zn10  1  0.000000  0.000000  0.821244  1
  Zn  Zn11  1  0.575417  0.920818  0.503297  1
  Zn  Zn12  1  0.345401  0.424583  0.503297  1
  Zn  Zn13  1  0.575417  0.654599  0.503297  1
  Zn  Zn14  1  0.424583  0.345401  0.003297  1
  Zn  Zn15  1  0.654599  0.575417  0.003297  1
  Zn  Zn16  1  0.424583  0.079182  0.003297  1
  Zn  Zn17  1  0.654599  0.079182  0.003297  1
  Zn  Zn18  1  0.920818  0.575417  0.003297  1
  Zn  Zn19  1  0.920818  0.345401  0.003297  1
  H  H20  1  0.134221  0.567111  0.137326  1
  H  H21  1  0.432889  0.865779  0.137326  1
  H  H22  1  0.432889  0.567111  0.137326  1
  H  H23  1  0.567111  0.432889  0.637326  1
  H  H24  1  0.567111  0.134221  0.637326  1
  H  H25  1  0.865779  0.432889  0.637326  1
  S  S26  1  0.333333  0.666667  0.745841  1
  S  S27  1  0.666667  0.333333  0.245841  1
  O  O28  1  0.074106  0.925894  0.069998  1
  O  O29  1  0.067157  0.720294  0.845903  1
  O  O30  1  0.191535  0.808465  0.314671  1
  O  O31  1  0.058237  0.529118  0.229762  1
  O  O32  1  0.279706  0.932843  0.845903  1
  O  O33  1  0.067157  0.346862  0.845903  1
  O  O34  1  0.208240  0.604120  0.643547  1
  O  O35  1  0.074106  0.148212  0.069998  1
  O  O36  1  0.191535  0.383070  0.314671  1
  O  O37  1  0.470882  0.941763  0.229762  1
  O  O38  1  0.333333  0.666667  0.023495  1
  O  O39  1  0.395880  0.791760  0.643547  1
  O  O40  1  0.395880  0.604120  0.643547  1
  O  O41  1  0.279706  0.346862  0.845903  1
  O  O42  1  0.148212  0.074106  0.569998  1
  O  O43  1  0.653138  0.932843  0.845903  1
  O  O44  1  0.346862  0.279706  0.345903  1
  O  O45  1  0.470882  0.529118  0.229762  1
  O  O46  1  0.616930  0.808465  0.314671  1
  O  O47  1  0.383070  0.191535  0.814671  1
  O  O48  1  0.529118  0.470882  0.729762  1
  O  O49  1  0.653138  0.720294  0.845903  1
  O  O50  1  0.346862  0.067157  0.345903  1
  O  O51  1  0.851788  0.925894  0.069998  1
  O  O52  1  0.720294  0.653138  0.345903  1
  O  O53  1  0.604120  0.395880  0.143547  1
  O  O54  1  0.604120  0.208240  0.143547  1
  O  O55  1  0.666667  0.333333  0.523495  1
  O  O56  1  0.808465  0.616930  0.814671  1
  O  O57  1  0.529118  0.058237  0.729762  1
  O  O58  1  0.925894  0.851788  0.569998  1
  O  O59  1  0.791760  0.395880  0.143547  1
  O  O60  1  0.932843  0.653138  0.345903  1
  O  O61  1  0.720294  0.067157  0.345903  1
  O  O62  1  0.941763  0.470882  0.729762  1
  O  O63  1  0.808465  0.191535  0.814671  1
  O  O64  1  0.932843  0.279706  0.345903  1
  O  O65  1  0.925894  0.074106  0.569998  1
