# generated using pymatgen
data_Fe6O7F5
_symmetry_space_group_name_H-M   'P 1'
_cell_length_a   5.65010260
_cell_length_b   5.65500866
_cell_length_c   7.59812335
_cell_angle_alpha   69.71683605
_cell_angle_beta   69.82269435
_cell_angle_gamma   70.14977546
_symmetry_Int_Tables_number   1
_chemical_formula_structural   Fe6O7F5
_chemical_formula_sum   'Fe6 O7 F5'
_cell_volume   206.96159487
_cell_formula_units_Z   1
loop_
 _symmetry_equiv_pos_site_id
 _symmetry_equiv_pos_as_xyz
  1  'x, y, z'
loop_
 _atom_site_type_symbol
 _atom_site_label
 _atom_site_symmetry_multiplicity
 _atom_site_fract_x
 _atom_site_fract_y
 _atom_site_fract_z
 _atom_site_occupancy
  Fe  Fe0  1  0.321203  0.327067  0.149834  1
  Fe  Fe1  1  0.655710  0.667778  0.342041  1
  Fe  Fe2  1  0.370615  0.317613  0.682986  1
  Fe  Fe3  1  0.640302  0.660055  0.823716  1
  Fe  Fe4  1  0.002466  0.021386  0.495285  1
  Fe  Fe5  1  0.000365  0.012588  0.002625  1
  O  O6  1  0.362150  0.980414  0.327243  1
  O  O7  1  0.223245  0.226406  0.960127  1
  O  O8  1  0.572484  0.565453  0.622906  1
  O  O9  1  0.657524  0.014522  0.668084  1
  O  O10  1  0.974254  0.372850  0.323908  1
  O  O11  1  0.290129  0.689604  0.006681  1
  O  O12  1  0.682546  0.301872  0.004036  1
  F  F13  1  0.042230  0.630451  0.666062  1
  F  F14  1  0.108744  0.103846  0.699605  1
  F  F15  1  0.767027  0.774407  0.043517  1
  F  F16  1  0.431613  0.432718  0.380311  1
  F  F17  1  0.897394  0.900972  0.301033  1
