# generated using pymatgen
data_Li3Fe3(PO4)4
_symmetry_space_group_name_H-M   'P 1'
_cell_length_a   8.52776869
_cell_length_b   9.21324144
_cell_length_c   10.03660913
_cell_angle_alpha   108.15266097
_cell_angle_beta   105.36546572
_cell_angle_gamma   109.61331655
_symmetry_Int_Tables_number   1
_chemical_formula_structural   Li3Fe3(PO4)4
_chemical_formula_sum   'Li6 Fe6 P8 O32'
_cell_volume   642.87203469
_cell_formula_units_Z   2
loop_
 _symmetry_equiv_pos_site_id
 _symmetry_equiv_pos_as_xyz
  1  'x, y, z'
loop_
 _atom_site_type_symbol
 _atom_site_label
 _atom_site_symmetry_multiplicity
 _atom_site_fract_x
 _atom_site_fract_y
 _atom_site_fract_z
 _atom_site_occupancy
  Li  Li0  1  0.948153  0.527399  0.199314  1
  Li  Li1  1  0.638334  0.613023  0.150544  1
  Li  Li2  1  0.716267  0.663884  0.743508  1
  Li  Li3  1  0.283733  0.336116  0.256492  1
  Li  Li4  1  0.361666  0.386977  0.849456  1
  Li  Li5  1  0.051847  0.472601  0.800686  1
  Fe  Fe6  1  0.232847  0.948400  0.455112  1
  Fe  Fe7  1  0.138565  0.886722  0.822488  1
  Fe  Fe8  1  0.554167  0.962362  0.757223  1
  Fe  Fe9  1  0.445833  0.037638  0.242777  1
  Fe  Fe10  1  0.861435  0.113278  0.177512  1
  Fe  Fe11  1  0.767153  0.051600  0.544888  1
  P  P12  1  0.407504  0.727550  0.390705  1
  P  P13  1  0.988872  0.813403  0.083701  1
  P  P14  1  0.458335  0.776833  0.959152  1
  P  P15  1  0.916737  0.750243  0.510905  1
  P  P16  1  0.083263  0.249757  0.489095  1
  P  P17  1  0.541665  0.223167  0.040848  1
  P  P18  1  0.011128  0.186597  0.916299  1
  P  P19  1  0.592496  0.272450  0.609295  1
  O  O20  1  0.195555  0.926215  0.212099  1
  O  O21  1  0.565147  0.945277  0.119377  1
  O  O22  1  0.133920  0.859345  0.587580  1
  O  O23  1  0.520434  0.897291  0.374328  1
  O  O24  1  0.213573  0.715596  0.349654  1
  O  O25  1  0.879443  0.900868  0.148279  1
  O  O26  1  0.495122  0.779671  0.566846  1
  O  O27  1  0.258265  0.750705  0.885528  1
  O  O28  1  0.838706  0.880325  0.515029  1
  O  O29  1  0.566532  0.815416  0.859755  1
  O  O30  1  0.417934  0.571236  0.296848  1
  O  O31  1  0.918340  0.631734  0.062426  1
  O  O32  1  0.843638  0.619379  0.346774  1
  O  O33  1  0.106215  0.308437  0.362580  1
  O  O34  1  0.982775  0.827682  0.932350  1
  O  O35  1  0.540873  0.374514  0.013591  1
  O  O36  1  0.459127  0.625486  0.986409  1
  O  O37  1  0.017225  0.172318  0.067650  1
  O  O38  1  0.893785  0.691563  0.637420  1
  O  O39  1  0.156362  0.380621  0.653226  1
  O  O40  1  0.081660  0.368266  0.937574  1
  O  O41  1  0.582066  0.428764  0.703152  1
  O  O42  1  0.433468  0.184584  0.140245  1
  O  O43  1  0.161294  0.119675  0.484971  1
  O  O44  1  0.741735  0.249295  0.114472  1
  O  O45  1  0.504878  0.220329  0.433154  1
  O  O46  1  0.120557  0.099132  0.851721  1
  O  O47  1  0.786427  0.284404  0.650346  1
  O  O48  1  0.479566  0.102709  0.625672  1
  O  O49  1  0.866080  0.140655  0.412420  1
  O  O50  1  0.434853  0.054723  0.880623  1
  O  O51  1  0.804445  0.073785  0.787901  1
