# generated using pymatgen
data_Li5Fe8(BO3)8
_symmetry_space_group_name_H-M   'P 1'
_cell_length_a   5.27622340
_cell_length_b   9.08401301
_cell_length_c   11.37150743
_cell_angle_alpha   113.17468788
_cell_angle_beta   102.45657088
_cell_angle_gamma   90.05904629
_symmetry_Int_Tables_number   1
_chemical_formula_structural   Li5Fe8(BO3)8
_chemical_formula_sum   'Li5 Fe8 B8 O24'
_cell_volume   487.00860923
_cell_formula_units_Z   1
loop_
 _symmetry_equiv_pos_site_id
 _symmetry_equiv_pos_as_xyz
  1  'x, y, z'
loop_
 _atom_site_type_symbol
 _atom_site_label
 _atom_site_symmetry_multiplicity
 _atom_site_fract_x
 _atom_site_fract_y
 _atom_site_fract_z
 _atom_site_occupancy
  Li  Li0  1  0.171403  0.835879  0.658768  1
  Li  Li1  1  0.611466  0.948167  0.903209  1
  Li  Li2  1  0.922398  0.569110  0.160972  1
  Li  Li3  1  0.110740  0.447916  0.897336  1
  Li  Li4  1  0.423852  0.071446  0.165233  1
  Fe  Fe5  1  0.402858  0.720906  0.130648  1
  Fe  Fe6  1  0.091455  0.769240  0.879860  1
  Fe  Fe7  1  0.842259  0.859810  0.379876  1
  Fe  Fe8  1  0.652729  0.646097  0.627451  1
  Fe  Fe9  1  0.347964  0.360669  0.383357  1
  Fe  Fe10  1  0.154019  0.157910  0.633102  1
  Fe  Fe11  1  0.906596  0.221744  0.128371  1
  Fe  Fe12  1  0.606294  0.281557  0.878008  1
  B  B13  1  0.638728  0.982603  0.629220  1
  B  B14  1  0.900454  0.896696  0.129227  1
  B  B15  1  0.149985  0.484521  0.628946  1
  B  B16  1  0.401660  0.392230  0.126989  1
  B  B17  1  0.848508  0.518315  0.373197  1
  B  B18  1  0.607503  0.609622  0.883848  1
  B  B19  1  0.346151  0.021589  0.379256  1
  B  B20  1  0.099242  0.102474  0.872152  1
  O  O21  1  0.141771  0.882339  0.097712  1
  O  O22  1  0.472510  0.881290  0.345636  1
  O  O23  1  0.234304  0.970556  0.862120  1
  O  O24  1  0.522223  0.853825  0.635280  1
  O  O25  1  0.882192  0.972501  0.590136  1
  O  O26  1  0.812076  0.790733  0.178779  1
  O  O27  1  0.247493  0.510230  0.112895  1
  O  O28  1  0.051756  0.634379  0.666772  1
  O  O29  1  0.699355  0.724597  0.845650  1
  O  O30  1  0.624584  0.520541  0.417123  1
  O  O31  1  0.942554  0.653228  0.361638  1
  O  O32  1  0.368743  0.626979  0.920872  1
  O  O33  1  0.641758  0.379898  0.093516  1
  O  O34  1  0.365130  0.464146  0.574306  1
  O  O35  1  0.311467  0.281443  0.170018  1
  O  O36  1  0.977959  0.380282  0.336960  1
  O  O37  1  0.753063  0.487611  0.889512  1
  O  O38  1  0.194946  0.219379  0.834538  1
  O  O39  1  0.126162  0.027738  0.431933  1
  O  O40  1  0.430028  0.146941  0.356189  1
  O  O41  1  0.045023  0.359896  0.648671  1
  O  O42  1  0.743187  0.010345  0.110011  1
  O  O43  1  0.527869  0.128351  0.662894  1
  O  O44  1  0.868127  0.122846  0.913772  1
