# generated using pymatgen
data_Zr2N2O
_symmetry_space_group_name_H-M   'P 1'
_cell_length_a   8.86910655
_cell_length_b   8.87278650
_cell_length_c   8.87510788
_cell_angle_alpha   109.56244807
_cell_angle_beta   109.40574852
_cell_angle_gamma   109.33690501
_symmetry_Int_Tables_number   1
_chemical_formula_structural   Zr2N2O
_chemical_formula_sum   'Zr16 N16 O8'
_cell_volume   538.35757047
_cell_formula_units_Z   8
loop_
 _symmetry_equiv_pos_site_id
 _symmetry_equiv_pos_as_xyz
  1  'x, y, z'
loop_
 _atom_site_type_symbol
 _atom_site_label
 _atom_site_symmetry_multiplicity
 _atom_site_fract_x
 _atom_site_fract_y
 _atom_site_fract_z
 _atom_site_occupancy
  Zr  Zr0  1  0.963412  0.213620  0.249238  1
  Zr  Zr1  1  0.990732  0.996826  0.489286  1
  Zr  Zr2  1  0.780036  0.241875  0.531101  1
  Zr  Zr3  1  0.725372  0.760034  0.970299  1
  Zr  Zr4  1  0.241836  0.527984  0.780412  1
  Zr  Zr5  1  0.253387  0.033185  0.282309  1
  Zr  Zr6  1  0.011987  0.509487  0.017774  1
  Zr  Zr7  1  0.464331  0.714237  0.255932  1
  Zr  Zr8  1  0.543196  0.293241  0.755791  1
  Zr  Zr9  1  0.488161  0.995750  0.986859  1
  Zr  Zr10  1  0.510000  0.505854  0.499088  1
  Zr  Zr11  1  0.752997  0.470381  0.211557  1
  Zr  Zr12  1  0.742200  0.953639  0.713974  1
  Zr  Zr13  1  0.209173  0.744465  0.464015  1
  Zr  Zr14  1  0.295587  0.256784  0.037179  1
  Zr  Zr15  1  0.036655  0.787435  0.749258  1
  N  N16  1  0.045805  0.275053  0.534262  1
  N  N17  1  0.224136  0.451979  0.983751  1
  N  N18  1  0.533020  0.260445  0.490279  1
  N  N19  1  0.737970  0.014798  0.966553  1
  N  N20  1  0.487095  0.223212  0.949554  1
  N  N21  1  0.011447  0.463878  0.237923  1
  N  N22  1  0.727504  0.968513  0.453993  1
  N  N23  1  0.772728  0.724800  0.738372  1
  N  N24  1  0.237191  0.772913  0.229276  1
  N  N25  1  0.260815  0.992387  0.034308  1
  N  N26  1  0.770427  0.541954  0.007248  1
  N  N27  1  0.466931  0.737961  0.513823  1
  N  N28  1  0.272446  0.757862  0.730564  1
  N  N29  1  0.969162  0.955236  0.228825  1
  N  N30  1  0.542442  0.507180  0.273440  1
  N  N31  1  0.955494  0.731202  0.467571  1
  O  O32  1  0.453360  0.488755  0.730533  1
  O  O33  1  0.033130  0.044066  0.772071  1
  O  O34  1  0.727065  0.237152  0.273855  1
  O  O35  1  0.762843  0.229456  0.770999  1
  O  O36  1  0.514752  0.771538  0.045337  1
  O  O37  1  0.226515  0.275027  0.263519  1
  O  O38  1  0.985211  0.532264  0.760068  1
  O  O39  1  0.273447  0.037571  0.549806  1
