# generated using pymatgen
data_Li2V3SnO8
_symmetry_space_group_name_H-M   'P 1'
_cell_length_a   6.04731623
_cell_length_b   6.04731623
_cell_length_c   6.04731623
_cell_angle_alpha   59.96608250
_cell_angle_beta   59.96608250
_cell_angle_gamma   59.96608250
_symmetry_Int_Tables_number   1
_chemical_formula_structural   Li2V3SnO8
_chemical_formula_sum   'Li2 V3 Sn1 O8'
_cell_volume   156.25678039
_cell_formula_units_Z   1
loop_
 _symmetry_equiv_pos_site_id
 _symmetry_equiv_pos_as_xyz
  1  'x, y, z'
loop_
 _atom_site_type_symbol
 _atom_site_label
 _atom_site_symmetry_multiplicity
 _atom_site_fract_x
 _atom_site_fract_y
 _atom_site_fract_z
 _atom_site_occupancy
  Li  Li0  1  0.879658  0.879658  0.879658  1
  Li  Li1  1  0.500552  0.500552  0.500552  1
  V  V2  1  0.506901  0.976623  0.506901  1
  V  V3  1  0.506901  0.506901  0.976623  1
  V  V4  1  0.976623  0.506901  0.506901  1
  Sn  Sn5  1  0.120527  0.120527  0.120527  1
  O  O6  1  0.742694  0.742694  0.742694  1
  O  O7  1  0.286242  0.748493  0.748493  1
  O  O8  1  0.748493  0.748493  0.286242  1
  O  O9  1  0.748493  0.286242  0.748493  1
  O  O10  1  0.254958  0.715495  0.254958  1
  O  O11  1  0.254958  0.254958  0.715495  1
  O  O12  1  0.715495  0.254958  0.254958  1
  O  O13  1  0.257506  0.257506  0.257506  1
