# generated using pymatgen
data_Li2CrCoO4
_symmetry_space_group_name_H-M   'P 1'
_cell_length_a   5.79571645
_cell_length_b   5.79571645
_cell_length_c   5.79571645
_cell_angle_alpha   120.01852203
_cell_angle_beta   119.44319582
_cell_angle_gamma   90.46751787
_symmetry_Int_Tables_number   1
_chemical_formula_structural   Li2CrCoO4
_chemical_formula_sum   'Li4 Cr2 Co2 O8'
_cell_volume   138.21027828
_cell_formula_units_Z   2
loop_
 _symmetry_equiv_pos_site_id
 _symmetry_equiv_pos_as_xyz
  1  'x, y, z'
loop_
 _atom_site_type_symbol
 _atom_site_label
 _atom_site_symmetry_multiplicity
 _atom_site_fract_x
 _atom_site_fract_y
 _atom_site_fract_z
 _atom_site_occupancy
  Li  Li0  1  0.500000  0.500000  0.000000  1
  Li  Li1  1  0.000000  0.500000  0.500000  1
  Li  Li2  1  0.500000  0.500000  0.500000  1
  Li  Li3  1  0.500000  0.000000  1.000000  1
  Cr  Cr4  1  0.000000  0.000000  0.000000  1
  Cr  Cr5  1  0.500000  0.000000  0.500000  1
  Co  Co6  1  0.000000  0.500000  1.000000  1
  Co  Co7  1  0.000000  0.000000  0.500000  1
  O  O8  1  0.240429  0.753971  0.013542  1
  O  O9  1  0.231757  0.755238  0.476519  1
  O  O10  1  0.759571  0.773114  0.513542  1
  O  O11  1  0.778720  0.755238  0.023481  1
  O  O12  1  0.221280  0.244762  0.976519  1
  O  O13  1  0.240429  0.226886  0.486458  1
  O  O14  1  0.768243  0.244762  0.523481  1
  O  O15  1  0.759571  0.246029  0.986458  1
