# generated using pymatgen
data_LiP3(WO6)2
_symmetry_space_group_name_H-M   'P 1'
_cell_length_a   8.87626283
_cell_length_b   8.87626283
_cell_length_c   8.87626283
_cell_angle_alpha   59.79762967
_cell_angle_beta   59.79762967
_cell_angle_gamma   59.79762967
_symmetry_Int_Tables_number   1
_chemical_formula_structural   LiP3(WO6)2
_chemical_formula_sum   'Li2 P6 W4 O24'
_cell_volume   492.23863289
_cell_formula_units_Z   2
loop_
 _symmetry_equiv_pos_site_id
 _symmetry_equiv_pos_as_xyz
  1  'x, y, z'
loop_
 _atom_site_type_symbol
 _atom_site_label
 _atom_site_symmetry_multiplicity
 _atom_site_fract_x
 _atom_site_fract_y
 _atom_site_fract_z
 _atom_site_occupancy
  Li  Li0  1  0.000000  0.000000  0.000000  1
  Li  Li1  1  0.500000  0.500000  0.500000  1
  P  P2  1  0.250000  0.540939  0.959061  1
  P  P3  1  0.040939  0.750000  0.459061  1
  P  P4  1  0.459061  0.040939  0.750000  1
  P  P5  1  0.540939  0.959061  0.250000  1
  P  P6  1  0.959061  0.250000  0.540939  1
  P  P7  1  0.750000  0.459061  0.040939  1
  W  W8  1  0.858665  0.858665  0.858665  1
  W  W9  1  0.641335  0.641335  0.641335  1
  W  W10  1  0.358665  0.358665  0.358665  1
  W  W11  1  0.141335  0.141335  0.141335  1
  O  O12  1  0.088306  0.728377  0.941195  1
  O  O13  1  0.271623  0.058805  0.911694  1
  O  O14  1  0.994454  0.196431  0.383847  1
  O  O15  1  0.116153  0.303569  0.505546  1
  O  O16  1  0.411694  0.558805  0.771623  1
  O  O17  1  0.228377  0.588306  0.441195  1
  O  O18  1  0.058805  0.911694  0.271623  1
  O  O19  1  0.803569  0.616153  0.005546  1
  O  O20  1  0.494454  0.883847  0.696431  1
  O  O21  1  0.696431  0.494454  0.883847  1
  O  O22  1  0.616153  0.005546  0.803569  1
  O  O23  1  0.441195  0.228377  0.588306  1
  O  O24  1  0.558805  0.771623  0.411694  1
  O  O25  1  0.383847  0.994454  0.196431  1
  O  O26  1  0.303569  0.505546  0.116153  1
  O  O27  1  0.196431  0.383847  0.994454  1
  O  O28  1  0.505546  0.116153  0.303569  1
  O  O29  1  0.941195  0.088306  0.728377  1
  O  O30  1  0.771623  0.411694  0.558805  1
  O  O31  1  0.588306  0.441195  0.228377  1
  O  O32  1  0.005546  0.803569  0.616153  1
  O  O33  1  0.883847  0.696431  0.494454  1
  O  O34  1  0.728377  0.941195  0.088306  1
  O  O35  1  0.911694  0.271623  0.058805  1
