# generated using pymatgen
data_LiVCrP2(HO5)2
_symmetry_space_group_name_H-M   'P 1'
_cell_length_a   5.20093831
_cell_length_b   7.36253650
_cell_length_c   19.33157632
_cell_angle_alpha   94.06953228
_cell_angle_beta   89.36158795
_cell_angle_gamma   105.51563311
_symmetry_Int_Tables_number   1
_chemical_formula_structural   LiVCrP2(HO5)2
_chemical_formula_sum   'Li4 V4 Cr4 P8 H8 O40'
_cell_volume   711.44810571
_cell_formula_units_Z   4
loop_
 _symmetry_equiv_pos_site_id
 _symmetry_equiv_pos_as_xyz
  1  'x, y, z'
loop_
 _atom_site_type_symbol
 _atom_site_label
 _atom_site_symmetry_multiplicity
 _atom_site_fract_x
 _atom_site_fract_y
 _atom_site_fract_z
 _atom_site_occupancy
  Li  Li0  1  0.787525  0.011710  0.139476  1
  Li  Li1  1  0.713310  0.488295  0.359822  1
  Li  Li2  1  0.463072  0.239125  0.609742  1
  Li  Li3  1  0.212437  0.988889  0.859978  1
  V  V4  1  0.380400  0.381684  0.123969  1
  V  V5  1  0.120534  0.119003  0.374981  1
  V  V6  1  0.870904  0.869400  0.624924  1
  V  V7  1  0.620823  0.619120  0.874965  1
  Cr  Cr8  1  0.000354  0.999911  0.999818  1
  Cr  Cr9  1  0.750357  0.749889  0.249774  1
  Cr  Cr10  1  0.502276  0.502085  0.499358  1
  Cr  Cr11  1  0.252175  0.252145  0.749379  1
  P  P12  1  0.417942  0.745731  0.031072  1
  P  P13  1  0.330423  0.011067  0.218450  1
  P  P14  1  0.170121  0.489242  0.281040  1
  P  P15  1  0.083077  0.756006  0.468620  1
  P  P16  1  0.920612  0.240332  0.531158  1
  P  P17  1  0.832925  0.506235  0.718614  1
  P  P18  1  0.670647  0.990320  0.781176  1
  P  P19  1  0.582703  0.254912  0.968344  1
  H  H20  1  0.922187  0.276137  0.070929  1
  H  H21  1  0.843530  0.490192  0.172852  1
  H  H22  1  0.657189  0.009485  0.327087  1
  H  H23  1  0.579861  0.225446  0.428428  1
  H  H24  1  0.408448  0.761015  0.576561  1
  H  H25  1  0.330421  0.975680  0.678406  1
  H  H26  1  0.157982  0.511142  0.826515  1
  H  H27  1  0.078882  0.724000  0.928915  1
  O  O28  1  0.253094  0.886601  0.044003  1
  O  O29  1  0.709457  0.835438  0.053981  1
  O  O30  1  0.608466  0.331541  0.046695  1
  O  O31  1  0.299664  0.574387  0.076337  1
  O  O32  1  0.047119  0.200404  0.081055  1
  O  O33  1  0.035043  0.928682  0.198357  1
  O  O34  1  0.691341  0.546728  0.171950  1
  O  O35  1  0.493917  0.865759  0.205921  1
  O  O36  1  0.462440  0.171658  0.170848  1
  O  O37  1  0.139588  0.413642  0.202992  1
  O  O38  1  0.809696  0.953227  0.327760  1
  O  O39  1  0.006051  0.634116  0.294072  1
  O  O40  1  0.465104  0.571658  0.301546  1
  O  O41  1  0.360860  0.086879  0.296790  1
  O  O42  1  0.038142  0.328337  0.328919  1
  O  O43  1  0.202790  0.926580  0.423390  1
  O  O44  1  0.792048  0.665387  0.445285  1
  O  O45  1  0.454552  0.301130  0.418376  1
  O  O46  1  0.244809  0.612653  0.456883  1
  O  O47  1  0.886524  0.166357  0.452767  1
  O  O48  1  0.106547  0.834368  0.546559  1
  O  O49  1  0.755257  0.384024  0.544808  1
  O  O50  1  0.561001  0.704915  0.577160  1
  O  O51  1  0.216692  0.321190  0.550540  1
  O  O52  1  0.790142  0.078942  0.578852  1
  O  O53  1  0.952400  0.676842  0.673446  1
  O  O54  1  0.636904  0.916582  0.702745  1
  O  O55  1  0.541801  0.415647  0.695344  1
  O  O56  1  0.994918  0.363011  0.706897  1
  O  O57  1  0.205247  0.051338  0.668181  1
  O  O58  1  0.856270  0.584367  0.796599  1
  O  O59  1  0.540400  0.828979  0.828876  1
  O  O60  1  0.504999  0.133871  0.794808  1
  O  O61  1  0.310359  0.454878  0.827287  1
  O  O62  1  0.966823  0.071167  0.800545  1
  O  O63  1  0.954243  0.799857  0.918677  1
  O  O64  1  0.700729  0.425930  0.923364  1
  O  O65  1  0.392221  0.669283  0.953017  1
  O  O66  1  0.290759  0.164941  0.945940  1
  O  O67  1  0.747188  0.113626  0.956060  1
