# generated using pymatgen
data_Li2V3BiO8
_symmetry_space_group_name_H-M   'P 1'
_cell_length_a   8.71214996
_cell_length_b   8.79877836
_cell_length_c   8.80335973
_cell_angle_alpha   89.98981984
_cell_angle_beta   89.94922961
_cell_angle_gamma   89.77499890
_symmetry_Int_Tables_number   1
_chemical_formula_structural   Li2V3BiO8
_chemical_formula_sum   'Li8 V12 Bi4 O32'
_cell_volume   674.82729969
_cell_formula_units_Z   4
loop_
 _symmetry_equiv_pos_site_id
 _symmetry_equiv_pos_as_xyz
  1  'x, y, z'
loop_
 _atom_site_type_symbol
 _atom_site_label
 _atom_site_symmetry_multiplicity
 _atom_site_fract_x
 _atom_site_fract_y
 _atom_site_fract_z
 _atom_site_occupancy
  Li  Li0  1  0.002567  0.000341  0.998186  1
  Li  Li1  1  0.248578  0.750103  0.250215  1
  Li  Li2  1  0.747335  0.246953  0.254296  1
  Li  Li3  1  0.502595  0.000616  0.498639  1
  Li  Li4  1  0.996788  0.502961  0.507562  1
  Li  Li5  1  0.750742  0.747181  0.746887  1
  Li  Li6  1  0.253700  0.255005  0.754453  1
  Li  Li7  1  0.498141  0.496092  0.992739  1
  V  V8  1  0.626226  0.857508  0.103841  1
  V  V9  1  0.852668  0.602373  0.125949  1
  V  V10  1  0.106949  0.372510  0.145338  1
  V  V11  1  0.609383  0.625145  0.353152  1
  V  V12  1  0.356637  0.387455  0.375460  1
  V  V13  1  0.124494  0.147511  0.395781  1
  V  V14  1  0.371282  0.638895  0.606786  1
  V  V15  1  0.146219  0.896480  0.621386  1
  V  V16  1  0.898866  0.125655  0.645422  1
  V  V17  1  0.393592  0.873695  0.856675  1
  V  V18  1  0.641738  0.110891  0.873028  1
  V  V19  1  0.879996  0.361288  0.888266  1
  Bi  Bi20  1  0.374235  0.120918  0.121033  1
  Bi  Bi21  1  0.876408  0.881032  0.376969  1
  Bi  Bi22  1  0.629066  0.376190  0.621472  1
  Bi  Bi23  1  0.125478  0.629346  0.879982  1
  O  O24  1  0.404845  0.861207  0.096091  1
  O  O25  1  0.642698  0.083734  0.095816  1
  O  O26  1  0.885707  0.376521  0.122296  1
  O  O27  1  0.844777  0.834776  0.109524  1
  O  O28  1  0.085879  0.607451  0.136512  1
  O  O29  1  0.623970  0.626673  0.129806  1
  O  O30  1  0.326452  0.390419  0.144940  1
  O  O31  1  0.111366  0.149030  0.164061  1
  O  O32  1  0.609494  0.850876  0.333608  1
  O  O33  1  0.820250  0.606276  0.367571  1
  O  O34  1  0.125880  0.376200  0.370018  1
  O  O35  1  0.585982  0.392102  0.360238  1
  O  O36  1  0.367304  0.177667  0.391452  1
  O  O37  1  0.382856  0.612247  0.374841  1
  O  O38  1  0.140030  0.917361  0.395518  1
  O  O39  1  0.882239  0.133513  0.416815  1
  O  O40  1  0.593270  0.639834  0.587026  1
  O  O41  1  0.357267  0.417378  0.601353  1
  O  O42  1  0.127147  0.122043  0.622381  1
  O  O43  1  0.155042  0.663399  0.605830  1
  O  O44  1  0.927435  0.883277  0.637078  1
  O  O45  1  0.363505  0.872335  0.621908  1
  O  O46  1  0.661680  0.108545  0.659055  1
  O  O47  1  0.889778  0.364289  0.664038  1
  O  O48  1  0.387407  0.643595  0.832130  1
  O  O49  1  0.163803  0.889545  0.854761  1
  O  O50  1  0.874293  0.137897  0.873480  1
  O  O51  1  0.414426  0.108007  0.866243  1
  O  O52  1  0.645653  0.333153  0.888874  1
  O  O53  1  0.624141  0.879273  0.878929  1
  O  O54  1  0.856753  0.573981  0.888555  1
  O  O55  1  0.105128  0.361112  0.915732  1
