# generated using pymatgen
data_Sc2(PO4)3
_symmetry_space_group_name_H-M   'P 1'
_cell_length_a   9.08050666
_cell_length_b   9.12322208
_cell_length_c   15.48978617
_cell_angle_alpha   90.00000000
_cell_angle_beta   125.62911890
_cell_angle_gamma   90.00000000
_symmetry_Int_Tables_number   1
_chemical_formula_structural   Sc2(PO4)3
_chemical_formula_sum   'Sc8 P12 O48'
_cell_volume   1043.01370535
_cell_formula_units_Z   4
loop_
 _symmetry_equiv_pos_site_id
 _symmetry_equiv_pos_as_xyz
  1  'x, y, z'
loop_
 _atom_site_type_symbol
 _atom_site_label
 _atom_site_symmetry_multiplicity
 _atom_site_fract_x
 _atom_site_fract_y
 _atom_site_fract_z
 _atom_site_occupancy
  Sc  Sc0  1  0.132261  0.537544  0.880264  1
  Sc  Sc1  1  0.371626  0.963590  0.120962  1
  Sc  Sc2  1  0.628374  0.463590  0.379038  1
  Sc  Sc3  1  0.867739  0.037544  0.619736  1
  Sc  Sc4  1  0.132261  0.962456  0.380264  1
  Sc  Sc5  1  0.371626  0.536410  0.620962  1
  Sc  Sc6  1  0.628374  0.036410  0.879038  1
  Sc  Sc7  1  0.867739  0.462456  0.119736  1
  P  P8  1  0.535372  0.749707  0.501853  1
  P  P9  1  0.247687  0.608838  0.143543  1
  P  P10  1  0.963839  0.894042  0.857760  1
  P  P11  1  0.036161  0.394042  0.642240  1
  P  P12  1  0.752313  0.108838  0.356457  1
  P  P13  1  0.464628  0.249707  0.998147  1
  P  P14  1  0.535372  0.750293  0.001853  1
  P  P15  1  0.247687  0.891162  0.643543  1
  P  P16  1  0.963839  0.605958  0.357760  1
  P  P17  1  0.036161  0.105958  0.142240  1
  P  P18  1  0.752313  0.391162  0.856457  1
  P  P19  1  0.464628  0.250293  0.498147  1
  O  O20  1  0.637476  0.160022  0.574060  1
  O  O21  1  0.483600  0.334752  0.418841  1
  O  O22  1  0.205079  0.091095  0.142186  1
  O  O23  1  0.914850  0.416213  0.851515  1
  O  O24  1  0.563736  0.640010  0.437535  1
  O  O25  1  0.302785  0.771625  0.163811  1
  O  O26  1  0.699131  0.853301  0.561635  1
  O  O27  1  0.192454  0.570112  0.031508  1
  O  O28  1  0.133407  0.937125  0.967800  1
  O  O29  1  0.986646  0.733594  0.836886  1
  O  O30  1  0.944870  0.994157  0.772223  1
  O  O31  1  0.407062  0.511701  0.226136  1
  O  O32  1  0.592938  0.011701  0.273864  1
  O  O33  1  0.055130  0.494157  0.727777  1
  O  O34  1  0.013354  0.233594  0.663114  1
  O  O35  1  0.866593  0.437125  0.532200  1
  O  O36  1  0.807546  0.070112  0.468492  1
  O  O37  1  0.300869  0.353301  0.938365  1
  O  O38  1  0.697215  0.271625  0.336189  1
  O  O39  1  0.436264  0.140010  0.062465  1
  O  O40  1  0.085150  0.916213  0.648485  1
  O  O41  1  0.794921  0.591095  0.357814  1
  O  O42  1  0.516400  0.834752  0.081159  1
  O  O43  1  0.362524  0.660022  0.925940  1
  O  O44  1  0.637476  0.339978  0.074060  1
  O  O45  1  0.483600  0.165248  0.918841  1
  O  O46  1  0.205079  0.408905  0.642186  1
  O  O47  1  0.914850  0.083787  0.351515  1
  O  O48  1  0.563736  0.859990  0.937535  1
  O  O49  1  0.302785  0.728375  0.663811  1
  O  O50  1  0.699131  0.646699  0.061635  1
  O  O51  1  0.192454  0.929888  0.531508  1
  O  O52  1  0.133407  0.562875  0.467800  1
  O  O53  1  0.986646  0.766406  0.336886  1
  O  O54  1  0.944870  0.505843  0.272223  1
  O  O55  1  0.407062  0.988299  0.726136  1
  O  O56  1  0.592938  0.488299  0.773864  1
  O  O57  1  0.055130  0.005843  0.227777  1
  O  O58  1  0.013354  0.266406  0.163114  1
  O  O59  1  0.866593  0.062875  0.032200  1
  O  O60  1  0.807546  0.429888  0.968492  1
  O  O61  1  0.300869  0.146699  0.438365  1
  O  O62  1  0.697215  0.228375  0.836189  1
  O  O63  1  0.436264  0.359990  0.562465  1
  O  O64  1  0.085150  0.583787  0.148485  1
  O  O65  1  0.794921  0.908905  0.857814  1
  O  O66  1  0.516400  0.665248  0.581159  1
  O  O67  1  0.362524  0.839978  0.425940  1
