# generated using pymatgen
data_KLiH2WO5
_symmetry_space_group_name_H-M   'P 1'
_cell_length_a   7.86785751
_cell_length_b   10.83736173
_cell_length_c   13.02876873
_cell_angle_alpha   90.00000000
_cell_angle_beta   90.00000000
_cell_angle_gamma   90.00000000
_symmetry_Int_Tables_number   1
_chemical_formula_structural   KLiH2WO5
_chemical_formula_sum   'K8 Li8 H16 W8 O40'
_cell_volume   1110.92165045
_cell_formula_units_Z   8
loop_
 _symmetry_equiv_pos_site_id
 _symmetry_equiv_pos_as_xyz
  1  'x, y, z'
loop_
 _atom_site_type_symbol
 _atom_site_label
 _atom_site_symmetry_multiplicity
 _atom_site_fract_x
 _atom_site_fract_y
 _atom_site_fract_z
 _atom_site_occupancy
  K  K0  1  0.693026  0.802852  0.368669  1
  K  K1  1  0.806974  0.802852  0.868669  1
  K  K2  1  0.193026  0.697148  0.368669  1
  K  K3  1  0.306974  0.697148  0.868669  1
  K  K4  1  0.693026  0.302852  0.131331  1
  K  K5  1  0.806974  0.302852  0.631331  1
  K  K6  1  0.306974  0.197148  0.631331  1
  K  K7  1  0.193026  0.197148  0.131331  1
  Li  Li8  1  0.017695  0.930699  0.177168  1
  Li  Li9  1  0.482305  0.930699  0.677168  1
  Li  Li10  1  0.517695  0.569301  0.177168  1
  Li  Li11  1  0.982305  0.569301  0.677168  1
  Li  Li12  1  0.482305  0.430699  0.822832  1
  Li  Li13  1  0.017695  0.430699  0.322832  1
  Li  Li14  1  0.982305  0.069301  0.822832  1
  Li  Li15  1  0.517695  0.069301  0.322832  1
  H  H16  1  0.255419  0.975091  0.361519  1
  H  H17  1  0.244581  0.975091  0.861519  1
  H  H18  1  0.338193  0.946711  0.469398  1
  H  H19  1  0.161807  0.946711  0.969398  1
  H  H20  1  0.838193  0.553289  0.469398  1
  H  H21  1  0.661807  0.553289  0.969398  1
  H  H22  1  0.755419  0.524909  0.361519  1
  H  H23  1  0.744581  0.524909  0.861519  1
  H  H24  1  0.255419  0.475091  0.138481  1
  H  H25  1  0.244581  0.475091  0.638481  1
  H  H26  1  0.338193  0.446711  0.030602  1
  H  H27  1  0.161807  0.446711  0.530602  1
  H  H28  1  0.838193  0.053289  0.030602  1
  H  H29  1  0.661807  0.053289  0.530602  1
  H  H30  1  0.755419  0.024909  0.138481  1
  H  H31  1  0.744581  0.024909  0.638481  1
  W  W32  1  0.438599  0.869438  0.124488  1
  W  W33  1  0.061401  0.869438  0.624488  1
  W  W34  1  0.938599  0.630562  0.124488  1
  W  W35  1  0.561401  0.630562  0.624488  1
  W  W36  1  0.438599  0.369438  0.375512  1
  W  W37  1  0.061401  0.369438  0.875512  1
  W  W38  1  0.938599  0.130562  0.375512  1
  W  W39  1  0.561401  0.130562  0.875512  1
  O  O40  1  0.570299  0.981321  0.193685  1
  O  O41  1  0.929701  0.981321  0.693685  1
  O  O42  1  0.364419  0.949608  0.394819  1
  O  O43  1  0.135581  0.949608  0.894819  1
  O  O44  1  0.227584  0.933999  0.100555  1
  O  O45  1  0.272416  0.933999  0.600555  1
  O  O46  1  0.533087  0.829833  0.003638  1
  O  O47  1  0.966913  0.829833  0.503638  1
  O  O48  1  0.921214  0.768419  0.203718  1
  O  O49  1  0.578786  0.768419  0.703718  1
  O  O50  1  0.421214  0.731581  0.203718  1
  O  O51  1  0.078786  0.731581  0.703718  1
  O  O52  1  0.033087  0.670167  0.003638  1
  O  O53  1  0.466913  0.670167  0.503638  1
  O  O54  1  0.727584  0.566001  0.100555  1
  O  O55  1  0.772416  0.566001  0.600555  1
  O  O56  1  0.864419  0.550392  0.394819  1
  O  O57  1  0.635581  0.550392  0.894819  1
  O  O58  1  0.429701  0.518679  0.693685  1
  O  O59  1  0.070299  0.518679  0.193685  1
  O  O60  1  0.570299  0.481321  0.306315  1
  O  O61  1  0.929701  0.481321  0.806315  1
  O  O62  1  0.364419  0.449608  0.105181  1
  O  O63  1  0.135581  0.449608  0.605181  1
  O  O64  1  0.227584  0.433999  0.399445  1
  O  O65  1  0.272416  0.433999  0.899445  1
  O  O66  1  0.533087  0.329833  0.496362  1
  O  O67  1  0.966913  0.329833  0.996362  1
  O  O68  1  0.921214  0.268419  0.296282  1
  O  O69  1  0.578786  0.268419  0.796282  1
  O  O70  1  0.421214  0.231581  0.296282  1
  O  O71  1  0.078786  0.231581  0.796282  1
  O  O72  1  0.466913  0.170167  0.996362  1
  O  O73  1  0.033087  0.170167  0.496362  1
  O  O74  1  0.772416  0.066001  0.899445  1
  O  O75  1  0.727584  0.066001  0.399445  1
  O  O76  1  0.864419  0.050392  0.105181  1
  O  O77  1  0.635581  0.050392  0.605181  1
  O  O78  1  0.429701  0.018679  0.806315  1
  O  O79  1  0.070299  0.018679  0.306315  1
