# generated using pymatgen
data_Li2Cr(Si2O5)3
_symmetry_space_group_name_H-M   'P 1'
_cell_length_a   9.73023619
_cell_length_b   9.73023619
_cell_length_c   9.73023619
_cell_angle_alpha   132.81230498
_cell_angle_beta   118.58080378
_cell_angle_gamma   80.90937267
_symmetry_Int_Tables_number   1
_chemical_formula_structural   Li2Cr(Si2O5)3
_chemical_formula_sum   'Li4 Cr2 Si12 O30'
_cell_volume   573.13318759
_cell_formula_units_Z   2
loop_
 _symmetry_equiv_pos_site_id
 _symmetry_equiv_pos_as_xyz
  1  'x, y, z'
loop_
 _atom_site_type_symbol
 _atom_site_label
 _atom_site_symmetry_multiplicity
 _atom_site_fract_x
 _atom_site_fract_y
 _atom_site_fract_z
 _atom_site_occupancy
  Li  Li0  1  0.244148  0.244148  0.500000  1
  Li  Li1  1  0.244148  0.744148  1.000000  1
  Li  Li2  1  0.755852  0.755852  0.500000  1
  Li  Li3  1  0.755852  0.255852  1.000000  1
  Cr  Cr4  1  0.500000  0.000000  0.500000  1
  Cr  Cr5  1  0.000000  0.500000  0.500000  1
  Si  Si6  1  0.878545  0.651835  0.226711  1
  Si  Si7  1  0.074876  0.848165  0.226711  1
  Si  Si8  1  0.389911  0.545150  0.229750  1
  Si  Si9  1  0.389911  0.160162  0.844762  1
  Si  Si10  1  0.184600  0.954850  0.844762  1
  Si  Si11  1  0.184600  0.339838  0.229750  1
  Si  Si12  1  0.610089  0.839838  0.155238  1
  Si  Si13  1  0.610089  0.454850  0.770250  1
  Si  Si14  1  0.815400  0.045150  0.155238  1
  Si  Si15  1  0.815400  0.660162  0.770250  1
  Si  Si16  1  0.121455  0.348165  0.773289  1
  Si  Si17  1  0.925124  0.151835  0.773289  1
  O  O18  1  0.950557  0.250000  0.700557  1
  O  O19  1  0.738500  0.067711  0.670789  1
  O  O20  1  0.103078  0.432289  0.670789  1
  O  O21  1  0.768114  0.810754  0.292776  1
  O  O22  1  0.768114  0.475338  0.957360  1
  O  O23  1  0.473972  0.370511  0.103461  1
  O  O24  1  0.982022  0.689246  0.957360  1
  O  O25  1  0.982022  0.024662  0.292776  1
  O  O26  1  0.232950  0.129489  0.103461  1
  O  O27  1  0.157446  0.392701  0.408082  1
  O  O28  1  0.157446  0.749364  0.764745  1
  O  O29  1  0.515381  0.750636  0.408082  1
  O  O30  1  0.515381  0.107299  0.764745  1
  O  O31  1  0.325888  0.990836  0.816723  1
  O  O32  1  0.325888  0.509164  0.335052  1
  O  O33  1  0.674112  0.009164  0.183277  1
  O  O34  1  0.674112  0.490836  0.664948  1
  O  O35  1  0.842554  0.250636  0.235255  1
  O  O36  1  0.842554  0.607299  0.591918  1
  O  O37  1  0.484619  0.249364  0.591918  1
  O  O38  1  0.484619  0.892701  0.235255  1
  O  O39  1  0.526028  0.629489  0.896539  1
  O  O40  1  0.231886  0.524662  0.042640  1
  O  O41  1  0.231886  0.189246  0.707224  1
  O  O42  1  0.767050  0.870511  0.896539  1
  O  O43  1  0.017978  0.310754  0.042640  1
  O  O44  1  0.017978  0.975338  0.707224  1
  O  O45  1  0.261500  0.932289  0.329211  1
  O  O46  1  0.896922  0.567711  0.329211  1
  O  O47  1  0.049443  0.750000  0.299443  1
