# generated using pymatgen
data_LiCr2O4
_symmetry_space_group_name_H-M   'P 1'
_cell_length_a   5.87300423
_cell_length_b   5.87300423
_cell_length_c   9.51549469
_cell_angle_alpha   89.60906068
_cell_angle_beta   90.39093932
_cell_angle_gamma   59.97756927
_symmetry_Int_Tables_number   1
_chemical_formula_structural   LiCr2O4
_chemical_formula_sum   'Li4 Cr8 O16'
_cell_volume   284.14757625
_cell_formula_units_Z   4
loop_
 _symmetry_equiv_pos_site_id
 _symmetry_equiv_pos_as_xyz
  1  'x, y, z'
loop_
 _atom_site_type_symbol
 _atom_site_label
 _atom_site_symmetry_multiplicity
 _atom_site_fract_x
 _atom_site_fract_y
 _atom_site_fract_z
 _atom_site_occupancy
  Li  Li0  1  0.335986  0.332130  0.103848  1
  Li  Li1  1  0.998474  0.001610  0.003607  1
  Li  Li2  1  0.998390  0.001526  0.503607  1
  Li  Li3  1  0.667870  0.664014  0.603848  1
  Cr  Cr4  1  0.664716  0.166499  0.789783  1
  Cr  Cr5  1  0.328233  0.335546  0.516969  1
  Cr  Cr6  1  0.170928  0.657939  0.785103  1
  Cr  Cr7  1  0.169674  0.166380  0.789814  1
  Cr  Cr8  1  0.833620  0.830326  0.289814  1
  Cr  Cr9  1  0.664454  0.671767  0.016969  1
  Cr  Cr10  1  0.833501  0.335284  0.289783  1
  Cr  Cr11  1  0.342061  0.829072  0.285103  1
  O  O12  1  0.669421  0.164699  0.392904  1
  O  O13  1  0.486203  0.471596  0.661565  1
  O  O14  1  0.337040  0.327787  0.897360  1
  O  O15  1  0.997779  0.003264  0.688476  1
  O  O16  1  0.996736  0.002221  0.188476  1
  O  O17  1  0.154205  0.672063  0.395598  1
  O  O18  1  0.478152  0.042355  0.664334  1
  O  O19  1  0.041034  0.471299  0.661831  1
  O  O20  1  0.826816  0.845198  0.894889  1
  O  O21  1  0.154802  0.173184  0.394889  1
  O  O22  1  0.957645  0.521848  0.164334  1
  O  O23  1  0.528701  0.958966  0.161831  1
  O  O24  1  0.672213  0.662960  0.397360  1
  O  O25  1  0.835301  0.330579  0.892904  1
  O  O26  1  0.528404  0.513797  0.161565  1
  O  O27  1  0.327937  0.845795  0.895598  1
