# generated using pymatgen
data_Li2CrF4
_symmetry_space_group_name_H-M   'P 1'
_cell_length_a   8.85254703
_cell_length_b   4.08069541
_cell_length_c   8.94242344
_cell_angle_alpha   90.00000000
_cell_angle_beta   92.30070815
_cell_angle_gamma   90.00000000
_symmetry_Int_Tables_number   1
_chemical_formula_structural   Li2CrF4
_chemical_formula_sum   'Li8 Cr4 F16'
_cell_volume   322.78060155
_cell_formula_units_Z   4
loop_
 _symmetry_equiv_pos_site_id
 _symmetry_equiv_pos_as_xyz
  1  'x, y, z'
loop_
 _atom_site_type_symbol
 _atom_site_label
 _atom_site_symmetry_multiplicity
 _atom_site_fract_x
 _atom_site_fract_y
 _atom_site_fract_z
 _atom_site_occupancy
  Li  Li0  1  0.074596  0.000000  0.627986  1
  Li  Li1  1  0.105092  0.500000  0.421881  1
  Li  Li2  1  0.382945  0.000000  0.867492  1
  Li  Li3  1  0.359722  0.500000  0.115825  1
  Li  Li4  1  0.619434  0.500000  0.903292  1
  Li  Li5  1  0.615378  0.000000  0.124284  1
  Li  Li6  1  0.657414  0.500000  0.366910  1
  Li  Li7  1  0.881944  0.000000  0.382832  1
  Cr  Cr8  1  0.117498  0.500000  0.861626  1
  Cr  Cr9  1  0.371865  0.000000  0.379789  1
  Cr  Cr10  1  0.648878  0.000000  0.635198  1
  Cr  Cr11  1  0.884250  0.500000  0.120496  1
  F  F12  1  0.136522  0.500000  0.086812  1
  F  F13  1  0.111722  0.500000  0.636191  1
  F  F14  1  0.152410  0.000000  0.841024  1
  F  F15  1  0.110838  0.000000  0.413252  1
  F  F16  1  0.386058  0.500000  0.900043  1
  F  F17  1  0.357471  0.500000  0.360466  1
  F  F18  1  0.386571  0.000000  0.152507  1
  F  F19  1  0.416036  0.000000  0.605456  1
  F  F20  1  0.646656  0.000000  0.359434  1
  F  F21  1  0.599259  0.000000  0.895730  1
  F  F22  1  0.639584  0.500000  0.605655  1
  F  F23  1  0.613430  0.500000  0.138177  1
  F  F24  1  0.867692  0.000000  0.598834  1
  F  F25  1  0.857776  0.000000  0.142880  1
  F  F26  1  0.888490  0.500000  0.349061  1
  F  F27  1  0.851021  0.500000  0.900439  1
