# generated using pymatgen
data_TbInO3
_symmetry_space_group_name_H-M   'P 1'
_cell_length_a   5.56706663
_cell_length_b   5.89846629
_cell_length_c   8.20451296
_cell_angle_alpha   90.00000000
_cell_angle_beta   90.00000000
_cell_angle_gamma   90.00000000
_symmetry_Int_Tables_number   1
_chemical_formula_structural   TbInO3
_chemical_formula_sum   'Tb4 In4 O12'
_cell_volume   269.41286255
_cell_formula_units_Z   4
loop_
 _symmetry_equiv_pos_site_id
 _symmetry_equiv_pos_as_xyz
  1  'x, y, z'
loop_
 _atom_site_type_symbol
 _atom_site_label
 _atom_site_symmetry_multiplicity
 _atom_site_fract_x
 _atom_site_fract_y
 _atom_site_fract_z
 _atom_site_occupancy
  Tb  Tb0  1  0.521100  0.935153  0.750000  1
  Tb  Tb1  1  0.978900  0.435153  0.750000  1
  Tb  Tb2  1  0.021100  0.564847  0.250000  1
  Tb  Tb3  1  0.478900  0.064847  0.250000  1
  In  In4  1  0.500000  0.500000  0.000000  1
  In  In5  1  0.500000  0.500000  0.500000  1
  In  In6  1  0.000000  0.000000  0.000000  1
  In  In7  1  0.000000  0.000000  0.500000  1
  O  O8  1  0.644190  0.430294  0.250000  1
  O  O9  1  0.684607  0.188324  0.573600  1
  O  O10  1  0.684607  0.188324  0.926400  1
  O  O11  1  0.815393  0.688324  0.926400  1
  O  O12  1  0.815393  0.688324  0.573600  1
  O  O13  1  0.855810  0.930294  0.250000  1
  O  O14  1  0.144190  0.069706  0.750000  1
  O  O15  1  0.184607  0.311676  0.073600  1
  O  O16  1  0.184607  0.311676  0.426400  1
  O  O17  1  0.315393  0.811676  0.073600  1
  O  O18  1  0.315393  0.811676  0.426400  1
  O  O19  1  0.355810  0.569706  0.750000  1
