# generated using pymatgen
data_WOF4
_symmetry_space_group_name_H-M   'P 1'
_cell_length_a   5.51212777
_cell_length_b   9.34681587
_cell_length_c   16.90270958
_cell_angle_alpha   90.00000000
_cell_angle_beta   90.00000000
_cell_angle_gamma   90.00000000
_symmetry_Int_Tables_number   1
_chemical_formula_structural   WOF4
_chemical_formula_sum   'W8 O8 F32'
_cell_volume   870.84185192
_cell_formula_units_Z   8
loop_
 _symmetry_equiv_pos_site_id
 _symmetry_equiv_pos_as_xyz
  1  'x, y, z'
loop_
 _atom_site_type_symbol
 _atom_site_label
 _atom_site_symmetry_multiplicity
 _atom_site_fract_x
 _atom_site_fract_y
 _atom_site_fract_z
 _atom_site_occupancy
  W  W0  1  0.151482  0.100461  0.126619  1
  W  W1  1  0.468447  0.501111  0.150346  1
  W  W2  1  0.468447  0.001111  0.349654  1
  W  W3  1  0.151482  0.600461  0.373381  1
  W  W4  1  0.848518  0.100461  0.626619  1
  W  W5  1  0.531553  0.501111  0.650346  1
  W  W6  1  0.531553  0.001111  0.849654  1
  W  W7  1  0.848518  0.600461  0.873381  1
  O  O8  1  0.029507  0.177672  0.043619  1
  O  O9  1  0.574342  0.672537  0.138882  1
  O  O10  1  0.574342  0.172537  0.361118  1
  O  O11  1  0.029507  0.677672  0.456381  1
  O  O12  1  0.970493  0.177672  0.543619  1
  O  O13  1  0.425658  0.672537  0.638882  1
  O  O14  1  0.425658  0.172537  0.861118  1
  O  O15  1  0.970493  0.677672  0.956381  1
  F  F16  1  0.564425  0.414529  0.055240  1
  F  F17  1  0.467833  0.057709  0.090730  1
  F  F18  1  0.148849  0.522517  0.111650  1
  F  F19  1  0.055623  0.909462  0.115324  1
  F  F20  1  0.308847  0.273530  0.172376  1
  F  F21  1  0.728166  0.413603  0.203707  1
  F  F22  1  0.905184  0.136834  0.200980  1
  F  F23  1  0.323107  0.016487  0.242943  1
  F  F24  1  0.323107  0.516487  0.257057  1
  F  F25  1  0.905184  0.636834  0.299020  1
  F  F26  1  0.728166  0.913603  0.296293  1
  F  F27  1  0.308847  0.773530  0.327624  1
  F  F28  1  0.055623  0.409462  0.384676  1
  F  F29  1  0.148849  0.022517  0.388350  1
  F  F30  1  0.467833  0.557709  0.409270  1
  F  F31  1  0.564425  0.914529  0.444760  1
  F  F32  1  0.435575  0.414529  0.555240  1
  F  F33  1  0.532167  0.057709  0.590730  1
  F  F34  1  0.851151  0.522517  0.611650  1
  F  F35  1  0.944377  0.909462  0.615324  1
  F  F36  1  0.691153  0.273530  0.672376  1
  F  F37  1  0.271834  0.413603  0.703707  1
  F  F38  1  0.094816  0.136834  0.700980  1
  F  F39  1  0.676893  0.016487  0.742943  1
  F  F40  1  0.676893  0.516487  0.757057  1
  F  F41  1  0.094816  0.636834  0.799020  1
  F  F42  1  0.271834  0.913603  0.796293  1
  F  F43  1  0.691153  0.773530  0.827624  1
  F  F44  1  0.944377  0.409462  0.884676  1
  F  F45  1  0.851151  0.022517  0.888350  1
  F  F46  1  0.532167  0.557709  0.909270  1
  F  F47  1  0.435575  0.914529  0.944760  1
