# generated using pymatgen
data_ZrCrO3
_symmetry_space_group_name_H-M   'P 1'
_cell_length_a   4.95974953
_cell_length_b   5.38888285
_cell_length_c   9.36165863
_cell_angle_alpha   90.00000000
_cell_angle_beta   90.00000000
_cell_angle_gamma   90.00000000
_symmetry_Int_Tables_number   1
_chemical_formula_structural   ZrCrO3
_chemical_formula_sum   'Zr4 Cr4 O12'
_cell_volume   250.21381700
_cell_formula_units_Z   4
loop_
 _symmetry_equiv_pos_site_id
 _symmetry_equiv_pos_as_xyz
  1  'x, y, z'
loop_
 _atom_site_type_symbol
 _atom_site_label
 _atom_site_symmetry_multiplicity
 _atom_site_fract_x
 _atom_site_fract_y
 _atom_site_fract_z
 _atom_site_occupancy
  Zr  Zr0  1  0.046332  0.952796  0.750000  1
  Zr  Zr1  1  0.453668  0.452796  0.750000  1
  Zr  Zr2  1  0.546332  0.547204  0.250000  1
  Zr  Zr3  1  0.953668  0.047204  0.250000  1
  Cr  Cr4  1  0.000000  0.500000  0.000000  1
  Cr  Cr5  1  0.000000  0.500000  0.500000  1
  Cr  Cr6  1  0.500000  0.000000  0.000000  1
  Cr  Cr7  1  0.500000  0.000000  0.500000  1
  O  O8  1  0.184625  0.376310  0.250000  1
  O  O9  1  0.210364  0.217722  0.601109  1
  O  O10  1  0.210364  0.217722  0.898891  1
  O  O11  1  0.289636  0.717722  0.601109  1
  O  O12  1  0.289636  0.717722  0.898891  1
  O  O13  1  0.315375  0.876310  0.250000  1
  O  O14  1  0.684625  0.123690  0.750000  1
  O  O15  1  0.710364  0.282278  0.101109  1
  O  O16  1  0.710364  0.282278  0.398891  1
  O  O17  1  0.789636  0.782278  0.101109  1
  O  O18  1  0.789636  0.782278  0.398891  1
  O  O19  1  0.815375  0.623690  0.750000  1
