# generated using pymatgen
data_Na2PHO4
_symmetry_space_group_name_H-M   'P 1'
_cell_length_a   5.50679852
_cell_length_b   6.92729579
_cell_length_c   11.08073867
_cell_angle_alpha   90.00000000
_cell_angle_beta   116.32374487
_cell_angle_gamma   90.00000000
_symmetry_Int_Tables_number   1
_chemical_formula_structural   Na2PHO4
_chemical_formula_sum   'Na8 P4 H4 O16'
_cell_volume   378.86662775
_cell_formula_units_Z   4
loop_
 _symmetry_equiv_pos_site_id
 _symmetry_equiv_pos_as_xyz
  1  'x, y, z'
loop_
 _atom_site_type_symbol
 _atom_site_label
 _atom_site_symmetry_multiplicity
 _atom_site_fract_x
 _atom_site_fract_y
 _atom_site_fract_z
 _atom_site_occupancy
  Na  Na0  1  0.000000  0.500000  0.500000  1
  Na  Na1  1  0.000000  0.000000  0.000000  1
  Na  Na2  1  0.000000  0.000000  0.500000  1
  Na  Na3  1  0.000000  0.500000  0.000000  1
  Na  Na4  1  0.391902  0.735673  0.888365  1
  Na  Na5  1  0.608098  0.235673  0.611635  1
  Na  Na6  1  0.608098  0.264327  0.111635  1
  Na  Na7  1  0.391902  0.764327  0.388365  1
  P  P8  1  0.665422  0.753936  0.691491  1
  P  P9  1  0.334578  0.253936  0.808509  1
  P  P10  1  0.334578  0.246064  0.308509  1
  P  P11  1  0.665422  0.746064  0.191491  1
  H  H12  1  0.037056  0.009208  0.758692  1
  H  H13  1  0.962944  0.509208  0.741308  1
  H  H14  1  0.962944  0.990792  0.241308  1
  H  H15  1  0.037056  0.490792  0.258692  1
  O  O16  1  0.359772  0.745908  0.605034  1
  O  O17  1  0.640228  0.245908  0.894966  1
  O  O18  1  0.640228  0.254092  0.394966  1
  O  O19  1  0.359772  0.754092  0.105034  1
  O  O20  1  0.763063  0.753931  0.844479  1
  O  O21  1  0.236937  0.253931  0.655521  1
  O  O22  1  0.236937  0.246069  0.155521  1
  O  O23  1  0.763063  0.746069  0.344479  1
  O  O24  1  0.790587  0.924105  0.645404  1
  O  O25  1  0.209413  0.424105  0.854596  1
  O  O26  1  0.209413  0.075895  0.354596  1
  O  O27  1  0.790587  0.575895  0.145404  1
  O  O28  1  0.789288  0.942413  0.158441  1
  O  O29  1  0.210712  0.442413  0.341559  1
  O  O30  1  0.210712  0.057587  0.841559  1
  O  O31  1  0.789288  0.557587  0.658441  1
