# generated using pymatgen
data_LiVO3
_symmetry_space_group_name_H-M   'P 1'
_cell_length_a   6.59542510
_cell_length_b   6.59542510
_cell_length_c   6.06816340
_cell_angle_alpha   76.31625715
_cell_angle_beta   103.68374285
_cell_angle_gamma   154.68996586
_symmetry_Int_Tables_number   1
_chemical_formula_structural   LiVO3
_chemical_formula_sum   'Li2 V2 O6'
_cell_volume   109.48137894
_cell_formula_units_Z   2
loop_
 _symmetry_equiv_pos_site_id
 _symmetry_equiv_pos_as_xyz
  1  'x, y, z'
loop_
 _atom_site_type_symbol
 _atom_site_label
 _atom_site_symmetry_multiplicity
 _atom_site_fract_x
 _atom_site_fract_y
 _atom_site_fract_z
 _atom_site_occupancy
  Li  Li0  1  0.000000  1.000000  0.500000  1
  Li  Li1  1  0.000000  0.000000  0.000000  1
  V  V2  1  0.336339  0.663661  0.190912  1
  V  V3  1  0.663661  0.336339  0.809088  1
  O  O4  1  0.827590  0.172410  0.375920  1
  O  O5  1  0.175686  0.824314  0.043607  1
  O  O6  1  0.172410  0.827590  0.624080  1
  O  O7  1  0.525383  0.474617  0.763761  1
  O  O8  1  0.474617  0.525383  0.236239  1
  O  O9  1  0.824314  0.175686  0.956393  1
