# generated using pymatgen
data_Fe2Te4H3ClO12
_symmetry_space_group_name_H-M   'P 1'
_cell_length_a   5.21155325
_cell_length_b   6.74054440
_cell_length_c   9.06180057
_cell_angle_alpha   73.05545637
_cell_angle_beta   79.12906909
_cell_angle_gamma   76.87617307
_symmetry_Int_Tables_number   1
_chemical_formula_structural   Fe2Te4H3ClO12
_chemical_formula_sum   'Fe2 Te4 H3 Cl1 O12'
_cell_volume   293.98475723
_cell_formula_units_Z   1
loop_
 _symmetry_equiv_pos_site_id
 _symmetry_equiv_pos_as_xyz
  1  'x, y, z'
loop_
 _atom_site_type_symbol
 _atom_site_label
 _atom_site_symmetry_multiplicity
 _atom_site_fract_x
 _atom_site_fract_y
 _atom_site_fract_z
 _atom_site_occupancy
  Fe  Fe0  1  0.723508  0.142171  0.445384  1
  Fe  Fe1  1  0.276492  0.857829  0.554616  1
  Te  Te2  1  0.876729  0.660813  0.313051  1
  Te  Te3  1  0.123271  0.339187  0.686949  1
  Te  Te4  1  0.669252  0.830881  0.832637  1
  Te  Te5  1  0.330748  0.169119  0.167363  1
  H  H6  1  0.554521  0.533745  0.211013  1
  H  H7  1  0.445479  0.466255  0.788987  1
  H  H8  1  0.000000  0.500000  0.000000  1
  Cl  Cl9  1  0.000000  0.000000  0.000000  1
  O  O10  1  0.811802  0.404321  0.463092  1
  O  O11  1  0.188198  0.595679  0.536908  1
  O  O12  1  0.634697  0.864444  0.415790  1
  O  O13  1  0.365303  0.135556  0.584210  1
  O  O14  1  0.590324  0.681665  0.193320  1
  O  O15  1  0.409676  0.318335  0.806680  1
  O  O16  1  0.460818  0.712243  0.738671  1
  O  O17  1  0.539182  0.287757  0.261329  1
  O  O18  1  0.890596  0.959271  0.645981  1
  O  O19  1  0.109404  0.040729  0.354019  1
  O  O20  1  0.903185  0.566294  0.879296  1
  O  O21  1  0.096815  0.433706  0.120704  1
