# generated using pymatgen
data_As5Pb3S10
_symmetry_space_group_name_H-M   'P 1'
_cell_length_a   8.60776204
_cell_length_b   8.75036912
_cell_length_c   25.59073796
_cell_angle_alpha   90.00000000
_cell_angle_beta   91.14385542
_cell_angle_gamma   90.00000000
_symmetry_Int_Tables_number   1
_chemical_formula_structural   As5Pb3S10
_chemical_formula_sum   'As20 Pb12 S40'
_cell_volume   1927.13830249
_cell_formula_units_Z   4
loop_
 _symmetry_equiv_pos_site_id
 _symmetry_equiv_pos_as_xyz
  1  'x, y, z'
loop_
 _atom_site_type_symbol
 _atom_site_label
 _atom_site_symmetry_multiplicity
 _atom_site_fract_x
 _atom_site_fract_y
 _atom_site_fract_z
 _atom_site_occupancy
  As  As0  1  0.507881  0.153091  0.097739  1
  As  As1  1  0.064193  0.143769  0.096834  1
  As  As2  1  0.284870  0.442484  0.183302  1
  As  As3  1  0.616220  0.831263  0.189496  1
  As  As4  1  0.996868  0.818577  0.173912  1
  As  As5  1  0.633508  0.672906  0.310364  1
  As  As6  1  0.260007  0.680951  0.325891  1
  As  As7  1  0.961784  0.055030  0.315026  1
  As  As8  1  0.746737  0.352464  0.405134  1
  As  As9  1  0.185422  0.352329  0.401932  1
  As  As10  1  0.814578  0.852329  0.598068  1
  As  As11  1  0.253263  0.852464  0.594866  1
  As  As12  1  0.038216  0.555030  0.684974  1
  As  As13  1  0.739993  0.180951  0.674109  1
  As  As14  1  0.366492  0.172906  0.689636  1
  As  As15  1  0.003132  0.318577  0.826088  1
  As  As16  1  0.383780  0.331263  0.810504  1
  As  As17  1  0.715130  0.942484  0.816698  1
  As  As18  1  0.935807  0.643769  0.903166  1
  As  As19  1  0.492119  0.653091  0.902261  1
  Pb  Pb20  1  0.760473  0.792015  0.045139  1
  Pb  Pb21  1  0.263626  0.787698  0.039830  1
  Pb  Pb22  1  0.735643  0.486591  0.171438  1
  Pb  Pb23  1  0.514505  0.019443  0.331172  1
  Pb  Pb24  1  0.485287  0.700161  0.458269  1
  Pb  Pb25  1  0.991978  0.717253  0.454616  1
  Pb  Pb26  1  0.514713  0.200161  0.541731  1
  Pb  Pb27  1  0.008022  0.217253  0.545384  1
  Pb  Pb28  1  0.485495  0.519443  0.668828  1
  Pb  Pb29  1  0.264357  0.986591  0.828562  1
  Pb  Pb30  1  0.736374  0.287698  0.960170  1
  Pb  Pb31  1  0.239527  0.292015  0.954861  1
  S  S32  1  0.497075  0.013916  0.022929  1
  S  S33  1  0.026040  0.020559  0.019284  1
  S  S34  1  0.277635  0.310459  0.080860  1
  S  S35  1  0.697223  0.311994  0.075110  1
  S  S36  1  0.991631  0.633133  0.113781  1
  S  S37  1  0.525434  0.676924  0.122822  1
  S  S38  1  0.212499  0.967175  0.141682  1
  S  S39  1  0.799964  0.974127  0.144820  1
  S  S40  1  0.077192  0.332018  0.225424  1
  S  S41  1  0.473528  0.327695  0.220301  1
  S  S42  1  0.773316  0.175177  0.280016  1
  S  S43  1  0.167229  0.159802  0.271003  1
  S  S44  1  0.454850  0.524255  0.355017  1
  S  S45  1  0.038419  0.531887  0.357339  1
  S  S46  1  0.727498  0.826354  0.376352  1
  S  S47  1  0.256462  0.865613  0.386420  1
  S  S48  1  0.559133  0.190636  0.426833  1
  S  S49  1  0.971503  0.192382  0.421852  1
  S  S50  1  0.755314  0.495186  0.479695  1
  S  S51  1  0.227501  0.475784  0.478633  1
  S  S52  1  0.772499  0.975784  0.521367  1
  S  S53  1  0.244686  0.995186  0.520305  1
  S  S54  1  0.028497  0.692382  0.578148  1
  S  S55  1  0.440867  0.690636  0.573167  1
  S  S56  1  0.743538  0.365613  0.613580  1
  S  S57  1  0.272502  0.326354  0.623648  1
  S  S58  1  0.961581  0.031887  0.642661  1
  S  S59  1  0.545150  0.024255  0.644983  1
  S  S60  1  0.832771  0.659802  0.728997  1
  S  S61  1  0.226684  0.675177  0.719984  1
  S  S62  1  0.526472  0.827695  0.779699  1
  S  S63  1  0.922808  0.832018  0.774576  1
  S  S64  1  0.200036  0.474127  0.855180  1
  S  S65  1  0.787501  0.467175  0.858318  1
  S  S66  1  0.474566  0.176924  0.877178  1
  S  S67  1  0.008369  0.133133  0.886219  1
  S  S68  1  0.302777  0.811994  0.924890  1
  S  S69  1  0.722365  0.810459  0.919140  1
  S  S70  1  0.502925  0.513916  0.977071  1
  S  S71  1  0.973960  0.520559  0.980716  1
