# generated using pymatgen
data_WOF4
_symmetry_space_group_name_H-M   'P 1'
_cell_length_a   8.79526755
_cell_length_b   8.79526755
_cell_length_c   8.79526755
_cell_angle_alpha   98.15433197
_cell_angle_beta   98.15433197
_cell_angle_gamma   135.75148594
_symmetry_Int_Tables_number   1
_chemical_formula_structural   WOF4
_chemical_formula_sum   'W4 O4 F16'
_cell_volume   439.78941138
_cell_formula_units_Z   4
loop_
 _symmetry_equiv_pos_site_id
 _symmetry_equiv_pos_as_xyz
  1  'x, y, z'
loop_
 _atom_site_type_symbol
 _atom_site_label
 _atom_site_symmetry_multiplicity
 _atom_site_fract_x
 _atom_site_fract_y
 _atom_site_fract_z
 _atom_site_occupancy
  W  W0  1  0.435477  0.255573  0.720773  1
  W  W1  1  0.285295  0.564523  0.820096  1
  W  W2  1  0.744427  0.465199  0.179904  1
  W  W3  1  0.534801  0.714705  0.279228  1
  O  O4  1  0.588084  0.358664  0.949707  1
  O  O5  1  0.641336  0.591043  0.229420  1
  O  O6  1  0.361623  0.411916  0.770580  1
  O  O7  1  0.408957  0.638377  0.050293  1
  F  F8  1  0.152840  0.982549  0.732615  1
  F  F9  1  0.717786  0.526105  0.706280  1
  F  F10  1  0.211616  0.716369  0.873122  1
  F  F11  1  0.283631  0.156753  0.495247  1
  F  F12  1  0.507270  0.101971  0.670195  1
  F  F13  1  0.898029  0.568224  0.405299  1
  F  F14  1  0.988494  0.282214  0.808319  1
  F  F15  1  0.579775  0.847160  0.829709  1
  F  F16  1  0.017451  0.750066  0.170291  1
  F  F17  1  0.473895  0.180175  0.191681  1
  F  F18  1  0.162925  0.492730  0.594701  1
  F  F19  1  0.431776  0.837075  0.329805  1
  F  F20  1  0.661506  0.788384  0.504753  1
  F  F21  1  0.843247  0.338494  0.126878  1
  F  F22  1  0.819825  0.011506  0.293720  1
  F  F23  1  0.249934  0.420225  0.267385  1
