# generated using pymatgen
data_LiVFeP2(HO5)2
_symmetry_space_group_name_H-M   'P 1'
_cell_length_a   5.22098155
_cell_length_b   7.44217538
_cell_length_c   10.51817618
_cell_angle_alpha   105.31167771
_cell_angle_beta   96.59897099
_cell_angle_gamma   109.94809174
_symmetry_Int_Tables_number   1
_chemical_formula_structural   LiVFeP2(HO5)2
_chemical_formula_sum   'Li2 V2 Fe2 P4 H4 O20'
_cell_volume   360.93426821
_cell_formula_units_Z   2
loop_
 _symmetry_equiv_pos_site_id
 _symmetry_equiv_pos_as_xyz
  1  'x, y, z'
loop_
 _atom_site_type_symbol
 _atom_site_label
 _atom_site_symmetry_multiplicity
 _atom_site_fract_x
 _atom_site_fract_y
 _atom_site_fract_z
 _atom_site_occupancy
  Li  Li0  1  0.571986  0.644292  0.793627  1
  Li  Li1  1  0.428014  0.355708  0.206373  1
  V  V2  1  0.000000  0.500000  0.000000  1
  V  V3  1  0.500000  0.000000  0.500000  1
  Fe  Fe4  1  0.000000  0.000000  0.000000  1
  Fe  Fe5  1  0.500000  0.500000  0.500000  1
  P  P6  1  0.498998  0.045448  0.821637  1
  P  P7  1  0.997190  0.446783  0.677340  1
  P  P8  1  0.002810  0.553217  0.322660  1
  P  P9  1  0.501002  0.954552  0.178363  1
  H  H10  1  0.321412  0.317210  0.967519  1
  H  H11  1  0.166560  0.174311  0.514879  1
  H  H12  1  0.833440  0.825689  0.485121  1
  H  H13  1  0.678588  0.682790  0.032481  1
  O  O14  1  0.819250  0.690654  0.976625  1
  O  O15  1  0.645173  0.279628  0.902938  1
  O  O16  1  0.123849  0.483084  0.828808  1
  O  O17  1  0.247917  0.956189  0.879681  1
  O  O18  1  0.707325  0.943123  0.835852  1
  O  O19  1  0.777480  0.540108  0.668841  1
  O  O20  1  0.253944  0.551681  0.625292  1
  O  O21  1  0.395248  0.019701  0.671999  1
  O  O22  1  0.872788  0.216790  0.595660  1
  O  O23  1  0.343688  0.201238  0.484104  1
  O  O24  1  0.656312  0.798762  0.515896  1
  O  O25  1  0.127212  0.783210  0.404340  1
  O  O26  1  0.604752  0.980299  0.328001  1
  O  O27  1  0.746056  0.448319  0.374708  1
  O  O28  1  0.222520  0.459892  0.331159  1
  O  O29  1  0.292675  0.056877  0.164148  1
  O  O30  1  0.752083  0.043811  0.120319  1
  O  O31  1  0.876151  0.516916  0.171192  1
  O  O32  1  0.354827  0.720372  0.097062  1
  O  O33  1  0.180750  0.309346  0.023375  1
