# generated using pymatgen
data_Li3Fe2SnO6
_symmetry_space_group_name_H-M   'P 1'
_cell_length_a   6.79573826
_cell_length_b   6.79573826
_cell_length_c   6.12272444
_cell_angle_alpha   77.31538830
_cell_angle_beta   102.68461170
_cell_angle_gamma   153.84828449
_symmetry_Int_Tables_number   1
_chemical_formula_structural   Li3Fe2SnO6
_chemical_formula_sum   'Li3 Fe2 Sn1 O6'
_cell_volume   121.41841244
_cell_formula_units_Z   1
loop_
 _symmetry_equiv_pos_site_id
 _symmetry_equiv_pos_as_xyz
  1  'x, y, z'
loop_
 _atom_site_type_symbol
 _atom_site_label
 _atom_site_symmetry_multiplicity
 _atom_site_fract_x
 _atom_site_fract_y
 _atom_site_fract_z
 _atom_site_occupancy
  Li  Li0  1  0.500000  0.500000  0.500000  1
  Li  Li1  1  0.172968  0.827032  0.832388  1
  Li  Li2  1  0.827032  0.172968  0.167612  1
  Fe  Fe3  1  0.173581  0.826419  0.350930  1
  Fe  Fe4  1  0.826419  0.173581  0.649070  1
  Sn  Sn5  1  0.500000  0.500000  0.000000  1
  O  O6  1  0.660665  0.339335  0.097502  1
  O  O7  1  0.333367  0.666633  0.425490  1
  O  O8  1  0.339335  0.660665  0.902498  1
  O  O9  1  0.998188  0.001812  0.762308  1
  O  O10  1  0.001812  0.998188  0.237692  1
  O  O11  1  0.666633  0.333367  0.574510  1
