# generated using pymatgen
data_Ba4Sn3O10
_symmetry_space_group_name_H-M   'P 1'
_cell_length_a   7.44603199
_cell_length_b   7.44603199
_cell_length_c   14.08963256
_cell_angle_alpha   90.00000000
_cell_angle_beta   90.00000000
_cell_angle_gamma   132.03686695
_symmetry_Int_Tables_number   1
_chemical_formula_structural   Ba4Sn3O10
_chemical_formula_sum   'Ba8 Sn6 O20'
_cell_volume   580.19120825
_cell_formula_units_Z   2
loop_
 _symmetry_equiv_pos_site_id
 _symmetry_equiv_pos_as_xyz
  1  'x, y, z'
loop_
 _atom_site_type_symbol
 _atom_site_label
 _atom_site_symmetry_multiplicity
 _atom_site_fract_x
 _atom_site_fract_y
 _atom_site_fract_z
 _atom_site_occupancy
  Ba  Ba0  1  0.737090  0.262910  0.391172  1
  Ba  Ba1  1  0.531611  0.468389  0.143322  1
  Ba  Ba2  1  0.968389  0.031611  0.643322  1
  Ba  Ba3  1  0.762910  0.237090  0.891172  1
  Ba  Ba4  1  0.468389  0.531611  0.856678  1
  Ba  Ba5  1  0.237090  0.762910  0.108828  1
  Ba  Ba6  1  0.031611  0.968389  0.356678  1
  Ba  Ba7  1  0.262910  0.737090  0.608828  1
  Sn  Sn8  1  0.000000  0.000000  0.000000  1
  Sn  Sn9  1  0.864600  0.135400  0.154582  1
  Sn  Sn10  1  0.635400  0.364600  0.654582  1
  Sn  Sn11  1  0.500000  0.500000  0.500000  1
  Sn  Sn12  1  0.135400  0.864600  0.845418  1
  Sn  Sn13  1  0.364600  0.635400  0.345418  1
  O  O14  1  0.339286  0.117883  0.962028  1
  O  O15  1  0.365813  0.134187  0.750000  1
  O  O16  1  0.382117  0.160714  0.537972  1
  O  O17  1  0.718208  0.281792  0.155902  1
  O  O18  1  0.781792  0.218208  0.655902  1
  O  O19  1  0.968061  0.031939  0.854391  1
  O  O20  1  0.531939  0.468061  0.354391  1
  O  O21  1  0.117883  0.339286  0.037972  1
  O  O22  1  0.839286  0.617883  0.537972  1
  O  O23  1  0.134187  0.365813  0.250000  1
  O  O24  1  0.865813  0.634187  0.750000  1
  O  O25  1  0.160714  0.382117  0.462028  1
  O  O26  1  0.882117  0.660714  0.962028  1
  O  O27  1  0.218208  0.781792  0.344098  1
  O  O28  1  0.281792  0.718208  0.844098  1
  O  O29  1  0.031939  0.968061  0.145609  1
  O  O30  1  0.468061  0.531939  0.645609  1
  O  O31  1  0.617883  0.839286  0.462028  1
  O  O32  1  0.634187  0.865813  0.250000  1
  O  O33  1  0.660714  0.882117  0.037972  1
