# generated using pymatgen
data_Ca2P2H4O9
_symmetry_space_group_name_H-M   'P 1'
_cell_length_a   6.74747320
_cell_length_b   7.40705042
_cell_length_c   8.34123321
_cell_angle_alpha   85.14235987
_cell_angle_beta   77.28361412
_cell_angle_gamma   73.00554642
_symmetry_Int_Tables_number   1
_chemical_formula_structural   Ca2P2H4O9
_chemical_formula_sum   'Ca4 P4 H8 O18'
_cell_volume   388.80985547
_cell_formula_units_Z   2
loop_
 _symmetry_equiv_pos_site_id
 _symmetry_equiv_pos_as_xyz
  1  'x, y, z'
loop_
 _atom_site_type_symbol
 _atom_site_label
 _atom_site_symmetry_multiplicity
 _atom_site_fract_x
 _atom_site_fract_y
 _atom_site_fract_z
 _atom_site_occupancy
  Ca  Ca0  1  0.310507  0.247958  0.495081  1
  Ca  Ca1  1  0.689493  0.752042  0.504919  1
  Ca  Ca2  1  0.257216  0.866584  0.244615  1
  Ca  Ca3  1  0.742784  0.133416  0.755385  1
  P  P4  1  0.261274  0.990253  0.812716  1
  P  P5  1  0.738726  0.009747  0.187284  1
  P  P6  1  0.166613  0.712314  0.644016  1
  P  P7  1  0.833387  0.287686  0.355984  1
  H  H8  1  0.098386  0.522483  0.262159  1
  H  H9  1  0.901614  0.477517  0.737841  1
  H  H10  1  0.327661  0.462470  0.150754  1
  H  H11  1  0.672339  0.537530  0.849246  1
  H  H12  1  0.342214  0.235213  0.976471  1
  H  H13  1  0.657786  0.764787  0.023529  1
  H  H14  1  0.317408  0.420818  0.866406  1
  H  H15  1  0.682592  0.579182  0.133594  1
  O  O16  1  0.253773  0.018846  0.991782  1
  O  O17  1  0.746227  0.981154  0.008218  1
  O  O18  1  0.480060  0.984758  0.701406  1
  O  O19  1  0.519940  0.015242  0.298594  1
  O  O20  1  0.092807  0.135547  0.736041  1
  O  O21  1  0.907193  0.864453  0.263959  1
  O  O22  1  0.222972  0.782895  0.805457  1
  O  O23  1  0.777028  0.217105  0.194543  1
  O  O24  1  0.178644  0.503446  0.681318  1
  O  O25  1  0.821356  0.496554  0.318682  1
  O  O26  1  0.339365  0.743036  0.499319  1
  O  O27  1  0.660635  0.256964  0.500681  1
  O  O28  1  0.942862  0.828866  0.628227  1
  O  O29  1  0.057138  0.171134  0.371773  1
  O  O30  1  0.249546  0.507667  0.262084  1
  O  O31  1  0.750454  0.492333  0.737916  1
  O  O32  1  0.408323  0.339065  0.937349  1
  O  O33  1  0.591677  0.660935  0.062651  1
