# generated using pymatgen
data_MnOF
_symmetry_space_group_name_H-M   'P 1'
_cell_length_a   5.10956293
_cell_length_b   4.73384204
_cell_length_c   5.82826407
_cell_angle_alpha   90.00000000
_cell_angle_beta   92.63253981
_cell_angle_gamma   90.00000000
_symmetry_Int_Tables_number   1
_chemical_formula_structural   MnOF
_chemical_formula_sum   'Mn4 O4 F4'
_cell_volume   140.82448082
_cell_formula_units_Z   4
loop_
 _symmetry_equiv_pos_site_id
 _symmetry_equiv_pos_as_xyz
  1  'x, y, z'
loop_
 _atom_site_type_symbol
 _atom_site_label
 _atom_site_symmetry_multiplicity
 _atom_site_fract_x
 _atom_site_fract_y
 _atom_site_fract_z
 _atom_site_occupancy
  Mn  Mn0  1  0.227471  0.523065  0.661579  1
  Mn  Mn1  1  0.227471  0.976935  0.161579  1
  Mn  Mn2  1  0.772529  0.023065  0.838421  1
  Mn  Mn3  1  0.772529  0.476935  0.338421  1
  O  O4  1  0.075691  0.787259  0.896121  1
  O  O5  1  0.075691  0.712741  0.396121  1
  O  O6  1  0.924309  0.287259  0.603879  1
  O  O7  1  0.924309  0.212741  0.103879  1
  F  F8  1  0.433743  0.246464  0.869046  1
  F  F9  1  0.433743  0.253536  0.369046  1
  F  F10  1  0.566257  0.746464  0.630954  1
  F  F11  1  0.566257  0.753536  0.130954  1
