# generated using pymatgen
data_NiH20S2(NO7)2
_symmetry_space_group_name_H-M   'P 1'
_cell_length_a   6.54334163
_cell_length_b   12.80656658
_cell_length_c   9.13660402
_cell_angle_alpha   90.00000000
_cell_angle_beta   108.45781271
_cell_angle_gamma   90.00000000
_symmetry_Int_Tables_number   1
_chemical_formula_structural   NiH20S2(NO7)2
_chemical_formula_sum   'Ni2 H40 S4 N4 O28'
_cell_volume   726.24065751
_cell_formula_units_Z   2
loop_
 _symmetry_equiv_pos_site_id
 _symmetry_equiv_pos_as_xyz
  1  'x, y, z'
loop_
 _atom_site_type_symbol
 _atom_site_label
 _atom_site_symmetry_multiplicity
 _atom_site_fract_x
 _atom_site_fract_y
 _atom_site_fract_z
 _atom_site_occupancy
  Ni  Ni0  1  0.000000  0.000000  0.000000  1
  Ni  Ni1  1  0.000000  0.500000  0.500000  1
  H  H2  1  0.306594  0.552095  0.387904  1
  H  H3  1  0.693406  0.052095  0.112096  1
  H  H4  1  0.693406  0.447905  0.612096  1
  H  H5  1  0.306594  0.947905  0.887904  1
  H  H6  1  0.348570  0.045959  0.990147  1
  H  H7  1  0.651430  0.545959  0.509853  1
  H  H8  1  0.651430  0.954041  0.009853  1
  H  H9  1  0.348570  0.454041  0.490147  1
  H  H10  1  0.694095  0.590023  0.268295  1
  H  H11  1  0.305905  0.090023  0.231705  1
  H  H12  1  0.305905  0.409977  0.731705  1
  H  H13  1  0.694095  0.909977  0.768295  1
  H  H14  1  0.914853  0.625603  0.243151  1
  H  H15  1  0.085147  0.125603  0.256849  1
  H  H16  1  0.085147  0.374397  0.756849  1
  H  H17  1  0.914853  0.874397  0.743151  1
  H  H18  1  0.033112  0.808971  0.137774  1
  H  H19  1  0.966888  0.308971  0.362226  1
  H  H20  1  0.966888  0.191029  0.862226  1
  H  H21  1  0.033112  0.691029  0.637774  1
  H  H22  1  0.079889  0.896081  0.269307  1
  H  H23  1  0.920111  0.396081  0.230693  1
  H  H24  1  0.920111  0.103919  0.730693  1
  H  H25  1  0.079889  0.603919  0.769307  1
  H  H26  1  0.527276  0.847045  0.422493  1
  H  H27  1  0.472724  0.347045  0.077507  1
  H  H28  1  0.472724  0.152955  0.577507  1
  H  H29  1  0.527276  0.652955  0.922493  1
  H  H30  1  0.579828  0.803666  0.264994  1
  H  H31  1  0.420172  0.303666  0.235006  1
  H  H32  1  0.420172  0.196334  0.735006  1
  H  H33  1  0.579828  0.696334  0.764994  1
  H  H34  1  0.786306  0.833027  0.431579  1
  H  H35  1  0.213694  0.333027  0.068421  1
  H  H36  1  0.213694  0.166973  0.568421  1
  H  H37  1  0.786306  0.666973  0.931579  1
  H  H38  1  0.636312  0.930671  0.324684  1
  H  H39  1  0.363688  0.430671  0.175316  1
  H  H40  1  0.363688  0.069329  0.675316  1
  H  H41  1  0.636312  0.569329  0.824684  1
  S  S42  1  0.264950  0.861696  0.595495  1
  S  S43  1  0.735050  0.361696  0.904505  1
  S  S44  1  0.735050  0.138304  0.404505  1
  S  S45  1  0.264950  0.638304  0.095495  1
  N  N46  1  0.633959  0.853143  0.360230  1
  N  N47  1  0.366041  0.353143  0.139770  1
  N  N48  1  0.366041  0.146857  0.639770  1
  N  N49  1  0.633959  0.646857  0.860230  1
  O  O50  1  0.056826  0.822587  0.613380  1
  O  O51  1  0.943174  0.322587  0.886620  1
  O  O52  1  0.943174  0.177413  0.386620  1
  O  O53  1  0.056826  0.677413  0.113380  1
  O  O54  1  0.412092  0.773852  0.595327  1
  O  O55  1  0.587908  0.273852  0.904673  1
  O  O56  1  0.587908  0.226148  0.404673  1
  O  O57  1  0.412092  0.726148  0.095327  1
  O  O58  1  0.221419  0.923898  0.451914  1
  O  O59  1  0.778581  0.423898  0.048086  1
  O  O60  1  0.778581  0.076102  0.548086  1
  O  O61  1  0.221419  0.576102  0.951914  1
  O  O62  1  0.373678  0.932698  0.730416  1
  O  O63  1  0.626322  0.432698  0.769584  1
  O  O64  1  0.626322  0.067302  0.269584  1
  O  O65  1  0.373678  0.567302  0.230416  1
  O  O66  1  0.300148  0.526291  0.490317  1
  O  O67  1  0.699852  0.026291  0.009683  1
  O  O68  1  0.699852  0.473709  0.509683  1
  O  O69  1  0.300148  0.973709  0.990317  1
  O  O70  1  0.846060  0.606987  0.322003  1
  O  O71  1  0.153940  0.106987  0.177997  1
  O  O72  1  0.153940  0.393013  0.677997  1
  O  O73  1  0.846060  0.893013  0.822003  1
  O  O74  1  0.998459  0.882004  0.158847  1
  O  O75  1  0.001541  0.382004  0.341153  1
  O  O76  1  0.001541  0.117996  0.841153  1
  O  O77  1  0.998459  0.617996  0.658847  1
