# generated using pymatgen
data_Na6Sn2C4SO16
_symmetry_space_group_name_H-M   'P 1'
_cell_length_a   10.32383800
_cell_length_b   10.32383800
_cell_length_c   10.32383800
_cell_angle_alpha   60.00000000
_cell_angle_beta   60.00000000
_cell_angle_gamma   60.00000000
_symmetry_Int_Tables_number   1
_chemical_formula_structural   Na6Sn2C4SO16
_chemical_formula_sum   'Na12 Sn4 C8 S2 O32'
_cell_volume   778.05186103
_cell_formula_units_Z   2
loop_
 _symmetry_equiv_pos_site_id
 _symmetry_equiv_pos_as_xyz
  1  'x, y, z'
loop_
 _atom_site_type_symbol
 _atom_site_label
 _atom_site_symmetry_multiplicity
 _atom_site_fract_x
 _atom_site_fract_y
 _atom_site_fract_z
 _atom_site_occupancy
  Na  Na0  1  0.542507  0.957493  0.957493  1
  Na  Na1  1  0.707493  0.292507  0.707493  1
  Na  Na2  1  0.542507  0.542507  0.957493  1
  Na  Na3  1  0.957493  0.957493  0.542507  1
  Na  Na4  1  0.292507  0.707493  0.707493  1
  Na  Na5  1  0.292507  0.707493  0.292507  1
  Na  Na6  1  0.957493  0.542507  0.957493  1
  Na  Na7  1  0.957493  0.542507  0.542507  1
  Na  Na8  1  0.707493  0.707493  0.292507  1
  Na  Na9  1  0.292507  0.292507  0.707493  1
  Na  Na10  1  0.542507  0.957493  0.542507  1
  Na  Na11  1  0.707493  0.292507  0.292507  1
  Sn  Sn12  1  0.125000  0.625000  0.125000  1
  Sn  Sn13  1  0.125000  0.125000  0.125000  1
  Sn  Sn14  1  0.625000  0.125000  0.125000  1
  Sn  Sn15  1  0.125000  0.125000  0.625000  1
  C  C16  1  0.353889  0.938334  0.353889  1
  C  C17  1  0.353889  0.353889  0.353889  1
  C  C18  1  0.353889  0.353889  0.938334  1
  C  C19  1  0.938334  0.353889  0.353889  1
  C  C20  1  0.311666  0.896111  0.896111  1
  C  C21  1  0.896111  0.896111  0.896111  1
  C  C22  1  0.896111  0.896111  0.311666  1
  C  C23  1  0.896111  0.311666  0.896111  1
  S  S24  1  0.750000  0.750000  0.750000  1
  S  S25  1  0.500000  0.500000  0.500000  1
  O  O26  1  0.769432  0.021820  0.896867  1
  O  O27  1  0.896867  0.311880  0.769432  1
  O  O28  1  0.480568  0.938120  0.228180  1
  O  O29  1  0.228180  0.938120  0.353133  1
  O  O30  1  0.927593  0.690802  0.690802  1
  O  O31  1  0.480568  0.353133  0.938120  1
  O  O32  1  0.353133  0.228180  0.938120  1
  O  O33  1  0.690802  0.690802  0.690802  1
  O  O34  1  0.690802  0.690802  0.927593  1
  O  O35  1  0.228180  0.353133  0.480568  1
  O  O36  1  0.353133  0.480568  0.228180  1
  O  O37  1  0.690802  0.927593  0.690802  1
  O  O38  1  0.938120  0.228180  0.480568  1
  O  O39  1  0.228180  0.480568  0.938120  1
  O  O40  1  0.938120  0.353133  0.228180  1
  O  O41  1  0.311880  0.769432  0.896867  1
  O  O42  1  0.938120  0.480568  0.353133  1
  O  O43  1  0.311880  0.896867  0.021820  1
  O  O44  1  0.021820  0.769432  0.311880  1
  O  O45  1  0.311880  0.021820  0.769432  1
  O  O46  1  0.559198  0.322407  0.559198  1
  O  O47  1  0.896867  0.769432  0.021820  1
  O  O48  1  0.021820  0.896867  0.769432  1
  O  O49  1  0.559198  0.559198  0.322407  1
  O  O50  1  0.559198  0.559198  0.559198  1
  O  O51  1  0.896867  0.021820  0.311880  1
  O  O52  1  0.769432  0.896867  0.311880  1
  O  O53  1  0.322407  0.559198  0.559198  1
  O  O54  1  0.021820  0.311880  0.896867  1
  O  O55  1  0.769432  0.311880  0.021820  1
  O  O56  1  0.353133  0.938120  0.480568  1
  O  O57  1  0.480568  0.228180  0.353133  1
