# generated using pymatgen
data_TiSi
_symmetry_space_group_name_H-M   'P 1'
_cell_length_a   3.64173473
_cell_length_b   5.01079933
_cell_length_c   6.54455560
_cell_angle_alpha   90.00000000
_cell_angle_beta   90.00000000
_cell_angle_gamma   90.00000000
_symmetry_Int_Tables_number   1
_chemical_formula_structural   TiSi
_chemical_formula_sum   'Ti4 Si4'
_cell_volume   119.42506332
_cell_formula_units_Z   4
loop_
 _symmetry_equiv_pos_site_id
 _symmetry_equiv_pos_as_xyz
  1  'x, y, z'
loop_
 _atom_site_type_symbol
 _atom_site_label
 _atom_site_symmetry_multiplicity
 _atom_site_fract_x
 _atom_site_fract_y
 _atom_site_fract_z
 _atom_site_occupancy
  Ti  Ti0  1  0.250000  0.371939  0.675539  1
  Ti  Ti1  1  0.750000  0.628061  0.324461  1
  Ti  Ti2  1  0.750000  0.871939  0.824461  1
  Ti  Ti3  1  0.250000  0.128061  0.175539  1
  Si  Si4  1  0.250000  0.854253  0.544812  1
  Si  Si5  1  0.750000  0.145747  0.455188  1
  Si  Si6  1  0.750000  0.354253  0.955188  1
  Si  Si7  1  0.250000  0.645747  0.044812  1
