# generated using pymatgen
data_Si6Bi9O26
_symmetry_space_group_name_H-M   'P 1'
_cell_length_a   9.74559495
_cell_length_b   9.74559495
_cell_length_c   7.08298829
_cell_angle_alpha   90.00000000
_cell_angle_beta   90.00000000
_cell_angle_gamma   120.00000000
_symmetry_Int_Tables_number   1
_chemical_formula_structural   Si6Bi9O26
_chemical_formula_sum   'Si6 Bi9 O26'
_cell_volume   582.59113231
_cell_formula_units_Z   1
loop_
 _symmetry_equiv_pos_site_id
 _symmetry_equiv_pos_as_xyz
  1  'x, y, z'
loop_
 _atom_site_type_symbol
 _atom_site_label
 _atom_site_symmetry_multiplicity
 _atom_site_fract_x
 _atom_site_fract_y
 _atom_site_fract_z
 _atom_site_occupancy
  Si  Si0  1  0.286576  0.928620  0.247157  1
  Si  Si1  1  0.271152  0.308290  0.753722  1
  Si  Si2  1  0.691710  0.962862  0.753722  1
  Si  Si3  1  0.642045  0.713424  0.247157  1
  Si  Si4  1  0.071380  0.357955  0.247157  1
  Si  Si5  1  0.037138  0.728848  0.753722  1
  Bi  Bi6  1  0.900166  0.327296  0.733977  1
  Bi  Bi7  1  0.642995  0.082858  0.240275  1
  Bi  Bi8  1  0.917142  0.560137  0.240275  1
  Bi  Bi9  1  0.000000  0.000000  0.999500  1
  Bi  Bi10  1  0.333333  0.666667  0.954799  1
  Bi  Bi11  1  0.000000  0.000000  0.488101  1
  Bi  Bi12  1  0.427130  0.099834  0.733977  1
  Bi  Bi13  1  0.672704  0.572870  0.733977  1
  Bi  Bi14  1  0.439863  0.357005  0.240275  1
  O  O15  1  0.414965  0.009056  0.422402  1
  O  O16  1  0.412789  0.991608  0.066814  1
  O  O17  1  0.764326  0.089349  0.934074  1
  O  O18  1  0.760825  0.084428  0.568839  1
  O  O19  1  0.074584  0.212327  0.753230  1
  O  O20  1  0.995914  0.163214  0.249126  1
  O  O21  1  0.181445  0.736647  0.231160  1
  O  O22  1  0.501158  0.855908  0.756777  1
  O  O23  1  0.325023  0.235674  0.934074  1
  O  O24  1  0.144092  0.645251  0.756777  1
  O  O25  1  0.323603  0.239175  0.568839  1
  O  O26  1  0.555202  0.818555  0.231160  1
  O  O27  1  0.666667  0.333333  0.711513  1
  O  O28  1  0.666667  0.333333  0.209455  1
  O  O29  1  0.787673  0.862257  0.753230  1
  O  O30  1  0.008392  0.421181  0.066814  1
  O  O31  1  0.836786  0.832700  0.249126  1
  O  O32  1  0.167300  0.004086  0.249126  1
  O  O33  1  0.990944  0.405909  0.422402  1
  O  O34  1  0.137743  0.925416  0.753230  1
  O  O35  1  0.354749  0.498842  0.756777  1
  O  O36  1  0.263353  0.444798  0.231160  1
  O  O37  1  0.578819  0.587211  0.066814  1
  O  O38  1  0.594091  0.585035  0.422402  1
  O  O39  1  0.915572  0.676397  0.568839  1
  O  O40  1  0.910651  0.674977  0.934074  1
