# generated using pymatgen
data_Li8FeCo3O8
_symmetry_space_group_name_H-M   'P 1'
_cell_length_a   5.36866019
_cell_length_b   5.51275628
_cell_length_c   6.99770853
_cell_angle_alpha   89.83236457
_cell_angle_beta   89.43441109
_cell_angle_gamma   89.17389204
_symmetry_Int_Tables_number   1
_chemical_formula_structural   Li8FeCo3O8
_chemical_formula_sum   'Li8 Fe1 Co3 O8'
_cell_volume   207.07256869
_cell_formula_units_Z   1
loop_
 _symmetry_equiv_pos_site_id
 _symmetry_equiv_pos_as_xyz
  1  'x, y, z'
loop_
 _atom_site_type_symbol
 _atom_site_label
 _atom_site_symmetry_multiplicity
 _atom_site_fract_x
 _atom_site_fract_y
 _atom_site_fract_z
 _atom_site_occupancy
  Li  Li0  1  0.817461  0.951786  0.406765  1
  Li  Li1  1  0.643294  0.710726  0.749359  1
  Li  Li2  1  0.157596  0.782716  0.247213  1
  Li  Li3  1  0.304875  0.526503  0.906711  1
  Li  Li4  1  0.818200  0.467741  0.095881  1
  Li  Li5  1  0.654754  0.216621  0.750087  1
  Li  Li6  1  0.154816  0.280702  0.258227  1
  Li  Li7  1  0.317761  0.045746  0.592939  1
  Fe  Fe8  1  0.552707  0.055247  0.105441  1
  Co  Co9  1  0.047809  0.947731  0.884771  1
  Co  Co10  1  0.551612  0.554951  0.389902  1
  Co  Co11  1  0.050278  0.449021  0.611952  1
  O  O12  1  0.426765  0.942784  0.856574  1
  O  O13  1  0.455091  0.902481  0.366608  1
  O  O14  1  0.948247  0.596537  0.862058  1
  O  O15  1  0.934071  0.560970  0.360631  1
  O  O16  1  0.430244  0.438946  0.640673  1
  O  O17  1  0.455581  0.410984  0.138079  1
  O  O18  1  0.954179  0.097675  0.633723  1
  O  O19  1  0.940583  0.059018  0.141546  1
