# generated using pymatgen
data_Li3Mn2(P2O7)2
_symmetry_space_group_name_H-M   'P 1'
_cell_length_a   5.00836813
_cell_length_b   7.04465357
_cell_length_c   8.34683362
_cell_angle_alpha   89.43673698
_cell_angle_beta   89.80520310
_cell_angle_gamma   71.95152306
_symmetry_Int_Tables_number   1
_chemical_formula_structural   Li3Mn2(P2O7)2
_chemical_formula_sum   'Li3 Mn2 P4 O14'
_cell_volume   279.99055886
_cell_formula_units_Z   1
loop_
 _symmetry_equiv_pos_site_id
 _symmetry_equiv_pos_as_xyz
  1  'x, y, z'
loop_
 _atom_site_type_symbol
 _atom_site_label
 _atom_site_symmetry_multiplicity
 _atom_site_fract_x
 _atom_site_fract_y
 _atom_site_fract_z
 _atom_site_occupancy
  Li  Li0  1  0.173274  0.333000  0.144337  1
  Li  Li1  1  0.288630  0.908979  0.828855  1
  Li  Li2  1  0.835189  0.660244  0.638690  1
  Mn  Mn3  1  0.218372  0.271232  0.492618  1
  Mn  Mn4  1  0.796083  0.720989  0.006144  1
  P  P5  1  0.398450  0.477328  0.816192  1
  P  P6  1  0.206279  0.915524  0.208354  1
  P  P7  1  0.792042  0.089079  0.708023  1
  P  P8  1  0.598250  0.523870  0.319719  1
  O  O9  1  0.072870  0.131065  0.673881  1
  O  O10  1  0.141071  0.114530  0.295836  1
  O  O11  1  0.207832  0.500652  0.961524  1
  O  O12  1  0.239432  0.495103  0.657192  1
  O  O13  1  0.395521  0.396145  0.321084  1
  O  O14  1  0.614451  0.083131  0.564387  1
  O  O15  1  0.615408  0.253857  0.834571  1
  O  O16  1  0.406616  0.754748  0.333172  1
  O  O17  1  0.373183  0.917821  0.053398  1
  O  O18  1  0.572238  0.624076  0.814571  1
  O  O19  1  0.754896  0.497502  0.160266  1
  O  O20  1  0.793609  0.488942  0.464029  1
  O  O21  1  0.873226  0.891715  0.804345  1
  O  O22  1  0.944965  0.857991  0.179117  1
