# generated using pymatgen
data_Li2V(SiO3)3
_symmetry_space_group_name_H-M   'P 1'
_cell_length_a   7.87679383
_cell_length_b   9.44464835
_cell_length_c   10.79625006
_cell_angle_alpha   90.00000000
_cell_angle_beta   90.00000000
_cell_angle_gamma   90.00000000
_symmetry_Int_Tables_number   1
_chemical_formula_structural   Li2V(SiO3)3
_chemical_formula_sum   'Li8 V4 Si12 O36'
_cell_volume   803.17134544
_cell_formula_units_Z   4
loop_
 _symmetry_equiv_pos_site_id
 _symmetry_equiv_pos_as_xyz
  1  'x, y, z'
loop_
 _atom_site_type_symbol
 _atom_site_label
 _atom_site_symmetry_multiplicity
 _atom_site_fract_x
 _atom_site_fract_y
 _atom_site_fract_z
 _atom_site_occupancy
  Li  Li0  1  0.918290  0.375706  0.997486  1
  Li  Li1  1  0.153177  0.190549  0.578299  1
  Li  Li2  1  0.346823  0.809451  0.078299  1
  Li  Li3  1  0.581710  0.624294  0.497486  1
  Li  Li4  1  0.418290  0.124294  0.002514  1
  Li  Li5  1  0.653177  0.309451  0.421701  1
  Li  Li6  1  0.846823  0.690549  0.921701  1
  Li  Li7  1  0.081710  0.875706  0.502514  1
  V  V8  1  0.243537  0.094875  0.298650  1
  V  V9  1  0.256463  0.905125  0.798650  1
  V  V10  1  0.743537  0.405125  0.701350  1
  V  V11  1  0.756463  0.594875  0.201350  1
  Si  Si12  1  0.040802  0.645509  0.716936  1
  Si  Si13  1  0.096351  0.405570  0.278951  1
  Si  Si14  1  0.085980  0.072759  0.032645  1
  Si  Si15  1  0.414020  0.927241  0.532645  1
  Si  Si16  1  0.403649  0.594430  0.778951  1
  Si  Si17  1  0.459198  0.354491  0.216936  1
  Si  Si18  1  0.540802  0.854491  0.283064  1
  Si  Si19  1  0.596351  0.094430  0.721049  1
  Si  Si20  1  0.585980  0.427241  0.967355  1
  Si  Si21  1  0.914020  0.572759  0.467355  1
  Si  Si22  1  0.903649  0.905570  0.221049  1
  Si  Si23  1  0.959198  0.145509  0.783064  1
  O  O24  1  0.984389  0.687366  0.572396  1
  O  O25  1  0.083516  0.508733  0.402265  1
  O  O26  1  0.052715  0.781114  0.808948  1
  O  O27  1  0.057218  0.941478  0.317105  1
  O  O28  1  0.098754  0.244276  0.341720  1
  O  O29  1  0.113877  0.050457  0.725171  1
  O  O30  1  0.209609  0.158815  0.125591  1
  O  O31  1  0.211117  0.952236  0.972923  1
  O  O32  1  0.219865  0.557476  0.713976  1
  O  O33  1  0.280135  0.442524  0.213976  1
  O  O34  1  0.288883  0.047764  0.472923  1
  O  O35  1  0.290391  0.841185  0.625591  1
  O  O36  1  0.386123  0.949543  0.225171  1
  O  O37  1  0.401246  0.755724  0.841720  1
  O  O38  1  0.442782  0.058522  0.817105  1
  O  O39  1  0.447285  0.218886  0.308948  1
  O  O40  1  0.416484  0.491267  0.902265  1
  O  O41  1  0.515611  0.312634  0.072396  1
  O  O42  1  0.484389  0.812634  0.427604  1
  O  O43  1  0.583516  0.991267  0.597735  1
  O  O44  1  0.552715  0.718886  0.191052  1
  O  O45  1  0.557218  0.558522  0.682895  1
  O  O46  1  0.598754  0.255724  0.658280  1
  O  O47  1  0.613877  0.449543  0.274829  1
  O  O48  1  0.709609  0.341185  0.874409  1
  O  O49  1  0.711117  0.547764  0.027077  1
  O  O50  1  0.719865  0.942524  0.286024  1
  O  O51  1  0.780135  0.057476  0.786024  1
  O  O52  1  0.788883  0.452236  0.527077  1
  O  O53  1  0.790391  0.658815  0.374409  1
  O  O54  1  0.886123  0.550457  0.774829  1
  O  O55  1  0.901246  0.744276  0.158280  1
  O  O56  1  0.942782  0.441478  0.182895  1
  O  O57  1  0.947285  0.281114  0.691052  1
  O  O58  1  0.916484  0.008733  0.097735  1
  O  O59  1  0.015611  0.187366  0.927604  1
