# generated using pymatgen
data_Na6Ti2O7
_symmetry_space_group_name_H-M   'P 1'
_cell_length_a   8.92173347
_cell_length_b   5.40604879
_cell_length_c   10.36895053
_cell_angle_alpha   90.00000000
_cell_angle_beta   117.28858860
_cell_angle_gamma   90.00000000
_symmetry_Int_Tables_number   1
_chemical_formula_structural   Na6Ti2O7
_chemical_formula_sum   'Na12 Ti4 O14'
_cell_volume   444.45047338
_cell_formula_units_Z   2
loop_
 _symmetry_equiv_pos_site_id
 _symmetry_equiv_pos_as_xyz
  1  'x, y, z'
loop_
 _atom_site_type_symbol
 _atom_site_label
 _atom_site_symmetry_multiplicity
 _atom_site_fract_x
 _atom_site_fract_y
 _atom_site_fract_z
 _atom_site_occupancy
  Na  Na0  1  0.334008  0.224864  0.119904  1
  Na  Na1  1  0.571572  0.778883  0.134602  1
  Na  Na2  1  0.066602  0.803355  0.154484  1
  Na  Na3  1  0.428428  0.778883  0.365398  1
  Na  Na4  1  0.665992  0.224864  0.380096  1
  Na  Na5  1  0.933398  0.803355  0.345516  1
  Na  Na6  1  0.066602  0.196645  0.654484  1
  Na  Na7  1  0.334008  0.775136  0.619904  1
  Na  Na8  1  0.571572  0.221117  0.634602  1
  Na  Na9  1  0.933398  0.196645  0.845516  1
  Na  Na10  1  0.428428  0.221117  0.865398  1
  Na  Na11  1  0.665992  0.775136  0.880096  1
  Ti  Ti12  1  0.788196  0.305596  0.104457  1
  Ti  Ti13  1  0.211804  0.305596  0.395543  1
  Ti  Ti14  1  0.788196  0.694404  0.604457  1
  Ti  Ti15  1  0.211804  0.694404  0.895543  1
  O  O16  1  0.272856  0.789603  0.082647  1
  O  O17  1  0.613121  0.225550  0.140444  1
  O  O18  1  0.808490  0.638232  0.111949  1
  O  O19  1  0.386879  0.225550  0.359556  1
  O  O20  1  0.000000  0.170521  0.250000  1
  O  O21  1  0.727144  0.789603  0.417353  1
  O  O22  1  0.191510  0.638232  0.388051  1
  O  O23  1  0.808490  0.361768  0.611949  1
  O  O24  1  0.272856  0.210397  0.582647  1
  O  O25  1  0.000000  0.829479  0.750000  1
  O  O26  1  0.613121  0.774450  0.640444  1
  O  O27  1  0.191510  0.361768  0.888051  1
  O  O28  1  0.386879  0.774450  0.859556  1
  O  O29  1  0.727144  0.210397  0.917353  1
