# generated using pymatgen
data_Li6Fe5CoO12
_symmetry_space_group_name_H-M   'P 1'
_cell_length_a   5.09645922
_cell_length_b   5.09645922
_cell_length_c   10.10334324
_cell_angle_alpha   85.82519094
_cell_angle_beta   94.17480906
_cell_angle_gamma   59.87559879
_symmetry_Int_Tables_number   1
_chemical_formula_structural   Li6Fe5CoO12
_chemical_formula_sum   'Li6 Fe5 Co1 O12'
_cell_volume   224.55177244
_cell_formula_units_Z   1
loop_
 _symmetry_equiv_pos_site_id
 _symmetry_equiv_pos_as_xyz
  1  'x, y, z'
loop_
 _atom_site_type_symbol
 _atom_site_label
 _atom_site_symmetry_multiplicity
 _atom_site_fract_x
 _atom_site_fract_y
 _atom_site_fract_z
 _atom_site_occupancy
  Li  Li0  1  0.734320  0.941905  0.241979  1
  Li  Li1  1  0.058095  0.265680  0.241979  1
  Li  Li2  1  0.619823  0.380177  0.758307  1
  Li  Li3  1  0.380177  0.619823  0.241693  1
  Li  Li4  1  0.941905  0.734320  0.758021  1
  Li  Li5  1  0.265680  0.058095  0.758021  1
  Fe  Fe6  1  0.500000  0.500000  0.500000  1
  Fe  Fe7  1  0.333352  0.333352  0.000000  1
  Fe  Fe8  1  0.666648  0.666648  0.000000  1
  Fe  Fe9  1  0.832802  0.832802  0.500000  1
  Fe  Fe10  1  0.167198  0.167198  0.500000  1
  Co  Co11  1  0.000000  0.000000  0.000000  1
  O  O12  1  0.870725  0.129275  0.614910  1
  O  O13  1  0.708795  0.291205  0.109264  1
  O  O14  1  0.796407  0.536917  0.384503  1
  O  O15  1  0.463083  0.203593  0.384503  1
  O  O16  1  0.030093  0.647518  0.109588  1
  O  O17  1  0.352482  0.969907  0.109588  1
  O  O18  1  0.647518  0.030093  0.890412  1
  O  O19  1  0.969907  0.352482  0.890412  1
  O  O20  1  0.536917  0.796407  0.615497  1
  O  O21  1  0.203593  0.463083  0.615497  1
  O  O22  1  0.291205  0.708795  0.890736  1
  O  O23  1  0.129275  0.870725  0.385090  1
