# generated using pymatgen
data_LiFe2OF5
_symmetry_space_group_name_H-M   'P 1'
_cell_length_a   4.68554531
_cell_length_b   5.11225744
_cell_length_c   17.70227518
_cell_angle_alpha   90.00000000
_cell_angle_beta   104.61108068
_cell_angle_gamma   90.00000000
_symmetry_Int_Tables_number   1
_chemical_formula_structural   LiFe2OF5
_chemical_formula_sum   'Li4 Fe8 O4 F20'
_cell_volume   410.32210581
_cell_formula_units_Z   4
loop_
 _symmetry_equiv_pos_site_id
 _symmetry_equiv_pos_as_xyz
  1  'x, y, z'
loop_
 _atom_site_type_symbol
 _atom_site_label
 _atom_site_symmetry_multiplicity
 _atom_site_fract_x
 _atom_site_fract_y
 _atom_site_fract_z
 _atom_site_occupancy
  Li  Li0  1  0.609546  0.504220  0.616822  1
  Li  Li1  1  0.381281  0.014453  0.386285  1
  Li  Li2  1  0.609546  0.495780  0.116822  1
  Li  Li3  1  0.381281  0.985547  0.886285  1
  Fe  Fe4  1  0.695057  0.026494  0.718908  1
  Fe  Fe5  1  0.963538  0.506701  0.939065  1
  Fe  Fe6  1  0.277074  0.501601  0.281974  1
  Fe  Fe7  1  0.048291  0.000645  0.051416  1
  Fe  Fe8  1  0.963538  0.493299  0.439065  1
  Fe  Fe9  1  0.695057  0.973506  0.218908  1
  Fe  Fe10  1  0.277074  0.498399  0.781974  1
  Fe  Fe11  1  0.048291  0.999355  0.551416  1
  O  O12  1  0.470592  0.327110  0.711685  1
  O  O13  1  0.145020  0.355442  0.368759  1
  O  O14  1  0.470592  0.672890  0.211685  1
  O  O15  1  0.145020  0.644558  0.868759  1
  F  F16  1  0.057615  0.839501  0.292665  1
  F  F17  1  0.389344  0.847054  0.626149  1
  F  F18  1  0.746316  0.827699  0.964869  1
  F  F19  1  0.820435  0.322630  0.037601  1
  F  F20  1  0.258388  0.322206  0.537379  1
  F  F21  1  0.192846  0.833289  0.465558  1
  F  F22  1  0.858738  0.842034  0.126131  1
  F  F23  1  0.612147  0.329074  0.875223  1
  F  F24  1  0.534002  0.826491  0.793478  1
  F  F25  1  0.939770  0.310979  0.206036  1
  F  F26  1  0.057615  0.160499  0.792665  1
  F  F27  1  0.389344  0.152946  0.126149  1
  F  F28  1  0.820435  0.677370  0.537601  1
  F  F29  1  0.746316  0.172301  0.464869  1
  F  F30  1  0.192846  0.166711  0.965558  1
  F  F31  1  0.258388  0.677794  0.037379  1
  F  F32  1  0.612147  0.670926  0.375223  1
  F  F33  1  0.858738  0.157966  0.626131  1
  F  F34  1  0.939770  0.689021  0.706036  1
  F  F35  1  0.534002  0.173509  0.293478  1
