# generated using pymatgen
data_K8Li9Mn4O16
_symmetry_space_group_name_H-M   'P 1'
_cell_length_a   5.62044568
_cell_length_b   8.75360352
_cell_length_c   10.67364419
_cell_angle_alpha   88.99112407
_cell_angle_beta   78.56536455
_cell_angle_gamma   89.63192930
_symmetry_Int_Tables_number   1
_chemical_formula_structural   K8Li9Mn4O16
_chemical_formula_sum   'K8 Li9 Mn4 O16'
_cell_volume   514.62903729
_cell_formula_units_Z   1
loop_
 _symmetry_equiv_pos_site_id
 _symmetry_equiv_pos_as_xyz
  1  'x, y, z'
loop_
 _atom_site_type_symbol
 _atom_site_label
 _atom_site_symmetry_multiplicity
 _atom_site_fract_x
 _atom_site_fract_y
 _atom_site_fract_z
 _atom_site_occupancy
  K  K0  1  0.864433  0.010514  0.850698  1
  K  K1  1  0.879476  0.279636  0.396794  1
  K  K2  1  0.670270  0.470432  0.644683  1
  K  K3  1  0.382498  0.219035  0.900848  1
  K  K4  1  0.604598  0.782530  0.102059  1
  K  K5  1  0.342139  0.508467  0.344726  1
  K  K6  1  0.128061  0.715484  0.599590  1
  K  K7  1  0.153462  0.998658  0.151885  1
  Li  Li8  1  0.697251  0.509339  0.927502  1
  Li  Li9  1  0.799310  0.009805  0.574822  1
  Li  Li10  1  0.901941  0.552325  0.202892  1
  Li  Li11  1  0.585228  0.731882  0.797014  1
  Li  Li12  1  0.603976  0.049203  0.298351  1
  Li  Li13  1  0.389474  0.955674  0.699361  1
  Li  Li14  1  0.106244  0.457848  0.796134  1
  Li  Li15  1  0.197671  0.987388  0.429067  1
  Li  Li16  1  0.306191  0.489174  0.069143  1
  Mn  Mn17  1  0.807036  0.294840  0.077419  1
  Mn  Mn18  1  0.694178  0.792678  0.430227  1
  Mn  Mn19  1  0.299383  0.207159  0.573599  1
  Mn  Mn20  1  0.152851  0.706252  0.934220  1
  O  O21  1  0.900930  0.670646  0.839431  1
  O  O22  1  0.872675  0.308093  0.903889  1
  O  O23  1  0.868045  0.973497  0.387435  1
  O  O24  1  0.797700  0.598196  0.399401  1
  O  O25  1  0.633519  0.798540  0.608431  1
  O  O26  1  0.552078  0.158120  0.646907  1
  O  O27  1  0.702821  0.097495  0.107066  1
  O  O28  1  0.377614  0.531604  0.876149  1
  O  O29  1  0.635720  0.476015  0.116485  1
  O  O30  1  0.330027  0.892082  0.880515  1
  O  O31  1  0.446996  0.845624  0.353888  1
  O  O32  1  0.365292  0.195517  0.401649  1
  O  O33  1  0.197934  0.403513  0.604993  1
  O  O34  1  0.127215  0.024952  0.614053  1
  O  O35  1  0.146535  0.690602  0.108332  1
  O  O36  1  0.058354  0.341986  0.150245  1
