# generated using pymatgen
data_Li2FeO2
_symmetry_space_group_name_H-M   'P 1'
_cell_length_a   5.40417244
_cell_length_b   5.40417244
_cell_length_c   5.40417244
_cell_angle_alpha   148.18184546
_cell_angle_beta   139.50459268
_cell_angle_gamma   52.39721298
_symmetry_Int_Tables_number   1
_chemical_formula_structural   Li2FeO2
_chemical_formula_sum   'Li2 Fe1 O2'
_cell_volume   53.73701094
_cell_formula_units_Z   1
loop_
 _symmetry_equiv_pos_site_id
 _symmetry_equiv_pos_as_xyz
  1  'x, y, z'
loop_
 _atom_site_type_symbol
 _atom_site_label
 _atom_site_symmetry_multiplicity
 _atom_site_fract_x
 _atom_site_fract_y
 _atom_site_fract_z
 _atom_site_occupancy
  Li  Li0  1  0.787821  0.787821  0.000000  1
  Li  Li1  1  0.212179  0.212179  0.000000  1
  Fe  Fe2  1  0.500000  0.500000  0.000000  1
  O  O3  1  0.354847  0.854847  0.500000  1
  O  O4  1  0.645153  0.145153  0.500000  1
