# generated using pymatgen
data_LiCu5(PO4)2
_symmetry_space_group_name_H-M   'P 1'
_cell_length_a   5.56710366
_cell_length_b   6.23208882
_cell_length_c   10.41780182
_cell_angle_alpha   89.77507979
_cell_angle_beta   89.37500590
_cell_angle_gamma   89.60697848
_symmetry_Int_Tables_number   1
_chemical_formula_structural   LiCu5(PO4)2
_chemical_formula_sum   'Li2 Cu10 P4 O16'
_cell_volume   361.40966046
_cell_formula_units_Z   2
loop_
 _symmetry_equiv_pos_site_id
 _symmetry_equiv_pos_as_xyz
  1  'x, y, z'
loop_
 _atom_site_type_symbol
 _atom_site_label
 _atom_site_symmetry_multiplicity
 _atom_site_fract_x
 _atom_site_fract_y
 _atom_site_fract_z
 _atom_site_occupancy
  Li  Li0  1  0.152986  0.000325  0.754035  1
  Li  Li1  1  0.672532  0.255151  0.755166  1
  Cu  Cu2  1  0.228903  0.000213  0.256818  1
  Cu  Cu3  1  0.356362  0.242620  0.495596  1
  Cu  Cu4  1  0.347470  0.259478  0.993728  1
  Cu  Cu5  1  0.652874  0.244318  0.253989  1
  Cu  Cu6  1  0.771467  0.507703  0.002943  1
  Cu  Cu7  1  0.776554  0.495810  0.503243  1
  Cu  Cu8  1  0.653249  0.753288  0.253156  1
  Cu  Cu9  1  0.651539  0.717771  0.767247  1
  Cu  Cu10  1  0.347095  0.765988  0.500148  1
  Cu  Cu11  1  0.359345  0.737074  0.995230  1
  P  P12  1  0.841822  0.005702  0.994027  1
  P  P13  1  0.834366  0.000921  0.508438  1
  P  P14  1  0.173888  0.494498  0.746292  1
  P  P15  1  0.160541  0.502334  0.247324  1
  O  O16  1  0.840531  0.007825  0.359762  1
  O  O17  1  0.090036  0.998541  0.566115  1
  O  O18  1  0.831963  0.005038  0.845863  1
  O  O19  1  0.102525  0.003079  0.044493  1
  O  O20  1  0.696077  0.199606  0.566738  1
  O  O21  1  0.703146  0.206926  0.048114  1
  O  O22  1  0.314376  0.292039  0.794995  1
  O  O23  1  0.295983  0.299239  0.299764  1
  O  O24  1  0.162600  0.502621  0.099482  1
  O  O25  1  0.901964  0.504546  0.303336  1
  O  O26  1  0.175359  0.497471  0.597552  1
  O  O27  1  0.910466  0.487102  0.798358  1
  O  O28  1  0.299055  0.700945  0.300002  1
  O  O29  1  0.292765  0.707716  0.795803  1
  O  O30  1  0.696594  0.796866  0.557709  1
  O  O31  1  0.705562  0.807247  0.051942  1
