# generated using pymatgen
data_CdH24C4(BrN2)6
_symmetry_space_group_name_H-M   'P 1'
_cell_length_a   8.36205969
_cell_length_b   19.70182678
_cell_length_c   15.56711233
_cell_angle_alpha   90.00000000
_cell_angle_beta   108.36656637
_cell_angle_gamma   90.00000000
_symmetry_Int_Tables_number   1
_chemical_formula_structural   CdH24C4(BrN2)6
_chemical_formula_sum   'Cd4 H96 C16 Br24 N48'
_cell_volume   2434.00522802
_cell_formula_units_Z   4
loop_
 _symmetry_equiv_pos_site_id
 _symmetry_equiv_pos_as_xyz
  1  'x, y, z'
loop_
 _atom_site_type_symbol
 _atom_site_label
 _atom_site_symmetry_multiplicity
 _atom_site_fract_x
 _atom_site_fract_y
 _atom_site_fract_z
 _atom_site_occupancy
  Cd  Cd0  1  0.211485  0.115311  0.266079  1
  Cd  Cd1  1  0.788515  0.615311  0.233921  1
  Cd  Cd2  1  0.788515  0.884689  0.733921  1
  Cd  Cd3  1  0.211485  0.384689  0.766079  1
  H  H4  1  0.296037  0.811494  0.461841  1
  H  H5  1  0.703963  0.311494  0.038159  1
  H  H6  1  0.703963  0.188506  0.538159  1
  H  H7  1  0.296037  0.688506  0.961841  1
  H  H8  1  0.132615  0.768520  0.379517  1
  H  H9  1  0.867385  0.268520  0.120483  1
  H  H10  1  0.867385  0.231480  0.620483  1
  H  H11  1  0.132615  0.731480  0.879517  1
  H  H12  1  0.203934  0.713861  0.258236  1
  H  H13  1  0.796066  0.213861  0.241764  1
  H  H14  1  0.796066  0.286139  0.741764  1
  H  H15  1  0.203934  0.786139  0.758236  1
  H  H16  1  0.414052  0.693736  0.277275  1
  H  H17  1  0.585948  0.193736  0.222725  1
  H  H18  1  0.585948  0.306264  0.722725  1
  H  H19  1  0.414052  0.806264  0.777275  1
  H  H20  1  0.625438  0.763180  0.380639  1
  H  H21  1  0.374562  0.263180  0.119361  1
  H  H22  1  0.374562  0.236820  0.619361  1
  H  H23  1  0.625438  0.736820  0.880639  1
  H  H24  1  0.566908  0.802379  0.467427  1
  H  H25  1  0.433092  0.302379  0.032573  1
  H  H26  1  0.433092  0.197621  0.532573  1
  H  H27  1  0.566908  0.697621  0.967427  1
  H  H28  1  0.347672  0.951824  0.688537  1
  H  H29  1  0.652328  0.451824  0.811463  1
  H  H30  1  0.652328  0.048176  0.311463  1
  H  H31  1  0.347672  0.548176  0.188537  1
  H  H32  1  0.183660  0.977014  0.727170  1
  H  H33  1  0.816340  0.477014  0.772830  1
  H  H34  1  0.816340  0.022986  0.272830  1
  H  H35  1  0.183660  0.522986  0.227170  1
  H  H36  1  0.968095  0.050373  0.628555  1
  H  H37  1  0.031905  0.550373  0.871445  1
  H  H38  1  0.031905  0.949627  0.371445  1
  H  H39  1  0.968095  0.449627  0.128555  1
  H  H40  1  0.017155  0.089344  0.539045  1
  H  H41  1  0.982845  0.589344  0.960955  1
  H  H42  1  0.982845  0.910656  0.460955  1
  H  H43  1  0.017155  0.410656  0.039045  1
  H  H44  1  0.397938  0.006143  0.565616  1
  H  H45  1  0.602062  0.506143  0.934384  1
  H  H46  1  0.602062  0.993857  0.434384  1
  H  H47  1  0.397938  0.493857  0.065616  1
  H  H48  1  0.238975  0.058922  0.497021  1
  H  H49  1  0.761025  0.558922  0.002979  1
  H  H50  1  0.761025  0.941078  0.502979  1
  H  H51  1  0.238975  0.441078  0.997021  1
  H  H52  1  0.101834  0.939454  0.009682  1
  H  H53  1  0.898166  0.439454  0.490318  1
  H  H54  1  0.898166  0.060546  0.990318  1
  H  H55  1  0.101834  0.560546  0.509682  1
  H  H56  1  0.085206  0.972124  0.111775  1
  H  H57  1  0.914794  0.472124  0.388225  1
  H  H58  1  0.914794  0.027876  0.888225  1
  H  H59  1  0.085206  0.527876  0.611775  1
  H  H60  1  0.979028  0.817182  0.191675  1
  H  H61  1  0.020972  0.317182  0.308325  1
  H  H62  1  0.020972  0.182818  0.808325  1
  H  H63  1  0.979028  0.682818  0.691675  1
  H  H64  1  0.097514  0.891237  0.226485  1
  H  H65  1  0.902486  0.391237  0.273515  1
  H  H66  1  0.902486  0.108763  0.773515  1
  H  H67  1  0.097514  0.608763  0.726485  1
  H  H68  1  0.975150  0.831473  0.962366  1
  H  H69  1  0.024850  0.331473  0.537634  1
  H  H70  1  0.024850  0.168527  0.037634  1
  H  H71  1  0.975150  0.668527  0.462366  1
  H  H72  1  0.989098  0.771718  0.048631  1
  H  H73  1  0.010902  0.271718  0.451369  1
  H  H74  1  0.010902  0.228282  0.951369  1
  H  H75  1  0.989098  0.728282  0.548631  1
  H  H76  1  0.397739  0.166748  0.986557  1
  H  H77  1  0.602261  0.666748  0.513443  1
  H  H78  1  0.602261  0.833252  0.013443  1
  H  H79  1  0.397739  0.333252  0.486557  1
  H  H80  1  0.398825  0.217408  0.894313  1
  H  H81  1  0.601175  0.717408  0.605687  1
  H  H82  1  0.601175  0.782592  0.105687  1
  H  H83  1  0.398825  0.282592  0.394313  1
  H  H84  1  0.477918  0.169522  0.778409  1
  H  H85  1  0.522082  0.669522  0.721591  1
  H  H86  1  0.522082  0.830478  0.221591  1
  H  H87  1  0.477918  0.330478  0.278409  1
  H  H88  1  0.500751  0.082371  0.768676  1
  H  H89  1  0.499249  0.582371  0.731324  1
  H  H90  1  0.499249  0.917629  0.231324  1
  H  H91  1  0.500751  0.417629  0.268676  1
  H  H92  1  0.411699  0.051992  0.977537  1
  H  H93  1  0.588301  0.551992  0.522463  1
  H  H94  1  0.588301  0.948008  0.022463  1
  H  H95  1  0.411699  0.448008  0.477537  1
  H  H96  1  0.490021  0.012666  0.896452  1
  H  H97  1  0.509979  0.512666  0.603548  1
  H  H98  1  0.509979  0.987334  0.103548  1
  H  H99  1  0.490021  0.487334  0.396452  1
  C  C100  1  0.371630  0.759953  0.368159  1
  C  C101  1  0.628370  0.259953  0.131841  1
  C  C102  1  0.628370  0.240047  0.631841  1
  C  C103  1  0.371630  0.740047  0.868159  1
  C  C104  1  0.197170  0.024779  0.611896  1
  C  C105  1  0.802830  0.524779  0.888104  1
  C  C106  1  0.802830  0.975221  0.388104  1
  C  C107  1  0.197170  0.475221  0.111896  1
  C  C108  1  0.043220  0.869597  0.091877  1
  C  C109  1  0.956780  0.369597  0.408123  1
  C  C110  1  0.956780  0.130403  0.908123  1
  C  C111  1  0.043220  0.630403  0.591877  1
  C  C112  1  0.449950  0.116034  0.883888  1
  C  C113  1  0.550050  0.616034  0.616112  1
  C  C114  1  0.550050  0.883966  0.116112  1
  C  C115  1  0.449950  0.383966  0.383888  1
  Br  Br116  1  0.164254  0.252119  0.201151  1
  Br  Br117  1  0.835746  0.752119  0.298849  1
  Br  Br118  1  0.835746  0.747881  0.798849  1
  Br  Br119  1  0.164254  0.247881  0.701151  1
  Br  Br120  1  0.275075  0.977641  0.325126  1
  Br  Br121  1  0.724925  0.477641  0.174874  1
  Br  Br122  1  0.724925  0.022359  0.674874  1
  Br  Br123  1  0.275075  0.522359  0.825126  1
  Br  Br124  1  0.372531  0.091061  0.127554  1
  Br  Br125  1  0.627469  0.591061  0.372446  1
  Br  Br126  1  0.627469  0.908939  0.872446  1
  Br  Br127  1  0.372531  0.408939  0.627554  1
  Br  Br128  1  0.063839  0.155789  0.401817  1
  Br  Br129  1  0.936161  0.655789  0.098183  1
  Br  Br130  1  0.936161  0.844211  0.598183  1
  Br  Br131  1  0.063839  0.344211  0.901817  1
  Br  Br132  1  0.905699  0.076455  0.148646  1
  Br  Br133  1  0.094301  0.576455  0.351354  1
  Br  Br134  1  0.094301  0.923545  0.851354  1
  Br  Br135  1  0.905699  0.423545  0.648646  1
  Br  Br136  1  0.528089  0.148019  0.385713  1
  Br  Br137  1  0.471911  0.648019  0.114287  1
  Br  Br138  1  0.471911  0.851981  0.614287  1
  Br  Br139  1  0.528089  0.351981  0.885713  1
  N  N140  1  0.255769  0.784166  0.402903  1
  N  N141  1  0.744231  0.284166  0.097097  1
  N  N142  1  0.744231  0.215834  0.597097  1
  N  N143  1  0.255769  0.715834  0.902903  1
  N  N144  1  0.327138  0.725268  0.290049  1
  N  N145  1  0.672862  0.225268  0.209951  1
  N  N146  1  0.672862  0.274732  0.709951  1
  N  N147  1  0.327138  0.774732  0.790049  1
  N  N148  1  0.535122  0.772683  0.410998  1
  N  N149  1  0.464878  0.272683  0.089002  1
  N  N150  1  0.464878  0.227317  0.589002  1
  N  N151  1  0.535122  0.727317  0.910998  1
  N  N152  1  0.256593  0.986789  0.686817  1
  N  N153  1  0.743407  0.486789  0.813183  1
  N  N154  1  0.743407  0.013211  0.313183  1
  N  N155  1  0.256593  0.513211  0.186817  1
  N  N156  1  0.055866  0.061500  0.597228  1
  N  N157  1  0.944134  0.561500  0.902772  1
  N  N158  1  0.944134  0.938500  0.402772  1
  N  N159  1  0.055866  0.438500  0.097228  1
  N  N160  1  0.283384  0.028780  0.552821  1
  N  N161  1  0.716616  0.528780  0.947179  1
  N  N162  1  0.716616  0.971220  0.447179  1
  N  N163  1  0.283384  0.471220  0.052821  1
  N  N164  1  0.087394  0.931361  0.071614  1
  N  N165  1  0.912606  0.431361  0.428386  1
  N  N166  1  0.912606  0.068639  0.928386  1
  N  N167  1  0.087394  0.568639  0.571614  1
  N  N168  1  0.042737  0.857051  0.176418  1
  N  N169  1  0.957263  0.357051  0.323582  1
  N  N170  1  0.957263  0.142949  0.823582  1
  N  N171  1  0.042737  0.642949  0.676418  1
  N  N172  1  0.004505  0.820343  0.029516  1
  N  N173  1  0.995495  0.320343  0.470484  1
  N  N174  1  0.995495  0.179657  0.970484  1
  N  N175  1  0.004505  0.679657  0.529516  1
  N  N176  1  0.417289  0.171325  0.925405  1
  N  N177  1  0.582711  0.671325  0.574595  1
  N  N178  1  0.582711  0.828675  0.074595  1
  N  N179  1  0.417289  0.328675  0.425405  1
  N  N180  1  0.481933  0.122625  0.805326  1
  N  N181  1  0.518067  0.622625  0.694674  1
  N  N182  1  0.518067  0.877375  0.194674  1
  N  N183  1  0.481933  0.377375  0.305326  1
  N  N184  1  0.451511  0.055337  0.922079  1
  N  N185  1  0.548489  0.555337  0.577921  1
  N  N186  1  0.548489  0.944663  0.077921  1
  N  N187  1  0.451511  0.444663  0.422079  1
