# generated using pymatgen
data_LiVAsCO7
_symmetry_space_group_name_H-M   'P 1'
_cell_length_a   5.31513571
_cell_length_b   6.48595753
_cell_length_c   8.85712981
_cell_angle_alpha   90.00000000
_cell_angle_beta   94.19899892
_cell_angle_gamma   90.00000000
_symmetry_Int_Tables_number   1
_chemical_formula_structural   LiVAsCO7
_chemical_formula_sum   'Li2 V2 As2 C2 O14'
_cell_volume   304.51882701
_cell_formula_units_Z   2
loop_
 _symmetry_equiv_pos_site_id
 _symmetry_equiv_pos_as_xyz
  1  'x, y, z'
loop_
 _atom_site_type_symbol
 _atom_site_label
 _atom_site_symmetry_multiplicity
 _atom_site_fract_x
 _atom_site_fract_y
 _atom_site_fract_z
 _atom_site_occupancy
  Li  Li0  1  0.773188  0.461002  0.182383  1
  Li  Li1  1  0.226812  0.961002  0.817617  1
  V  V2  1  0.202184  0.245674  0.325436  1
  V  V3  1  0.797816  0.745674  0.674564  1
  As  As4  1  0.283037  0.750039  0.435110  1
  As  As5  1  0.716963  0.250039  0.564890  1
  C  C6  1  0.274318  0.255203  0.059138  1
  C  C7  1  0.725682  0.755203  0.940862  1
  O  O8  1  0.688280  0.715856  0.072931  1
  O  O9  1  0.046672  0.263429  0.115635  1
  O  O10  1  0.454321  0.283044  0.171283  1
  O  O11  1  0.208411  0.962042  0.321284  1
  O  O12  1  0.176695  0.550238  0.323176  1
  O  O13  1  0.858357  0.262472  0.397804  1
  O  O14  1  0.604554  0.753151  0.474208  1
  O  O15  1  0.395446  0.253151  0.525792  1
  O  O16  1  0.141643  0.762472  0.602196  1
  O  O17  1  0.823305  0.050238  0.676824  1
  O  O18  1  0.791589  0.462042  0.678716  1
  O  O19  1  0.545679  0.783044  0.828717  1
  O  O20  1  0.953328  0.763429  0.884365  1
  O  O21  1  0.311720  0.215856  0.927069  1
