# generated using pymatgen
data_FeAg(SeO3)2
_symmetry_space_group_name_H-M   'P 1'
_cell_length_a   5.36774916
_cell_length_b   7.77060250
_cell_length_c   14.16388405
_cell_angle_alpha   90.00000000
_cell_angle_beta   90.00000000
_cell_angle_gamma   90.00000000
_symmetry_Int_Tables_number   1
_chemical_formula_structural   FeAg(SeO3)2
_chemical_formula_sum   'Fe4 Ag4 Se8 O24'
_cell_volume   590.78474003
_cell_formula_units_Z   4
loop_
 _symmetry_equiv_pos_site_id
 _symmetry_equiv_pos_as_xyz
  1  'x, y, z'
loop_
 _atom_site_type_symbol
 _atom_site_label
 _atom_site_symmetry_multiplicity
 _atom_site_fract_x
 _atom_site_fract_y
 _atom_site_fract_z
 _atom_site_occupancy
  Fe  Fe0  1  0.289875  0.694590  0.126075  1
  Fe  Fe1  1  0.789875  0.194590  0.373925  1
  Fe  Fe2  1  0.210125  0.694590  0.626075  1
  Fe  Fe3  1  0.710125  0.194590  0.873925  1
  Ag  Ag4  1  0.867684  0.183660  0.621124  1
  Ag  Ag5  1  0.632316  0.183660  0.121124  1
  Ag  Ag6  1  0.367684  0.683660  0.878876  1
  Ag  Ag7  1  0.132316  0.683660  0.378876  1
  Se  Se8  1  0.302451  0.012547  0.472754  1
  Se  Se9  1  0.271076  0.373966  0.278126  1
  Se  Se10  1  0.802451  0.512547  0.027246  1
  Se  Se11  1  0.228924  0.373966  0.778126  1
  Se  Se12  1  0.197549  0.012547  0.972754  1
  Se  Se13  1  0.728924  0.873966  0.721874  1
  Se  Se14  1  0.771076  0.873966  0.221874  1
  Se  Se15  1  0.697549  0.512547  0.527246  1
  O  O16  1  0.588121  0.680723  0.036574  1
  O  O17  1  0.744004  0.449866  0.912287  1
  O  O18  1  0.512477  0.705027  0.714459  1
  O  O19  1  0.012477  0.205027  0.785541  1
  O  O20  1  0.577807  0.127688  0.488039  1
  O  O21  1  0.496776  0.762867  0.238573  1
  O  O22  1  0.911879  0.680723  0.536574  1
  O  O23  1  0.003224  0.762867  0.738573  1
  O  O24  1  0.487523  0.205027  0.285541  1
  O  O25  1  0.331182  0.439466  0.163698  1
  O  O26  1  0.422193  0.627688  0.511961  1
  O  O27  1  0.244004  0.949866  0.587713  1
  O  O28  1  0.996776  0.262867  0.261427  1
  O  O29  1  0.668818  0.939466  0.836302  1
  O  O30  1  0.987523  0.705027  0.214459  1
  O  O31  1  0.755996  0.449866  0.412287  1
  O  O32  1  0.088121  0.180723  0.463426  1
  O  O33  1  0.077807  0.627688  0.011961  1
  O  O34  1  0.831182  0.939466  0.336302  1
  O  O35  1  0.411879  0.180723  0.963426  1
  O  O36  1  0.922193  0.127688  0.988039  1
  O  O37  1  0.168818  0.439466  0.663698  1
  O  O38  1  0.503224  0.262867  0.761427  1
  O  O39  1  0.255996  0.949866  0.087713  1
