# generated using pymatgen
data_Na3VO4
_symmetry_space_group_name_H-M   'P 1'
_cell_length_a   5.98183271
_cell_length_b   5.98183271
_cell_length_c   5.98183271
_cell_angle_alpha   129.59763755
_cell_angle_beta   129.59763755
_cell_angle_gamma   74.05083150
_symmetry_Int_Tables_number   1
_chemical_formula_structural   Na3VO4
_chemical_formula_sum   'Na3 V1 O4'
_cell_volume   123.92909659
_cell_formula_units_Z   1
loop_
 _symmetry_equiv_pos_site_id
 _symmetry_equiv_pos_as_xyz
  1  'x, y, z'
loop_
 _atom_site_type_symbol
 _atom_site_label
 _atom_site_symmetry_multiplicity
 _atom_site_fract_x
 _atom_site_fract_y
 _atom_site_fract_z
 _atom_site_occupancy
  Na  Na0  1  0.500000  0.500000  0.000000  1
  Na  Na1  1  0.750000  0.250000  0.500000  1
  Na  Na2  1  0.250000  0.750000  0.500000  1
  V  V3  1  0.000000  0.000000  0.000000  1
  O  O4  1  0.094328  0.695751  0.000000  1
  O  O5  1  0.905672  0.905672  0.601423  1
  O  O6  1  0.304249  0.304249  0.398577  1
  O  O7  1  0.695751  0.094328  0.000000  1
