# generated using pymatgen
data_LiMnF3
_symmetry_space_group_name_H-M   'P 1'
_cell_length_a   5.25899792
_cell_length_b   5.41406717
_cell_length_c   8.44338564
_cell_angle_alpha   90.00000000
_cell_angle_beta   90.00000000
_cell_angle_gamma   90.00000000
_symmetry_Int_Tables_number   1
_chemical_formula_structural   LiMnF3
_chemical_formula_sum   'Li4 Mn4 F12'
_cell_volume   240.40487166
_cell_formula_units_Z   4
loop_
 _symmetry_equiv_pos_site_id
 _symmetry_equiv_pos_as_xyz
  1  'x, y, z'
loop_
 _atom_site_type_symbol
 _atom_site_label
 _atom_site_symmetry_multiplicity
 _atom_site_fract_x
 _atom_site_fract_y
 _atom_site_fract_z
 _atom_site_occupancy
  Li  Li0  1  0.483169  0.869420  0.005228  1
  Li  Li1  1  0.983169  0.369420  0.494772  1
  Li  Li2  1  0.483169  0.630580  0.505228  1
  Li  Li3  1  0.983169  0.130580  0.994772  1
  Mn  Mn4  1  0.447144  0.355516  0.175105  1
  Mn  Mn5  1  0.947144  0.855516  0.324895  1
  Mn  Mn6  1  0.447144  0.144484  0.675105  1
  Mn  Mn7  1  0.947144  0.644484  0.824895  1
  F  F8  1  0.656033  0.563313  0.006167  1
  F  F9  1  0.721925  0.057979  0.158119  1
  F  F10  1  0.225001  0.008630  0.157271  1
  F  F11  1  0.725001  0.508630  0.342729  1
  F  F12  1  0.221925  0.557979  0.341881  1
  F  F13  1  0.156033  0.063313  0.493833  1
  F  F14  1  0.656033  0.936687  0.506167  1
  F  F15  1  0.721925  0.442021  0.658119  1
  F  F16  1  0.225001  0.491370  0.657271  1
  F  F17  1  0.725001  0.991370  0.842729  1
  F  F18  1  0.221925  0.942021  0.841881  1
  F  F19  1  0.156033  0.436687  0.993833  1
