# generated using pymatgen
data_MnCo3O8
_symmetry_space_group_name_H-M   'P 1'
_cell_length_a   5.62633872
_cell_length_b   5.62633872
_cell_length_c   8.70885524
_cell_angle_alpha   90.00000000
_cell_angle_beta   90.00000000
_cell_angle_gamma   120.00000000
_symmetry_Int_Tables_number   1
_chemical_formula_structural   MnCo3O8
_chemical_formula_sum   'Mn2 Co6 O16'
_cell_volume   238.75003973
_cell_formula_units_Z   2
loop_
 _symmetry_equiv_pos_site_id
 _symmetry_equiv_pos_as_xyz
  1  'x, y, z'
loop_
 _atom_site_type_symbol
 _atom_site_label
 _atom_site_symmetry_multiplicity
 _atom_site_fract_x
 _atom_site_fract_y
 _atom_site_fract_z
 _atom_site_occupancy
  Mn  Mn0  1  0.333333  0.666667  0.485372  1
  Mn  Mn1  1  0.666667  0.333333  0.985372  1
  Co  Co2  1  0.167415  0.832585  0.209266  1
  Co  Co3  1  0.167415  0.334829  0.209266  1
  Co  Co4  1  0.665171  0.832585  0.209266  1
  Co  Co5  1  0.334829  0.167415  0.709266  1
  Co  Co6  1  0.832585  0.665171  0.709266  1
  Co  Co7  1  0.832585  0.167415  0.709266  1
  O  O8  1  0.164041  0.835959  0.605010  1
  O  O9  1  0.038225  0.519113  0.337275  1
  O  O10  1  0.333333  0.666667  0.098364  1
  O  O11  1  0.000000  0.000000  0.320442  1
  O  O12  1  0.000000  0.000000  0.820442  1
  O  O13  1  0.164041  0.328081  0.605010  1
  O  O14  1  0.480887  0.961775  0.337275  1
  O  O15  1  0.480887  0.519113  0.337275  1
  O  O16  1  0.328081  0.164041  0.105010  1
  O  O17  1  0.671919  0.835959  0.605010  1
  O  O18  1  0.519113  0.480887  0.837275  1
  O  O19  1  0.519113  0.038225  0.837275  1
  O  O20  1  0.666667  0.333333  0.598364  1
  O  O21  1  0.835959  0.671919  0.105010  1
  O  O22  1  0.961775  0.480887  0.837275  1
  O  O23  1  0.835959  0.164041  0.105010  1
