# generated using pymatgen
data_Li4MnP6(H4O11)2
_symmetry_space_group_name_H-M   'P 1'
_cell_length_a   7.01120743
_cell_length_b   7.49344335
_cell_length_c   8.57368707
_cell_angle_alpha   84.98040119
_cell_angle_beta   76.32377548
_cell_angle_gamma   86.00004826
_symmetry_Int_Tables_number   1
_chemical_formula_structural   Li4MnP6(H4O11)2
_chemical_formula_sum   'Li4 Mn1 P6 H8 O22'
_cell_volume   435.43462001
_cell_formula_units_Z   1
loop_
 _symmetry_equiv_pos_site_id
 _symmetry_equiv_pos_as_xyz
  1  'x, y, z'
loop_
 _atom_site_type_symbol
 _atom_site_label
 _atom_site_symmetry_multiplicity
 _atom_site_fract_x
 _atom_site_fract_y
 _atom_site_fract_z
 _atom_site_occupancy
  Li  Li0  1  0.934976  0.648621  0.415426  1
  Li  Li1  1  0.678996  0.558655  0.762201  1
  Li  Li2  1  0.321004  0.441345  0.237799  1
  Li  Li3  1  0.065024  0.351379  0.584574  1
  Mn  Mn4  1  0.000000  0.000000  0.000000  1
  P  P5  1  0.777988  0.981728  0.690985  1
  P  P6  1  0.556679  0.785887  0.166674  1
  P  P7  1  0.345339  0.706965  0.493764  1
  P  P8  1  0.654661  0.293035  0.506236  1
  P  P9  1  0.443321  0.214113  0.833326  1
  P  P10  1  0.222012  0.018272  0.309015  1
  H  H11  1  0.267232  0.749465  0.810074  1
  H  H12  1  0.277444  0.721594  0.992242  1
  H  H13  1  0.983127  0.609584  0.115660  1
  H  H14  1  0.036258  0.587822  0.813615  1
  H  H15  1  0.963742  0.412178  0.186385  1
  H  H16  1  0.016873  0.390416  0.884340  1
  H  H17  1  0.722556  0.278406  0.007758  1
  H  H18  1  0.732768  0.250535  0.189926  1
  O  O19  1  0.436715  0.979230  0.187777  1
  O  O20  1  0.253136  0.910207  0.475419  1
  O  O21  1  0.801643  0.786640  0.661031  1
  O  O22  1  0.068592  0.931309  0.248697  1
  O  O23  1  0.766423  0.819071  0.086672  1
  O  O24  1  0.185404  0.764437  0.922341  1
  O  O25  1  0.547966  0.717506  0.354154  1
  O  O26  1  0.402532  0.677391  0.650748  1
  O  O27  1  0.451991  0.655532  0.097187  1
  O  O28  1  0.980960  0.475016  0.800751  1
  O  O29  1  0.208890  0.578836  0.453012  1
  O  O30  1  0.791110  0.421164  0.546988  1
  O  O31  1  0.019040  0.524984  0.199249  1
  O  O32  1  0.548009  0.344468  0.902813  1
  O  O33  1  0.597468  0.322609  0.349252  1
  O  O34  1  0.452034  0.282494  0.645846  1
  O  O35  1  0.814596  0.235563  0.077659  1
  O  O36  1  0.233577  0.180929  0.913328  1
  O  O37  1  0.931408  0.068691  0.751303  1
  O  O38  1  0.198357  0.213360  0.338969  1
  O  O39  1  0.746864  0.089793  0.524581  1
  O  O40  1  0.563285  0.020770  0.812223  1
