# generated using pymatgen
data_Li3V3P8O29
_symmetry_space_group_name_H-M   'P 1'
_cell_length_a   9.78074609
_cell_length_b   9.78074609
_cell_length_c   14.22839547
_cell_angle_alpha   90.00000000
_cell_angle_beta   90.00000000
_cell_angle_gamma   120.00000000
_symmetry_Int_Tables_number   1
_chemical_formula_structural   Li3V3P8O29
_chemical_formula_sum   'Li6 V6 P16 O58'
_cell_volume   1178.77394667
_cell_formula_units_Z   2
loop_
 _symmetry_equiv_pos_site_id
 _symmetry_equiv_pos_as_xyz
  1  'x, y, z'
loop_
 _atom_site_type_symbol
 _atom_site_label
 _atom_site_symmetry_multiplicity
 _atom_site_fract_x
 _atom_site_fract_y
 _atom_site_fract_z
 _atom_site_occupancy
  Li  Li0  1  0.019699  0.441302  0.057722  1
  Li  Li1  1  0.019699  0.578397  0.557722  1
  Li  Li2  1  0.558698  0.980301  0.557722  1
  Li  Li3  1  0.421603  0.980301  0.057722  1
  Li  Li4  1  0.558698  0.578397  0.057722  1
  Li  Li5  1  0.421603  0.441302  0.557722  1
  V  V6  1  0.331971  0.100529  0.251878  1
  V  V7  1  0.331971  0.231442  0.751878  1
  V  V8  1  0.899471  0.668029  0.751878  1
  V  V9  1  0.768558  0.668029  0.251878  1
  V  V10  1  0.899471  0.231442  0.251878  1
  V  V11  1  0.768558  0.100529  0.751878  1
  P  P12  1  0.016268  0.437136  0.842126  1
  P  P13  1  0.016268  0.579132  0.342126  1
  P  P14  1  0.562864  0.983732  0.342126  1
  P  P15  1  0.666667  0.333333  0.130170  1
  P  P16  1  0.666667  0.333333  0.630170  1
  P  P17  1  0.420868  0.983732  0.842126  1
  P  P18  1  0.246879  0.895216  0.660603  1
  P  P19  1  0.562864  0.579132  0.842126  1
  P  P20  1  0.104784  0.753121  0.160603  1
  P  P21  1  0.420868  0.437136  0.342126  1
  P  P22  1  0.246879  0.351663  0.160603  1
  P  P23  1  0.000000  0.000000  0.369507  1
  P  P24  1  0.000000  0.000000  0.869507  1
  P  P25  1  0.104784  0.351663  0.660603  1
  P  P26  1  0.648337  0.753121  0.660603  1
  P  P27  1  0.648337  0.895216  0.160603  1
  O  O28  1  0.095740  0.437565  0.577569  1
  O  O29  1  0.991269  0.410531  0.329719  1
  O  O30  1  0.095740  0.658175  0.077569  1
  O  O31  1  0.991269  0.580738  0.829719  1
  O  O32  1  0.854404  0.284287  0.820527  1
  O  O33  1  0.817924  0.334635  0.171064  1
  O  O34  1  0.715713  0.145596  0.320527  1
  O  O35  1  0.562435  0.904260  0.077569  1
  O  O36  1  0.589469  0.008731  0.829719  1
  O  O37  1  0.817924  0.483289  0.671064  1
  O  O38  1  0.854404  0.570117  0.320527  1
  O  O39  1  0.665365  0.182076  0.671064  1
  O  O40  1  0.666667  0.333333  0.025599  1
  O  O41  1  0.666667  0.333333  0.525599  1
  O  O42  1  0.516711  0.182076  0.171064  1
  O  O43  1  0.715713  0.570117  0.820527  1
  O  O44  1  0.665365  0.483289  0.171064  1
  O  O45  1  0.419262  0.008731  0.329719  1
  O  O46  1  0.322046  0.869970  0.756710  1
  O  O47  1  0.341825  0.904260  0.577569  1
  O  O48  1  0.346055  0.919468  0.933854  1
  O  O49  1  0.429883  0.145596  0.820527  1
  O  O50  1  0.516711  0.334635  0.671064  1
  O  O51  1  0.249435  0.923260  0.160400  1
  O  O52  1  0.429883  0.284287  0.320527  1
  O  O53  1  0.589469  0.580738  0.329719  1
  O  O54  1  0.130030  0.677954  0.256710  1
  O  O55  1  0.080532  0.653945  0.433854  1
  O  O56  1  0.562435  0.658175  0.577569  1
  O  O57  1  0.076740  0.750565  0.660400  1
  O  O58  1  0.239256  0.048665  0.677946  1
  O  O59  1  0.419262  0.410531  0.829719  1
  O  O60  1  0.149500  0.002358  0.324516  1
  O  O61  1  0.239256  0.190591  0.177946  1
  O  O62  1  0.341825  0.437565  0.077569  1
  O  O63  1  0.346055  0.426587  0.433854  1
  O  O64  1  0.322046  0.452075  0.256710  1
  O  O65  1  0.249435  0.326175  0.660400  1
  O  O66  1  0.997642  0.850500  0.824516  1
  O  O67  1  0.951335  0.760744  0.177946  1
  O  O68  1  0.149500  0.147142  0.824516  1
  O  O69  1  0.000000  0.000000  0.973018  1
  O  O70  1  0.000000  0.000000  0.473018  1
  O  O71  1  0.997642  0.147142  0.324516  1
  O  O72  1  0.809409  0.760744  0.677946  1
  O  O73  1  0.852858  0.850500  0.324516  1
  O  O74  1  0.076740  0.326175  0.160400  1
  O  O75  1  0.130030  0.452075  0.756710  1
  O  O76  1  0.080532  0.426587  0.933854  1
  O  O77  1  0.951335  0.190591  0.677946  1
  O  O78  1  0.852858  0.002358  0.824516  1
  O  O79  1  0.809409  0.048665  0.177946  1
  O  O80  1  0.673825  0.750565  0.160400  1
  O  O81  1  0.573413  0.653945  0.933854  1
  O  O82  1  0.547925  0.677954  0.756710  1
  O  O83  1  0.673825  0.923260  0.660400  1
  O  O84  1  0.573413  0.919468  0.433854  1
  O  O85  1  0.547925  0.869970  0.256710  1
