# generated using pymatgen
data_LiV(PO3)3
_symmetry_space_group_name_H-M   'P 1'
_cell_length_a   5.22871426
_cell_length_b   12.24352927
_cell_length_c   13.20258798
_cell_angle_alpha   90.00000000
_cell_angle_beta   90.00000000
_cell_angle_gamma   90.00000000
_symmetry_Int_Tables_number   1
_chemical_formula_structural   LiV(PO3)3
_chemical_formula_sum   'Li4 V4 P12 O36'
_cell_volume   845.20216943
_cell_formula_units_Z   4
loop_
 _symmetry_equiv_pos_site_id
 _symmetry_equiv_pos_as_xyz
  1  'x, y, z'
loop_
 _atom_site_type_symbol
 _atom_site_label
 _atom_site_symmetry_multiplicity
 _atom_site_fract_x
 _atom_site_fract_y
 _atom_site_fract_z
 _atom_site_occupancy
  Li  Li0  1  0.002495  0.011784  0.250000  1
  Li  Li1  1  0.002495  0.488216  0.750000  1
  Li  Li2  1  0.997505  0.511784  0.250000  1
  Li  Li3  1  0.997505  0.988216  0.750000  1
  V  V4  1  0.000000  0.000000  0.000000  1
  V  V5  1  0.000000  0.500000  0.000000  1
  V  V6  1  0.000000  0.000000  0.500000  1
  V  V7  1  0.000000  0.500000  0.500000  1
  P  P8  1  0.247796  0.750000  0.000000  1
  P  P9  1  0.247796  0.750000  0.500000  1
  P  P10  1  0.506109  0.087285  0.639620  1
  P  P11  1  0.506109  0.412715  0.139620  1
  P  P12  1  0.506109  0.087285  0.860380  1
  P  P13  1  0.506109  0.412715  0.360380  1
  P  P14  1  0.493891  0.587285  0.639620  1
  P  P15  1  0.493891  0.912715  0.360380  1
  P  P16  1  0.493891  0.912715  0.139620  1
  P  P17  1  0.493891  0.587285  0.860380  1
  P  P18  1  0.752204  0.250000  0.000000  1
  P  P19  1  0.752204  0.250000  0.500000  1
  O  O20  1  0.102848  0.661434  0.052774  1
  O  O21  1  0.102848  0.661434  0.447226  1
  O  O22  1  0.102848  0.838566  0.552774  1
  O  O23  1  0.102848  0.838566  0.947226  1
  O  O24  1  0.233178  0.450659  0.132169  1
  O  O25  1  0.233178  0.049341  0.632169  1
  O  O26  1  0.233178  0.450659  0.367831  1
  O  O27  1  0.233178  0.049341  0.867831  1
  O  O28  1  0.284199  0.995558  0.121056  1
  O  O29  1  0.284199  0.995558  0.378944  1
  O  O30  1  0.284199  0.504442  0.878944  1
  O  O31  1  0.284199  0.504442  0.621056  1
  O  O32  1  0.448922  0.861259  0.250000  1
  O  O33  1  0.448922  0.638741  0.750000  1
  O  O34  1  0.457435  0.803944  0.075664  1
  O  O35  1  0.457435  0.696056  0.575664  1
  O  O36  1  0.457435  0.696056  0.924336  1
  O  O37  1  0.457435  0.803944  0.424336  1
  O  O38  1  0.542565  0.196056  0.575664  1
  O  O39  1  0.542565  0.303944  0.075664  1
  O  O40  1  0.542565  0.303944  0.424336  1
  O  O41  1  0.542565  0.196056  0.924336  1
  O  O42  1  0.551078  0.138741  0.750000  1
  O  O43  1  0.551078  0.361259  0.250000  1
  O  O44  1  0.715801  0.495558  0.378944  1
  O  O45  1  0.715801  0.004442  0.621056  1
  O  O46  1  0.715801  0.495558  0.121056  1
  O  O47  1  0.715801  0.004442  0.878944  1
  O  O48  1  0.766822  0.549341  0.867831  1
  O  O49  1  0.766822  0.549341  0.632169  1
  O  O50  1  0.766822  0.950659  0.367831  1
  O  O51  1  0.766822  0.950659  0.132169  1
  O  O52  1  0.897152  0.161434  0.447226  1
  O  O53  1  0.897152  0.338566  0.552774  1
  O  O54  1  0.897152  0.161434  0.052774  1
  O  O55  1  0.897152  0.338566  0.947226  1
