# generated using pymatgen
data_V4O7F5
_symmetry_space_group_name_H-M   'P 1'
_cell_length_a   5.21901590
_cell_length_b   5.33176419
_cell_length_c   8.94748700
_cell_angle_alpha   106.26322748
_cell_angle_beta   89.34376144
_cell_angle_gamma   119.10256224
_symmetry_Int_Tables_number   1
_chemical_formula_structural   V4O7F5
_chemical_formula_sum   'V4 O7 F5'
_cell_volume   206.51660928
_cell_formula_units_Z   1
loop_
 _symmetry_equiv_pos_site_id
 _symmetry_equiv_pos_as_xyz
  1  'x, y, z'
loop_
 _atom_site_type_symbol
 _atom_site_label
 _atom_site_symmetry_multiplicity
 _atom_site_fract_x
 _atom_site_fract_y
 _atom_site_fract_z
 _atom_site_occupancy
  V  V0  1  0.752740  0.287916  0.255509  1
  V  V1  1  0.555877  0.537124  0.506025  1
  V  V2  1  0.233077  0.791843  0.752330  1
  V  V3  1  0.981415  0.018106  0.005171  1
  O  O4  1  0.801842  0.610250  0.130445  1
  O  O5  1  0.699374  0.859818  0.381071  1
  O  O6  1  0.835661  0.150132  0.087871  1
  O  O7  1  0.833932  0.571363  0.664227  1
  O  O8  1  0.156386  0.832467  0.909255  1
  O  O9  1  0.291816  0.110815  0.623281  1
  O  O10  1  0.655060  0.324126  0.411506  1
  F  F11  1  0.325666  0.642193  0.580675  1
  F  F12  1  0.343907  0.074098  0.165403  1
  F  F13  1  0.157469  0.399445  0.331227  1
  F  F14  1  0.216283  0.380528  0.870832  1
  F  F15  1  0.659498  0.909775  0.825171  1
