# generated using pymatgen
data_Li3V2(CO5)2
_symmetry_space_group_name_H-M   'P 1'
_cell_length_a   5.76585753
_cell_length_b   9.58908829
_cell_length_c   11.90259029
_cell_angle_alpha   90.00000000
_cell_angle_beta   90.00000000
_cell_angle_gamma   90.00000000
_symmetry_Int_Tables_number   1
_chemical_formula_structural   Li3V2(CO5)2
_chemical_formula_sum   'Li12 V8 C8 O40'
_cell_volume   658.08608675
_cell_formula_units_Z   4
loop_
 _symmetry_equiv_pos_site_id
 _symmetry_equiv_pos_as_xyz
  1  'x, y, z'
loop_
 _atom_site_type_symbol
 _atom_site_label
 _atom_site_symmetry_multiplicity
 _atom_site_fract_x
 _atom_site_fract_y
 _atom_site_fract_z
 _atom_site_occupancy
  Li  Li0  1  0.745565  0.752881  0.496543  1
  Li  Li1  1  0.254435  0.752881  0.496543  1
  Li  Li2  1  0.500000  0.747899  0.001557  1
  Li  Li3  1  0.000000  0.753380  0.279129  1
  Li  Li4  1  0.000000  0.246620  0.779129  1
  Li  Li5  1  0.500000  0.252101  0.501557  1
  Li  Li6  1  0.745565  0.247119  0.996543  1
  Li  Li7  1  0.254435  0.247119  0.996543  1
  Li  Li8  1  0.000000  0.252218  0.220175  1
  Li  Li9  1  0.500000  0.252330  0.218168  1
  Li  Li10  1  0.000000  0.747782  0.720175  1
  Li  Li11  1  0.500000  0.747670  0.718168  1
  V  V12  1  0.250111  0.989732  0.111488  1
  V  V13  1  0.749889  0.989732  0.111488  1
  V  V14  1  0.749889  0.010268  0.611488  1
  V  V15  1  0.250111  0.010268  0.611488  1
  V  V16  1  0.750315  0.493679  0.388205  1
  V  V17  1  0.249685  0.493679  0.388205  1
  V  V18  1  0.750315  0.506321  0.888205  1
  V  V19  1  0.249685  0.506321  0.888205  1
  C  C20  1  0.249487  0.987616  0.862221  1
  C  C21  1  0.750513  0.987616  0.862221  1
  C  C22  1  0.750513  0.012384  0.362221  1
  C  C23  1  0.249487  0.012384  0.362221  1
  C  C24  1  0.750061  0.490597  0.638974  1
  C  C25  1  0.249939  0.490597  0.638974  1
  C  C26  1  0.750061  0.509403  0.138974  1
  C  C27  1  0.249939  0.509403  0.138974  1
  O  O28  1  0.000000  0.876836  0.147665  1
  O  O29  1  0.500000  0.874210  0.143331  1
  O  O30  1  0.000000  0.881788  0.575994  1
  O  O31  1  0.500000  0.879626  0.577859  1
  O  O32  1  0.761932  0.881737  0.363171  1
  O  O33  1  0.238068  0.881737  0.363171  1
  O  O34  1  0.260101  0.911481  0.954430  1
  O  O35  1  0.739899  0.911481  0.954430  1
  O  O36  1  0.748739  0.914813  0.767067  1
  O  O37  1  0.251261  0.914813  0.767067  1
  O  O38  1  0.748739  0.085187  0.267067  1
  O  O39  1  0.251261  0.085187  0.267067  1
  O  O40  1  0.739899  0.088519  0.454430  1
  O  O41  1  0.260101  0.088519  0.454430  1
  O  O42  1  0.761932  0.118263  0.863171  1
  O  O43  1  0.238068  0.118263  0.863171  1
  O  O44  1  0.000000  0.118212  0.075994  1
  O  O45  1  0.500000  0.120374  0.077859  1
  O  O46  1  0.000000  0.123164  0.647665  1
  O  O47  1  0.500000  0.125790  0.643331  1
  O  O48  1  0.000000  0.376739  0.352656  1
  O  O49  1  0.500000  0.371722  0.354573  1
  O  O50  1  0.000000  0.380521  0.923958  1
  O  O51  1  0.500000  0.385296  0.925508  1
  O  O52  1  0.750245  0.376606  0.137611  1
  O  O53  1  0.249755  0.376606  0.137611  1
  O  O54  1  0.743965  0.415454  0.546648  1
  O  O55  1  0.256035  0.415454  0.546648  1
  O  O56  1  0.756192  0.419603  0.733018  1
  O  O57  1  0.243808  0.419603  0.733018  1
  O  O58  1  0.243808  0.580397  0.233018  1
  O  O59  1  0.756192  0.580397  0.233018  1
  O  O60  1  0.743965  0.584546  0.046648  1
  O  O61  1  0.256035  0.584546  0.046648  1
  O  O62  1  0.750245  0.623394  0.637611  1
  O  O63  1  0.249755  0.623394  0.637611  1
  O  O64  1  0.000000  0.619479  0.423958  1
  O  O65  1  0.500000  0.614704  0.425508  1
  O  O66  1  0.000000  0.623261  0.852656  1
  O  O67  1  0.500000  0.628278  0.854573  1
