# generated using pymatgen
data_K3P4H5O14
_symmetry_space_group_name_H-M   'P 1'
_cell_length_a   9.83100933
_cell_length_b   9.83100933
_cell_length_c   11.11375954
_cell_angle_alpha   55.78784253
_cell_angle_beta   124.21215747
_cell_angle_gamma   125.23240222
_symmetry_Int_Tables_number   1
_chemical_formula_structural   K3P4H5O14
_chemical_formula_sum   'K6 P8 H10 O28'
_cell_volume   679.06474433
_cell_formula_units_Z   2
loop_
 _symmetry_equiv_pos_site_id
 _symmetry_equiv_pos_as_xyz
  1  'x, y, z'
loop_
 _atom_site_type_symbol
 _atom_site_label
 _atom_site_symmetry_multiplicity
 _atom_site_fract_x
 _atom_site_fract_y
 _atom_site_fract_z
 _atom_site_occupancy
  K  K0  1  0.438810  0.438810  0.250000  1
  K  K1  1  0.561190  0.561190  0.750000  1
  K  K2  1  0.208218  0.904625  0.384257  1
  K  K3  1  0.904625  0.208218  0.115743  1
  K  K4  1  0.791782  0.095375  0.615743  1
  K  K5  1  0.095375  0.791782  0.884257  1
  P  P6  1  0.873501  0.514975  0.192909  1
  P  P7  1  0.514975  0.873501  0.307091  1
  P  P8  1  0.126499  0.485025  0.807091  1
  P  P9  1  0.485025  0.126499  0.692909  1
  P  P10  1  0.729227  0.792499  0.016051  1
  P  P11  1  0.792499  0.729227  0.483949  1
  P  P12  1  0.270773  0.207501  0.983949  1
  P  P13  1  0.207501  0.270773  0.516051  1
  H  H14  1  0.000000  0.000000  0.000000  1
  H  H15  1  0.000000  1.000000  0.500000  1
  H  H16  1  0.507007  0.850254  0.948277  1
  H  H17  1  0.850254  0.507007  0.551723  1
  H  H18  1  0.492993  0.149746  0.051723  1
  H  H19  1  0.149746  0.492993  0.448277  1
  H  H20  1  0.726755  0.223126  0.269187  1
  H  H21  1  0.223126  0.726755  0.230813  1
  H  H22  1  0.273245  0.776874  0.730813  1
  H  H23  1  0.776874  0.273245  0.769187  1
  O  O24  1  0.859111  0.507017  0.054990  1
  O  O25  1  0.507017  0.859111  0.445010  1
  O  O26  1  0.140889  0.492983  0.945010  1
  O  O27  1  0.492983  0.140889  0.554990  1
  O  O28  1  0.800723  0.323159  0.312266  1
  O  O29  1  0.323159  0.800723  0.187734  1
  O  O30  1  0.199277  0.676841  0.687734  1
  O  O31  1  0.676841  0.199277  0.812266  1
  O  O32  1  0.056217  0.618995  0.288030  1
  O  O33  1  0.618995  0.056217  0.211970  1
  O  O34  1  0.943783  0.381005  0.711970  1
  O  O35  1  0.381005  0.943783  0.788030  1
  O  O36  1  0.733850  0.596683  0.138914  1
  O  O37  1  0.596683  0.733850  0.361086  1
  O  O38  1  0.266150  0.403317  0.861086  1
  O  O39  1  0.403317  0.266150  0.638914  1
  O  O40  1  0.911029  0.932124  0.077274  1
  O  O41  1  0.932124  0.911029  0.422726  1
  O  O42  1  0.088971  0.067876  0.922726  1
  O  O43  1  0.067876  0.088971  0.577274  1
  O  O44  1  0.677023  0.813058  0.853232  1
  O  O45  1  0.813058  0.677023  0.646768  1
  O  O46  1  0.322977  0.186942  0.146768  1
  O  O47  1  0.186942  0.322977  0.353232  1
  O  O48  1  0.585581  0.784229  0.046838  1
  O  O49  1  0.784229  0.585581  0.453162  1
  O  O50  1  0.414419  0.215771  0.953162  1
  O  O51  1  0.215771  0.414419  0.546838  1
