# generated using pymatgen
data_Na3Mn2P2(CO7)2
_symmetry_space_group_name_H-M   'P 1'
_cell_length_a   6.57663826
_cell_length_b   9.02480523
_cell_length_c   10.41287766
_cell_angle_alpha   91.87790612
_cell_angle_beta   90.41630897
_cell_angle_gamma   91.24930314
_symmetry_Int_Tables_number   1
_chemical_formula_structural   Na3Mn2P2(CO7)2
_chemical_formula_sum   'Na6 Mn4 P4 C4 O28'
_cell_volume   617.53581412
_cell_formula_units_Z   2
loop_
 _symmetry_equiv_pos_site_id
 _symmetry_equiv_pos_as_xyz
  1  'x, y, z'
loop_
 _atom_site_type_symbol
 _atom_site_label
 _atom_site_symmetry_multiplicity
 _atom_site_fract_x
 _atom_site_fract_y
 _atom_site_fract_z
 _atom_site_occupancy
  Na  Na0  1  0.027206  0.240872  0.381977  1
  Na  Na1  1  0.005066  0.239949  0.876221  1
  Na  Na2  1  0.485189  0.239787  0.873784  1
  Na  Na3  1  0.514811  0.760213  0.126216  1
  Na  Na4  1  0.994934  0.760051  0.123779  1
  Na  Na5  1  0.972794  0.759128  0.618023  1
  Mn  Mn6  1  0.746016  0.348129  0.111155  1
  Mn  Mn7  1  0.740052  0.345934  0.603462  1
  Mn  Mn8  1  0.259948  0.654066  0.396538  1
  Mn  Mn9  1  0.253984  0.651871  0.888845  1
  P  P10  1  0.249269  0.428697  0.141920  1
  P  P11  1  0.246310  0.426219  0.641558  1
  P  P12  1  0.753690  0.573781  0.358442  1
  P  P13  1  0.750731  0.571303  0.858080  1
  C  C14  1  0.751733  0.079905  0.135787  1
  C  C15  1  0.747435  0.078249  0.633844  1
  C  C16  1  0.252565  0.921751  0.366156  1
  C  C17  1  0.248267  0.920095  0.864213  1
  O  O18  1  0.244942  0.055339  0.349038  1
  O  O19  1  0.240789  0.057046  0.854103  1
  O  O20  1  0.739571  0.145751  0.023939  1
  O  O21  1  0.745835  0.142518  0.522040  1
  O  O22  1  0.755948  0.177068  0.232130  1
  O  O23  1  0.741185  0.181024  0.729738  1
  O  O24  1  0.061258  0.330115  0.104178  1
  O  O25  1  0.434389  0.335743  0.103792  1
  O  O26  1  0.057955  0.325514  0.608190  1
  O  O27  1  0.433037  0.331447  0.614590  1
  O  O28  1  0.243123  0.469631  0.288103  1
  O  O29  1  0.757392  0.427786  0.430622  1
  O  O30  1  0.241553  0.464072  0.790778  1
  O  O31  1  0.750067  0.422722  0.930842  1
  O  O32  1  0.249933  0.577278  0.069158  1
  O  O33  1  0.758447  0.535928  0.209222  1
  O  O34  1  0.242608  0.572214  0.569378  1
  O  O35  1  0.756877  0.530369  0.711897  1
  O  O36  1  0.566963  0.668553  0.385410  1
  O  O37  1  0.942045  0.674486  0.391810  1
  O  O38  1  0.565611  0.664257  0.896208  1
  O  O39  1  0.938742  0.669885  0.895822  1
  O  O40  1  0.258815  0.818976  0.270262  1
  O  O41  1  0.244052  0.822932  0.767870  1
  O  O42  1  0.254165  0.857482  0.477960  1
  O  O43  1  0.260429  0.854249  0.976061  1
  O  O44  1  0.759211  0.942954  0.145897  1
  O  O45  1  0.755058  0.944661  0.650962  1
