# generated using pymatgen
data_Sm2TiO5
_symmetry_space_group_name_H-M   'P 1'
_cell_length_a   3.81047166
_cell_length_b   10.67958481
_cell_length_c   11.45601212
_cell_angle_alpha   90.00000000
_cell_angle_beta   90.00000000
_cell_angle_gamma   90.00000000
_symmetry_Int_Tables_number   1
_chemical_formula_structural   Sm2TiO5
_chemical_formula_sum   'Sm8 Ti4 O20'
_cell_volume   466.19388146
_cell_formula_units_Z   4
loop_
 _symmetry_equiv_pos_site_id
 _symmetry_equiv_pos_as_xyz
  1  'x, y, z'
loop_
 _atom_site_type_symbol
 _atom_site_label
 _atom_site_symmetry_multiplicity
 _atom_site_fract_x
 _atom_site_fract_y
 _atom_site_fract_z
 _atom_site_occupancy
  Sm  Sm0  1  0.250000  0.109829  0.777189  1
  Sm  Sm1  1  0.250000  0.136861  0.443573  1
  Sm  Sm2  1  0.750000  0.363139  0.943573  1
  Sm  Sm3  1  0.750000  0.390171  0.277189  1
  Sm  Sm4  1  0.250000  0.609829  0.722811  1
  Sm  Sm5  1  0.250000  0.636861  0.056427  1
  Sm  Sm6  1  0.750000  0.863139  0.556427  1
  Sm  Sm7  1  0.750000  0.890171  0.222811  1
  Ti  Ti8  1  0.250000  0.179597  0.121470  1
  Ti  Ti9  1  0.750000  0.320403  0.621470  1
  Ti  Ti10  1  0.250000  0.679597  0.378530  1
  Ti  Ti11  1  0.750000  0.820403  0.878530  1
  O  O12  1  0.750000  0.007167  0.396422  1
  O  O13  1  0.250000  0.016507  0.158175  1
  O  O14  1  0.250000  0.224470  0.960376  1
  O  O15  1  0.750000  0.236006  0.118346  1
  O  O16  1  0.750000  0.236339  0.769284  1
  O  O17  1  0.250000  0.263661  0.269284  1
  O  O18  1  0.250000  0.263994  0.618346  1
  O  O19  1  0.750000  0.275530  0.460376  1
  O  O20  1  0.750000  0.483493  0.658175  1
  O  O21  1  0.250000  0.492833  0.896422  1
  O  O22  1  0.750000  0.507167  0.103578  1
  O  O23  1  0.250000  0.516507  0.341825  1
  O  O24  1  0.250000  0.724470  0.539624  1
  O  O25  1  0.750000  0.736006  0.381654  1
  O  O26  1  0.750000  0.736339  0.730716  1
  O  O27  1  0.250000  0.763661  0.230716  1
  O  O28  1  0.250000  0.763994  0.881654  1
  O  O29  1  0.750000  0.775530  0.039624  1
  O  O30  1  0.750000  0.983493  0.841825  1
  O  O31  1  0.250000  0.992833  0.603578  1
