# generated using pymatgen
data_Li8Cr3SbO12
_symmetry_space_group_name_H-M   'P 1'
_cell_length_a   5.01695881
_cell_length_b   8.54451811
_cell_length_c   5.04783199
_cell_angle_alpha   90.00000000
_cell_angle_beta   90.56339019
_cell_angle_gamma   90.00000000
_symmetry_Int_Tables_number   1
_chemical_formula_structural   Li8Cr3SbO12
_chemical_formula_sum   'Li8 Cr3 Sb1 O12'
_cell_volume   216.37745371
_cell_formula_units_Z   1
loop_
 _symmetry_equiv_pos_site_id
 _symmetry_equiv_pos_as_xyz
  1  'x, y, z'
loop_
 _atom_site_type_symbol
 _atom_site_label
 _atom_site_symmetry_multiplicity
 _atom_site_fract_x
 _atom_site_fract_y
 _atom_site_fract_z
 _atom_site_occupancy
  Li  Li0  1  0.500000  0.076626  0.000000  1
  Li  Li1  1  0.500000  0.246667  0.500000  1
  Li  Li2  1  0.500000  0.932060  0.500000  1
  Li  Li3  1  0.000000  0.277668  0.500000  1
  Li  Li4  1  0.000000  0.579026  0.500000  1
  Li  Li5  1  0.500000  0.768660  0.000000  1
  Li  Li6  1  0.000000  0.741129  0.000000  1
  Li  Li7  1  0.000000  0.440770  0.000000  1
  Cr  Cr8  1  0.500000  0.601581  0.500000  1
  Cr  Cr9  1  0.500000  0.428773  0.000000  1
  Cr  Cr10  1  0.000000  0.907527  0.500000  1
  Sb  Sb11  1  0.000000  0.097307  0.000000  1
  O  O12  1  0.745942  0.258820  0.146700  1
  O  O13  1  0.776604  0.927499  0.170221  1
  O  O14  1  0.721687  0.581008  0.176533  1
  O  O15  1  0.289504  0.435463  0.326304  1
  O  O16  1  0.222186  0.083003  0.330666  1
  O  O17  1  0.259201  0.750079  0.352943  1
  O  O18  1  0.740799  0.750079  0.647057  1
  O  O19  1  0.777814  0.083003  0.669334  1
  O  O20  1  0.710496  0.435463  0.673696  1
  O  O21  1  0.278313  0.581008  0.823467  1
  O  O22  1  0.223396  0.927499  0.829779  1
  O  O23  1  0.254058  0.258820  0.853300  1
