# generated using pymatgen
data_LiMnF3
_symmetry_space_group_name_H-M   'P 1'
_cell_length_a   8.85939983
_cell_length_b   8.85939983
_cell_length_c   6.25491194
_cell_angle_alpha   90.00000000
_cell_angle_beta   90.00000000
_cell_angle_gamma   90.00000000
_symmetry_Int_Tables_number   1
_chemical_formula_structural   LiMnF3
_chemical_formula_sum   'Li8 Mn8 F24'
_cell_volume   490.94156651
_cell_formula_units_Z   8
loop_
 _symmetry_equiv_pos_site_id
 _symmetry_equiv_pos_as_xyz
  1  'x, y, z'
loop_
 _atom_site_type_symbol
 _atom_site_label
 _atom_site_symmetry_multiplicity
 _atom_site_fract_x
 _atom_site_fract_y
 _atom_site_fract_z
 _atom_site_occupancy
  Li  Li0  1  0.948343  0.849283  0.161336  1
  Li  Li1  1  0.849283  0.051657  0.838664  1
  Li  Li2  1  0.150717  0.948343  0.838664  1
  Li  Li3  1  0.051657  0.150717  0.161336  1
  Li  Li4  1  0.448343  0.349283  0.338664  1
  Li  Li5  1  0.349283  0.551657  0.661336  1
  Li  Li6  1  0.650717  0.448343  0.661336  1
  Li  Li7  1  0.551657  0.650717  0.338664  1
  Mn  Mn8  1  0.522787  0.807096  0.897106  1
  Mn  Mn9  1  0.307096  0.977213  0.397106  1
  Mn  Mn10  1  0.692904  0.022787  0.397106  1
  Mn  Mn11  1  0.477213  0.192904  0.897106  1
  Mn  Mn12  1  0.022787  0.307096  0.602894  1
  Mn  Mn13  1  0.807096  0.477213  0.102894  1
  Mn  Mn14  1  0.192904  0.522787  0.102894  1
  Mn  Mn15  1  0.977213  0.692904  0.602894  1
  F  F16  1  0.822241  0.827584  0.437102  1
  F  F17  1  0.949940  0.845480  0.853840  1
  F  F18  1  0.498386  0.858974  0.273365  1
  F  F19  1  0.172416  0.822241  0.562898  1
  F  F20  1  0.641026  0.998386  0.773365  1
  F  F21  1  0.154520  0.949940  0.146160  1
  F  F22  1  0.845480  0.050060  0.146160  1
  F  F23  1  0.358974  0.001614  0.773365  1
  F  F24  1  0.827584  0.177759  0.562898  1
  F  F25  1  0.501614  0.141026  0.273365  1
  F  F26  1  0.050060  0.154520  0.853840  1
  F  F27  1  0.177759  0.172416  0.437102  1
  F  F28  1  0.322241  0.327584  0.062898  1
  F  F29  1  0.449940  0.345480  0.646160  1
  F  F30  1  0.998386  0.358974  0.226635  1
  F  F31  1  0.672416  0.322241  0.937102  1
  F  F32  1  0.141026  0.498386  0.726635  1
  F  F33  1  0.654520  0.449940  0.353840  1
  F  F34  1  0.345480  0.550060  0.353840  1
  F  F35  1  0.858974  0.501614  0.726635  1
  F  F36  1  0.327584  0.677759  0.937102  1
  F  F37  1  0.001614  0.641026  0.226635  1
  F  F38  1  0.550060  0.654520  0.646160  1
  F  F39  1  0.677759  0.672416  0.062898  1
