# generated using pymatgen
data_Bi12Cl5O16
_symmetry_space_group_name_H-M   'P 1'
_cell_length_a   15.50029818
_cell_length_b   15.50029818
_cell_length_c   10.06109893
_cell_angle_alpha   89.23595255
_cell_angle_beta   90.76404745
_cell_angle_gamma   165.32514267
_symmetry_Int_Tables_number   1
_chemical_formula_structural   Bi12Cl5O16
_chemical_formula_sum   'Bi12 Cl5 O16'
_cell_volume   612.32053734
_cell_formula_units_Z   1
loop_
 _symmetry_equiv_pos_site_id
 _symmetry_equiv_pos_as_xyz
  1  'x, y, z'
loop_
 _atom_site_type_symbol
 _atom_site_label
 _atom_site_symmetry_multiplicity
 _atom_site_fract_x
 _atom_site_fract_y
 _atom_site_fract_z
 _atom_site_occupancy
  Bi  Bi0  1  0.941033  0.058967  0.076487  1
  Bi  Bi1  1  0.651723  0.348277  0.070999  1
  Bi  Bi2  1  0.825710  0.174290  0.237982  1
  Bi  Bi3  1  0.533469  0.466531  0.235858  1
  Bi  Bi4  1  0.414626  0.585374  0.400295  1
  Bi  Bi5  1  0.703677  0.296323  0.437312  1
  Bi  Bi6  1  0.296323  0.703677  0.562688  1
  Bi  Bi7  1  0.585374  0.414626  0.599705  1
  Bi  Bi8  1  0.466531  0.533469  0.764142  1
  Bi  Bi9  1  0.174290  0.825710  0.762018  1
  Bi  Bi10  1  0.348277  0.651723  0.929001  1
  Bi  Bi11  1  0.058967  0.941033  0.923513  1
  Cl  Cl12  1  0.219881  0.780119  0.195817  1
  Cl  Cl13  1  0.112542  0.887458  0.346349  1
  Cl  Cl14  1  0.000000  0.000000  0.500000  1
  Cl  Cl15  1  0.887458  0.112542  0.653651  1
  Cl  Cl16  1  0.780119  0.219881  0.804183  1
  O  O17  1  0.865465  0.134535  0.027844  1
  O  O18  1  0.574996  0.425004  0.054018  1
  O  O19  1  0.319460  0.680540  0.121458  1
  O  O20  1  0.019504  0.980496  0.134181  1
  O  O21  1  0.458719  0.541281  0.219382  1
  O  O22  1  0.897458  0.102542  0.297465  1
  O  O23  1  0.341646  0.658354  0.387369  1
  O  O24  1  0.777250  0.222750  0.462650  1
  O  O25  1  0.222750  0.777250  0.537350  1
  O  O26  1  0.658354  0.341646  0.612631  1
  O  O27  1  0.102542  0.897458  0.702535  1
  O  O28  1  0.541281  0.458719  0.780618  1
  O  O29  1  0.980496  0.019504  0.865819  1
  O  O30  1  0.680540  0.319460  0.878542  1
  O  O31  1  0.425004  0.574996  0.945982  1
  O  O32  1  0.134535  0.865465  0.972156  1
