# generated using pymatgen
data_Li2V(CO3)2
_symmetry_space_group_name_H-M   'P 1'
_cell_length_a   7.87448820
_cell_length_b   7.87817956
_cell_length_c   8.48053423
_cell_angle_alpha   68.81162533
_cell_angle_beta   68.82049359
_cell_angle_gamma   76.89730146
_symmetry_Int_Tables_number   1
_chemical_formula_structural   Li2V(CO3)2
_chemical_formula_sum   'Li8 V4 C8 O24'
_cell_volume   454.59975194
_cell_formula_units_Z   4
loop_
 _symmetry_equiv_pos_site_id
 _symmetry_equiv_pos_as_xyz
  1  'x, y, z'
loop_
 _atom_site_type_symbol
 _atom_site_label
 _atom_site_symmetry_multiplicity
 _atom_site_fract_x
 _atom_site_fract_y
 _atom_site_fract_z
 _atom_site_occupancy
  Li  Li0  1  0.657646  0.264589  0.771261  1
  Li  Li1  1  0.452058  0.618116  0.798374  1
  Li  Li2  1  0.073138  0.074469  0.784628  1
  Li  Li3  1  0.180786  0.743393  0.600396  1
  Li  Li4  1  0.547942  0.381884  0.201626  1
  Li  Li5  1  0.342354  0.735411  0.228739  1
  Li  Li6  1  0.819214  0.256607  0.399604  1
  Li  Li7  1  0.926862  0.925531  0.215372  1
  V  V8  1  0.244195  0.254132  0.004230  1
  V  V9  1  0.500000  0.000000  0.500000  1
  V  V10  1  0.755805  0.745868  0.995770  1
  V  V11  1  0.000000  0.500000  0.500000  1
  C  C12  1  0.380692  0.890793  0.910432  1
  C  C13  1  0.629863  0.629277  0.413402  1
  C  C14  1  0.370137  0.370723  0.586598  1
  C  C15  1  0.880572  0.378882  0.911105  1
  C  C16  1  0.619308  0.109207  0.089568  1
  C  C17  1  0.135859  0.129387  0.414897  1
  C  C18  1  0.864141  0.870613  0.585103  1
  C  C19  1  0.119428  0.621118  0.088895  1
  O  O20  1  0.696492  0.036649  0.962488  1
  O  O21  1  0.508484  0.753626  0.927697  1
  O  O22  1  0.197780  0.548874  0.960794  1
  O  O23  1  0.737778  0.007527  0.568406  1
  O  O24  1  0.420917  0.319808  0.728204  1
  O  O25  1  0.324059  0.942617  0.772437  1
  O  O26  1  0.016324  0.250115  0.920884  1
  O  O27  1  0.547743  0.707940  0.536481  1
  O  O28  1  0.452257  0.292060  0.463519  1
  O  O29  1  0.240314  0.503576  0.565978  1
  O  O30  1  0.675941  0.057383  0.227563  1
  O  O31  1  0.922731  0.811315  0.722201  1
  O  O32  1  0.579083  0.680192  0.271796  1
  O  O33  1  0.819688  0.429772  0.775241  1
  O  O34  1  0.262222  0.992473  0.431594  1
  O  O35  1  0.056918  0.204931  0.541446  1
  O  O36  1  0.943082  0.795069  0.458554  1
  O  O37  1  0.491516  0.246374  0.072303  1
  O  O38  1  0.180312  0.570228  0.224759  1
  O  O39  1  0.077269  0.188685  0.277799  1
  O  O40  1  0.759686  0.496424  0.434022  1
  O  O41  1  0.303508  0.963351  0.037512  1
  O  O42  1  0.983676  0.749885  0.079116  1
  O  O43  1  0.802220  0.451126  0.039206  1
