# generated using pymatgen
data_LiCoPO4
_symmetry_space_group_name_H-M   'P 1'
_cell_length_a   8.43420170
_cell_length_b   8.43420170
_cell_length_c   8.43420170
_cell_angle_alpha   33.64285090
_cell_angle_beta   33.64285090
_cell_angle_gamma   33.64285090
_symmetry_Int_Tables_number   1
_chemical_formula_structural   LiCoPO4
_chemical_formula_sum   'Li2 Co2 P2 O8'
_cell_volume   164.05068059
_cell_formula_units_Z   2
loop_
 _symmetry_equiv_pos_site_id
 _symmetry_equiv_pos_as_xyz
  1  'x, y, z'
loop_
 _atom_site_type_symbol
 _atom_site_label
 _atom_site_symmetry_multiplicity
 _atom_site_fract_x
 _atom_site_fract_y
 _atom_site_fract_z
 _atom_site_occupancy
  Li  Li0  1  0.714818  0.714818  0.714818  1
  Li  Li1  1  0.285182  0.285182  0.285182  1
  Co  Co2  1  0.838748  0.838748  0.838748  1
  Co  Co3  1  0.161252  0.161252  0.161252  1
  P  P4  1  0.574373  0.574373  0.574373  1
  P  P5  1  0.425627  0.425627  0.425627  1
  O  O6  1  0.865729  0.255827  0.535853  1
  O  O7  1  0.744173  0.464147  0.134271  1
  O  O8  1  0.134271  0.744173  0.464147  1
  O  O9  1  0.362711  0.362711  0.362711  1
  O  O10  1  0.535853  0.865729  0.255827  1
  O  O11  1  0.255827  0.535853  0.865729  1
  O  O12  1  0.464147  0.134271  0.744173  1
  O  O13  1  0.637289  0.637289  0.637289  1
