# generated using pymatgen
data_Li2V2OF6
_symmetry_space_group_name_H-M   'P 1'
_cell_length_a   5.47911483
_cell_length_b   6.60969934
_cell_length_c   8.76471066
_cell_angle_alpha   107.99687089
_cell_angle_beta   104.53039084
_cell_angle_gamma   85.79910432
_symmetry_Int_Tables_number   1
_chemical_formula_structural   Li2V2OF6
_chemical_formula_sum   'Li4 V4 O2 F12'
_cell_volume   292.22745573
_cell_formula_units_Z   2
loop_
 _symmetry_equiv_pos_site_id
 _symmetry_equiv_pos_as_xyz
  1  'x, y, z'
loop_
 _atom_site_type_symbol
 _atom_site_label
 _atom_site_symmetry_multiplicity
 _atom_site_fract_x
 _atom_site_fract_y
 _atom_site_fract_z
 _atom_site_occupancy
  Li  Li0  1  0.885695  0.575450  0.263408  1
  Li  Li1  1  0.443844  0.765621  0.372052  1
  Li  Li2  1  0.556156  0.234379  0.627948  1
  Li  Li3  1  0.114305  0.424550  0.736592  1
  V  V4  1  0.674656  0.998653  0.183954  1
  V  V5  1  0.225951  0.214290  0.303708  1
  V  V6  1  0.774049  0.785710  0.696292  1
  V  V7  1  0.325344  0.001347  0.816046  1
  O  O8  1  0.550611  0.108939  0.375172  1
  O  O9  1  0.449389  0.891061  0.624828  1
  F  F10  1  0.596643  0.709455  0.153839  1
  F  F11  1  0.050500  0.935721  0.268554  1
  F  F12  1  0.310424  0.081314  0.068842  1
  F  F13  1  0.843412  0.265760  0.199821  1
  F  F14  1  0.246686  0.503211  0.294787  1
  F  F15  1  0.794858  0.683287  0.462814  1
  F  F16  1  0.205142  0.316713  0.537186  1
  F  F17  1  0.753314  0.496789  0.705213  1
  F  F18  1  0.156588  0.734240  0.800179  1
  F  F19  1  0.689576  0.918686  0.931158  1
  F  F20  1  0.949500  0.064279  0.731446  1
  F  F21  1  0.403357  0.290545  0.846161  1
