# generated using pymatgen
data_Y13Tm3O24
_symmetry_space_group_name_H-M   'P 1'
_cell_length_a   9.23581248
_cell_length_b   9.24103457
_cell_length_c   9.24417611
_cell_angle_alpha   109.48201836
_cell_angle_beta   109.44972837
_cell_angle_gamma   109.42393201
_symmetry_Int_Tables_number   1
_chemical_formula_structural   Y13Tm3O24
_chemical_formula_sum   'Y13 Tm3 O24'
_cell_volume   607.78828566
_cell_formula_units_Z   1
loop_
 _symmetry_equiv_pos_site_id
 _symmetry_equiv_pos_as_xyz
  1  'x, y, z'
loop_
 _atom_site_type_symbol
 _atom_site_label
 _atom_site_symmetry_multiplicity
 _atom_site_fract_x
 _atom_site_fract_y
 _atom_site_fract_z
 _atom_site_occupancy
  Y  Y0  1  0.031990  0.281572  0.249679  1
  Y  Y1  1  0.998985  0.500280  0.999980  1
  Y  Y2  1  0.283381  0.248730  0.032630  1
  Y  Y3  1  0.216255  0.750747  0.467523  1
  Y  Y4  1  0.750033  0.534185  0.282804  1
  Y  Y5  1  0.749744  0.032714  0.783626  1
  Y  Y6  1  0.500456  0.500536  0.500960  1
  Y  Y7  1  0.465790  0.216110  0.750468  1
  Y  Y8  1  0.535008  0.784624  0.249108  1
  Y  Y9  1  0.250689  0.466868  0.717237  1
  Y  Y10  1  0.249214  0.966207  0.216029  1
  Y  Y11  1  0.783749  0.249248  0.532526  1
  Y  Y12  1  0.966852  0.717731  0.750340  1
  Tm  Tm13  1  0.999665  0.999742  0.498591  1
  Tm  Tm14  1  0.500453  0.999359  0.999898  1
  Tm  Tm15  1  0.716043  0.751258  0.966722  1
  O  O16  1  0.957299  0.489673  0.228733  1
  O  O17  1  0.543230  0.267901  0.032993  1
  O  O18  1  0.270960  0.542032  0.510161  1
  O  O19  1  0.964502  0.739305  0.010083  1
  O  O20  1  0.774674  0.765055  0.228056  1
  O  O21  1  0.466685  0.956844  0.731843  1
  O  O22  1  0.235702  0.010478  0.467321  1
  O  O23  1  0.261719  0.229043  0.271817  1
  O  O24  1  0.008948  0.775315  0.542452  1
  O  O25  1  0.489835  0.532735  0.260796  1
  O  O26  1  0.767984  0.029752  0.042445  1
  O  O27  1  0.728153  0.270692  0.760279  1
  O  O28  1  0.271337  0.728952  0.238805  1
  O  O29  1  0.232196  0.966256  0.957004  1
  O  O30  1  0.513677  0.471342  0.743464  1
  O  O31  1  0.990424  0.225055  0.457356  1
  O  O32  1  0.764630  0.989043  0.532563  1
  O  O33  1  0.737866  0.770888  0.731226  1
  O  O34  1  0.224860  0.234791  0.767987  1
  O  O35  1  0.533263  0.043132  0.268109  1
  O  O36  1  0.728993  0.457963  0.489778  1
  O  O37  1  0.031797  0.260891  0.989805  1
  O  O38  1  0.459863  0.732137  0.966721  1
  O  O39  1  0.043098  0.510816  0.772083  1
