# generated using pymatgen
data_NaLiMnPCO7
_symmetry_space_group_name_H-M   'P 1'
_cell_length_a   5.27155103
_cell_length_b   6.38583367
_cell_length_c   8.88462865
_cell_angle_alpha   90.00000000
_cell_angle_beta   92.46467396
_cell_angle_gamma   90.00000000
_symmetry_Int_Tables_number   1
_chemical_formula_structural   NaLiMnPCO7
_chemical_formula_sum   'Na2 Li2 Mn2 P2 C2 O14'
_cell_volume   298.80878172
_cell_formula_units_Z   2
loop_
 _symmetry_equiv_pos_site_id
 _symmetry_equiv_pos_as_xyz
  1  'x, y, z'
loop_
 _atom_site_type_symbol
 _atom_site_label
 _atom_site_symmetry_multiplicity
 _atom_site_fract_x
 _atom_site_fract_y
 _atom_site_fract_z
 _atom_site_occupancy
  Na  Na0  1  0.764076  0.523391  0.738337  1
  Na  Na1  1  0.235924  0.023391  0.261663  1
  Li  Li2  1  0.776596  0.046642  0.689323  1
  Li  Li3  1  0.223404  0.546642  0.310677  1
  Mn  Mn4  1  0.224423  0.237706  0.855359  1
  Mn  Mn5  1  0.775577  0.737706  0.144641  1
  P  P6  1  0.289657  0.739741  0.932701  1
  P  P7  1  0.710343  0.239741  0.067299  1
  C  C8  1  0.280960  0.259321  0.569911  1
  C  C9  1  0.719040  0.759321  0.430089  1
  O  O10  1  0.729616  0.789886  0.570548  1
  O  O11  1  0.068506  0.243935  0.645059  1
  O  O12  1  0.487064  0.244419  0.653473  1
  O  O13  1  0.200829  0.931508  0.837731  1
  O  O14  1  0.205588  0.547348  0.836457  1
  O  O15  1  0.823034  0.237711  0.910684  1
  O  O16  1  0.588338  0.738379  0.950709  1
  O  O17  1  0.411662  0.238379  0.049291  1
  O  O18  1  0.176966  0.737711  0.089316  1
  O  O19  1  0.794412  0.047348  0.163543  1
  O  O20  1  0.799171  0.431508  0.162269  1
  O  O21  1  0.512936  0.744419  0.346527  1
  O  O22  1  0.931494  0.743935  0.354941  1
  O  O23  1  0.270384  0.289886  0.429452  1
