# generated using pymatgen
data_Hf2N2O
_symmetry_space_group_name_H-M   'P 1'
_cell_length_a   8.72729360
_cell_length_b   8.73006978
_cell_length_c   8.73213377
_cell_angle_alpha   109.53915138
_cell_angle_beta   109.34299771
_cell_angle_gamma   109.44867254
_symmetry_Int_Tables_number   1
_chemical_formula_structural   Hf2N2O
_chemical_formula_sum   'Hf16 N16 O8'
_cell_volume   512.67016774
_cell_formula_units_Z   8
loop_
 _symmetry_equiv_pos_site_id
 _symmetry_equiv_pos_as_xyz
  1  'x, y, z'
loop_
 _atom_site_type_symbol
 _atom_site_label
 _atom_site_symmetry_multiplicity
 _atom_site_fract_x
 _atom_site_fract_y
 _atom_site_fract_z
 _atom_site_occupancy
  Hf  Hf0  1  0.717721  0.960618  0.258464  1
  Hf  Hf1  1  0.503449  0.506687  0.488443  1
  Hf  Hf2  1  0.250646  0.705725  0.537827  1
  Hf  Hf3  1  0.750748  0.781838  0.969871  1
  Hf  Hf4  1  0.968008  0.755340  0.277800  1
  Hf  Hf5  1  0.470540  0.756213  0.783179  1
  Hf  Hf6  1  0.493536  0.998085  0.990378  1
  Hf  Hf7  1  0.007885  0.017082  0.493722  1
  Hf  Hf8  1  0.984966  0.490555  0.012436  1
  Hf  Hf9  1  0.215974  0.468574  0.251615  1
  Hf  Hf10  1  0.784004  0.524586  0.762150  1
  Hf  Hf11  1  0.033631  0.251447  0.709458  1
  Hf  Hf12  1  0.535387  0.253658  0.213748  1
  Hf  Hf13  1  0.250236  0.210036  0.041522  1
  Hf  Hf14  1  0.749538  0.284651  0.459327  1
  Hf  Hf15  1  0.285086  0.038899  0.747097  1
  N  N16  1  0.509575  0.738936  0.536013  1
  N  N17  1  0.990514  0.455911  0.772832  1
  N  N18  1  0.470257  0.727425  0.041802  1
  N  N19  1  0.965245  0.009890  0.265304  1
  N  N20  1  0.537456  0.271250  0.951707  1
  N  N21  1  0.769899  0.225844  0.237566  1
  N  N22  1  0.033065  0.986642  0.741095  1
  N  N23  1  0.272947  0.509844  0.456893  1
  N  N24  1  0.011797  0.545515  0.225905  1
  N  N25  1  0.228224  0.957526  0.032134  1
  N  N26  1  0.949954  0.224138  0.517187  1
  N  N27  1  0.761527  0.535305  0.009837  1
  N  N28  1  0.545382  0.030949  0.726178  1
  N  N29  1  0.739556  0.726584  0.227078  1
  N  N30  1  0.486948  0.264152  0.468280  1
  N  N31  1  0.271531  0.240520  0.270464  1
  O  O32  1  0.727842  0.757795  0.723057  1
  O  O33  1  0.262444  0.275217  0.774836  1
  O  O34  1  0.447306  0.960810  0.275201  1
  O  O35  1  0.046722  0.771082  0.488701  1
  O  O36  1  0.239734  0.466791  0.981017  1
  O  O37  1  0.771682  0.047768  0.971167  1
  O  O38  1  0.229243  0.771606  0.763724  1
  O  O39  1  0.729797  0.494507  0.544988  1
