# generated using pymatgen
data_Mn6O11F
_symmetry_space_group_name_H-M   'P 1'
_cell_length_a   9.99739456
_cell_length_b   9.99739456
_cell_length_c   2.96935419
_cell_angle_alpha   90.00000000
_cell_angle_beta   90.00000000
_cell_angle_gamma   142.53242514
_symmetry_Int_Tables_number   1
_chemical_formula_structural   Mn6O11F
_chemical_formula_sum   'Mn6 O11 F1'
_cell_volume   180.53537177
_cell_formula_units_Z   1
loop_
 _symmetry_equiv_pos_site_id
 _symmetry_equiv_pos_as_xyz
  1  'x, y, z'
loop_
 _atom_site_type_symbol
 _atom_site_label
 _atom_site_symmetry_multiplicity
 _atom_site_fract_x
 _atom_site_fract_y
 _atom_site_fract_z
 _atom_site_occupancy
  Mn  Mn0  1  0.001548  0.667889  0.000000  1
  Mn  Mn1  1  0.165992  0.499828  0.500000  1
  Mn  Mn2  1  0.499828  0.165992  0.500000  1
  Mn  Mn3  1  0.321266  0.321266  0.000000  1
  Mn  Mn4  1  0.667889  0.001548  1.000000  1
  Mn  Mn5  1  0.849173  0.849173  0.500000  1
  O  O6  1  0.064472  0.601823  0.500000  1
  O  O7  1  0.693864  0.361286  1.000000  1
  O  O8  1  0.972454  0.304769  0.000000  1
  O  O9  1  0.304769  0.972454  0.000000  1
  O  O10  1  0.271380  0.400521  0.500000  1
  O  O11  1  0.601823  0.064472  0.500000  1
  O  O12  1  0.728452  0.930519  0.500000  1
  O  O13  1  0.400521  0.271380  0.500000  1
  O  O14  1  0.031669  0.031669  0.000000  1
  O  O15  1  0.361286  0.693864  1.000000  1
  O  O16  1  0.930519  0.728452  0.500000  1
  F  F17  1  0.633295  0.633295  1.000000  1
