# generated using pymatgen
data_LiVF4
_symmetry_space_group_name_H-M   'P 1'
_cell_length_a   7.87771127
_cell_length_b   7.98148512
_cell_length_c   7.98276935
_cell_angle_alpha   97.00011216
_cell_angle_beta   97.95846782
_cell_angle_gamma   97.84519746
_symmetry_Int_Tables_number   1
_chemical_formula_structural   LiVF4
_chemical_formula_sum   'Li6 V6 F24'
_cell_volume   487.34132147
_cell_formula_units_Z   6
loop_
 _symmetry_equiv_pos_site_id
 _symmetry_equiv_pos_as_xyz
  1  'x, y, z'
loop_
 _atom_site_type_symbol
 _atom_site_label
 _atom_site_symmetry_multiplicity
 _atom_site_fract_x
 _atom_site_fract_y
 _atom_site_fract_z
 _atom_site_occupancy
  Li  Li0  1  0.490562  0.235979  0.572556  1
  Li  Li1  1  0.762315  0.441606  0.523977  1
  Li  Li2  1  0.402670  0.518484  0.734503  1
  Li  Li3  1  0.564627  0.478437  0.236410  1
  Li  Li4  1  0.501089  0.749302  0.435032  1
  Li  Li5  1  0.104225  0.828652  0.269876  1
  V  V6  1  0.451545  0.082924  0.173410  1
  V  V7  1  0.081474  0.183324  0.446724  1
  V  V8  1  0.821900  0.551158  0.913087  1
  V  V9  1  0.176055  0.443582  0.085121  1
  V  V10  1  0.918719  0.830502  0.562016  1
  V  V11  1  0.559198  0.918386  0.830624  1
  F  F12  1  0.458788  0.076072  0.708977  1
  F  F13  1  0.085313  0.037712  0.646227  1
  F  F14  1  0.247225  0.051496  0.317013  1
  F  F15  1  0.650880  0.088257  0.034117  1
  F  F16  1  0.965074  0.364024  0.909620  1
  F  F17  1  0.911681  0.292680  0.538076  1
  F  F18  1  0.564835  0.279211  0.357310  1
  F  F19  1  0.336992  0.260241  0.071026  1
  F  F20  1  0.635456  0.435879  0.715720  1
  F  F21  1  0.286097  0.335149  0.564126  1
  F  F22  1  0.063095  0.322215  0.252512  1
  F  F23  1  0.708488  0.464427  0.083413  1
  F  F24  1  0.295419  0.538786  0.922074  1
  F  F25  1  0.932826  0.671267  0.744875  1
  F  F26  1  0.719773  0.647943  0.438963  1
  F  F27  1  0.360661  0.566190  0.268177  1
  F  F28  1  0.682143  0.742978  0.937134  1
  F  F29  1  0.445418  0.729534  0.655003  1
  F  F30  1  0.081824  0.717901  0.459747  1
  F  F31  1  0.036724  0.647752  0.095449  1
  F  F32  1  0.357297  0.911856  0.976180  1
  F  F33  1  0.744348  0.937919  0.672362  1
  F  F34  1  0.925444  0.963553  0.350092  1
  F  F35  1  0.540359  0.923969  0.304589  1
