# generated using pymatgen
data_Li2MnF5
_symmetry_space_group_name_H-M   'P 1'
_cell_length_a   5.34835430
_cell_length_b   5.34835430
_cell_length_c   9.72933257
_cell_angle_alpha   90.00000000
_cell_angle_beta   90.00000000
_cell_angle_gamma   134.91311507
_symmetry_Int_Tables_number   1
_chemical_formula_structural   Li2MnF5
_chemical_formula_sum   'Li4 Mn2 F10'
_cell_volume   197.09062539
_cell_formula_units_Z   2
loop_
 _symmetry_equiv_pos_site_id
 _symmetry_equiv_pos_as_xyz
  1  'x, y, z'
loop_
 _atom_site_type_symbol
 _atom_site_label
 _atom_site_symmetry_multiplicity
 _atom_site_fract_x
 _atom_site_fract_y
 _atom_site_fract_z
 _atom_site_occupancy
  Li  Li0  1  0.639465  0.360535  0.929045  1
  Li  Li1  1  0.639465  0.360535  0.570955  1
  Li  Li2  1  0.360535  0.639465  0.070955  1
  Li  Li3  1  0.360535  0.639465  0.429045  1
  Mn  Mn4  1  0.690326  0.309674  0.250000  1
  Mn  Mn5  1  0.309674  0.690326  0.750000  1
  F  F6  1  0.554320  0.445680  0.116788  1
  F  F7  1  0.554320  0.445680  0.383212  1
  F  F8  1  0.186721  0.813279  0.904338  1
  F  F9  1  0.186721  0.813279  0.595662  1
  F  F10  1  0.752823  0.247177  0.750000  1
  F  F11  1  0.247177  0.752823  0.250000  1
  F  F12  1  0.813279  0.186721  0.404338  1
  F  F13  1  0.813279  0.186721  0.095662  1
  F  F14  1  0.445680  0.554320  0.616788  1
  F  F15  1  0.445680  0.554320  0.883212  1
