# generated using pymatgen
data_MnAgH8(OF)4
_symmetry_space_group_name_H-M   'P 1'
_cell_length_a   7.01775213
_cell_length_b   7.17153044
_cell_length_c   7.48269487
_cell_angle_alpha   90.00000000
_cell_angle_beta   104.51014554
_cell_angle_gamma   90.00000000
_symmetry_Int_Tables_number   1
_chemical_formula_structural   MnAgH8(OF)4
_chemical_formula_sum   'Mn2 Ag2 H16 O8 F8'
_cell_volume   364.57728190
_cell_formula_units_Z   2
loop_
 _symmetry_equiv_pos_site_id
 _symmetry_equiv_pos_as_xyz
  1  'x, y, z'
loop_
 _atom_site_type_symbol
 _atom_site_label
 _atom_site_symmetry_multiplicity
 _atom_site_fract_x
 _atom_site_fract_y
 _atom_site_fract_z
 _atom_site_occupancy
  Mn  Mn0  1  0.733609  0.750000  0.449615  1
  Mn  Mn1  1  0.266391  0.250000  0.550385  1
  Ag  Ag2  1  0.961531  0.750000  0.962295  1
  Ag  Ag3  1  0.038469  0.250000  0.037705  1
  H  H4  1  0.043068  0.630915  0.365272  1
  H  H5  1  0.956932  0.130915  0.634728  1
  H  H6  1  0.956932  0.369085  0.634728  1
  H  H7  1  0.043068  0.869085  0.365272  1
  H  H8  1  0.469265  0.635604  0.618627  1
  H  H9  1  0.530735  0.135604  0.381373  1
  H  H10  1  0.530735  0.364396  0.381373  1
  H  H11  1  0.469265  0.864396  0.618627  1
  H  H12  1  0.342343  0.540459  0.119698  1
  H  H13  1  0.657657  0.040459  0.880302  1
  H  H14  1  0.657657  0.459541  0.880302  1
  H  H15  1  0.342343  0.959541  0.119698  1
  H  H16  1  0.292810  0.506830  0.903065  1
  H  H17  1  0.707190  0.006830  0.096935  1
  H  H18  1  0.707190  0.493170  0.096935  1
  H  H19  1  0.292810  0.993170  0.903065  1
  O  O20  1  0.957997  0.750000  0.337060  1
  O  O21  1  0.042003  0.250000  0.662940  1
  O  O22  1  0.501433  0.750000  0.554111  1
  O  O23  1  0.498567  0.250000  0.445889  1
  O  O24  1  0.231496  0.521501  0.008644  1
  O  O25  1  0.768504  0.021501  0.991356  1
  O  O26  1  0.768504  0.478499  0.991356  1
  O  O27  1  0.231496  0.978499  0.008644  1
  F  F28  1  0.595912  0.538583  0.272800  1
  F  F29  1  0.404088  0.038583  0.727200  1
  F  F30  1  0.404088  0.461417  0.727200  1
  F  F31  1  0.595912  0.961417  0.272800  1
  F  F32  1  0.856145  0.549543  0.625227  1
  F  F33  1  0.143855  0.049543  0.374773  1
  F  F34  1  0.143855  0.450457  0.374773  1
  F  F35  1  0.856145  0.950457  0.625227  1
