# generated using pymatgen
data_Li4VCr3O8
_symmetry_space_group_name_H-M   'P 1'
_cell_length_a   5.13936850
_cell_length_b   5.96145746
_cell_length_c   10.70666463
_cell_angle_alpha   98.10975979
_cell_angle_beta   103.68721457
_cell_angle_gamma   106.91486231
_symmetry_Int_Tables_number   1
_chemical_formula_structural   Li4VCr3O8
_chemical_formula_sum   'Li8 V2 Cr6 O16'
_cell_volume   297.05182540
_cell_formula_units_Z   2
loop_
 _symmetry_equiv_pos_site_id
 _symmetry_equiv_pos_as_xyz
  1  'x, y, z'
loop_
 _atom_site_type_symbol
 _atom_site_label
 _atom_site_symmetry_multiplicity
 _atom_site_fract_x
 _atom_site_fract_y
 _atom_site_fract_z
 _atom_site_occupancy
  Li  Li0  1  0.871995  0.311081  0.875125  1
  Li  Li1  1  0.627853  0.938969  0.625003  1
  Li  Li2  1  0.128005  0.688919  0.124875  1
  Li  Li3  1  0.372147  0.061031  0.374997  1
  Li  Li4  1  0.874568  0.813039  0.875304  1
  Li  Li5  1  0.625613  0.436884  0.624600  1
  Li  Li6  1  0.125432  0.186961  0.124696  1
  Li  Li7  1  0.374387  0.563116  0.375400  1
  V  V8  1  0.249896  0.624927  0.749861  1
  V  V9  1  0.750104  0.375073  0.250139  1
  Cr  Cr10  1  0.250038  0.124974  0.750103  1
  Cr  Cr11  1  0.500000  0.500000  0.000000  1
  Cr  Cr12  1  0.749962  0.875026  0.249897  1
  Cr  Cr13  1  0.000434  0.249432  0.500102  1
  Cr  Cr14  1  0.500000  0.000000  0.000000  1
  Cr  Cr15  1  0.999566  0.750568  0.499898  1
  O  O16  1  0.041386  0.715966  0.314360  1
  O  O17  1  0.456347  0.538377  0.184913  1
  O  O18  1  0.543653  0.461623  0.815087  1
  O  O19  1  0.958614  0.284034  0.685640  1
  O  O20  1  0.710880  0.911478  0.435506  1
  O  O21  1  0.289120  0.088522  0.564494  1
  O  O22  1  0.788839  0.838852  0.063915  1
  O  O23  1  0.209867  0.661133  0.936194  1
  O  O24  1  0.043779  0.211518  0.315305  1
  O  O25  1  0.458672  0.034264  0.185416  1
  O  O26  1  0.541328  0.965736  0.814584  1
  O  O27  1  0.956221  0.788482  0.684695  1
  O  O28  1  0.289824  0.589244  0.563193  1
  O  O29  1  0.790133  0.338867  0.063806  1
  O  O30  1  0.710176  0.410756  0.436807  1
  O  O31  1  0.211161  0.161148  0.936085  1
