# generated using pymatgen
data_LiFe2(BO3)2
_symmetry_space_group_name_H-M   'P 1'
_cell_length_a   5.23980062
_cell_length_b   9.12593720
_cell_length_c   10.16698215
_cell_angle_alpha   90.60134315
_cell_angle_beta   90.23835227
_cell_angle_gamma   90.09079644
_symmetry_Int_Tables_number   1
_chemical_formula_structural   LiFe2(BO3)2
_chemical_formula_sum   'Li4 Fe8 B8 O24'
_cell_volume   486.13405451
_cell_formula_units_Z   4
loop_
 _symmetry_equiv_pos_site_id
 _symmetry_equiv_pos_as_xyz
  1  'x, y, z'
loop_
 _atom_site_type_symbol
 _atom_site_label
 _atom_site_symmetry_multiplicity
 _atom_site_fract_x
 _atom_site_fract_y
 _atom_site_fract_z
 _atom_site_occupancy
  Li  Li0  1  0.846970  0.825876  0.656438  1
  Li  Li1  1  0.666865  0.672045  0.382242  1
  Li  Li2  1  0.343058  0.321607  0.667480  1
  Li  Li3  1  0.314112  0.328192  0.163151  1
  Fe  Fe4  1  0.851432  0.156813  0.626185  1
  Fe  Fe5  1  0.822145  0.509200  0.126215  1
  Fe  Fe6  1  0.667413  0.007691  0.878980  1
  Fe  Fe7  1  0.680147  0.332067  0.379815  1
  Fe  Fe8  1  0.344996  0.660752  0.629321  1
  Fe  Fe9  1  0.324502  0.988408  0.129328  1
  Fe  Fe10  1  0.151273  0.848877  0.381433  1
  Fe  Fe11  1  0.168971  0.508716  0.882100  1
  B  B12  1  0.837628  0.496883  0.623626  1
  B  B13  1  0.829704  0.166675  0.129563  1
  B  B14  1  0.655096  0.000629  0.376478  1
  B  B15  1  0.673370  0.337225  0.873269  1
  B  B16  1  0.336990  0.996785  0.634251  1
  B  B17  1  0.335206  0.667765  0.133216  1
  B  B18  1  0.180905  0.506441  0.376349  1
  B  B19  1  0.168418  0.835642  0.877765  1
  O  O20  1  0.916570  0.498054  0.351517  1
  O  O21  1  0.918940  0.861221  0.853633  1
  O  O22  1  0.777795  0.203790  0.835464  1
  O  O23  1  0.762099  0.132105  0.421148  1
  O  O24  1  0.779817  0.871748  0.396911  1
  O  O25  1  0.826946  0.447576  0.924117  1
  O  O26  1  0.721827  0.631316  0.613250  1
  O  O27  1  0.674852  0.055759  0.076053  1
  O  O28  1  0.704989  0.369342  0.582812  1
  O  O29  1  0.705380  0.292288  0.178213  1
  O  O30  1  0.585751  0.665828  0.159796  1
  O  O31  1  0.591524  0.984248  0.679469  1
  O  O32  1  0.414905  0.002212  0.317691  1
  O  O33  1  0.417228  0.359976  0.856383  1
  O  O34  1  0.278557  0.703341  0.840055  1
  O  O35  1  0.287048  0.637117  0.419632  1
  O  O36  1  0.329216  0.384816  0.352614  1
  O  O37  1  0.325902  0.944338  0.932337  1
  O  O38  1  0.208621  0.539423  0.083049  1
  O  O39  1  0.224055  0.130938  0.630405  1
  O  O40  1  0.208889  0.870681  0.594057  1
  O  O41  1  0.187580  0.792973  0.158464  1
  O  O42  1  0.088835  0.154427  0.131560  1
  O  O43  1  0.086990  0.484152  0.673037  1
