# generated using pymatgen
data_Li4MnFe3(BO3)4
_symmetry_space_group_name_H-M   'P 1'
_cell_length_a   5.24212324
_cell_length_b   6.02598780
_cell_length_c   16.13566786
_cell_angle_alpha   81.59488399
_cell_angle_beta   89.51560572
_cell_angle_gamma   88.72642106
_symmetry_Int_Tables_number   1
_chemical_formula_structural   Li4MnFe3(BO3)4
_chemical_formula_sum   'Li8 Mn2 Fe6 B8 O24'
_cell_volume   504.10295283
_cell_formula_units_Z   2
loop_
 _symmetry_equiv_pos_site_id
 _symmetry_equiv_pos_as_xyz
  1  'x, y, z'
loop_
 _atom_site_type_symbol
 _atom_site_label
 _atom_site_symmetry_multiplicity
 _atom_site_fract_x
 _atom_site_fract_y
 _atom_site_fract_z
 _atom_site_occupancy
  Li  Li0  1  0.842650  0.815901  0.138300  1
  Li  Li1  1  0.157350  0.184099  0.861700  1
  Li  Li2  1  0.651619  0.934821  0.612824  1
  Li  Li3  1  0.348381  0.065179  0.387176  1
  Li  Li4  1  0.655463  0.438795  0.108278  1
  Li  Li5  1  0.344537  0.561205  0.891722  1
  Li  Li6  1  0.847935  0.316958  0.639763  1
  Li  Li7  1  0.152065  0.683042  0.360237  1
  Mn  Mn8  1  0.670470  0.520305  0.291642  1
  Mn  Mn9  1  0.329530  0.479695  0.708358  1
  Fe  Fe10  1  0.662963  0.022873  0.792358  1
  Fe  Fe11  1  0.170408  0.780852  0.536836  1
  Fe  Fe12  1  0.337037  0.977127  0.207642  1
  Fe  Fe13  1  0.162630  0.273619  0.042603  1
  Fe  Fe14  1  0.829592  0.219148  0.463164  1
  Fe  Fe15  1  0.837370  0.726381  0.957397  1
  B  B16  1  0.327106  0.789809  0.045913  1
  B  B17  1  0.830137  0.036112  0.296387  1
  B  B18  1  0.672894  0.210191  0.954087  1
  B  B19  1  0.169863  0.963888  0.703613  1
  B  B20  1  0.829281  0.535535  0.797818  1
  B  B21  1  0.327747  0.286885  0.544633  1
  B  B22  1  0.170719  0.464465  0.202182  1
  B  B23  1  0.672253  0.713115  0.455367  1
  O  O24  1  0.587084  0.762969  0.055920  1
  O  O25  1  0.182263  0.917775  0.096010  1
  O  O26  1  0.704112  0.928006  0.238233  1
  O  O27  1  0.295888  0.071994  0.761767  1
  O  O28  1  0.791782  0.828215  0.512822  1
  O  O29  1  0.817737  0.082225  0.903990  1
  O  O30  1  0.313601  0.835261  0.653698  1
  O  O31  1  0.089507  0.009047  0.306829  1
  O  O32  1  0.412916  0.237031  0.944080  1
  O  O33  1  0.910493  0.990953  0.693171  1
  O  O34  1  0.686399  0.164739  0.346302  1
  O  O35  1  0.208218  0.171785  0.487178  1
  O  O36  1  0.797125  0.319425  0.012028  1
  O  O37  1  0.320142  0.334525  0.153662  1
  O  O38  1  0.088718  0.511118  0.810831  1
  O  O39  1  0.587496  0.263254  0.557735  1
  O  O40  1  0.911282  0.488882  0.189169  1
  O  O41  1  0.679858  0.665475  0.846338  1
  O  O42  1  0.181492  0.420088  0.591984  1
  O  O43  1  0.202875  0.680575  0.987972  1
  O  O44  1  0.711488  0.426427  0.738572  1
  O  O45  1  0.288512  0.573573  0.261428  1
  O  O46  1  0.818508  0.579912  0.408016  1
  O  O47  1  0.412504  0.736746  0.442265  1
