# generated using pymatgen
data_La2Sb
_symmetry_space_group_name_H-M   'P 1'
_cell_length_a   9.72232647
_cell_length_b   9.72232647
_cell_length_c   9.72232647
_cell_angle_alpha   152.34512331
_cell_angle_beta   152.34512331
_cell_angle_gamma   39.50952087
_symmetry_Int_Tables_number   1
_chemical_formula_structural   La2Sb
_chemical_formula_sum   'La4 Sb2'
_cell_volume   197.61450704
_cell_formula_units_Z   2
loop_
 _symmetry_equiv_pos_site_id
 _symmetry_equiv_pos_as_xyz
  1  'x, y, z'
loop_
 _atom_site_type_symbol
 _atom_site_label
 _atom_site_symmetry_multiplicity
 _atom_site_fract_x
 _atom_site_fract_y
 _atom_site_fract_z
 _atom_site_occupancy
  La  La0  1  0.320527  0.320527  0.000000  1
  La  La1  1  0.679473  0.679473  0.000000  1
  La  La2  1  0.500000  0.000000  0.500000  1
  La  La3  1  0.000000  0.500000  0.500000  1
  Sb  Sb4  1  0.862913  0.862913  0.000000  1
  Sb  Sb5  1  0.137087  0.137087  0.000000  1
