# generated using pymatgen
data_Na5LiFe6(SiO3)12
_symmetry_space_group_name_H-M   'P 1'
_cell_length_a   9.42645532
_cell_length_b   9.42645532
_cell_length_c   9.62658438
_cell_angle_alpha   72.27326022
_cell_angle_beta   107.72673978
_cell_angle_gamma   123.84224696
_symmetry_Int_Tables_number   1
_chemical_formula_structural   Na5LiFe6(SiO3)12
_chemical_formula_sum   'Na5 Li1 Fe6 Si12 O36'
_cell_volume   666.82675134
_cell_formula_units_Z   1
loop_
 _symmetry_equiv_pos_site_id
 _symmetry_equiv_pos_as_xyz
  1  'x, y, z'
loop_
 _atom_site_type_symbol
 _atom_site_label
 _atom_site_symmetry_multiplicity
 _atom_site_fract_x
 _atom_site_fract_y
 _atom_site_fract_z
 _atom_site_occupancy
  Na  Na0  1  0.712220  0.379119  0.666780  1
  Na  Na1  1  0.954428  0.954428  0.500000  1
  Na  Na2  1  0.379119  0.712220  0.333220  1
  Na  Na3  1  0.621086  0.287645  0.166624  1
  Na  Na4  1  0.287645  0.621086  0.833376  1
  Li  Li5  1  0.033984  0.033984  0.000000  1
  Fe  Fe6  1  0.314892  0.981436  0.666418  1
  Fe  Fe7  1  0.351825  0.351825  0.500000  1
  Fe  Fe8  1  0.981436  0.314892  0.333582  1
  Fe  Fe9  1  0.019074  0.686531  0.165899  1
  Fe  Fe10  1  0.648136  0.648136  0.000000  1
  Fe  Fe11  1  0.686531  0.019074  0.834101  1
  Si  Si12  1  0.260219  0.060975  0.306829  1
  Si  Si13  1  0.071802  0.605519  0.524567  1
  Si  Si14  1  0.727183  0.594735  0.357321  1
  Si  Si15  1  0.940332  0.740346  0.809399  1
  Si  Si16  1  0.394139  0.927928  0.024192  1
  Si  Si17  1  0.594735  0.727183  0.642679  1
  Si  Si18  1  0.404766  0.272072  0.858425  1
  Si  Si19  1  0.605519  0.071802  0.475433  1
  Si  Si20  1  0.060975  0.260219  0.693171  1
  Si  Si21  1  0.272072  0.404766  0.141575  1
  Si  Si22  1  0.927928  0.394139  0.975808  1
  Si  Si23  1  0.740346  0.940332  0.190601  1
  O  O24  1  0.437475  0.049700  0.341153  1
  O  O25  1  0.236511  0.773876  0.590888  1
  O  O26  1  0.571846  0.087803  0.627045  1
  O  O27  1  0.894943  0.616646  0.491607  1
  O  O28  1  0.559113  0.430032  0.424088  1
  O  O29  1  0.245281  0.095210  0.458920  1
  O  O30  1  0.717019  0.772006  0.324601  1
  O  O31  1  0.903626  0.108111  0.258350  1
  O  O32  1  0.237895  0.420563  0.293293  1
  O  O33  1  0.949379  0.562379  0.842281  1
  O  O34  1  0.420563  0.237895  0.706707  1
  O  O35  1  0.108111  0.903626  0.741650  1
  O  O36  1  0.772006  0.717019  0.675399  1
  O  O37  1  0.095210  0.245281  0.541080  1
  O  O38  1  0.430032  0.559113  0.575912  1
  O  O39  1  0.226208  0.763128  0.091128  1
  O  O40  1  0.616646  0.894943  0.508393  1
  O  O41  1  0.912186  0.429183  0.126863  1
  O  O42  1  0.087803  0.571846  0.372955  1
  O  O43  1  0.384449  0.105020  0.992379  1
  O  O44  1  0.773876  0.236511  0.409112  1
  O  O45  1  0.570068  0.441173  0.924171  1
  O  O46  1  0.908221  0.761513  0.959746  1
  O  O47  1  0.227062  0.280442  0.828230  1
  O  O48  1  0.895533  0.094836  0.763483  1
  O  O49  1  0.578979  0.762192  0.793814  1
  O  O50  1  0.049700  0.437475  0.658847  1
  O  O51  1  0.762192  0.578979  0.206186  1
  O  O52  1  0.094836  0.895533  0.236517  1
  O  O53  1  0.280442  0.227062  0.171770  1
  O  O54  1  0.761513  0.908221  0.040254  1
  O  O55  1  0.441173  0.570068  0.075829  1
  O  O56  1  0.105020  0.384449  0.007621  1
  O  O57  1  0.429183  0.912186  0.873137  1
  O  O58  1  0.763128  0.226208  0.908872  1
  O  O59  1  0.562379  0.949379  0.157719  1
