# generated using pymatgen
data_Li3MnPCO7
_symmetry_space_group_name_H-M   'P 1'
_cell_length_a   6.57422829
_cell_length_b   8.57925934
_cell_length_c   9.98929681
_cell_angle_alpha   94.61336595
_cell_angle_beta   90.25724616
_cell_angle_gamma   90.49984082
_symmetry_Int_Tables_number   1
_chemical_formula_structural   Li3MnPCO7
_chemical_formula_sum   'Li12 Mn4 P4 C4 O28'
_cell_volume   561.56203700
_cell_formula_units_Z   4
loop_
 _symmetry_equiv_pos_site_id
 _symmetry_equiv_pos_as_xyz
  1  'x, y, z'
loop_
 _atom_site_type_symbol
 _atom_site_label
 _atom_site_symmetry_multiplicity
 _atom_site_fract_x
 _atom_site_fract_y
 _atom_site_fract_z
 _atom_site_occupancy
  Li  Li0  1  0.743520  0.910369  0.382026  1
  Li  Li1  1  0.744814  0.910045  0.879516  1
  Li  Li2  1  0.526851  0.720823  0.122509  1
  Li  Li3  1  0.968149  0.727400  0.623166  1
  Li  Li4  1  0.534269  0.726475  0.622715  1
  Li  Li5  1  0.748738  0.337398  0.105164  1
  Li  Li6  1  0.479892  0.275902  0.368234  1
  Li  Li7  1  0.019542  0.276066  0.367854  1
  Li  Li8  1  0.483952  0.275518  0.889886  1
  Li  Li9  1  0.015007  0.274765  0.889681  1
  Li  Li10  1  0.252643  0.104803  0.113370  1
  Li  Li11  1  0.250968  0.095613  0.618715  1
  Mn  Mn12  1  0.989156  0.730419  0.133985  1
  Mn  Mn13  1  0.253728  0.652834  0.394848  1
  Mn  Mn14  1  0.257817  0.655223  0.877330  1
  Mn  Mn15  1  0.750054  0.339421  0.613601  1
  P  P16  1  0.749843  0.587610  0.360465  1
  P  P17  1  0.750801  0.587115  0.861053  1
  P  P18  1  0.249642  0.406904  0.137875  1
  P  P19  1  0.250193  0.407263  0.638283  1
  C  C20  1  0.244388  0.966166  0.350198  1
  C  C21  1  0.247339  0.966539  0.852317  1
  C  C22  1  0.749135  0.040014  0.148865  1
  C  C23  1  0.750280  0.032974  0.648920  1
  O  O24  1  0.252169  0.930388  0.472562  1
  O  O25  1  0.748958  0.890370  0.181596  1
  O  O26  1  0.243501  0.930188  0.976157  1
  O  O27  1  0.234827  0.850559  0.253849  1
  O  O28  1  0.750786  0.887420  0.679142  1
  O  O29  1  0.249845  0.854018  0.755460  1
  O  O30  1  0.937107  0.689323  0.412112  1
  O  O31  1  0.567711  0.689057  0.415120  1
  O  O32  1  0.939693  0.687602  0.915315  1
  O  O33  1  0.570356  0.689765  0.916631  1
  O  O34  1  0.249816  0.579542  0.092886  1
  O  O35  1  0.750277  0.574404  0.203586  1
  O  O36  1  0.250960  0.578557  0.596645  1
  O  O37  1  0.750035  0.579339  0.703860  1
  O  O38  1  0.250246  0.423201  0.295944  1
  O  O39  1  0.748708  0.422599  0.410108  1
  O  O40  1  0.250569  0.419907  0.795348  1
  O  O41  1  0.749875  0.420669  0.905156  1
  O  O42  1  0.060661  0.312758  0.086564  1
  O  O43  1  0.437799  0.315709  0.086281  1
  O  O44  1  0.433985  0.310738  0.582742  1
  O  O45  1  0.064885  0.309958  0.581610  1
  O  O46  1  0.747137  0.148031  0.244923  1
  O  O47  1  0.249097  0.108497  0.317023  1
  O  O48  1  0.750252  0.143856  0.745676  1
  O  O49  1  0.750415  0.067228  0.024765  1
  O  O50  1  0.249926  0.110457  0.822390  1
  O  O51  1  0.749688  0.068198  0.525971  1
