# generated using pymatgen
data_LiSn(PO3)3
_symmetry_space_group_name_H-M   'P 1'
_cell_length_a   8.80316407
_cell_length_b   9.00997419
_cell_length_c   9.55339750
_cell_angle_alpha   90.00000000
_cell_angle_beta   90.00000000
_cell_angle_gamma   90.00000000
_symmetry_Int_Tables_number   1
_chemical_formula_structural   LiSn(PO3)3
_chemical_formula_sum   'Li4 Sn4 P12 O36'
_cell_volume   757.73996120
_cell_formula_units_Z   4
loop_
 _symmetry_equiv_pos_site_id
 _symmetry_equiv_pos_as_xyz
  1  'x, y, z'
loop_
 _atom_site_type_symbol
 _atom_site_label
 _atom_site_symmetry_multiplicity
 _atom_site_fract_x
 _atom_site_fract_y
 _atom_site_fract_z
 _atom_site_occupancy
  Li  Li0  1  0.097146  0.388580  0.417504  1
  Li  Li1  1  0.402854  0.611420  0.917504  1
  Li  Li2  1  0.597146  0.111420  0.582496  1
  Li  Li3  1  0.902854  0.888580  0.082496  1
  Sn  Sn4  1  0.118757  0.594022  0.145768  1
  Sn  Sn5  1  0.381243  0.405978  0.645768  1
  Sn  Sn6  1  0.618757  0.905978  0.854232  1
  Sn  Sn7  1  0.881243  0.094022  0.354232  1
  P  P8  1  0.053444  0.442560  0.818631  1
  P  P9  1  0.070072  0.212379  0.053047  1
  P  P10  1  0.231796  0.049459  0.555973  1
  P  P11  1  0.268204  0.950541  0.055973  1
  P  P12  1  0.429928  0.787621  0.553047  1
  P  P13  1  0.446556  0.557440  0.318631  1
  P  P14  1  0.553444  0.057440  0.181369  1
  P  P15  1  0.570072  0.287621  0.946953  1
  P  P16  1  0.731796  0.450541  0.444027  1
  P  P17  1  0.768204  0.549459  0.944027  1
  P  P18  1  0.929928  0.712379  0.446953  1
  P  P19  1  0.946556  0.942560  0.681369  1
  O  O20  1  0.030523  0.290985  0.906673  1
  O  O21  1  0.059822  0.611743  0.409860  1
  O  O22  1  0.096770  0.401091  0.671828  1
  O  O23  1  0.117928  0.007220  0.684330  1
  O  O24  1  0.117360  0.324448  0.161762  1
  O  O25  1  0.134345  0.868697  0.116306  1
  O  O26  1  0.143228  0.124990  0.441397  1
  O  O27  1  0.157665  0.547638  0.897207  1
  O  O28  1  0.215201  0.112952  0.003107  1
  O  O29  1  0.284799  0.887048  0.503107  1
  O  O30  1  0.342335  0.452362  0.397207  1
  O  O31  1  0.356772  0.875010  0.941397  1
  O  O32  1  0.365655  0.131303  0.616306  1
  O  O33  1  0.382640  0.675552  0.661762  1
  O  O34  1  0.382072  0.992780  0.184330  1
  O  O35  1  0.403230  0.598909  0.171828  1
  O  O36  1  0.440178  0.388257  0.909860  1
  O  O37  1  0.469477  0.709015  0.406673  1
  O  O38  1  0.530523  0.209015  0.093327  1
  O  O39  1  0.559822  0.888257  0.590140  1
  O  O40  1  0.596770  0.098909  0.328172  1
  O  O41  1  0.617928  0.492780  0.315670  1
  O  O42  1  0.617360  0.175552  0.838238  1
  O  O43  1  0.634345  0.631303  0.883694  1
  O  O44  1  0.643228  0.375010  0.558603  1
  O  O45  1  0.657665  0.952362  0.102793  1
  O  O46  1  0.715201  0.387048  0.996893  1
  O  O47  1  0.784799  0.612952  0.496893  1
  O  O48  1  0.842335  0.047638  0.602793  1
  O  O49  1  0.856772  0.624990  0.058603  1
  O  O50  1  0.865655  0.368697  0.383694  1
  O  O51  1  0.882640  0.824448  0.338238  1
  O  O52  1  0.882072  0.507220  0.815670  1
  O  O53  1  0.903230  0.901091  0.828172  1
  O  O54  1  0.940178  0.111743  0.090140  1
  O  O55  1  0.969477  0.790985  0.593327  1
