# generated using pymatgen
data_MnF3
_symmetry_space_group_name_H-M   'P 1'
_cell_length_a   12.48549549
_cell_length_b   12.48549549
_cell_length_c   3.90742236
_cell_angle_alpha   90.00000000
_cell_angle_beta   90.00000000
_cell_angle_gamma   90.00000000
_symmetry_Int_Tables_number   1
_chemical_formula_structural   MnF3
_chemical_formula_sum   'Mn10 F30'
_cell_volume   609.11868463
_cell_formula_units_Z   10
loop_
 _symmetry_equiv_pos_site_id
 _symmetry_equiv_pos_as_xyz
  1  'x, y, z'
loop_
 _atom_site_type_symbol
 _atom_site_label
 _atom_site_symmetry_multiplicity
 _atom_site_fract_x
 _atom_site_fract_y
 _atom_site_fract_z
 _atom_site_occupancy
  Mn  Mn0  1  0.500000  0.000000  0.500000  1
  Mn  Mn1  1  0.207643  0.077841  0.500000  1
  Mn  Mn2  1  0.922159  0.207643  0.500000  1
  Mn  Mn3  1  0.422159  0.292357  0.500000  1
  Mn  Mn4  1  0.707643  0.422159  0.500000  1
  Mn  Mn5  1  0.000000  0.500000  0.500000  1
  Mn  Mn6  1  0.292357  0.577841  0.500000  1
  Mn  Mn7  1  0.577841  0.707643  0.500000  1
  Mn  Mn8  1  0.077841  0.792357  0.500000  1
  Mn  Mn9  1  0.792357  0.922159  0.500000  1
  F  F10  1  0.500000  0.000000  0.000000  1
  F  F11  1  0.653583  0.998093  0.500000  1
  F  F12  1  0.855895  0.061218  0.500000  1
  F  F13  1  0.208272  0.079002  0.000000  1
  F  F14  1  0.061218  0.144105  0.500000  1
  F  F15  1  0.498093  0.153583  0.500000  1
  F  F16  1  0.920998  0.208272  0.000000  1
  F  F17  1  0.283670  0.216330  0.500000  1
  F  F18  1  0.783670  0.283670  0.500000  1
  F  F19  1  0.420998  0.291728  0.000000  1
  F  F20  1  0.998093  0.346417  0.500000  1
  F  F21  1  0.561218  0.355895  0.500000  1
  F  F22  1  0.708272  0.420998  0.000000  1
  F  F23  1  0.355895  0.438782  0.500000  1
  F  F24  1  0.153583  0.501907  0.500000  1
  F  F25  1  0.000000  0.500000  0.000000  1
  F  F26  1  0.846417  0.498093  0.500000  1
  F  F27  1  0.644105  0.561218  0.500000  1
  F  F28  1  0.291728  0.579002  0.000000  1
  F  F29  1  0.438782  0.644105  0.500000  1
  F  F30  1  0.001907  0.653583  0.500000  1
  F  F31  1  0.579002  0.708272  0.000000  1
  F  F32  1  0.216330  0.716330  0.500000  1
  F  F33  1  0.716330  0.783670  0.500000  1
  F  F34  1  0.079002  0.791728  0.000000  1
  F  F35  1  0.501907  0.846417  0.500000  1
  F  F36  1  0.938782  0.855895  0.500000  1
  F  F37  1  0.791728  0.920998  0.000000  1
  F  F38  1  0.144105  0.938782  0.500000  1
  F  F39  1  0.346417  0.001907  0.500000  1
