# generated using pymatgen
data_CaCeO3
_symmetry_space_group_name_H-M   'P 1'
_cell_length_a   5.84071885
_cell_length_b   6.06214984
_cell_length_c   8.51260160
_cell_angle_alpha   90.00000000
_cell_angle_beta   90.00000000
_cell_angle_gamma   90.00000000
_symmetry_Int_Tables_number   1
_chemical_formula_structural   CaCeO3
_chemical_formula_sum   'Ca4 Ce4 O12'
_cell_volume   301.40834795
_cell_formula_units_Z   4
loop_
 _symmetry_equiv_pos_site_id
 _symmetry_equiv_pos_as_xyz
  1  'x, y, z'
loop_
 _atom_site_type_symbol
 _atom_site_label
 _atom_site_symmetry_multiplicity
 _atom_site_fract_x
 _atom_site_fract_y
 _atom_site_fract_z
 _atom_site_occupancy
  Ca  Ca0  1  0.012145  0.949155  0.750000  1
  Ca  Ca1  1  0.487855  0.449155  0.750000  1
  Ca  Ca2  1  0.512145  0.550845  0.250000  1
  Ca  Ca3  1  0.987855  0.050845  0.250000  1
  Ce  Ce4  1  0.000000  0.500000  0.000000  1
  Ce  Ce5  1  0.000000  0.500000  0.500000  1
  Ce  Ce6  1  0.500000  0.000000  0.000000  1
  Ce  Ce7  1  0.500000  0.000000  0.500000  1
  O  O8  1  0.130182  0.431353  0.250000  1
  O  O9  1  0.187915  0.189098  0.569877  1
  O  O10  1  0.187915  0.189098  0.930123  1
  O  O11  1  0.312085  0.689098  0.569877  1
  O  O12  1  0.312085  0.689098  0.930123  1
  O  O13  1  0.369818  0.931353  0.250000  1
  O  O14  1  0.630182  0.068647  0.750000  1
  O  O15  1  0.687915  0.310902  0.069877  1
  O  O16  1  0.687915  0.310902  0.430123  1
  O  O17  1  0.812085  0.810902  0.069877  1
  O  O18  1  0.812085  0.810902  0.430123  1
  O  O19  1  0.869818  0.568647  0.750000  1
