# generated using pymatgen
data_VF5
_symmetry_space_group_name_H-M   'P 1'
_cell_length_a   5.48027002
_cell_length_b   5.48027002
_cell_length_c   6.27629962
_cell_angle_alpha   75.16251135
_cell_angle_beta   104.83748865
_cell_angle_gamma   103.48041405
_symmetry_Int_Tables_number   1
_chemical_formula_structural   VF5
_chemical_formula_sum   'V2 F10'
_cell_volume   173.28315593
_cell_formula_units_Z   2
loop_
 _symmetry_equiv_pos_site_id
 _symmetry_equiv_pos_as_xyz
  1  'x, y, z'
loop_
 _atom_site_type_symbol
 _atom_site_label
 _atom_site_symmetry_multiplicity
 _atom_site_fract_x
 _atom_site_fract_y
 _atom_site_fract_z
 _atom_site_occupancy
  V  V0  1  0.589808  0.589808  0.250000  1
  V  V1  1  0.410192  0.410192  0.750000  1
  F  F2  1  0.344044  0.346057  0.056997  1
  F  F3  1  0.768201  0.338175  0.346617  1
  F  F4  1  0.847928  0.847928  0.250000  1
  F  F5  1  0.338175  0.768201  0.153383  1
  F  F6  1  0.346057  0.344044  0.443003  1
  F  F7  1  0.653943  0.655956  0.556997  1
  F  F8  1  0.661825  0.231799  0.846617  1
  F  F9  1  0.152072  0.152072  0.750000  1
  F  F10  1  0.231799  0.661825  0.653383  1
  F  F11  1  0.655956  0.653943  0.943003  1
