# generated using pymatgen
data_Li2MnPCO7
_symmetry_space_group_name_H-M   'P 1'
_cell_length_a   5.02429236
_cell_length_b   6.46020118
_cell_length_c   8.44994279
_cell_angle_alpha   90.83095922
_cell_angle_beta   93.72435054
_cell_angle_gamma   90.08287733
_symmetry_Int_Tables_number   1
_chemical_formula_structural   Li2MnPCO7
_chemical_formula_sum   'Li4 Mn2 P2 C2 O14'
_cell_volume   273.65893906
_cell_formula_units_Z   2
loop_
 _symmetry_equiv_pos_site_id
 _symmetry_equiv_pos_as_xyz
  1  'x, y, z'
loop_
 _atom_site_type_symbol
 _atom_site_label
 _atom_site_symmetry_multiplicity
 _atom_site_fract_x
 _atom_site_fract_y
 _atom_site_fract_z
 _atom_site_occupancy
  Li  Li0  1  0.744056  0.960914  0.265148  1
  Li  Li1  1  0.744150  0.532815  0.263693  1
  Li  Li2  1  0.254230  0.468563  0.732496  1
  Li  Li3  1  0.775482  0.235499  0.891885  1
  Mn  Mn4  1  0.192908  0.248232  0.336255  1
  Mn  Mn5  1  0.809412  0.753957  0.675618  1
  P  P6  1  0.266556  0.745480  0.416551  1
  P  P7  1  0.718161  0.255553  0.584259  1
  C  C8  1  0.290522  0.259236  0.044101  1
  C  C9  1  0.725636  0.742152  0.959487  1
  O  O10  1  0.040727  0.249485  0.069473  1
  O  O11  1  0.656230  0.743968  0.100735  1
  O  O12  1  0.458432  0.245066  0.174593  1
  O  O13  1  0.157584  0.939806  0.327076  1
  O  O14  1  0.157904  0.557548  0.313750  1
  O  O15  1  0.834912  0.248978  0.416374  1
  O  O16  1  0.577252  0.746509  0.434773  1
  O  O17  1  0.415411  0.287369  0.553666  1
  O  O18  1  0.159459  0.735524  0.584057  1
  O  O19  1  0.789834  0.064545  0.683187  1
  O  O20  1  0.841110  0.434168  0.690164  1
  O  O21  1  0.544101  0.736292  0.836940  1
  O  O22  1  0.387588  0.282888  0.911420  1
  O  O23  1  0.968004  0.749266  0.918076  1
