# generated using pymatgen
data_Li4Ti2Cr3Co3O16
_symmetry_space_group_name_H-M   'P 1'
_cell_length_a   5.75011046
_cell_length_b   5.77882195
_cell_length_c   9.38243887
_cell_angle_alpha   89.11950133
_cell_angle_beta   89.03394835
_cell_angle_gamma   60.34735446
_symmetry_Int_Tables_number   1
_chemical_formula_structural   Li4Ti2Cr3Co3O16
_chemical_formula_sum   'Li4 Ti2 Cr3 Co3 O16'
_cell_volume   270.89153531
_cell_formula_units_Z   1
loop_
 _symmetry_equiv_pos_site_id
 _symmetry_equiv_pos_as_xyz
  1  'x, y, z'
loop_
 _atom_site_type_symbol
 _atom_site_label
 _atom_site_symmetry_multiplicity
 _atom_site_fract_x
 _atom_site_fract_y
 _atom_site_fract_z
 _atom_site_occupancy
  Li  Li0  1  0.665530  0.666051  0.889601  1
  Li  Li1  1  0.997797  0.994222  0.993431  1
  Li  Li2  1  0.998842  0.997772  0.496752  1
  Li  Li3  1  0.330200  0.334065  0.394927  1
  Ti  Ti4  1  0.674451  0.667884  0.499420  1
  Ti  Ti5  1  0.338710  0.335690  0.997441  1
  Cr  Cr6  1  0.348567  0.820036  0.222179  1
  Cr  Cr7  1  0.829573  0.342047  0.213125  1
  Cr  Cr8  1  0.173673  0.172915  0.723197  1
  Co  Co9  1  0.828814  0.829959  0.213220  1
  Co  Co10  1  0.171282  0.657884  0.713017  1
  Co  Co11  1  0.657889  0.171131  0.713027  1
  O  O12  1  0.332681  0.834765  0.598202  1
  O  O13  1  0.508172  0.526756  0.343973  1
  O  O14  1  0.657985  0.681675  0.103821  1
  O  O15  1  0.006391  0.988251  0.304850  1
  O  O16  1  0.999649  0.999369  0.801751  1
  O  O17  1  0.834556  0.332317  0.597611  1
  O  O18  1  0.522324  0.961515  0.339378  1
  O  O19  1  0.958105  0.529438  0.339764  1
  O  O20  1  0.170092  0.162001  0.094389  1
  O  O21  1  0.832783  0.833839  0.600954  1
  O  O22  1  0.039291  0.480164  0.839424  1
  O  O23  1  0.480288  0.039591  0.839381  1
  O  O24  1  0.332654  0.333142  0.608400  1
  O  O25  1  0.166302  0.665668  0.098099  1
  O  O26  1  0.477983  0.477753  0.832741  1
  O  O27  1  0.665117  0.164400  0.095763  1
