# generated using pymatgen
data_Li2NiH8(CO5)2
_symmetry_space_group_name_H-M   'P 1'
_cell_length_a   6.05957713
_cell_length_b   5.89106951
_cell_length_c   12.08555668
_cell_angle_alpha   90.00000000
_cell_angle_beta   112.07528747
_cell_angle_gamma   90.00000000
_symmetry_Int_Tables_number   1
_chemical_formula_structural   Li2NiH8(CO5)2
_chemical_formula_sum   'Li4 Ni2 H16 C4 O20'
_cell_volume   399.79557512
_cell_formula_units_Z   2
loop_
 _symmetry_equiv_pos_site_id
 _symmetry_equiv_pos_as_xyz
  1  'x, y, z'
loop_
 _atom_site_type_symbol
 _atom_site_label
 _atom_site_symmetry_multiplicity
 _atom_site_fract_x
 _atom_site_fract_y
 _atom_site_fract_z
 _atom_site_occupancy
  Li  Li0  1  0.278350  0.277072  0.184555  1
  Li  Li1  1  0.721650  0.777072  0.315445  1
  Li  Li2  1  0.278350  0.222928  0.684555  1
  Li  Li3  1  0.721650  0.722928  0.815445  1
  Ni  Ni4  1  0.500000  0.000000  0.000000  1
  Ni  Ni5  1  0.500000  0.500000  0.500000  1
  H  H6  1  0.265288  0.687872  0.016197  1
  H  H7  1  0.829269  0.672860  0.071420  1
  H  H8  1  0.949580  0.910252  0.103609  1
  H  H9  1  0.309621  0.835617  0.136586  1
  H  H10  1  0.050420  0.410252  0.396391  1
  H  H11  1  0.170731  0.172860  0.428580  1
  H  H12  1  0.690379  0.335617  0.363414  1
  H  H13  1  0.734712  0.187872  0.483803  1
  H  H14  1  0.265288  0.812128  0.516197  1
  H  H15  1  0.309621  0.664383  0.636586  1
  H  H16  1  0.829269  0.827140  0.571420  1
  H  H17  1  0.949580  0.589748  0.603609  1
  H  H18  1  0.690379  0.164383  0.863414  1
  H  H19  1  0.050420  0.089748  0.896391  1
  H  H20  1  0.170731  0.327140  0.928580  1
  H  H21  1  0.734712  0.312128  0.983803  1
  C  C22  1  0.764595  0.356441  0.184781  1
  C  C23  1  0.235405  0.856441  0.315219  1
  C  C24  1  0.764595  0.143559  0.684781  1
  C  C25  1  0.235405  0.643559  0.815219  1
  O  O26  1  0.819457  0.829747  0.038650  1
  O  O27  1  0.892593  0.397597  0.121623  1
  O  O28  1  0.392196  0.752087  0.090050  1
  O  O29  1  0.598130  0.204831  0.153614  1
  O  O30  1  0.197376  0.971571  0.217577  1
  O  O31  1  0.802624  0.471571  0.282423  1
  O  O32  1  0.401870  0.704831  0.346386  1
  O  O33  1  0.107407  0.897597  0.378377  1
  O  O34  1  0.180543  0.329747  0.461350  1
  O  O35  1  0.607804  0.252087  0.409950  1
  O  O36  1  0.392196  0.747913  0.590050  1
  O  O37  1  0.819457  0.670253  0.538650  1
  O  O38  1  0.892593  0.102403  0.621623  1
  O  O39  1  0.598130  0.295169  0.653614  1
  O  O40  1  0.197376  0.528429  0.717577  1
  O  O41  1  0.802624  0.028429  0.782423  1
  O  O42  1  0.401870  0.795169  0.846386  1
  O  O43  1  0.607804  0.247913  0.909950  1
  O  O44  1  0.107407  0.602403  0.878377  1
  O  O45  1  0.180543  0.170253  0.961350  1
