# generated using pymatgen
data_LiMn2F5
_symmetry_space_group_name_H-M   'P 1'
_cell_length_a   5.65629405
_cell_length_b   5.65629405
_cell_length_c   10.49179972
_cell_angle_alpha   90.00000000
_cell_angle_beta   90.00000000
_cell_angle_gamma   137.27811959
_symmetry_Int_Tables_number   1
_chemical_formula_structural   LiMn2F5
_chemical_formula_sum   'Li2 Mn4 F10'
_cell_volume   227.73279153
_cell_formula_units_Z   2
loop_
 _symmetry_equiv_pos_site_id
 _symmetry_equiv_pos_as_xyz
  1  'x, y, z'
loop_
 _atom_site_type_symbol
 _atom_site_label
 _atom_site_symmetry_multiplicity
 _atom_site_fract_x
 _atom_site_fract_y
 _atom_site_fract_z
 _atom_site_occupancy
  Li  Li0  1  0.823353  0.176647  0.250000  1
  Li  Li1  1  0.176647  0.823353  0.750000  1
  Mn  Mn2  1  0.860625  0.139375  0.569518  1
  Mn  Mn3  1  0.860625  0.139375  0.930482  1
  Mn  Mn4  1  0.139375  0.860625  0.069518  1
  Mn  Mn5  1  0.139375  0.860625  0.430482  1
  F  F6  1  0.690097  0.309903  0.432660  1
  F  F7  1  0.946571  0.053429  0.115861  1
  F  F8  1  0.946571  0.053429  0.384139  1
  F  F9  1  0.690097  0.309903  0.067340  1
  F  F10  1  0.764303  0.235697  0.750000  1
  F  F11  1  0.235697  0.764303  0.250000  1
  F  F12  1  0.053429  0.946571  0.615861  1
  F  F13  1  0.309903  0.690097  0.567340  1
  F  F14  1  0.309903  0.690097  0.932660  1
  F  F15  1  0.053429  0.946571  0.884139  1
