# generated using pymatgen
data_Li3Ti3(PO4)4
_symmetry_space_group_name_H-M   'P 1'
_cell_length_a   7.72580060
_cell_length_b   8.08045146
_cell_length_c   10.25670300
_cell_angle_alpha   90.00000000
_cell_angle_beta   94.83073251
_cell_angle_gamma   90.00000000
_symmetry_Int_Tables_number   1
_chemical_formula_structural   Li3Ti3(PO4)4
_chemical_formula_sum   'Li6 Ti6 P8 O32'
_cell_volume   638.03054099
_cell_formula_units_Z   2
loop_
 _symmetry_equiv_pos_site_id
 _symmetry_equiv_pos_as_xyz
  1  'x, y, z'
loop_
 _atom_site_type_symbol
 _atom_site_label
 _atom_site_symmetry_multiplicity
 _atom_site_fract_x
 _atom_site_fract_y
 _atom_site_fract_z
 _atom_site_occupancy
  Li  Li0  1  0.157566  0.630494  0.831416  1
  Li  Li1  1  0.842434  0.130494  0.168584  1
  Li  Li2  1  0.638588  0.857846  0.578649  1
  Li  Li3  1  0.649875  0.868423  0.077836  1
  Li  Li4  1  0.361412  0.357846  0.421351  1
  Li  Li5  1  0.350125  0.368423  0.922164  1
  Ti  Ti6  1  0.258567  0.004765  0.370372  1
  Ti  Ti7  1  0.262180  0.996901  0.876965  1
  Ti  Ti8  1  0.149089  0.649082  0.324994  1
  Ti  Ti9  1  0.850911  0.149082  0.675006  1
  Ti  Ti10  1  0.741433  0.504765  0.629628  1
  Ti  Ti11  1  0.737820  0.496901  0.123035  1
  P  P12  1  0.046585  0.802480  0.611335  1
  P  P13  1  0.046418  0.812517  0.097921  1
  P  P14  1  0.953415  0.302480  0.388665  1
  P  P15  1  0.953582  0.312517  0.902079  1
  P  P16  1  0.552216  0.696423  0.354876  1
  P  P17  1  0.547134  0.690317  0.857184  1
  P  P18  1  0.452866  0.190317  0.142816  1
  P  P19  1  0.447784  0.196423  0.645124  1
  O  O20  1  0.191377  0.857566  0.212057  1
  O  O21  1  0.191082  0.861098  0.713450  1
  O  O22  1  0.124167  0.803323  0.472740  1
  O  O23  1  0.106721  0.425631  0.399386  1
  O  O24  1  0.133569  0.807272  0.968905  1
  O  O25  1  0.106223  0.426538  0.904752  1
  O  O26  1  0.013814  0.128200  0.352413  1
  O  O27  1  0.997122  0.633236  0.151795  1
  O  O28  1  0.002878  0.133236  0.848205  1
  O  O29  1  0.986186  0.628200  0.647587  1
  O  O30  1  0.893279  0.925631  0.600614  1
  O  O31  1  0.875833  0.303323  0.527260  1
  O  O32  1  0.893777  0.926538  0.095248  1
  O  O33  1  0.808918  0.361098  0.286550  1
  O  O34  1  0.866431  0.307272  0.031095  1
  O  O35  1  0.808623  0.357566  0.787943  1
  O  O36  1  0.687384  0.638537  0.464645  1
  O  O37  1  0.631063  0.690837  0.222028  1
  O  O38  1  0.690319  0.636387  0.967575  1
  O  O39  1  0.603956  0.072558  0.152841  1
  O  O40  1  0.635270  0.692727  0.724533  1
  O  O41  1  0.608755  0.077048  0.651289  1
  O  O42  1  0.509966  0.370795  0.604389  1
  O  O43  1  0.490034  0.870795  0.395611  1
  O  O44  1  0.507210  0.369001  0.104008  1
  O  O45  1  0.492790  0.869001  0.895992  1
  O  O46  1  0.391245  0.577048  0.348711  1
  O  O47  1  0.364730  0.192727  0.275467  1
  O  O48  1  0.396044  0.572558  0.847159  1
  O  O49  1  0.368937  0.190837  0.777972  1
  O  O50  1  0.312616  0.138537  0.535355  1
  O  O51  1  0.309681  0.136387  0.032425  1
