# generated using pymatgen
data_TiMn4O10
_symmetry_space_group_name_H-M   'P 1'
_cell_length_a   5.84580592
_cell_length_b   5.84580592
_cell_length_c   24.15565968
_cell_angle_alpha   83.24415838
_cell_angle_beta   96.75584162
_cell_angle_gamma   120.30469509
_symmetry_Int_Tables_number   1
_chemical_formula_structural   TiMn4O10
_chemical_formula_sum   'Ti4 Mn16 O40'
_cell_volume   706.09800958
_cell_formula_units_Z   4
loop_
 _symmetry_equiv_pos_site_id
 _symmetry_equiv_pos_as_xyz
  1  'x, y, z'
loop_
 _atom_site_type_symbol
 _atom_site_label
 _atom_site_symmetry_multiplicity
 _atom_site_fract_x
 _atom_site_fract_y
 _atom_site_fract_z
 _atom_site_occupancy
  Ti  Ti0  1  0.700202  0.299798  0.100188  1
  Ti  Ti1  1  0.299798  0.700202  0.899812  1
  Ti  Ti2  1  0.700003  0.299997  0.600041  1
  Ti  Ti3  1  0.299997  0.700003  0.399959  1
  Mn  Mn4  1  0.500000  0.500000  0.000000  1
  Mn  Mn5  1  0.000000  0.500000  0.000000  1
  Mn  Mn6  1  0.500000  0.000000  0.000000  1
  Mn  Mn7  1  0.099732  0.900268  0.799587  1
  Mn  Mn8  1  0.900631  0.099369  0.700086  1
  Mn  Mn9  1  0.599824  0.900005  0.799539  1
  Mn  Mn10  1  0.700209  0.800047  0.600016  1
  Mn  Mn11  1  0.099995  0.400176  0.799539  1
  Mn  Mn12  1  0.199953  0.299791  0.600016  1
  Mn  Mn13  1  0.500000  0.500000  0.500000  1
  Mn  Mn14  1  0.299791  0.199953  0.399984  1
  Mn  Mn15  1  0.800047  0.700209  0.399984  1
  Mn  Mn16  1  0.900268  0.099732  0.200413  1
  Mn  Mn17  1  0.099369  0.900631  0.299914  1
  Mn  Mn18  1  0.900005  0.599824  0.200461  1
  Mn  Mn19  1  0.400176  0.099995  0.200461  1
  O  O20  1  0.615162  0.830748  0.953955  1
  O  O21  1  0.169252  0.384838  0.953955  1
  O  O22  1  0.830748  0.615162  0.046045  1
  O  O23  1  0.384838  0.169252  0.046045  1
  O  O24  1  0.430457  0.569543  0.845581  1
  O  O25  1  0.653239  0.346761  0.959333  1
  O  O26  1  0.830288  0.169712  0.045989  1
  O  O27  1  0.946574  0.053426  0.840361  1
  O  O28  1  0.169712  0.830288  0.954011  1
  O  O29  1  0.346761  0.653239  0.040667  1
  O  O30  1  0.210649  0.228521  0.752896  1
  O  O31  1  0.771479  0.789351  0.752896  1
  O  O32  1  0.984286  0.568910  0.845709  1
  O  O33  1  0.431090  0.015714  0.845709  1
  O  O34  1  0.253044  0.746956  0.758981  1
  O  O35  1  0.028627  0.971373  0.646681  1
  O  O36  1  0.544170  0.455830  0.641406  1
  O  O37  1  0.771939  0.228061  0.752703  1
  O  O38  1  0.811925  0.634069  0.552304  1
  O  O39  1  0.365931  0.188075  0.552304  1
  O  O40  1  0.588283  0.965295  0.647857  1
  O  O41  1  0.034705  0.411717  0.647857  1
  O  O42  1  0.634069  0.811925  0.447696  1
  O  O43  1  0.188075  0.365931  0.447696  1
  O  O44  1  0.628191  0.371809  0.446828  1
  O  O45  1  0.455830  0.544170  0.358594  1
  O  O46  1  0.855801  0.144199  0.558695  1
  O  O47  1  0.971373  0.028627  0.353319  1
  O  O48  1  0.371809  0.628191  0.553172  1
  O  O49  1  0.144199  0.855801  0.441305  1
  O  O50  1  0.411717  0.034705  0.352143  1
  O  O51  1  0.965295  0.588283  0.352143  1
  O  O52  1  0.228521  0.210649  0.247104  1
  O  O53  1  0.789351  0.771479  0.247104  1
  O  O54  1  0.228061  0.771939  0.247297  1
  O  O55  1  0.053426  0.946574  0.159639  1
  O  O56  1  0.746956  0.253044  0.241019  1
  O  O57  1  0.569543  0.430457  0.154419  1
  O  O58  1  0.568910  0.984286  0.154291  1
  O  O59  1  0.015714  0.431090  0.154291  1
