# generated using pymatgen
data_Li2CuAsO4
_symmetry_space_group_name_H-M   'P 1'
_cell_length_a   6.97969758
_cell_length_b   5.17407892
_cell_length_c   10.90902839
_cell_angle_alpha   90.00000000
_cell_angle_beta   91.46893465
_cell_angle_gamma   90.00000000
_symmetry_Int_Tables_number   1
_chemical_formula_structural   Li2CuAsO4
_chemical_formula_sum   'Li8 Cu4 As4 O16'
_cell_volume   393.83379557
_cell_formula_units_Z   4
loop_
 _symmetry_equiv_pos_site_id
 _symmetry_equiv_pos_as_xyz
  1  'x, y, z'
loop_
 _atom_site_type_symbol
 _atom_site_label
 _atom_site_symmetry_multiplicity
 _atom_site_fract_x
 _atom_site_fract_y
 _atom_site_fract_z
 _atom_site_occupancy
  Li  Li0  1  0.988606  0.231598  0.153715  1
  Li  Li1  1  0.988606  0.268402  0.653715  1
  Li  Li2  1  0.321992  0.269934  0.300415  1
  Li  Li3  1  0.321992  0.230066  0.800415  1
  Li  Li4  1  0.678008  0.769934  0.199585  1
  Li  Li5  1  0.678008  0.730066  0.699585  1
  Li  Li6  1  0.011394  0.731598  0.346285  1
  Li  Li7  1  0.011394  0.768402  0.846285  1
  Cu  Cu8  1  0.500074  0.304625  0.086254  1
  Cu  Cu9  1  0.499926  0.804625  0.413746  1
  Cu  Cu10  1  0.500074  0.195375  0.586254  1
  Cu  Cu11  1  0.499926  0.695375  0.913746  1
  As  As12  1  0.235398  0.750731  0.112135  1
  As  As13  1  0.235398  0.749269  0.612135  1
  As  As14  1  0.764602  0.250731  0.387865  1
  As  As15  1  0.764602  0.249269  0.887865  1
  O  O16  1  0.022591  0.851015  0.170363  1
  O  O17  1  0.022591  0.648985  0.670363  1
  O  O18  1  0.249341  0.416039  0.135388  1
  O  O19  1  0.247042  0.701996  0.454770  1
  O  O20  1  0.249341  0.083961  0.635388  1
  O  O21  1  0.416253  0.914233  0.190457  1
  O  O22  1  0.247042  0.798004  0.954770  1
  O  O23  1  0.416253  0.585767  0.690457  1
  O  O24  1  0.583747  0.414233  0.309543  1
  O  O25  1  0.752958  0.201996  0.045230  1
  O  O26  1  0.583747  0.085767  0.809543  1
  O  O27  1  0.750659  0.916039  0.364612  1
  O  O28  1  0.752958  0.298004  0.545230  1
  O  O29  1  0.750659  0.583961  0.864612  1
  O  O30  1  0.977409  0.351015  0.329637  1
  O  O31  1  0.977409  0.148985  0.829637  1
