# generated using pymatgen
data_Rb3LiZn2(MoO4)4
_symmetry_space_group_name_H-M   'P 1'
_cell_length_a   10.49609115
_cell_length_b   10.49609115
_cell_length_c   10.49609115
_cell_angle_alpha   109.30696444
_cell_angle_beta   109.30696444
_cell_angle_gamma   109.80023486
_symmetry_Int_Tables_number   1
_chemical_formula_structural   Rb3LiZn2(MoO4)4
_chemical_formula_sum   'Rb6 Li2 Zn4 Mo8 O32'
_cell_volume   890.12324373
_cell_formula_units_Z   2
loop_
 _symmetry_equiv_pos_site_id
 _symmetry_equiv_pos_as_xyz
  1  'x, y, z'
loop_
 _atom_site_type_symbol
 _atom_site_label
 _atom_site_symmetry_multiplicity
 _atom_site_fract_x
 _atom_site_fract_y
 _atom_site_fract_z
 _atom_site_occupancy
  Rb  Rb0  1  0.250000  0.750000  0.500000  1
  Rb  Rb1  1  0.000000  0.000000  0.000000  1
  Rb  Rb2  1  0.501713  0.875000  0.126713  1
  Rb  Rb3  1  0.125000  0.251713  0.626713  1
  Rb  Rb4  1  0.748287  0.375000  0.873287  1
  Rb  Rb5  1  0.625000  0.498287  0.373287  1
  Li  Li6  1  0.750000  0.250000  0.500000  1
  Li  Li7  1  0.500000  0.500000  0.000000  1
  Zn  Zn8  1  0.125000  0.750362  0.125362  1
  Zn  Zn9  1  0.000362  0.875000  0.625362  1
  Zn  Zn10  1  0.625000  0.999638  0.874638  1
  Zn  Zn11  1  0.249638  0.375000  0.374638  1
  Mo  Mo12  1  0.089293  0.623890  0.749724  1
  Mo  Mo13  1  0.589569  0.624165  0.750276  1
  Mo  Mo14  1  0.873890  0.839293  0.249724  1
  Mo  Mo15  1  0.660431  0.910707  0.534596  1
  Mo  Mo16  1  0.375835  0.126110  0.965404  1
  Mo  Mo17  1  0.160707  0.410431  0.034596  1
  Mo  Mo18  1  0.376110  0.125835  0.465404  1
  Mo  Mo19  1  0.874165  0.339569  0.250276  1
  O  O20  1  0.256530  0.624224  0.749165  1
  O  O21  1  0.147654  0.757072  0.949636  1
  O  O22  1  0.678689  0.700375  0.183561  1
  O  O23  1  0.941520  0.764623  0.116931  1
  O  O24  1  0.757364  0.625059  0.750835  1
  O  O25  1  0.014623  0.691520  0.616931  1
  O  O26  1  0.647692  0.824589  0.883069  1
  O  O27  1  0.308480  0.925411  0.323103  1
  O  O28  1  0.801982  0.852346  0.609418  1
  O  O29  1  0.175411  0.058480  0.823103  1
  O  O30  1  0.007072  0.897654  0.449636  1
  O  O31  1  0.492636  0.743470  0.367695  1
  O  O32  1  0.235377  0.352308  0.176897  1
  O  O33  1  0.442564  0.992928  0.890582  1
  O  O34  1  0.602308  0.985377  0.676897  1
  O  O35  1  0.807436  0.198018  0.050364  1
  O  O36  1  0.374941  0.125776  0.132305  1
  O  O37  1  0.993470  0.242636  0.867695  1
  O  O38  1  0.874224  0.006530  0.249165  1
  O  O39  1  0.733186  0.049625  0.478314  1
  O  O40  1  0.242928  0.192564  0.390582  1
  O  O41  1  0.299625  0.483186  0.978314  1
  O  O42  1  0.375776  0.124941  0.632305  1
  O  O43  1  0.504872  0.321311  0.021686  1
  O  O44  1  0.102346  0.551982  0.109418  1
  O  O45  1  0.950375  0.428689  0.683561  1
  O  O46  1  0.571311  0.254872  0.521686  1
  O  O47  1  0.745128  0.266814  0.316439  1
  O  O48  1  0.074589  0.397692  0.383069  1
  O  O49  1  0.516814  0.495128  0.816439  1
  O  O50  1  0.875059  0.507364  0.250835  1
  O  O51  1  0.448018  0.557436  0.550364  1
