# generated using pymatgen
data_Li3Mn2P2(O4F)2
_symmetry_space_group_name_H-M   'P 1'
_cell_length_a   13.09264804
_cell_length_b   5.12094490
_cell_length_c   13.21546338
_cell_angle_alpha   90.00000000
_cell_angle_beta   119.68658791
_cell_angle_gamma   90.00000000
_symmetry_Int_Tables_number   1
_chemical_formula_structural   Li3Mn2P2(O4F)2
_chemical_formula_sum   'Li12 Mn8 P8 O32 F8'
_cell_volume   769.75681907
_cell_formula_units_Z   4
loop_
 _symmetry_equiv_pos_site_id
 _symmetry_equiv_pos_as_xyz
  1  'x, y, z'
loop_
 _atom_site_type_symbol
 _atom_site_label
 _atom_site_symmetry_multiplicity
 _atom_site_fract_x
 _atom_site_fract_y
 _atom_site_fract_z
 _atom_site_occupancy
  Li  Li0  1  0.151862  0.478536  0.823530  1
  Li  Li1  1  0.074674  0.011732  0.654323  1
  Li  Li2  1  0.151862  0.521464  0.323530  1
  Li  Li3  1  0.074674  0.988268  0.154323  1
  Li  Li4  1  0.412124  0.527086  0.593813  1
  Li  Li5  1  0.572972  0.015990  0.909838  1
  Li  Li6  1  0.650596  0.521835  0.831243  1
  Li  Li7  1  0.412124  0.472914  0.093813  1
  Li  Li8  1  0.572972  0.984010  0.409838  1
  Li  Li9  1  0.650596  0.478165  0.331243  1
  Li  Li10  1  0.904060  0.521708  0.818031  1
  Li  Li11  1  0.904060  0.478292  0.318031  1
  Mn  Mn12  1  0.070952  0.979061  0.891555  1
  Mn  Mn13  1  0.070952  0.020939  0.391555  1
  Mn  Mn14  1  0.415737  0.475890  0.823741  1
  Mn  Mn15  1  0.573744  0.967518  0.678851  1
  Mn  Mn16  1  0.415737  0.524110  0.323741  1
  Mn  Mn17  1  0.573744  0.032482  0.178851  1
  Mn  Mn18  1  0.920815  0.481469  0.596783  1
  Mn  Mn19  1  0.920815  0.518531  0.096783  1
  P  P20  1  0.161139  0.517109  0.577130  1
  P  P21  1  0.340108  0.965939  0.926698  1
  P  P22  1  0.161139  0.482891  0.077130  1
  P  P23  1  0.340108  0.034061  0.426698  1
  P  P24  1  0.660121  0.474329  0.579795  1
  P  P25  1  0.841424  0.031115  0.917761  1
  P  P26  1  0.660121  0.525671  0.079795  1
  P  P27  1  0.841424  0.968885  0.417761  1
  O  O28  1  0.117335  0.626012  0.956753  1
  O  O29  1  0.211657  0.070889  0.878358  1
  O  O30  1  0.106115  0.387177  0.644896  1
  O  O31  1  0.119304  0.805460  0.549531  1
  O  O32  1  0.117335  0.373988  0.456753  1
  O  O33  1  0.340351  0.662268  0.920177  1
  O  O34  1  0.391652  0.085360  0.855284  1
  O  O35  1  0.295758  0.496598  0.645941  1
  O  O36  1  0.211657  0.929111  0.378358  1
  O  O37  1  0.106115  0.612823  0.144896  1
  O  O38  1  0.119304  0.194540  0.049531  1
  O  O39  1  0.409850  0.933838  0.555057  1
  O  O40  1  0.340351  0.337732  0.420177  1
  O  O41  1  0.607032  0.406055  0.956320  1
  O  O42  1  0.391652  0.914640  0.355284  1
  O  O43  1  0.295758  0.503402  0.145941  1
  O  O44  1  0.711398  0.936652  0.841028  1
  O  O45  1  0.603454  0.612572  0.647208  1
  O  O46  1  0.409850  0.066162  0.055057  1
  O  O47  1  0.626194  0.181210  0.571773  1
  O  O48  1  0.607032  0.593945  0.456320  1
  O  O49  1  0.845178  0.335514  0.920841  1
  O  O50  1  0.910459  0.913565  0.859353  1
  O  O51  1  0.793500  0.517599  0.648366  1
  O  O52  1  0.711398  0.063348  0.341028  1
  O  O53  1  0.603454  0.387428  0.147208  1
  O  O54  1  0.626194  0.818790  0.071773  1
  O  O55  1  0.890601  0.082239  0.540473  1
  O  O56  1  0.845178  0.664486  0.420841  1
  O  O57  1  0.910459  0.086435  0.359353  1
  O  O58  1  0.793500  0.482401  0.148366  1
  O  O59  1  0.890601  0.917761  0.040473  1
  F  F60  1  0.030287  0.757905  0.732324  1
  F  F61  1  0.030287  0.242095  0.232324  1
  F  F62  1  0.509451  0.751491  0.782631  1
  F  F63  1  0.524457  0.259726  0.735213  1
  F  F64  1  0.509451  0.248509  0.282631  1
  F  F65  1  0.524457  0.740274  0.235213  1
  F  F66  1  0.004372  0.273642  0.785145  1
  F  F67  1  0.004372  0.726358  0.285145  1
