# generated using pymatgen
data_Li2CoP2O7
_symmetry_space_group_name_H-M   'P 1'
_cell_length_a   5.25417021
_cell_length_b   6.23049101
_cell_length_c   8.67059306
_cell_angle_alpha   70.51595795
_cell_angle_beta   86.80703671
_cell_angle_gamma   83.84033789
_symmetry_Int_Tables_number   1
_chemical_formula_structural   Li2CoP2O7
_chemical_formula_sum   'Li4 Co2 P4 O14'
_cell_volume   265.98186356
_cell_formula_units_Z   2
loop_
 _symmetry_equiv_pos_site_id
 _symmetry_equiv_pos_as_xyz
  1  'x, y, z'
loop_
 _atom_site_type_symbol
 _atom_site_label
 _atom_site_symmetry_multiplicity
 _atom_site_fract_x
 _atom_site_fract_y
 _atom_site_fract_z
 _atom_site_occupancy
  Li  Li0  1  0.767110  0.198183  0.461043  1
  Li  Li1  1  0.721536  0.068073  0.848350  1
  Li  Li2  1  0.278464  0.931927  0.151650  1
  Li  Li3  1  0.232890  0.801817  0.538957  1
  Co  Co4  1  0.771992  0.573716  0.730251  1
  Co  Co5  1  0.228008  0.426284  0.269749  1
  P  P6  1  0.782121  0.198524  0.134185  1
  P  P7  1  0.698456  0.734456  0.346891  1
  P  P8  1  0.301544  0.265544  0.653109  1
  P  P9  1  0.217879  0.801476  0.865815  1
  O  O10  1  0.945997  0.822148  0.803043  1
  O  O11  1  0.877783  0.530256  0.339037  1
  O  O12  1  0.758986  0.301409  0.949187  1
  O  O13  1  0.770020  0.832953  0.477820  1
  O  O14  1  0.723960  0.931446  0.163321  1
  O  O15  1  0.588247  0.301950  0.644871  1
  O  O16  1  0.579467  0.283315  0.237179  1
  O  O17  1  0.420533  0.716685  0.762821  1
  O  O18  1  0.411753  0.698050  0.355129  1
  O  O19  1  0.276040  0.068554  0.836679  1
  O  O20  1  0.229980  0.167047  0.522180  1
  O  O21  1  0.241014  0.698591  0.050813  1
  O  O22  1  0.122217  0.469744  0.660963  1
  O  O23  1  0.054003  0.177852  0.196957  1
