# generated using pymatgen
data_Li2Co(SiO3)2
_symmetry_space_group_name_H-M   'P 1'
_cell_length_a   10.34883777
_cell_length_b   10.34353265
_cell_length_c   5.14966356
_cell_angle_alpha   75.64665431
_cell_angle_beta   75.53231778
_cell_angle_gamma   28.82102791
_symmetry_Int_Tables_number   1
_chemical_formula_structural   Li2Co(SiO3)2
_chemical_formula_sum   'Li4 Co2 Si4 O12'
_cell_volume   256.81385870
_cell_formula_units_Z   2
loop_
 _symmetry_equiv_pos_site_id
 _symmetry_equiv_pos_as_xyz
  1  'x, y, z'
loop_
 _atom_site_type_symbol
 _atom_site_label
 _atom_site_symmetry_multiplicity
 _atom_site_fract_x
 _atom_site_fract_y
 _atom_site_fract_z
 _atom_site_occupancy
  Li  Li0  1  0.636871  0.030051  0.410299  1
  Li  Li1  1  0.219949  0.613129  0.327222  1
  Li  Li2  1  0.839701  0.327222  0.613129  1
  Li  Li3  1  0.922778  0.410299  0.030051  1
  Co  Co4  1  0.783545  0.216455  0.216455  1
  Co  Co5  1  0.033545  0.466455  0.466455  1
  Si  Si6  1  0.986820  0.677581  0.892363  1
  Si  Si7  1  0.572419  0.263180  0.806764  1
  Si  Si8  1  0.357637  0.806764  0.263180  1
  Si  Si9  1  0.443236  0.892363  0.677581  1
  O  O10  1  0.959625  0.553069  0.089448  1
  O  O11  1  0.984579  0.683663  0.573267  1
  O  O12  1  0.263480  0.510528  0.957829  1
  O  O13  1  0.739472  0.986520  0.981837  1
  O  O14  1  0.566337  0.265421  0.491509  1
  O  O15  1  0.696931  0.290375  0.852141  1
  O  O16  1  0.160552  0.852141  0.290375  1
  O  O17  1  0.676733  0.491509  0.265421  1
  O  O18  1  0.292171  0.981837  0.986520  1
  O  O19  1  0.268163  0.957829  0.510528  1
  O  O20  1  0.758491  0.573267  0.683663  1
  O  O21  1  0.397859  0.089448  0.553069  1
