# generated using pymatgen
data_ScH6Br3N2
_symmetry_space_group_name_H-M   'P 1'
_cell_length_a   7.34674148
_cell_length_b   10.33888184
_cell_length_c   11.58412653
_cell_angle_alpha   105.48825415
_cell_angle_beta   90.77701850
_cell_angle_gamma   109.70482670
_symmetry_Int_Tables_number   1
_chemical_formula_structural   ScH6Br3N2
_chemical_formula_sum   'Sc4 H24 Br12 N8'
_cell_volume   793.06778415
_cell_formula_units_Z   4
loop_
 _symmetry_equiv_pos_site_id
 _symmetry_equiv_pos_as_xyz
  1  'x, y, z'
loop_
 _atom_site_type_symbol
 _atom_site_label
 _atom_site_symmetry_multiplicity
 _atom_site_fract_x
 _atom_site_fract_y
 _atom_site_fract_z
 _atom_site_occupancy
  Sc  Sc0  1  0.167726  0.798837  0.197515  1
  Sc  Sc1  1  0.312170  0.222581  0.303526  1
  Sc  Sc2  1  0.687830  0.777419  0.696474  1
  Sc  Sc3  1  0.832274  0.201163  0.802485  1
  H  H4  1  0.069201  0.837391  0.434686  1
  H  H5  1  0.149873  0.896949  0.995178  1
  H  H6  1  0.083198  0.720945  0.945203  1
  H  H7  1  0.155263  0.705421  0.407137  1
  H  H8  1  0.307121  0.873350  0.444645  1
  H  H9  1  0.317139  0.821403  0.975507  1
  H  H10  1  0.280762  0.644710  0.666021  1
  H  H11  1  0.282887  0.556319  0.150808  1
  H  H12  1  0.364195  0.545336  0.560906  1
  H  H13  1  0.371114  0.532895  0.700141  1
  H  H14  1  0.441236  0.673456  0.095474  1
  H  H15  1  0.462127  0.690567  0.241313  1
  H  H16  1  0.537873  0.309433  0.758687  1
  H  H17  1  0.558764  0.326544  0.904526  1
  H  H18  1  0.628886  0.467105  0.299859  1
  H  H19  1  0.635805  0.454664  0.439094  1
  H  H20  1  0.717113  0.443681  0.849192  1
  H  H21  1  0.719238  0.355290  0.333979  1
  H  H22  1  0.682861  0.178597  0.024493  1
  H  H23  1  0.692879  0.126650  0.555355  1
  H  H24  1  0.844737  0.294579  0.592863  1
  H  H25  1  0.916802  0.279055  0.054797  1
  H  H26  1  0.850127  0.103051  0.004822  1
  H  H27  1  0.930799  0.162609  0.565314  1
  Br  Br28  1  0.144580  0.422058  0.861566  1
  Br  Br29  1  0.126521  0.402246  0.345456  1
  Br  Br30  1  0.013550  0.012211  0.756761  1
  Br  Br31  1  0.491504  0.971497  0.742018  1
  Br  Br32  1  0.335693  0.220461  0.532501  1
  Br  Br33  1  0.342668  0.228507  0.077693  1
  Br  Br34  1  0.657332  0.771493  0.922307  1
  Br  Br35  1  0.664307  0.779539  0.467499  1
  Br  Br36  1  0.508496  0.028503  0.257982  1
  Br  Br37  1  0.986450  0.987789  0.243239  1
  Br  Br38  1  0.873479  0.597754  0.654544  1
  Br  Br39  1  0.855420  0.577942  0.138434  1
  N  N40  1  0.177140  0.804541  0.395929  1
  N  N41  1  0.181982  0.810712  0.004051  1
  N  N42  1  0.362122  0.663016  0.167627  1
  N  N43  1  0.390499  0.604081  0.650183  1
  N  N44  1  0.609501  0.395919  0.349817  1
  N  N45  1  0.637878  0.336984  0.832373  1
  N  N46  1  0.818018  0.189288  0.995949  1
  N  N47  1  0.822860  0.195459  0.604071  1
