# generated using pymatgen
data_LiCuS
_symmetry_space_group_name_H-M   'P 1'
_cell_length_a   7.57352644
_cell_length_b   7.57352644
_cell_length_c   7.57352644
_cell_angle_alpha   95.67815664
_cell_angle_beta   95.67815664
_cell_angle_gamma   143.33295235
_symmetry_Int_Tables_number   1
_chemical_formula_structural   LiCuS
_chemical_formula_sum   'Li4 Cu4 S4'
_cell_volume   246.24349360
_cell_formula_units_Z   4
loop_
 _symmetry_equiv_pos_site_id
 _symmetry_equiv_pos_as_xyz
  1  'x, y, z'
loop_
 _atom_site_type_symbol
 _atom_site_label
 _atom_site_symmetry_multiplicity
 _atom_site_fract_x
 _atom_site_fract_y
 _atom_site_fract_z
 _atom_site_occupancy
  Li  Li0  1  0.500000  0.844088  0.344088  1
  Li  Li1  1  0.155912  0.500000  0.655912  1
  Li  Li2  1  0.844088  0.500000  0.344088  1
  Li  Li3  1  0.500000  0.155912  0.655912  1
  Cu  Cu4  1  0.145166  0.145166  0.290332  1
  Cu  Cu5  1  0.854834  0.145166  0.000000  1
  Cu  Cu6  1  0.145166  0.854834  0.000000  1
  Cu  Cu7  1  0.854834  0.854834  0.709668  1
  S  S8  1  0.000000  0.297946  0.297946  1
  S  S9  1  0.702054  1.000000  0.702054  1
  S  S10  1  0.297946  1.000000  0.297946  1
  S  S11  1  0.000000  0.702054  0.702054  1
