# generated using pymatgen
data_Sm2TeO6
_symmetry_space_group_name_H-M   'P 1'
_cell_length_a   5.08931952
_cell_length_b   5.08931952
_cell_length_c   10.32090778
_cell_angle_alpha   90.00000000
_cell_angle_beta   90.00000000
_cell_angle_gamma   90.00000000
_symmetry_Int_Tables_number   1
_chemical_formula_structural   Sm2TeO6
_chemical_formula_sum   'Sm4 Te2 O12'
_cell_volume   267.32361975
_cell_formula_units_Z   2
loop_
 _symmetry_equiv_pos_site_id
 _symmetry_equiv_pos_as_xyz
  1  'x, y, z'
loop_
 _atom_site_type_symbol
 _atom_site_label
 _atom_site_symmetry_multiplicity
 _atom_site_fract_x
 _atom_site_fract_y
 _atom_site_fract_z
 _atom_site_occupancy
  Sm  Sm0  1  0.500000  0.500000  0.334573  1
  Sm  Sm1  1  0.500000  0.500000  0.665427  1
  Sm  Sm2  1  0.000000  0.000000  0.165427  1
  Sm  Sm3  1  0.000000  0.000000  0.834573  1
  Te  Te4  1  0.500000  0.500000  0.000000  1
  Te  Te5  1  0.000000  0.000000  0.500000  1
  O  O6  1  0.680796  0.680796  0.142315  1
  O  O7  1  0.680796  0.680796  0.857685  1
  O  O8  1  0.727418  0.727418  0.500000  1
  O  O9  1  0.772582  0.227418  0.000000  1
  O  O10  1  0.819204  0.180796  0.357685  1
  O  O11  1  0.819204  0.180796  0.642315  1
  O  O12  1  0.180796  0.819204  0.357685  1
  O  O13  1  0.180796  0.819204  0.642315  1
  O  O14  1  0.227418  0.772582  0.000000  1
  O  O15  1  0.272582  0.272582  0.500000  1
  O  O16  1  0.319204  0.319204  0.142315  1
  O  O17  1  0.319204  0.319204  0.857685  1
