# generated using pymatgen
data_Li2Mn(SiO3)2
_symmetry_space_group_name_H-M   'P 1'
_cell_length_a   16.24259974
_cell_length_b   12.60922429
_cell_length_c   11.17297109
_cell_angle_alpha   85.92848049
_cell_angle_beta   50.74582635
_cell_angle_gamma   43.32569315
_symmetry_Int_Tables_number   1
_chemical_formula_structural   Li2Mn(SiO3)2
_chemical_formula_sum   'Li12 Mn6 Si12 O36'
_cell_volume   827.37603844
_cell_formula_units_Z   6
loop_
 _symmetry_equiv_pos_site_id
 _symmetry_equiv_pos_as_xyz
  1  'x, y, z'
loop_
 _atom_site_type_symbol
 _atom_site_label
 _atom_site_symmetry_multiplicity
 _atom_site_fract_x
 _atom_site_fract_y
 _atom_site_fract_z
 _atom_site_occupancy
  Li  Li0  1  0.987395  0.987395  0.512605  1
  Li  Li1  1  0.655488  0.655488  0.844512  1
  Li  Li2  1  0.082945  0.450587  0.546349  1
  Li  Li3  1  0.799704  0.067575  0.921292  1
  Li  Li4  1  0.328708  0.038571  0.450296  1
  Li  Li5  1  0.703651  0.329882  0.167055  1
  Li  Li6  1  0.737395  0.737395  0.262605  1
  Li  Li7  1  0.405488  0.405488  0.594512  1
  Li  Li8  1  0.329882  0.703651  0.799413  1
  Li  Li9  1  0.038571  0.328708  0.182425  1
  Li  Li10  1  0.067575  0.799704  0.211429  1
  Li  Li11  1  0.450587  0.082945  0.920118  1
  Mn  Mn12  1  0.867803  0.867803  0.632197  1
  Mn  Mn13  1  0.920138  0.228081  0.746494  1
  Mn  Mn14  1  0.503506  0.144713  0.329862  1
  Mn  Mn15  1  0.617803  0.617803  0.382197  1
  Mn  Mn16  1  0.144713  0.503506  0.021919  1
  Mn  Mn17  1  0.228081  0.920138  0.105287  1
  Si  Si18  1  0.485679  0.485679  0.014321  1
  Si  Si19  1  0.163850  0.163850  0.336150  1
  Si  Si20  1  0.558839  0.956984  0.054234  1
  Si  Si21  1  0.288464  0.579403  0.429730  1
  Si  Si22  1  0.820270  0.547597  0.961536  1
  Si  Si23  1  0.195766  0.820057  0.691161  1
  Si  Si24  1  0.913850  0.913850  0.086150  1
  Si  Si25  1  0.235679  0.235679  0.764321  1
  Si  Si26  1  0.820057  0.195766  0.293016  1
  Si  Si27  1  0.547597  0.820270  0.670597  1
  Si  Si28  1  0.579403  0.288464  0.702403  1
  Si  Si29  1  0.956984  0.558839  0.429943  1
  O  O30  1  0.425931  0.984663  0.085304  1
  O  O31  1  0.746984  0.292097  0.775914  1
  O  O32  1  0.597040  0.023474  0.928151  1
  O  O33  1  0.028961  0.828022  0.604217  1
  O  O34  1  0.469902  0.420878  0.158325  1
  O  O35  1  0.185358  0.078323  0.445617  1
  O  O36  1  0.803172  0.680518  0.890964  1
  O  O37  1  0.763113  0.504524  0.923612  1
  O  O38  1  0.397727  0.122807  0.304455  1
  O  O39  1  0.945545  0.074989  0.852273  1
  O  O40  1  0.326388  0.441248  0.486887  1
  O  O41  1  0.359036  0.624653  0.446828  1
  O  O42  1  0.804383  0.959298  0.064642  1
  O  O43  1  0.091675  0.299105  0.780098  1
  O  O44  1  0.645782  0.711200  0.221039  1
  O  O45  1  0.321849  0.798665  0.652960  1
  O  O46  1  0.474086  0.064995  0.503016  1
  O  O47  1  0.164696  0.745897  0.824069  1
  O  O48  1  0.745897  0.164696  0.265337  1
  O  O49  1  0.064995  0.474086  0.957903  1
  O  O50  1  0.798665  0.321849  0.226526  1
  O  O51  1  0.711200  0.645783  0.421978  1
  O  O52  1  0.299105  0.091675  0.829122  1
  O  O53  1  0.959298  0.804383  0.171677  1
  O  O54  1  0.624653  0.359036  0.569482  1
  O  O55  1  0.441248  0.326388  0.745476  1
  O  O56  1  0.074989  0.945545  0.127193  1
  O  O57  1  0.122807  0.397727  0.175011  1
  O  O58  1  0.504524  0.763113  0.808752  1
  O  O59  1  0.680518  0.803172  0.625347  1
  O  O60  1  0.078323  0.185358  0.290702  1
  O  O61  1  0.420878  0.469902  0.950895  1
  O  O62  1  0.828022  0.028961  0.538800  1
  O  O63  1  0.023474  0.597040  0.451335  1
  O  O64  1  0.292097  0.746984  0.185005  1
  O  O65  1  0.984663  0.425931  0.504103  1
