# generated using pymatgen
data_Li4Ti2V3Fe3O16
_symmetry_space_group_name_H-M   'P 1'
_cell_length_a   5.93233215
_cell_length_b   5.93233215
_cell_length_c   9.60162401
_cell_angle_alpha   89.27169507
_cell_angle_beta   90.72830493
_cell_angle_gamma   119.79169119
_symmetry_Int_Tables_number   1
_chemical_formula_structural   Li4Ti2V3Fe3O16
_chemical_formula_sum   'Li4 Ti2 V3 Fe3 O16'
_cell_volume   293.21565304
_cell_formula_units_Z   1
loop_
 _symmetry_equiv_pos_site_id
 _symmetry_equiv_pos_as_xyz
  1  'x, y, z'
loop_
 _atom_site_type_symbol
 _atom_site_label
 _atom_site_symmetry_multiplicity
 _atom_site_fract_x
 _atom_site_fract_y
 _atom_site_fract_z
 _atom_site_occupancy
  Li  Li0  1  0.332707  0.667293  0.898106  1
  Li  Li1  1  0.001429  0.998571  0.995550  1
  Li  Li2  1  0.001087  0.998913  0.491334  1
  Li  Li3  1  0.664831  0.335169  0.397436  1
  Ti  Ti4  1  0.338074  0.661926  0.482323  1
  Ti  Ti5  1  0.659532  0.340468  0.000534  1
  V  V6  1  0.837603  0.658544  0.715883  1
  V  V7  1  0.170957  0.829043  0.218853  1
  V  V8  1  0.341456  0.162397  0.715883  1
  Fe  Fe9  1  0.657453  0.834265  0.213555  1
  Fe  Fe10  1  0.165735  0.342547  0.213555  1
  Fe  Fe11  1  0.832016  0.167984  0.708551  1
  O  O12  1  0.671679  0.822696  0.600033  1
  O  O13  1  0.478729  0.521271  0.347639  1
  O  O14  1  0.329057  0.670943  0.104580  1
  O  O15  1  0.999142  0.000858  0.303979  1
  O  O16  1  0.001709  0.998291  0.808243  1
  O  O17  1  0.177304  0.328321  0.600033  1
  O  O18  1  0.479164  0.960730  0.351312  1
  O  O19  1  0.039270  0.520836  0.351312  1
  O  O20  1  0.828829  0.171171  0.088578  1
  O  O21  1  0.165641  0.834359  0.602055  1
  O  O22  1  0.960034  0.494098  0.833987  1
  O  O23  1  0.505902  0.039966  0.833987  1
  O  O24  1  0.661581  0.338419  0.602681  1
  O  O25  1  0.828244  0.660556  0.093320  1
  O  O26  1  0.519109  0.480891  0.838322  1
  O  O27  1  0.339444  0.171756  0.093320  1
