# generated using pymatgen
data_SrLaI5
_symmetry_space_group_name_H-M   'P 1'
_cell_length_a   8.69908565
_cell_length_b   4.61446395
_cell_length_c   15.22021319
_cell_angle_alpha   90.00000000
_cell_angle_beta   92.77647068
_cell_angle_gamma   90.00000000
_symmetry_Int_Tables_number   1
_chemical_formula_structural   SrLaI5
_chemical_formula_sum   'Sr2 La2 I10'
_cell_volume   610.24676851
_cell_formula_units_Z   2
loop_
 _symmetry_equiv_pos_site_id
 _symmetry_equiv_pos_as_xyz
  1  'x, y, z'
loop_
 _atom_site_type_symbol
 _atom_site_label
 _atom_site_symmetry_multiplicity
 _atom_site_fract_x
 _atom_site_fract_y
 _atom_site_fract_z
 _atom_site_occupancy
  Sr  Sr0  1  0.452704  0.750000  0.645910  1
  Sr  Sr1  1  0.547296  0.250000  0.354090  1
  La  La2  1  0.053072  0.250000  0.840947  1
  La  La3  1  0.946928  0.750000  0.159053  1
  I  I4  1  0.048277  0.750000  0.685522  1
  I  I5  1  0.150642  0.250000  0.064803  1
  I  I6  1  0.298780  0.250000  0.517802  1
  I  I7  1  0.328100  0.750000  0.879182  1
  I  I8  1  0.319383  0.750000  0.262755  1
  I  I9  1  0.680617  0.250000  0.737245  1
  I  I10  1  0.671900  0.250000  0.120818  1
  I  I11  1  0.701220  0.750000  0.482198  1
  I  I12  1  0.849358  0.750000  0.935197  1
  I  I13  1  0.951723  0.250000  0.314478  1
