# generated using pymatgen
data_Mn5Sn(PO4)6
_symmetry_space_group_name_H-M   'P 1'
_cell_length_a   8.69729755
_cell_length_b   8.69729755
_cell_length_c   8.69729755
_cell_angle_alpha   59.75481741
_cell_angle_beta   59.75481741
_cell_angle_gamma   59.75481741
_symmetry_Int_Tables_number   1
_chemical_formula_structural   Mn5Sn(PO4)6
_chemical_formula_sum   'Mn5 Sn1 P6 O24'
_cell_volume   462.60820823
_cell_formula_units_Z   1
loop_
 _symmetry_equiv_pos_site_id
 _symmetry_equiv_pos_as_xyz
  1  'x, y, z'
loop_
 _atom_site_type_symbol
 _atom_site_label
 _atom_site_symmetry_multiplicity
 _atom_site_fract_x
 _atom_site_fract_y
 _atom_site_fract_z
 _atom_site_occupancy
  Mn  Mn0  1  0.997110  0.997110  0.997110  1
  Mn  Mn1  1  0.644789  0.644789  0.644789  1
  Mn  Mn2  1  0.499745  0.499745  0.499745  1
  Mn  Mn3  1  0.854873  0.854873  0.854873  1
  Mn  Mn4  1  0.355603  0.355603  0.355603  1
  Sn  Sn5  1  0.144443  0.144443  0.144443  1
  P  P6  1  0.251862  0.548864  0.953888  1
  P  P7  1  0.953888  0.251862  0.548864  1
  P  P8  1  0.548864  0.953888  0.251862  1
  P  P9  1  0.461981  0.040658  0.746061  1
  P  P10  1  0.040658  0.746061  0.461981  1
  P  P11  1  0.746061  0.461981  0.040658  1
  O  O12  1  0.114775  0.303856  0.512894  1
  O  O13  1  0.512894  0.114775  0.303856  1
  O  O14  1  0.303856  0.512894  0.114775  1
  O  O15  1  0.085813  0.740491  0.937709  1
  O  O16  1  0.194839  0.391926  0.982797  1
  O  O17  1  0.416067  0.563333  0.759655  1
  O  O18  1  0.937709  0.085813  0.740491  1
  O  O19  1  0.759655  0.416067  0.563333  1
  O  O20  1  0.615315  0.008888  0.807040  1
  O  O21  1  0.563333  0.759655  0.416067  1
  O  O22  1  0.263836  0.056755  0.910696  1
  O  O23  1  0.008888  0.807040  0.615315  1
  O  O24  1  0.982797  0.194839  0.391926  1
  O  O25  1  0.740491  0.937709  0.085813  1
  O  O26  1  0.443689  0.236755  0.585522  1
  O  O27  1  0.391926  0.982797  0.194839  1
  O  O28  1  0.236755  0.585522  0.443689  1
  O  O29  1  0.056755  0.910696  0.263836  1
  O  O30  1  0.585522  0.443689  0.236755  1
  O  O31  1  0.807040  0.615315  0.008888  1
  O  O32  1  0.910696  0.263836  0.056755  1
  O  O33  1  0.687889  0.494622  0.884986  1
  O  O34  1  0.494622  0.884986  0.687889  1
  O  O35  1  0.884986  0.687889  0.494622  1
