# generated using pymatgen
data_Li4V3Sn3(TeO8)2
_symmetry_space_group_name_H-M   'P 1'
_cell_length_a   6.28493009
_cell_length_b   6.28493009
_cell_length_c   10.14692799
_cell_angle_alpha   89.89138384
_cell_angle_beta   90.10861616
_cell_angle_gamma   120.47517648
_symmetry_Int_Tables_number   1
_chemical_formula_structural   Li4V3Sn3(TeO8)2
_chemical_formula_sum   'Li4 V3 Sn3 Te2 O16'
_cell_volume   345.43442204
_cell_formula_units_Z   1
loop_
 _symmetry_equiv_pos_site_id
 _symmetry_equiv_pos_as_xyz
  1  'x, y, z'
loop_
 _atom_site_type_symbol
 _atom_site_label
 _atom_site_symmetry_multiplicity
 _atom_site_fract_x
 _atom_site_fract_y
 _atom_site_fract_z
 _atom_site_occupancy
  Li  Li0  1  0.668259  0.331741  0.099029  1
  Li  Li1  1  0.993265  0.006735  0.012777  1
  Li  Li2  1  0.994942  0.005058  0.500931  1
  Li  Li3  1  0.332718  0.667282  0.602247  1
  V  V4  1  0.832141  0.167859  0.787068  1
  V  V5  1  0.651791  0.817519  0.286495  1
  V  V6  1  0.182481  0.348209  0.286495  1
  Sn  Sn7  1  0.831239  0.665529  0.785359  1
  Sn  Sn8  1  0.334471  0.168761  0.785359  1
  Sn  Sn9  1  0.166506  0.833494  0.285219  1
  Te  Te10  1  0.677821  0.322179  0.500795  1
  Te  Te11  1  0.337743  0.662257  0.019515  1
  O  O12  1  0.841294  0.674862  0.400952  1
  O  O13  1  0.511122  0.488878  0.667859  1
  O  O14  1  0.664818  0.335182  0.895703  1
  O  O15  1  0.999739  0.000261  0.681708  1
  O  O16  1  0.997983  0.002017  0.195058  1
  O  O17  1  0.325138  0.158706  0.400952  1
  O  O18  1  0.969117  0.479710  0.669895  1
  O  O19  1  0.520290  0.030883  0.669895  1
  O  O20  1  0.148840  0.851160  0.902634  1
  O  O21  1  0.839007  0.160993  0.400553  1
  O  O22  1  0.479051  0.959363  0.156092  1
  O  O23  1  0.040637  0.520949  0.156092  1
  O  O24  1  0.326911  0.673089  0.394835  1
  O  O25  1  0.698016  0.855088  0.898123  1
  O  O26  1  0.481828  0.518172  0.152250  1
  O  O27  1  0.144912  0.301984  0.898123  1
