# generated using pymatgen
data_CdFe2Sb2(PO4)6
_symmetry_space_group_name_H-M   'P 1'
_cell_length_a   8.89321093
_cell_length_b   8.89321093
_cell_length_c   8.89321093
_cell_angle_alpha   57.27323005
_cell_angle_beta   57.27323005
_cell_angle_gamma   57.27323005
_symmetry_Int_Tables_number   1
_chemical_formula_structural   CdFe2Sb2(PO4)6
_chemical_formula_sum   'Cd1 Fe2 Sb2 P6 O24'
_cell_volume   466.12140422
_cell_formula_units_Z   1
loop_
 _symmetry_equiv_pos_site_id
 _symmetry_equiv_pos_as_xyz
  1  'x, y, z'
loop_
 _atom_site_type_symbol
 _atom_site_label
 _atom_site_symmetry_multiplicity
 _atom_site_fract_x
 _atom_site_fract_y
 _atom_site_fract_z
 _atom_site_occupancy
  Cd  Cd0  1  0.000000  0.000000  0.000000  1
  Fe  Fe1  1  0.147053  0.147053  0.147053  1
  Fe  Fe2  1  0.852947  0.852947  0.852947  1
  Sb  Sb3  1  0.645975  0.645975  0.645975  1
  Sb  Sb4  1  0.354025  0.354025  0.354025  1
  P  P5  1  0.962917  0.246701  0.541185  1
  P  P6  1  0.541185  0.962917  0.246701  1
  P  P7  1  0.246701  0.541185  0.962917  1
  P  P8  1  0.753299  0.458815  0.037083  1
  P  P9  1  0.458815  0.037083  0.753299  1
  P  P10  1  0.037083  0.753299  0.458815  1
  O  O11  1  0.522668  0.154072  0.237071  1
  O  O12  1  0.477720  0.191337  0.547715  1
  O  O13  1  0.191337  0.547715  0.477720  1
  O  O14  1  0.547715  0.477720  0.191337  1
  O  O15  1  0.201384  0.384677  0.991381  1
  O  O16  1  0.237071  0.522668  0.154072  1
  O  O17  1  0.991381  0.201384  0.384677  1
  O  O18  1  0.154072  0.237071  0.522668  1
  O  O19  1  0.097133  0.896576  0.255967  1
  O  O20  1  0.896576  0.255967  0.097133  1
  O  O21  1  0.255967  0.097133  0.896576  1
  O  O22  1  0.615323  0.008619  0.798616  1
  O  O23  1  0.384677  0.991381  0.201384  1
  O  O24  1  0.744033  0.902867  0.103424  1
  O  O25  1  0.103424  0.744033  0.902867  1
  O  O26  1  0.902867  0.103424  0.744033  1
  O  O27  1  0.845928  0.762929  0.477332  1
  O  O28  1  0.008619  0.798616  0.615323  1
  O  O29  1  0.762929  0.477332  0.845928  1
  O  O30  1  0.798616  0.615323  0.008619  1
  O  O31  1  0.452285  0.522280  0.808663  1
  O  O32  1  0.808663  0.452285  0.522280  1
  O  O33  1  0.522280  0.808663  0.452285  1
  O  O34  1  0.477332  0.845928  0.762929  1
