# generated using pymatgen
data_Li2MnV(PO4)3
_symmetry_space_group_name_H-M   'P 1'
_cell_length_a   8.32148870
_cell_length_b   8.32259297
_cell_length_c   8.84228606
_cell_angle_alpha   116.21881966
_cell_angle_beta   90.14588556
_cell_angle_gamma   118.85114269
_symmetry_Int_Tables_number   1
_chemical_formula_structural   Li2MnV(PO4)3
_chemical_formula_sum   'Li4 Mn2 V2 P6 O24'
_cell_volume   462.69676906
_cell_formula_units_Z   2
loop_
 _symmetry_equiv_pos_site_id
 _symmetry_equiv_pos_as_xyz
  1  'x, y, z'
loop_
 _atom_site_type_symbol
 _atom_site_label
 _atom_site_symmetry_multiplicity
 _atom_site_fract_x
 _atom_site_fract_y
 _atom_site_fract_z
 _atom_site_occupancy
  Li  Li0  1  0.312117  0.251157  0.139792  1
  Li  Li1  1  0.738237  0.810521  0.362774  1
  Li  Li2  1  0.269046  0.075330  0.861304  1
  Li  Li3  1  0.698201  0.757429  0.877792  1
  Mn  Mn4  1  0.854958  0.145974  0.569104  1
  Mn  Mn5  1  0.148681  0.855349  0.438130  1
  V  V6  1  0.346142  0.647864  0.046575  1
  V  V7  1  0.661739  0.352802  0.957465  1
  P  P8  1  0.456763  0.951562  0.249966  1
  P  P9  1  0.740055  0.534958  0.246178  1
  P  P10  1  0.037633  0.251561  0.259883  1
  P  P11  1  0.965456  0.751097  0.750051  1
  P  P12  1  0.261612  0.464035  0.759145  1
  P  P13  1  0.536565  0.043121  0.747640  1
  O  O14  1  0.465426  0.155373  0.094414  1
  O  O15  1  0.259305  0.881783  0.272792  1
  O  O16  1  0.467555  0.811389  0.187945  1
  O  O17  1  0.519261  0.494698  0.195120  1
  O  O18  1  0.775209  0.536164  0.089423  1
  O  O19  1  0.833833  0.222417  0.124117  1
  O  O20  1  0.626635  0.962886  0.410039  1
  O  O21  1  0.852219  0.733932  0.267557  1
  O  O22  1  0.783807  0.370630  0.416330  1
  O  O23  1  0.171100  0.462316  0.187582  1
  O  O24  1  0.113663  0.110653  0.266266  1
  O  O25  1  0.023490  0.207945  0.437225  1
  O  O26  1  0.972736  0.796377  0.567392  1
  O  O27  1  0.880406  0.886646  0.740157  1
  O  O28  1  0.837287  0.536962  0.816112  1
  O  O29  1  0.215077  0.624436  0.587186  1
  O  O30  1  0.142397  0.260209  0.749741  1
  O  O31  1  0.379045  0.032476  0.581339  1
  O  O32  1  0.168732  0.794813  0.880565  1
  O  O33  1  0.231364  0.472588  0.913244  1
  O  O34  1  0.481411  0.494871  0.810299  1
  O  O35  1  0.528242  0.172599  0.821764  1
  O  O36  1  0.737989  0.109376  0.733390  1
  O  O37  1  0.514375  0.829748  0.896279  1
