# generated using pymatgen
data_K2HoPCO7
_symmetry_space_group_name_H-M   'P 1'
_cell_length_a   5.80511430
_cell_length_b   7.13359294
_cell_length_c   9.91727453
_cell_angle_alpha   90.00000000
_cell_angle_beta   92.26010865
_cell_angle_gamma   90.00000000
_symmetry_Int_Tables_number   1
_chemical_formula_structural   K2HoPCO7
_chemical_formula_sum   'K4 Ho2 P2 C2 O14'
_cell_volume   410.36797680
_cell_formula_units_Z   2
loop_
 _symmetry_equiv_pos_site_id
 _symmetry_equiv_pos_as_xyz
  1  'x, y, z'
loop_
 _atom_site_type_symbol
 _atom_site_label
 _atom_site_symmetry_multiplicity
 _atom_site_fract_x
 _atom_site_fract_y
 _atom_site_fract_z
 _atom_site_occupancy
  K  K0  1  0.245469  0.011863  0.724949  1
  K  K1  1  0.245469  0.488137  0.724949  1
  K  K2  1  0.754531  0.511863  0.275051  1
  K  K3  1  0.754531  0.988137  0.275051  1
  Ho  Ho4  1  0.777380  0.750000  0.865429  1
  Ho  Ho5  1  0.222620  0.250000  0.134571  1
  P  P6  1  0.711394  0.250000  0.929366  1
  P  P7  1  0.288606  0.750000  0.070634  1
  C  C8  1  0.729590  0.750000  0.589202  1
  C  C9  1  0.270410  0.250000  0.410798  1
  O  O10  1  0.301141  0.250000  0.536482  1
  O  O11  1  0.935029  0.750000  0.651668  1
  O  O12  1  0.554709  0.750000  0.672511  1
  O  O13  1  0.769085  0.069562  0.850271  1
  O  O14  1  0.769085  0.430438  0.850271  1
  O  O15  1  0.147440  0.750000  0.932436  1
  O  O16  1  0.447745  0.250000  0.958428  1
  O  O17  1  0.552255  0.750000  0.041572  1
  O  O18  1  0.852560  0.250000  0.067564  1
  O  O19  1  0.230915  0.569562  0.149729  1
  O  O20  1  0.230915  0.930438  0.149729  1
  O  O21  1  0.445291  0.250000  0.327489  1
  O  O22  1  0.064971  0.250000  0.348332  1
  O  O23  1  0.698859  0.750000  0.463518  1
