# generated using pymatgen
data_LiCoPO4
_symmetry_space_group_name_H-M   'P 1'
_cell_length_a   8.28841460
_cell_length_b   8.28841460
_cell_length_c   8.28841460
_cell_angle_alpha   35.63575324
_cell_angle_beta   35.63575324
_cell_angle_gamma   35.63575324
_symmetry_Int_Tables_number   1
_chemical_formula_structural   LiCoPO4
_chemical_formula_sum   'Li2 Co2 P2 O8'
_cell_volume   172.77045723
_cell_formula_units_Z   2
loop_
 _symmetry_equiv_pos_site_id
 _symmetry_equiv_pos_as_xyz
  1  'x, y, z'
loop_
 _atom_site_type_symbol
 _atom_site_label
 _atom_site_symmetry_multiplicity
 _atom_site_fract_x
 _atom_site_fract_y
 _atom_site_fract_z
 _atom_site_occupancy
  Li  Li0  1  0.862873  0.862873  0.862873  1
  Li  Li1  1  0.137127  0.137127  0.137127  1
  Co  Co2  1  0.729771  0.729771  0.729771  1
  Co  Co3  1  0.270229  0.270229  0.270229  1
  P  P4  1  0.582333  0.582333  0.582333  1
  P  P5  1  0.417667  0.417667  0.417667  1
  O  O6  1  0.860699  0.279827  0.539823  1
  O  O7  1  0.720173  0.460177  0.139301  1
  O  O8  1  0.139301  0.720173  0.460177  1
  O  O9  1  0.352231  0.352231  0.352231  1
  O  O10  1  0.539823  0.860699  0.279827  1
  O  O11  1  0.279827  0.539823  0.860699  1
  O  O12  1  0.460177  0.139301  0.720173  1
  O  O13  1  0.647769  0.647769  0.647769  1
