# generated using pymatgen
data_Cd2Si(P2O7)2
_symmetry_space_group_name_H-M   'P 1'
_cell_length_a   9.35897871
_cell_length_b   9.35897871
_cell_length_c   12.77963589
_cell_angle_alpha   77.43907767
_cell_angle_beta   102.56092233
_cell_angle_gamma   146.64313247
_symmetry_Int_Tables_number   1
_chemical_formula_structural   Cd2Si(P2O7)2
_chemical_formula_sum   'Cd4 Si2 P8 O28'
_cell_volume   599.41879285
_cell_formula_units_Z   2
loop_
 _symmetry_equiv_pos_site_id
 _symmetry_equiv_pos_as_xyz
  1  'x, y, z'
loop_
 _atom_site_type_symbol
 _atom_site_label
 _atom_site_symmetry_multiplicity
 _atom_site_fract_x
 _atom_site_fract_y
 _atom_site_fract_z
 _atom_site_occupancy
  Cd  Cd0  1  0.613540  0.104047  0.370545  1
  Cd  Cd1  1  0.104047  0.613540  0.129455  1
  Cd  Cd2  1  0.895953  0.386460  0.870545  1
  Cd  Cd3  1  0.386460  0.895953  0.629455  1
  Si  Si4  1  0.623486  0.623486  0.250000  1
  Si  Si5  1  0.376514  0.376514  0.750000  1
  P  P6  1  0.899281  0.647093  0.427810  1
  P  P7  1  0.523089  0.285327  0.138505  1
  P  P8  1  0.352907  0.100719  0.927810  1
  P  P9  1  0.714673  0.476911  0.638505  1
  P  P10  1  0.285327  0.523089  0.361495  1
  P  P11  1  0.647093  0.899281  0.072190  1
  P  P12  1  0.476911  0.714673  0.861495  1
  P  P13  1  0.100719  0.352907  0.572190  1
  O  O14  1  0.878219  0.771357  0.331880  1
  O  O15  1  0.471208  0.380594  0.187610  1
  O  O16  1  0.678315  0.366851  0.403906  1
  O  O17  1  0.346868  0.180742  0.026792  1
  O  O18  1  0.228643  0.121781  0.831880  1
  O  O19  1  0.619406  0.528792  0.687610  1
  O  O20  1  0.808305  0.524979  0.120390  1
  O  O21  1  0.169632  0.809489  0.449802  1
  O  O22  1  0.415472  0.053468  0.202265  1
  O  O23  1  0.633149  0.321685  0.903906  1
  O  O24  1  0.819258  0.653132  0.526792  1
  O  O25  1  0.475021  0.191695  0.620390  1
  O  O26  1  0.190511  0.830368  0.949802  1
  O  O27  1  0.946532  0.584528  0.702265  1
  O  O28  1  0.053468  0.415472  0.297735  1
  O  O29  1  0.809489  0.169632  0.050198  1
  O  O30  1  0.524979  0.808305  0.379610  1
  O  O31  1  0.180742  0.346868  0.473208  1
  O  O32  1  0.366851  0.678315  0.096094  1
  O  O33  1  0.584528  0.946532  0.797735  1
  O  O34  1  0.830368  0.190511  0.550198  1
  O  O35  1  0.191695  0.475021  0.879610  1
  O  O36  1  0.380594  0.471208  0.312390  1
  O  O37  1  0.771357  0.878219  0.168120  1
  O  O38  1  0.653132  0.819258  0.973208  1
  O  O39  1  0.321685  0.633149  0.596094  1
  O  O40  1  0.528792  0.619406  0.812390  1
  O  O41  1  0.121781  0.228643  0.668120  1
