# generated using pymatgen
data_Li3V2F12
_symmetry_space_group_name_H-M   'P 1'
_cell_length_a   5.03045531
_cell_length_b   8.84241076
_cell_length_c   9.72815637
_cell_angle_alpha   90.00000000
_cell_angle_beta   91.62877003
_cell_angle_gamma   90.00000000
_symmetry_Int_Tables_number   1
_chemical_formula_structural   Li3V2F12
_chemical_formula_sum   'Li6 V4 F24'
_cell_volume   432.54671616
_cell_formula_units_Z   2
loop_
 _symmetry_equiv_pos_site_id
 _symmetry_equiv_pos_as_xyz
  1  'x, y, z'
loop_
 _atom_site_type_symbol
 _atom_site_label
 _atom_site_symmetry_multiplicity
 _atom_site_fract_x
 _atom_site_fract_y
 _atom_site_fract_z
 _atom_site_occupancy
  Li  Li0  1  0.984056  0.392846  0.108285  1
  Li  Li1  1  0.503491  0.850089  0.382313  1
  Li  Li2  1  0.017972  0.314969  0.397702  1
  Li  Li3  1  0.984056  0.607154  0.608285  1
  Li  Li4  1  0.503491  0.149911  0.882313  1
  Li  Li5  1  0.017972  0.685031  0.897702  1
  V  V6  1  0.002342  0.007161  0.131596  1
  V  V7  1  0.497263  0.506163  0.366971  1
  V  V8  1  0.002342  0.992839  0.631596  1
  V  V9  1  0.497263  0.493837  0.866971  1
  F  F10  1  0.177289  0.139227  0.021397  1
  F  F11  1  0.711776  0.018524  0.016580  1
  F  F12  1  0.124913  0.851641  0.030931  1
  F  F13  1  0.885076  0.172864  0.225633  1
  F  F14  1  0.289673  0.996646  0.248068  1
  F  F15  1  0.821822  0.885452  0.243515  1
  F  F16  1  0.785921  0.493940  0.249518  1
  F  F17  1  0.289330  0.368650  0.258771  1
  F  F18  1  0.352129  0.673607  0.283028  1
  F  F19  1  0.662984  0.351596  0.462718  1
  F  F20  1  0.201900  0.491103  0.487987  1
  F  F21  1  0.679120  0.655454  0.479772  1
  F  F22  1  0.177289  0.860773  0.521397  1
  F  F23  1  0.711776  0.981476  0.516580  1
  F  F24  1  0.124913  0.148359  0.530931  1
  F  F25  1  0.885076  0.827136  0.725633  1
  F  F26  1  0.289673  0.003354  0.748068  1
  F  F27  1  0.821822  0.114548  0.743515  1
  F  F28  1  0.785921  0.506060  0.749518  1
  F  F29  1  0.289330  0.631350  0.758771  1
  F  F30  1  0.352129  0.326393  0.783028  1
  F  F31  1  0.662984  0.648404  0.962718  1
  F  F32  1  0.201900  0.508897  0.987987  1
  F  F33  1  0.679120  0.344546  0.979772  1
