# generated using pymatgen
data_Li3VPCO7
_symmetry_space_group_name_H-M   'P 1'
_cell_length_a   8.64309811
_cell_length_b   6.50870476
_cell_length_c   9.71771457
_cell_angle_alpha   90.00000000
_cell_angle_beta   91.98107550
_cell_angle_gamma   90.00000000
_symmetry_Int_Tables_number   1
_chemical_formula_structural   Li3VPCO7
_chemical_formula_sum   'Li12 V4 P4 C4 O28'
_cell_volume   546.34691921
_cell_formula_units_Z   4
loop_
 _symmetry_equiv_pos_site_id
 _symmetry_equiv_pos_as_xyz
  1  'x, y, z'
loop_
 _atom_site_type_symbol
 _atom_site_label
 _atom_site_symmetry_multiplicity
 _atom_site_fract_x
 _atom_site_fract_y
 _atom_site_fract_z
 _atom_site_occupancy
  Li  Li0  1  0.888096  0.749710  0.383856  1
  Li  Li1  1  0.888096  0.750290  0.883856  1
  Li  Li2  1  0.707188  0.979601  0.119910  1
  Li  Li3  1  0.707188  0.520399  0.619910  1
  Li  Li4  1  0.628131  0.254967  0.385541  1
  Li  Li5  1  0.628131  0.245033  0.885541  1
  Li  Li6  1  0.371869  0.754967  0.114459  1
  Li  Li7  1  0.371869  0.745033  0.614459  1
  Li  Li8  1  0.292812  0.479601  0.380090  1
  Li  Li9  1  0.292812  0.020399  0.880090  1
  Li  Li10  1  0.111904  0.249710  0.116144  1
  Li  Li11  1  0.111904  0.250290  0.616144  1
  V  V12  1  0.751754  0.481180  0.114069  1
  V  V13  1  0.751754  0.018820  0.614069  1
  V  V14  1  0.248246  0.981180  0.385931  1
  V  V15  1  0.248246  0.518820  0.885931  1
  P  P16  1  0.590920  0.742770  0.358713  1
  P  P17  1  0.590920  0.757230  0.858713  1
  P  P18  1  0.409080  0.242770  0.141287  1
  P  P19  1  0.409080  0.257230  0.641287  1
  C  C20  1  0.946663  0.238218  0.366130  1
  C  C21  1  0.946663  0.261782  0.866130  1
  C  C22  1  0.053337  0.738218  0.133870  1
  C  C23  1  0.053337  0.761782  0.633870  1
  O  O24  1  0.924415  0.212017  0.497144  1
  O  O25  1  0.910086  0.731628  0.176645  1
  O  O26  1  0.924415  0.287983  0.997144  1
  O  O27  1  0.834338  0.268546  0.279236  1
  O  O28  1  0.910086  0.768372  0.676645  1
  O  O29  1  0.834338  0.231454  0.779236  1
  O  O30  1  0.680792  0.940352  0.405522  1
  O  O31  1  0.685350  0.562496  0.420586  1
  O  O32  1  0.685350  0.937504  0.920586  1
  O  O33  1  0.680792  0.559648  0.905522  1
  O  O34  1  0.579591  0.243199  0.095982  1
  O  O35  1  0.591584  0.729680  0.197721  1
  O  O36  1  0.579591  0.256801  0.595982  1
  O  O37  1  0.591584  0.770320  0.697721  1
  O  O38  1  0.408416  0.229680  0.302279  1
  O  O39  1  0.420409  0.743199  0.404018  1
  O  O40  1  0.408416  0.270320  0.802279  1
  O  O41  1  0.420409  0.756801  0.904018  1
  O  O42  1  0.314650  0.062496  0.079414  1
  O  O43  1  0.319208  0.440352  0.094478  1
  O  O44  1  0.314650  0.437504  0.579414  1
  O  O45  1  0.319208  0.059648  0.594478  1
  O  O46  1  0.165662  0.768546  0.220764  1
  O  O47  1  0.089914  0.231628  0.323355  1
  O  O48  1  0.165662  0.731454  0.720764  1
  O  O49  1  0.075585  0.712017  0.002856  1
  O  O50  1  0.089914  0.268372  0.823355  1
  O  O51  1  0.075585  0.787983  0.502856  1
