# generated using pymatgen
data_Li2AgF4
_symmetry_space_group_name_H-M   'P 1'
_cell_length_a   8.94437877
_cell_length_b   8.94437877
_cell_length_c   8.94437877
_cell_angle_alpha   105.18632170
_cell_angle_beta   105.18632170
_cell_angle_gamma   105.18632170
_symmetry_Int_Tables_number   1
_chemical_formula_structural   Li2AgF4
_chemical_formula_sum   'Li12 Ag6 F24'
_cell_volume   623.06992742
_cell_formula_units_Z   6
loop_
 _symmetry_equiv_pos_site_id
 _symmetry_equiv_pos_as_xyz
  1  'x, y, z'
loop_
 _atom_site_type_symbol
 _atom_site_label
 _atom_site_symmetry_multiplicity
 _atom_site_fract_x
 _atom_site_fract_y
 _atom_site_fract_z
 _atom_site_occupancy
  Li  Li0  1  0.901123  0.714455  0.145700  1
  Li  Li1  1  0.285545  0.854300  0.098877  1
  Li  Li2  1  0.450270  0.610764  0.188938  1
  Li  Li3  1  0.811062  0.549730  0.389236  1
  Li  Li4  1  0.854300  0.098877  0.285545  1
  Li  Li5  1  0.389236  0.811062  0.549730  1
  Li  Li6  1  0.610764  0.188938  0.450270  1
  Li  Li7  1  0.145700  0.901123  0.714455  1
  Li  Li8  1  0.188938  0.450270  0.610764  1
  Li  Li9  1  0.549730  0.389236  0.811062  1
  Li  Li10  1  0.714455  0.145700  0.901123  1
  Li  Li11  1  0.098877  0.285545  0.854300  1
  Ag  Ag12  1  0.468698  0.183154  0.114132  1
  Ag  Ag13  1  0.114132  0.468698  0.183154  1
  Ag  Ag14  1  0.816846  0.885868  0.531302  1
  Ag  Ag15  1  0.183154  0.114132  0.468698  1
  Ag  Ag16  1  0.885868  0.531302  0.816846  1
  Ag  Ag17  1  0.531302  0.816846  0.885868  1
  F  F18  1  0.432230  0.738850  0.054496  1
  F  F19  1  0.956308  0.931005  0.286559  1
  F  F20  1  0.068995  0.713441  0.043692  1
  F  F21  1  0.945504  0.567770  0.261150  1
  F  F22  1  0.713441  0.043692  0.068995  1
  F  F23  1  0.281131  0.384810  0.076920  1
  F  F24  1  0.666845  0.663298  0.321613  1
  F  F25  1  0.336702  0.678387  0.333155  1
  F  F26  1  0.678387  0.333155  0.336702  1
  F  F27  1  0.384810  0.076920  0.281131  1
  F  F28  1  0.923080  0.718869  0.615190  1
  F  F29  1  0.738850  0.054496  0.432230  1
  F  F30  1  0.261150  0.945504  0.567770  1
  F  F31  1  0.076920  0.281131  0.384810  1
  F  F32  1  0.615190  0.923080  0.718869  1
  F  F33  1  0.321613  0.666845  0.663298  1
  F  F34  1  0.663298  0.321613  0.666845  1
  F  F35  1  0.333155  0.336702  0.678387  1
  F  F36  1  0.718869  0.615190  0.923080  1
  F  F37  1  0.286559  0.956308  0.931005  1
  F  F38  1  0.054496  0.432230  0.738850  1
  F  F39  1  0.931005  0.286559  0.956308  1
  F  F40  1  0.043692  0.068995  0.713441  1
  F  F41  1  0.567770  0.261150  0.945504  1
