# generated using pymatgen
data_CsH7(C2O5)2
_symmetry_space_group_name_H-M   'P 1'
_cell_length_a   6.45301904
_cell_length_b   7.49638979
_cell_length_c   10.93740604
_cell_angle_alpha   94.01292994
_cell_angle_beta   99.85411517
_cell_angle_gamma   96.46472187
_symmetry_Int_Tables_number   1
_chemical_formula_structural   CsH7(C2O5)2
_chemical_formula_sum   'Cs2 H14 C8 O20'
_cell_volume   515.81238300
_cell_formula_units_Z   2
loop_
 _symmetry_equiv_pos_site_id
 _symmetry_equiv_pos_as_xyz
  1  'x, y, z'
loop_
 _atom_site_type_symbol
 _atom_site_label
 _atom_site_symmetry_multiplicity
 _atom_site_fract_x
 _atom_site_fract_y
 _atom_site_fract_z
 _atom_site_occupancy
  Cs  Cs0  1  0.845000  0.849121  0.719997  1
  Cs  Cs1  1  0.155000  0.150879  0.280003  1
  H  H2  1  0.847780  0.351383  0.742712  1
  H  H3  1  0.152220  0.648617  0.257288  1
  H  H4  1  0.387841  0.087278  0.767982  1
  H  H5  1  0.612159  0.912722  0.232018  1
  H  H6  1  0.345265  0.566533  0.766885  1
  H  H7  1  0.654735  0.433467  0.233115  1
  H  H8  1  0.260698  0.208819  0.619207  1
  H  H9  1  0.739302  0.791181  0.380793  1
  H  H10  1  0.283879  0.999782  0.589149  1
  H  H11  1  0.716121  0.000218  0.410851  1
  H  H12  1  0.839188  0.227030  0.919398  1
  H  H13  1  0.160812  0.772970  0.080602  1
  H  H14  1  0.070075  0.317681  0.909915  1
  H  H15  1  0.929925  0.682319  0.090085  1
  C  C16  1  0.720159  0.437005  0.443394  1
  C  C17  1  0.279841  0.562995  0.556606  1
  C  C18  1  0.750277  0.322139  0.557631  1
  C  C19  1  0.249723  0.677861  0.442369  1
  C  C20  1  0.419096  0.996318  0.938551  1
  C  C21  1  0.580904  0.003682  0.061449  1
  C  C22  1  0.509014  0.546661  0.939579  1
  C  C23  1  0.490986  0.453339  0.060421  1
  O  O24  1  0.746782  0.605649  0.464065  1
  O  O25  1  0.253218  0.394351  0.535935  1
  O  O26  1  0.672074  0.343093  0.338407  1
  O  O27  1  0.327926  0.656907  0.661593  1
  O  O28  1  0.810002  0.422093  0.664541  1
  O  O29  1  0.189998  0.577907  0.335459  1
  O  O30  1  0.721147  0.155825  0.545442  1
  O  O31  1  0.278853  0.844175  0.454558  1
  O  O32  1  0.240218  0.910643  0.925966  1
  O  O33  1  0.759782  0.089357  0.074034  1
  O  O34  1  0.496888  0.087871  0.855452  1
  O  O35  1  0.503112  0.912129  0.144548  1
  O  O36  1  0.665295  0.654877  0.933338  1
  O  O37  1  0.334705  0.345123  0.066662  1
  O  O38  1  0.343914  0.496688  0.851814  1
  O  O39  1  0.656086  0.503312  0.148186  1
  O  O40  1  0.255015  0.088715  0.653608  1
  O  O41  1  0.744985  0.911285  0.346392  1
  O  O42  1  0.928484  0.273109  0.861623  1
  O  O43  1  0.071516  0.726891  0.138377  1
