# generated using pymatgen
data_Sc(ClO4)3
_symmetry_space_group_name_H-M   'P 1'
_cell_length_a   9.24846135
_cell_length_b   9.24846135
_cell_length_c   5.39948561
_cell_angle_alpha   90.00000000
_cell_angle_beta   90.00000000
_cell_angle_gamma   120.00000000
_symmetry_Int_Tables_number   1
_chemical_formula_structural   Sc(ClO4)3
_chemical_formula_sum   'Sc2 Cl6 O24'
_cell_volume   399.96500293
_cell_formula_units_Z   2
loop_
 _symmetry_equiv_pos_site_id
 _symmetry_equiv_pos_as_xyz
  1  'x, y, z'
loop_
 _atom_site_type_symbol
 _atom_site_label
 _atom_site_symmetry_multiplicity
 _atom_site_fract_x
 _atom_site_fract_y
 _atom_site_fract_z
 _atom_site_occupancy
  Sc  Sc0  1  0.333333  0.666667  0.750000  1
  Sc  Sc1  1  0.666667  0.333333  0.250000  1
  Cl  Cl2  1  0.095078  0.704619  0.250000  1
  Cl  Cl3  1  0.295381  0.390459  0.250000  1
  Cl  Cl4  1  0.609541  0.904922  0.250000  1
  Cl  Cl5  1  0.390459  0.095078  0.750000  1
  Cl  Cl6  1  0.704619  0.609541  0.750000  1
  Cl  Cl7  1  0.904922  0.295381  0.750000  1
  O  O8  1  0.024929  0.810077  0.250000  1
  O  O9  1  0.027006  0.472138  0.750000  1
  O  O10  1  0.204289  0.741973  0.030420  1
  O  O11  1  0.204289  0.741973  0.469580  1
  O  O12  1  0.445131  0.972994  0.750000  1
  O  O13  1  0.258027  0.462316  0.469580  1
  O  O14  1  0.258027  0.462316  0.030420  1
  O  O15  1  0.189923  0.214852  0.250000  1
  O  O16  1  0.537684  0.795711  0.030420  1
  O  O17  1  0.537684  0.795711  0.469580  1
  O  O18  1  0.214852  0.024929  0.750000  1
  O  O19  1  0.472138  0.445131  0.250000  1
  O  O20  1  0.527862  0.554869  0.750000  1
  O  O21  1  0.785148  0.975071  0.250000  1
  O  O22  1  0.462316  0.204289  0.530420  1
  O  O23  1  0.462316  0.204289  0.969580  1
  O  O24  1  0.810077  0.785148  0.750000  1
  O  O25  1  0.741973  0.537684  0.969580  1
  O  O26  1  0.741973  0.537684  0.530420  1
  O  O27  1  0.554869  0.027006  0.250000  1
  O  O28  1  0.795711  0.258027  0.969580  1
  O  O29  1  0.795711  0.258027  0.530420  1
  O  O30  1  0.972994  0.527862  0.250000  1
  O  O31  1  0.975071  0.189923  0.750000  1
