# generated using pymatgen
data_TaS2
_symmetry_space_group_name_H-M   'P 1'
_cell_length_a   12.94497048
_cell_length_b   12.94497048
_cell_length_c   12.94497048
_cell_angle_alpha   14.97143664
_cell_angle_beta   14.97143664
_cell_angle_gamma   14.97143664
_symmetry_Int_Tables_number   1
_chemical_formula_structural   TaS2
_chemical_formula_sum   'Ta2 S4'
_cell_volume   126.08763548
_cell_formula_units_Z   2
loop_
 _symmetry_equiv_pos_site_id
 _symmetry_equiv_pos_as_xyz
  1  'x, y, z'
loop_
 _atom_site_type_symbol
 _atom_site_label
 _atom_site_symmetry_multiplicity
 _atom_site_fract_x
 _atom_site_fract_y
 _atom_site_fract_z
 _atom_site_occupancy
  Ta  Ta0  1  0.917086  0.917086  0.917086  1
  Ta  Ta1  1  0.082914  0.082914  0.082914  1
  S  S2  1  0.789654  0.789654  0.789654  1
  S  S3  1  0.210346  0.210346  0.210346  1
  S  S4  1  0.623818  0.623818  0.623818  1
  S  S5  1  0.376182  0.376182  0.376182  1
