# generated using pymatgen
data_Fe7O9
_symmetry_space_group_name_H-M   'P 1'
_cell_length_a   8.58476678
_cell_length_b   8.62024269
_cell_length_c   8.77775052
_cell_angle_alpha   89.30478407
_cell_angle_beta   88.95293130
_cell_angle_gamma   89.39269646
_symmetry_Int_Tables_number   1
_chemical_formula_structural   Fe7O9
_chemical_formula_sum   'Fe21 O27'
_cell_volume   649.38661691
_cell_formula_units_Z   3
loop_
 _symmetry_equiv_pos_site_id
 _symmetry_equiv_pos_as_xyz
  1  'x, y, z'
loop_
 _atom_site_type_symbol
 _atom_site_label
 _atom_site_symmetry_multiplicity
 _atom_site_fract_x
 _atom_site_fract_y
 _atom_site_fract_z
 _atom_site_occupancy
  Fe  Fe0  1  0.512573  0.489923  0.968914  1
  Fe  Fe1  1  0.634290  0.177301  0.085026  1
  Fe  Fe2  1  0.328383  0.917632  0.128004  1
  Fe  Fe3  1  0.087788  0.629463  0.143770  1
  Fe  Fe4  1  0.755557  0.756636  0.257723  1
  Fe  Fe5  1  0.269429  0.264268  0.269962  1
  Fe  Fe6  1  0.904858  0.129752  0.356993  1
  Fe  Fe7  1  0.629815  0.403273  0.362938  1
  Fe  Fe8  1  0.356354  0.627239  0.411751  1
  Fe  Fe9  1  0.491004  0.965435  0.471087  1
  Fe  Fe10  1  0.963889  0.518090  0.469996  1
  Fe  Fe11  1  0.877674  0.871878  0.600468  1
  Fe  Fe12  1  0.144627  0.085115  0.629813  1
  Fe  Fe13  1  0.627747  0.619233  0.630981  1
  Fe  Fe14  1  0.403521  0.331612  0.642320  1
  Fe  Fe15  1  0.773852  0.238172  0.737728  1
  Fe  Fe16  1  0.245881  0.734633  0.777377  1
  Fe  Fe17  1  0.590918  0.881602  0.841331  1
  Fe  Fe18  1  0.874065  0.593979  0.875671  1
  Fe  Fe19  1  0.138459  0.360924  0.913845  1
  Fe  Fe20  1  0.004377  0.033943  0.008447  1
  O  O21  1  0.157796  0.390888  0.129725  1
  O  O22  1  0.858426  0.670310  0.081380  1
  O  O23  1  0.119818  0.867549  0.112538  1
  O  O24  1  0.407964  0.118918  0.166240  1
  O  O25  1  0.594318  0.394147  0.149212  1
  O  O26  1  0.850433  0.121585  0.144025  1
  O  O27  1  0.142003  0.610557  0.370202  1
  O  O28  1  0.410010  0.822291  0.308550  1
  O  O29  1  0.620123  0.621339  0.400823  1
  O  O30  1  0.843590  0.347218  0.384992  1
  O  O31  1  0.127381  0.145511  0.395021  1
  O  O32  1  0.396374  0.391645  0.404415  1
  O  O33  1  0.792265  0.933040  0.386668  1
  O  O34  1  0.384113  0.630242  0.631451  1
  O  O35  1  0.903739  0.111892  0.608933  1
  O  O36  1  0.638573  0.383840  0.625206  1
  O  O37  1  0.367859  0.108203  0.598860  1
  O  O38  1  0.113399  0.866118  0.661591  1
  O  O39  1  0.865583  0.637978  0.641887  1
  O  O40  1  0.621776  0.857595  0.629684  1
  O  O41  1  0.354901  0.385220  0.855021  1
  O  O42  1  0.122282  0.147949  0.845620  1
  O  O43  1  0.895399  0.372437  0.859901  1
  O  O44  1  0.642911  0.650724  0.860233  1
  O  O45  1  0.387105  0.839088  0.920601  1
  O  O46  1  0.671894  0.082952  0.870974  1
  O  O47  1  0.107006  0.598562  0.884206  1
