# generated using pymatgen
data_LiFe(PO3)3
_symmetry_space_group_name_H-M   'P 1'
_cell_length_a   9.46942366
_cell_length_b   9.52500980
_cell_length_c   9.76822705
_cell_angle_alpha   108.70337381
_cell_angle_beta   104.47968559
_cell_angle_gamma   110.54011661
_symmetry_Int_Tables_number   1
_chemical_formula_structural   LiFe(PO3)3
_chemical_formula_sum   'Li4 Fe4 P12 O36'
_cell_volume   713.21372401
_cell_formula_units_Z   4
loop_
 _symmetry_equiv_pos_site_id
 _symmetry_equiv_pos_as_xyz
  1  'x, y, z'
loop_
 _atom_site_type_symbol
 _atom_site_label
 _atom_site_symmetry_multiplicity
 _atom_site_fract_x
 _atom_site_fract_y
 _atom_site_fract_z
 _atom_site_occupancy
  Li  Li0  1  0.232869  0.774507  0.741578  1
  Li  Li1  1  0.926060  0.691511  0.786242  1
  Li  Li2  1  0.073940  0.308489  0.213758  1
  Li  Li3  1  0.767131  0.225493  0.258422  1
  Fe  Fe4  1  0.668044  0.066010  0.492398  1
  Fe  Fe5  1  0.624438  0.826519  0.700454  1
  Fe  Fe6  1  0.375562  0.173481  0.299546  1
  Fe  Fe7  1  0.331956  0.933990  0.507602  1
  P  P8  1  0.192930  0.081680  0.915688  1
  P  P9  1  0.519411  0.146975  0.895121  1
  P  P10  1  0.009834  0.396073  0.646705  1
  P  P11  1  0.954165  0.214229  0.844448  1
  P  P12  1  0.580577  0.340417  0.709977  1
  P  P13  1  0.324670  0.432023  0.593324  1
  P  P14  1  0.675330  0.567977  0.406676  1
  P  P15  1  0.419423  0.659583  0.290023  1
  P  P16  1  0.045835  0.785771  0.155552  1
  P  P17  1  0.990166  0.603927  0.353295  1
  P  P18  1  0.480589  0.853025  0.104879  1
  P  P19  1  0.807070  0.918320  0.084312  1
  O  O20  1  0.049324  0.730425  0.998463  1
  O  O21  1  0.367069  0.180028  0.907688  1
  O  O22  1  0.102525  0.171177  0.840384  1
  O  O23  1  0.006991  0.368068  0.799782  1
  O  O24  1  0.612107  0.300422  0.857823  1
  O  O25  1  0.371188  0.827406  0.952992  1
  O  O26  1  0.109488  0.900493  0.802631  1
  O  O27  1  0.037895  0.568464  0.677966  1
  O  O28  1  0.165761  0.371527  0.631202  1
  O  O29  1  0.433417  0.386266  0.712652  1
  O  O30  1  0.792117  0.065084  0.703671  1
  O  O31  1  0.781328  0.863728  0.912522  1
  O  O32  1  0.730541  0.478144  0.731442  1
  O  O33  1  0.506532  0.172139  0.554919  1
  O  O34  1  0.406221  0.619576  0.648385  1
  O  O35  1  0.455838  0.982408  0.745683  1
  O  O36  1  0.282530  0.316163  0.425758  1
  O  O37  1  0.142888  0.749764  0.496569  1
  O  O38  1  0.857112  0.250236  0.503431  1
  O  O39  1  0.717470  0.683837  0.574242  1
  O  O40  1  0.544162  0.017592  0.254317  1
  O  O41  1  0.593779  0.380424  0.351615  1
  O  O42  1  0.493468  0.827861  0.445081  1
  O  O43  1  0.269459  0.521856  0.268558  1
  O  O44  1  0.218672  0.136272  0.087478  1
  O  O45  1  0.207883  0.934916  0.296329  1
  O  O46  1  0.566583  0.613734  0.287348  1
  O  O47  1  0.834239  0.628473  0.368798  1
  O  O48  1  0.962105  0.431536  0.322034  1
  O  O49  1  0.890512  0.099507  0.197369  1
  O  O50  1  0.628812  0.172594  0.047008  1
  O  O51  1  0.387893  0.699578  0.142177  1
  O  O52  1  0.993009  0.631932  0.200218  1
  O  O53  1  0.897475  0.828823  0.159616  1
  O  O54  1  0.632931  0.819972  0.092312  1
  O  O55  1  0.950676  0.269575  0.001537  1
