# generated using pymatgen
data_CoOF
_symmetry_space_group_name_H-M   'P 1'
_cell_length_a   4.59505691
_cell_length_b   2.95773779
_cell_length_c   13.59395415
_cell_angle_alpha   90.00000000
_cell_angle_beta   92.26770817
_cell_angle_gamma   90.00000000
_symmetry_Int_Tables_number   1
_chemical_formula_structural   CoOF
_chemical_formula_sum   'Co6 O6 F6'
_cell_volume   184.61038009
_cell_formula_units_Z   6
loop_
 _symmetry_equiv_pos_site_id
 _symmetry_equiv_pos_as_xyz
  1  'x, y, z'
loop_
 _atom_site_type_symbol
 _atom_site_label
 _atom_site_symmetry_multiplicity
 _atom_site_fract_x
 _atom_site_fract_y
 _atom_site_fract_z
 _atom_site_occupancy
  Co  Co0  1  0.000000  0.000000  0.000000  1
  Co  Co1  1  0.946942  0.000000  0.670029  1
  Co  Co2  1  0.053058  0.000000  0.329971  1
  Co  Co3  1  0.402842  0.500000  0.832552  1
  Co  Co4  1  0.500000  0.500000  0.500000  1
  Co  Co5  1  0.597158  0.500000  0.167448  1
  O  O6  1  0.844560  0.500000  0.067396  1
  O  O7  1  0.766184  0.000000  0.231452  1
  O  O8  1  0.672299  0.000000  0.566586  1
  O  O9  1  0.327701  0.000000  0.433414  1
  O  O10  1  0.233816  0.000000  0.768548  1
  O  O11  1  0.155440  0.500000  0.932604  1
  F  F12  1  0.721602  0.500000  0.735316  1
  F  F13  1  0.843878  0.500000  0.398093  1
  F  F14  1  0.623586  0.000000  0.895575  1
  F  F15  1  0.376414  0.000000  0.104425  1
  F  F16  1  0.156122  0.500000  0.601907  1
  F  F17  1  0.278398  0.500000  0.264684  1
