# generated using pymatgen
data_RbLiV(PO4)2
_symmetry_space_group_name_H-M   'P 1'
_cell_length_a   4.93873647
_cell_length_b   9.02814259
_cell_length_c   16.36741832
_cell_angle_alpha   90.00000000
_cell_angle_beta   95.32759341
_cell_angle_gamma   90.00000000
_symmetry_Int_Tables_number   1
_chemical_formula_structural   RbLiV(PO4)2
_chemical_formula_sum   'Rb4 Li4 V4 P8 O32'
_cell_volume   726.63158464
_cell_formula_units_Z   4
loop_
 _symmetry_equiv_pos_site_id
 _symmetry_equiv_pos_as_xyz
  1  'x, y, z'
loop_
 _atom_site_type_symbol
 _atom_site_label
 _atom_site_symmetry_multiplicity
 _atom_site_fract_x
 _atom_site_fract_y
 _atom_site_fract_z
 _atom_site_occupancy
  Rb  Rb0  1  0.903123  0.135983  0.089830  1
  Rb  Rb1  1  0.096877  0.635983  0.410170  1
  Rb  Rb2  1  0.903123  0.364017  0.589830  1
  Rb  Rb3  1  0.096877  0.864017  0.910170  1
  Li  Li4  1  0.754996  0.985313  0.482661  1
  Li  Li5  1  0.754996  0.514687  0.982661  1
  Li  Li6  1  0.245004  0.485313  0.017339  1
  Li  Li7  1  0.245004  0.014687  0.517339  1
  V  V8  1  0.904330  0.069200  0.331542  1
  V  V9  1  0.904330  0.430800  0.831542  1
  V  V10  1  0.095670  0.569200  0.168458  1
  V  V11  1  0.095670  0.930800  0.668458  1
  P  P12  1  0.577885  0.777851  0.094192  1
  P  P13  1  0.641317  0.385159  0.259730  1
  P  P14  1  0.577885  0.722149  0.594192  1
  P  P15  1  0.641317  0.114841  0.759730  1
  P  P16  1  0.358683  0.885159  0.240270  1
  P  P17  1  0.422115  0.277851  0.405808  1
  P  P18  1  0.358683  0.614841  0.740270  1
  P  P19  1  0.422115  0.222149  0.905808  1
  O  O20  1  0.561864  0.409523  0.353679  1
  O  O21  1  0.599149  0.924161  0.301187  1
  O  O22  1  0.642385  0.154428  0.418449  1
  O  O23  1  0.561864  0.090477  0.853679  1
  O  O24  1  0.640945  0.842165  0.013122  1
  O  O25  1  0.713152  0.220086  0.251908  1
  O  O26  1  0.599149  0.575839  0.801187  1
  O  O27  1  0.642385  0.345572  0.918449  1
  O  O28  1  0.640945  0.657835  0.513122  1
  O  O29  1  0.713152  0.279914  0.751908  1
  O  O30  1  0.825132  0.731292  0.150876  1
  O  O31  1  0.884710  0.489810  0.256387  1
  O  O32  1  0.954566  0.467738  0.086652  1
  O  O33  1  0.825132  0.768708  0.650876  1
  O  O34  1  0.884710  0.010190  0.756387  1
  O  O35  1  0.045434  0.967738  0.413348  1
  O  O36  1  0.954566  0.032262  0.586652  1
  O  O37  1  0.115290  0.989810  0.243613  1
  O  O38  1  0.174868  0.231292  0.349124  1
  O  O39  1  0.045434  0.532262  0.913348  1
  O  O40  1  0.115290  0.510190  0.743613  1
  O  O41  1  0.174868  0.268708  0.849124  1
  O  O42  1  0.286848  0.720086  0.248092  1
  O  O43  1  0.359055  0.342165  0.486878  1
  O  O44  1  0.357615  0.654428  0.081551  1
  O  O45  1  0.400851  0.424161  0.198813  1
  O  O46  1  0.286848  0.779914  0.748092  1
  O  O47  1  0.359055  0.157835  0.986878  1
  O  O48  1  0.438136  0.909523  0.146321  1
  O  O49  1  0.357615  0.845572  0.581551  1
  O  O50  1  0.400851  0.075839  0.698813  1
  O  O51  1  0.438136  0.590477  0.646321  1
