# generated using pymatgen
data_H7CSN3O4
_symmetry_space_group_name_H-M   'P 1'
_cell_length_a   8.20377458
_cell_length_b   5.11972537
_cell_length_c   16.75263578
_cell_angle_alpha   90.00000000
_cell_angle_beta   118.33507008
_cell_angle_gamma   90.00000000
_symmetry_Int_Tables_number   1
_chemical_formula_structural   H7CSN3O4
_chemical_formula_sum   'H28 C4 S4 N12 O16'
_cell_volume   619.32481649
_cell_formula_units_Z   4
loop_
 _symmetry_equiv_pos_site_id
 _symmetry_equiv_pos_as_xyz
  1  'x, y, z'
loop_
 _atom_site_type_symbol
 _atom_site_label
 _atom_site_symmetry_multiplicity
 _atom_site_fract_x
 _atom_site_fract_y
 _atom_site_fract_z
 _atom_site_occupancy
  H  H0  1  0.093345  0.836322  0.792284  1
  H  H1  1  0.093345  0.663678  0.292284  1
  H  H2  1  0.906655  0.163678  0.207716  1
  H  H3  1  0.906655  0.336322  0.707716  1
  H  H4  1  0.588292  0.789534  0.950304  1
  H  H5  1  0.588292  0.710466  0.450304  1
  H  H6  1  0.411708  0.210466  0.049696  1
  H  H7  1  0.411708  0.289534  0.549696  1
  H  H8  1  0.426951  0.045469  0.896287  1
  H  H9  1  0.426951  0.454531  0.396287  1
  H  H10  1  0.573049  0.954531  0.103713  1
  H  H11  1  0.573049  0.545469  0.603713  1
  H  H12  1  0.698627  0.342854  0.809758  1
  H  H13  1  0.698627  0.157146  0.309758  1
  H  H14  1  0.301373  0.657146  0.190242  1
  H  H15  1  0.301373  0.842854  0.690242  1
  H  H16  1  0.492999  0.359757  0.817701  1
  H  H17  1  0.492999  0.140243  0.317701  1
  H  H18  1  0.507001  0.640243  0.182299  1
  H  H19  1  0.507001  0.859757  0.682299  1
  H  H20  1  0.857063  0.772911  0.943000  1
  H  H21  1  0.857063  0.727089  0.443000  1
  H  H22  1  0.142937  0.227089  0.057000  1
  H  H23  1  0.142937  0.272911  0.557000  1
  H  H24  1  0.904500  0.998469  0.877811  1
  H  H25  1  0.904500  0.501531  0.377811  1
  H  H26  1  0.095500  0.001531  0.122189  1
  H  H27  1  0.095500  0.498469  0.622189  1
  C  C28  1  0.656839  0.046357  0.878721  1
  C  C29  1  0.656839  0.453643  0.378721  1
  C  C30  1  0.343161  0.953643  0.121279  1
  C  C31  1  0.343161  0.546357  0.621279  1
  S  S32  1  0.141032  0.488058  0.874194  1
  S  S33  1  0.141032  0.011942  0.374194  1
  S  S34  1  0.858968  0.511942  0.125806  1
  S  S35  1  0.858968  0.988058  0.625806  1
  N  N36  1  0.546405  0.950271  0.909766  1
  N  N37  1  0.546405  0.549729  0.409766  1
  N  N38  1  0.453595  0.049729  0.090234  1
  N  N39  1  0.453595  0.450271  0.590234  1
  N  N40  1  0.602701  0.254223  0.822867  1
  N  N41  1  0.602701  0.245777  0.322867  1
  N  N42  1  0.397299  0.745777  0.177133  1
  N  N43  1  0.397299  0.754223  0.677133  1
  N  N44  1  0.816302  0.926177  0.899100  1
  N  N45  1  0.816302  0.573823  0.399100  1
  N  N46  1  0.183698  0.073823  0.100900  1
  N  N47  1  0.183698  0.426177  0.600900  1
  O  O48  1  0.182191  0.458914  0.968319  1
  O  O49  1  0.182191  0.041086  0.468319  1
  O  O50  1  0.817809  0.541086  0.031681  1
  O  O51  1  0.817809  0.958914  0.531681  1
  O  O52  1  0.284809  0.388306  0.854203  1
  O  O53  1  0.284809  0.111694  0.354203  1
  O  O54  1  0.715191  0.611694  0.145797  1
  O  O55  1  0.715191  0.888306  0.645797  1
  O  O56  1  0.953485  0.384907  0.810154  1
  O  O57  1  0.953485  0.115093  0.310154  1
  O  O58  1  0.046515  0.615093  0.189846  1
  O  O59  1  0.046515  0.884907  0.689846  1
  O  O60  1  0.128382  0.796418  0.858465  1
  O  O61  1  0.128382  0.703582  0.358465  1
  O  O62  1  0.871618  0.203582  0.141535  1
  O  O63  1  0.871618  0.296418  0.641535  1
