# generated using pymatgen
data_Ti3Co3(TeO8)2
_symmetry_space_group_name_H-M   'P 1'
_cell_length_a   6.03190312
_cell_length_b   6.03190312
_cell_length_c   9.29770332
_cell_angle_alpha   88.72494645
_cell_angle_beta   91.27505355
_cell_angle_gamma   120.31818241
_symmetry_Int_Tables_number   1
_chemical_formula_structural   Ti3Co3(TeO8)2
_chemical_formula_sum   'Ti3 Co3 Te2 O16'
_cell_volume   291.92459706
_cell_formula_units_Z   1
loop_
 _symmetry_equiv_pos_site_id
 _symmetry_equiv_pos_as_xyz
  1  'x, y, z'
loop_
 _atom_site_type_symbol
 _atom_site_label
 _atom_site_symmetry_multiplicity
 _atom_site_fract_x
 _atom_site_fract_y
 _atom_site_fract_z
 _atom_site_occupancy
  Ti  Ti0  1  0.340897  0.163632  0.208657  1
  Ti  Ti1  1  0.836368  0.659103  0.208657  1
  Ti  Ti2  1  0.163291  0.836709  0.706080  1
  Co  Co3  1  0.829283  0.170717  0.207334  1
  Co  Co4  1  0.165335  0.346287  0.713752  1
  Co  Co5  1  0.653713  0.834665  0.713752  1
  Te  Te6  1  0.670532  0.329468  0.488247  1
  Te  Te7  1  0.338896  0.661104  0.987113  1
  O  O8  1  0.356388  0.168672  0.602201  1
  O  O9  1  0.524666  0.475334  0.345288  1
  O  O10  1  0.650666  0.349334  0.101875  1
  O  O11  1  0.008730  0.991270  0.292928  1
  O  O12  1  0.998319  0.001681  0.793328  1
  O  O13  1  0.831328  0.643612  0.602201  1
  O  O14  1  0.510549  0.046834  0.348039  1
  O  O15  1  0.953166  0.489451  0.348039  1
  O  O16  1  0.182773  0.817227  0.105015  1
  O  O17  1  0.830360  0.169640  0.592288  1
  O  O18  1  0.045550  0.531844  0.848104  1
  O  O19  1  0.468156  0.954450  0.848104  1
  O  O20  1  0.328757  0.671243  0.609650  1
  O  O21  1  0.182801  0.347980  0.099981  1
  O  O22  1  0.476862  0.523138  0.844933  1
  O  O23  1  0.652020  0.817199  0.099981  1
