# generated using pymatgen
data_Li2Ti3NiO8
_symmetry_space_group_name_H-M   'P 1'
_cell_length_a   5.97022567
_cell_length_b   5.97022567
_cell_length_c   5.97022567
_cell_angle_alpha   59.77645424
_cell_angle_beta   59.77645424
_cell_angle_gamma   59.77645424
_symmetry_Int_Tables_number   1
_chemical_formula_structural   Li2Ti3NiO8
_chemical_formula_sum   'Li2 Ti3 Ni1 O8'
_cell_volume   149.70882592
_cell_formula_units_Z   1
loop_
 _symmetry_equiv_pos_site_id
 _symmetry_equiv_pos_as_xyz
  1  'x, y, z'
loop_
 _atom_site_type_symbol
 _atom_site_label
 _atom_site_symmetry_multiplicity
 _atom_site_fract_x
 _atom_site_fract_y
 _atom_site_fract_z
 _atom_site_occupancy
  Li  Li0  1  0.879768  0.879768  0.879768  1
  Li  Li1  1  0.499569  0.499569  0.499569  1
  Ti  Ti2  1  0.501342  0.501342  0.993431  1
  Ti  Ti3  1  0.993431  0.501342  0.501342  1
  Ti  Ti4  1  0.501342  0.993431  0.501342  1
  Ni  Ni5  1  0.117737  0.117737  0.117737  1
  O  O6  1  0.740190  0.740190  0.740190  1
  O  O7  1  0.748773  0.290874  0.748773  1
  O  O8  1  0.290874  0.748773  0.748773  1
  O  O9  1  0.748773  0.748773  0.290874  1
  O  O10  1  0.251397  0.251397  0.715299  1
  O  O11  1  0.715299  0.251397  0.251397  1
  O  O12  1  0.251397  0.715299  0.251397  1
  O  O13  1  0.260109  0.260109  0.260109  1
