# generated using pymatgen
data_Li24Ti7Cr5O36
_symmetry_space_group_name_H-M   'P 1'
_cell_length_a   5.07264456
_cell_length_b   9.79981481
_cell_length_c   13.41193628
_cell_angle_alpha   97.18828857
_cell_angle_beta   100.68346831
_cell_angle_gamma   94.84197958
_symmetry_Int_Tables_number   1
_chemical_formula_structural   Li24Ti7Cr5O36
_chemical_formula_sum   'Li24 Ti7 Cr5 O36'
_cell_volume   646.04309429
_cell_formula_units_Z   1
loop_
 _symmetry_equiv_pos_site_id
 _symmetry_equiv_pos_as_xyz
  1  'x, y, z'
loop_
 _atom_site_type_symbol
 _atom_site_label
 _atom_site_symmetry_multiplicity
 _atom_site_fract_x
 _atom_site_fract_y
 _atom_site_fract_z
 _atom_site_occupancy
  Li  Li0  1  0.167065  0.000738  0.833292  1
  Li  Li1  1  0.046851  0.000194  0.612361  1
  Li  Li2  1  0.000934  0.750189  0.251268  1
  Li  Li3  1  0.332459  0.750205  0.915666  1
  Li  Li4  1  0.047233  0.499954  0.112698  1
  Li  Li5  1  0.384187  0.498922  0.780271  1
  Li  Li6  1  0.160991  0.500358  0.334302  1
  Li  Li7  1  0.502292  0.498445  0.999346  1
  Li  Li8  1  0.286699  0.500413  0.553741  1
  Li  Li9  1  0.332763  0.250174  0.415843  1
  Li  Li10  1  0.493553  0.999595  0.500690  1
  Li  Li11  1  0.285107  0.000545  0.053472  1
  Li  Li12  1  0.619966  0.001124  0.721663  1
  Li  Li13  1  0.385208  0.001297  0.280660  1
  Li  Li14  1  0.711622  0.999247  0.944779  1
  Li  Li15  1  0.667549  0.749639  0.584006  1
  Li  Li16  1  0.720328  0.500164  0.447033  1
  Li  Li17  1  0.832865  0.500480  0.666724  1
  Li  Li18  1  0.616385  0.499446  0.219736  1
  Li  Li19  1  0.948506  0.500072  0.886287  1
  Li  Li20  1  0.667490  0.250023  0.083143  1
  Li  Li21  1  0.836806  0.000573  0.165972  1
  Li  Li22  1  0.001404  0.249680  0.750357  1
  Li  Li23  1  0.952501  0.998994  0.387184  1
  Ti  Ti24  1  0.112008  0.252766  0.975418  1
  Ti  Ti25  1  0.221114  0.746776  0.694069  1
  Ti  Ti26  1  0.437666  0.246797  0.639318  1
  Ti  Ti27  1  0.444369  0.749788  0.138816  1
  Ti  Ti28  1  0.556584  0.751065  0.361392  1
  Ti  Ti29  1  0.885276  0.250869  0.525169  1
  Ti  Ti30  1  0.892399  0.751685  0.026664  1
  Cr  Cr31  1  0.112773  0.749995  0.474049  1
  Cr  Cr32  1  0.225817  0.250545  0.198106  1
  Cr  Cr33  1  0.560126  0.249453  0.860898  1
  Cr  Cr34  1  0.774179  0.750404  0.806093  1
  Cr  Cr35  1  0.775072  0.249651  0.301547  1
  O  O36  1  0.004124  0.863663  0.928535  1
  O  O37  1  0.065383  0.635565  0.786044  1
  O  O38  1  0.999220  0.361585  0.425840  1
  O  O39  1  0.143689  0.363923  0.642980  1
  O  O40  1  0.267594  0.363464  0.881230  1
  O  O41  1  0.332617  0.862313  0.593768  1
  O  O42  1  0.076239  0.135965  0.282386  1
  O  O43  1  0.190783  0.136064  0.522521  1
  O  O44  1  0.406179  0.136011  0.951183  1
  O  O45  1  0.143466  0.863720  0.143031  1
  O  O46  1  0.264840  0.865746  0.381225  1
  O  O47  1  0.484582  0.862271  0.810699  1
  O  O48  1  0.326928  0.135571  0.736791  1
  O  O49  1  0.189795  0.636314  0.022305  1
  O  O50  1  0.395197  0.635631  0.453028  1
  O  O51  1  0.522628  0.636784  0.689309  1
  O  O52  1  0.332237  0.635971  0.238167  1
  O  O53  1  0.663406  0.638159  0.901968  1
  O  O54  1  0.334316  0.362909  0.098063  1
  O  O55  1  0.669448  0.361552  0.765818  1
  O  O56  1  0.468296  0.362218  0.307578  1
  O  O57  1  0.597719  0.366362  0.548513  1
  O  O58  1  0.813432  0.364653  0.978737  1
  O  O59  1  0.668570  0.863933  0.262453  1
  O  O60  1  0.532413  0.138275  0.192344  1
  O  O61  1  0.736125  0.133904  0.617474  1
  O  O62  1  0.847693  0.137882  0.856395  1
  O  O63  1  0.596536  0.866312  0.047887  1
  O  O64  1  0.816392  0.861337  0.477867  1
  O  O65  1  0.928221  0.864458  0.715455  1
  O  O66  1  0.664961  0.137895  0.401966  1
  O  O67  1  0.735796  0.634106  0.117493  1
  O  O68  1  0.857978  0.637348  0.357489  1
  O  O69  1  0.997575  0.636064  0.571540  1
  O  O70  1  0.923967  0.364406  0.216818  1
  O  O71  1  0.003512  0.137406  0.073062  1
