# generated using pymatgen
data_Co3TeO8
_symmetry_space_group_name_H-M   'P 1'
_cell_length_a   5.94250820
_cell_length_b   5.94250820
_cell_length_c   5.94250820
_cell_angle_alpha   60.02667921
_cell_angle_beta   60.02667921
_cell_angle_gamma   60.02667921
_symmetry_Int_Tables_number   1
_chemical_formula_structural   Co3TeO8
_chemical_formula_sum   'Co3 Te1 O8'
_cell_volume   148.47623499
_cell_formula_units_Z   1
loop_
 _symmetry_equiv_pos_site_id
 _symmetry_equiv_pos_as_xyz
  1  'x, y, z'
loop_
 _atom_site_type_symbol
 _atom_site_label
 _atom_site_symmetry_multiplicity
 _atom_site_fract_x
 _atom_site_fract_y
 _atom_site_fract_z
 _atom_site_occupancy
  Co  Co0  1  0.000000  0.500000  0.500000  1
  Co  Co1  1  0.500000  1.000000  0.500000  1
  Co  Co2  1  0.500000  0.500000  0.000000  1
  Te  Te3  1  0.000000  0.000000  0.000000  1
  O  O4  1  0.766823  0.766823  0.256977  1
  O  O5  1  0.766823  0.256977  0.766823  1
  O  O6  1  0.256977  0.766823  0.766823  1
  O  O7  1  0.276963  0.276963  0.276963  1
  O  O8  1  0.723037  0.723037  0.723037  1
  O  O9  1  0.743023  0.233177  0.233177  1
  O  O10  1  0.233177  0.743023  0.233177  1
  O  O11  1  0.233177  0.233177  0.743023  1
