# generated using pymatgen
data_Ge11N11O5
_symmetry_space_group_name_H-M   'P 1'
_cell_length_a   10.21692917
_cell_length_b   10.21692917
_cell_length_c   10.21692917
_cell_angle_alpha   33.60124958
_cell_angle_beta   33.60124958
_cell_angle_gamma   33.60124958
_symmetry_Int_Tables_number   1
_chemical_formula_structural   Ge11N11O5
_chemical_formula_sum   'Ge11 N11 O5'
_cell_volume   290.95715189
_cell_formula_units_Z   1
loop_
 _symmetry_equiv_pos_site_id
 _symmetry_equiv_pos_as_xyz
  1  'x, y, z'
loop_
 _atom_site_type_symbol
 _atom_site_label
 _atom_site_symmetry_multiplicity
 _atom_site_fract_x
 _atom_site_fract_y
 _atom_site_fract_z
 _atom_site_occupancy
  Ge  Ge0  1  0.934090  0.934090  0.450779  1
  Ge  Ge1  1  0.688379  0.688379  0.688379  1
  Ge  Ge2  1  0.997808  0.997808  0.997808  1
  Ge  Ge3  1  0.934090  0.450779  0.934090  1
  Ge  Ge4  1  0.450779  0.934090  0.934090  1
  Ge  Ge5  1  0.876875  0.876875  0.876875  1
  Ge  Ge6  1  0.437198  0.437198  0.935961  1
  Ge  Ge7  1  0.187340  0.187340  0.187340  1
  Ge  Ge8  1  0.498752  0.498752  0.498752  1
  Ge  Ge9  1  0.437198  0.935961  0.437198  1
  Ge  Ge10  1  0.935961  0.437198  0.437198  1
  N  N11  1  0.811026  0.811026  0.811026  1
  N  N12  1  0.297382  0.297382  0.831569  1
  N  N13  1  0.297382  0.831569  0.297382  1
  N  N14  1  0.831569  0.297382  0.297382  1
  N  N15  1  0.543032  0.073514  0.073514  1
  N  N16  1  0.073514  0.543032  0.073514  1
  N  N17  1  0.073514  0.073514  0.543032  1
  N  N18  1  0.800047  0.800047  0.336485  1
  N  N19  1  0.566274  0.566274  0.566274  1
  N  N20  1  0.336485  0.800047  0.800047  1
  N  N21  1  0.800047  0.336485  0.800047  1
  O  O22  1  0.022407  0.588407  0.588407  1
  O  O23  1  0.588407  0.022407  0.588407  1
  O  O24  1  0.588407  0.588407  0.022407  1
  O  O25  1  0.064541  0.064541  0.064541  1
  O  O26  1  0.302499  0.302499  0.302499  1
