# generated using pymatgen
data_P3W2O13
_symmetry_space_group_name_H-M   'P 1'
_cell_length_a   6.45195961
_cell_length_b   7.54633042
_cell_length_c   11.31834763
_cell_angle_alpha   76.40624468
_cell_angle_beta   86.24410067
_cell_angle_gamma   79.75387159
_symmetry_Int_Tables_number   1
_chemical_formula_structural   P3W2O13
_chemical_formula_sum   'P6 W4 O26'
_cell_volume   526.93348533
_cell_formula_units_Z   2
loop_
 _symmetry_equiv_pos_site_id
 _symmetry_equiv_pos_as_xyz
  1  'x, y, z'
loop_
 _atom_site_type_symbol
 _atom_site_label
 _atom_site_symmetry_multiplicity
 _atom_site_fract_x
 _atom_site_fract_y
 _atom_site_fract_z
 _atom_site_occupancy
  P  P0  1  0.118589  0.475174  0.311149  1
  P  P1  1  0.261428  0.798323  0.334730  1
  P  P2  1  0.264252  0.934909  0.890317  1
  P  P3  1  0.735748  0.065091  0.109683  1
  P  P4  1  0.738572  0.201677  0.665270  1
  P  P5  1  0.881411  0.524826  0.688851  1
  W  W6  1  0.210859  0.209824  0.093511  1
  W  W7  1  0.238133  0.200479  0.593546  1
  W  W8  1  0.761867  0.799521  0.406454  1
  W  W9  1  0.789141  0.790176  0.906489  1
  O  O10  1  0.141838  0.377384  0.202997  1
  O  O11  1  0.080637  0.787163  0.428818  1
  O  O12  1  0.107685  0.453541  0.658867  1
  O  O13  1  0.222531  0.099231  0.784140  1
  O  O14  1  0.093372  0.809038  0.905925  1
  O  O15  1  0.245599  0.349962  0.416986  1
  O  O16  1  0.240397  0.647441  0.255651  1
  O  O17  1  0.212885  0.375211  0.958939  1
  O  O18  1  0.264767  0.001683  0.010521  1
  O  O19  1  0.242211  0.986652  0.246787  1
  O  O20  1  0.309352  0.977460  0.572465  1
  O  O21  1  0.519481  0.191043  0.116727  1
  O  O22  1  0.473445  0.731844  0.394234  1
  O  O23  1  0.526555  0.268156  0.605766  1
  O  O24  1  0.480519  0.808957  0.883273  1
  O  O25  1  0.690648  0.022540  0.427535  1
  O  O26  1  0.757789  0.013348  0.753213  1
  O  O27  1  0.735233  0.998317  0.989479  1
  O  O28  1  0.787115  0.624789  0.041061  1
  O  O29  1  0.759603  0.352559  0.744349  1
  O  O30  1  0.754401  0.650038  0.583014  1
  O  O31  1  0.906628  0.190962  0.094075  1
  O  O32  1  0.777469  0.900769  0.215860  1
  O  O33  1  0.892315  0.546459  0.341133  1
  O  O34  1  0.919363  0.212837  0.571182  1
  O  O35  1  0.858162  0.622616  0.797003  1
