# generated using pymatgen
data_Li3Mn(PO4)2
_symmetry_space_group_name_H-M   'P 1'
_cell_length_a   8.45065282
_cell_length_b   8.45065282
_cell_length_c   8.45065282
_cell_angle_alpha   64.26556476
_cell_angle_beta   64.26556476
_cell_angle_gamma   64.26556476
_symmetry_Int_Tables_number   1
_chemical_formula_structural   Li3Mn(PO4)2
_chemical_formula_sum   'Li9 Mn3 P6 O24'
_cell_volume   466.73283152
_cell_formula_units_Z   3
loop_
 _symmetry_equiv_pos_site_id
 _symmetry_equiv_pos_as_xyz
  1  'x, y, z'
loop_
 _atom_site_type_symbol
 _atom_site_label
 _atom_site_symmetry_multiplicity
 _atom_site_fract_x
 _atom_site_fract_y
 _atom_site_fract_z
 _atom_site_occupancy
  Li  Li0  1  0.701927  0.173185  0.355042  1
  Li  Li1  1  0.653557  0.253058  0.850210  1
  Li  Li2  1  0.850210  0.653557  0.253058  1
  Li  Li3  1  0.002581  0.002581  0.002581  1
  Li  Li4  1  0.491230  0.491230  0.491230  1
  Li  Li5  1  0.349094  0.349094  0.349094  1
  Li  Li6  1  0.173185  0.355042  0.701927  1
  Li  Li7  1  0.355042  0.701927  0.173185  1
  Li  Li8  1  0.253058  0.850210  0.653557  1
  Mn  Mn9  1  0.855193  0.855193  0.855193  1
  Mn  Mn10  1  0.644426  0.644426  0.644426  1
  Mn  Mn11  1  0.146144  0.146144  0.146144  1
  P  P12  1  0.948495  0.252439  0.553863  1
  P  P13  1  0.450840  0.050014  0.751930  1
  P  P14  1  0.751930  0.450840  0.050014  1
  P  P15  1  0.252439  0.553863  0.948495  1
  P  P16  1  0.553863  0.948495  0.252439  1
  P  P17  1  0.050014  0.751930  0.450840  1
  O  O18  1  0.926484  0.095124  0.747150  1
  O  O19  1  0.901502  0.258743  0.071103  1
  O  O20  1  0.529291  0.104365  0.312122  1
  O  O21  1  0.391936  0.976859  0.194378  1
  O  O22  1  0.752851  0.400826  0.575266  1
  O  O23  1  0.823578  0.609908  0.009207  1
  O  O24  1  0.887368  0.693119  0.478145  1
  O  O25  1  0.446132  0.234773  0.596542  1
  O  O26  1  0.258743  0.071103  0.901502  1
  O  O27  1  0.009207  0.823578  0.609908  1
  O  O28  1  0.693119  0.478145  0.887368  1
  O  O29  1  0.596542  0.446132  0.234773  1
  O  O30  1  0.400826  0.575266  0.752851  1
  O  O31  1  0.312122  0.529291  0.104365  1
  O  O32  1  0.976859  0.194378  0.391936  1
  O  O33  1  0.575266  0.752851  0.400826  1
  O  O34  1  0.747150  0.926484  0.095124  1
  O  O35  1  0.194378  0.391936  0.976859  1
  O  O36  1  0.104365  0.312122  0.529291  1
  O  O37  1  0.234773  0.596542  0.446132  1
  O  O38  1  0.609908  0.009207  0.823578  1
  O  O39  1  0.478145  0.887368  0.693119  1
  O  O40  1  0.095124  0.747150  0.926484  1
  O  O41  1  0.071103  0.901502  0.258743  1
