# generated using pymatgen
data_BiP2O7
_symmetry_space_group_name_H-M   'P 1'
_cell_length_a   7.17858485
_cell_length_b   8.86145739
_cell_length_c   9.84219639
_cell_angle_alpha   90.00000000
_cell_angle_beta   105.78491701
_cell_angle_gamma   90.00000000
_symmetry_Int_Tables_number   1
_chemical_formula_structural   BiP2O7
_chemical_formula_sum   'Bi4 P8 O28'
_cell_volume   602.47887983
_cell_formula_units_Z   4
loop_
 _symmetry_equiv_pos_site_id
 _symmetry_equiv_pos_as_xyz
  1  'x, y, z'
loop_
 _atom_site_type_symbol
 _atom_site_label
 _atom_site_symmetry_multiplicity
 _atom_site_fract_x
 _atom_site_fract_y
 _atom_site_fract_z
 _atom_site_occupancy
  Bi  Bi0  1  0.718062  0.768912  0.006293  1
  Bi  Bi1  1  0.718062  0.731088  0.506293  1
  Bi  Bi2  1  0.281938  0.268912  0.493707  1
  Bi  Bi3  1  0.281938  0.231088  0.993707  1
  P  P4  1  0.939703  0.533980  0.280798  1
  P  P5  1  0.939703  0.966020  0.780798  1
  P  P6  1  0.555980  0.415838  0.292555  1
  P  P7  1  0.444020  0.915838  0.207445  1
  P  P8  1  0.555980  0.084162  0.792555  1
  P  P9  1  0.444020  0.584162  0.707445  1
  P  P10  1  0.060297  0.033980  0.219202  1
  P  P11  1  0.060297  0.466020  0.719202  1
  O  O12  1  0.913775  0.576661  0.124823  1
  O  O13  1  0.865594  0.955416  0.162494  1
  O  O14  1  0.913695  0.673936  0.366573  1
  O  O15  1  0.913775  0.923339  0.624823  1
  O  O16  1  0.781153  0.406437  0.291687  1
  O  O17  1  0.865594  0.544584  0.662494  1
  O  O18  1  0.913695  0.826064  0.866573  1
  O  O19  1  0.781153  0.093563  0.791687  1
  O  O20  1  0.565830  0.915799  0.362264  1
  O  O21  1  0.475217  0.067367  0.141138  1
  O  O22  1  0.477765  0.778721  0.121568  1
  O  O23  1  0.522235  0.278721  0.378432  1
  O  O24  1  0.524783  0.567367  0.358862  1
  O  O25  1  0.434170  0.415799  0.137736  1
  O  O26  1  0.565830  0.584201  0.862264  1
  O  O27  1  0.475217  0.432633  0.641138  1
  O  O28  1  0.477765  0.721279  0.621568  1
  O  O29  1  0.522235  0.221279  0.878432  1
  O  O30  1  0.524783  0.932633  0.858862  1
  O  O31  1  0.434170  0.084201  0.637736  1
  O  O32  1  0.218847  0.906437  0.208313  1
  O  O33  1  0.086305  0.173936  0.133427  1
  O  O34  1  0.134406  0.455416  0.337506  1
  O  O35  1  0.218847  0.593563  0.708313  1
  O  O36  1  0.086225  0.076661  0.375177  1
  O  O37  1  0.086305  0.326064  0.633427  1
  O  O38  1  0.134406  0.044584  0.837506  1
  O  O39  1  0.086225  0.423339  0.875177  1
