# generated using pymatgen
data_Li3V3O5F3
_symmetry_space_group_name_H-M   'P 1'
_cell_length_a   5.88141486
_cell_length_b   5.97065618
_cell_length_c   6.02746617
_cell_angle_alpha   119.38203074
_cell_angle_beta   89.78977525
_cell_angle_gamma   118.82156378
_symmetry_Int_Tables_number   1
_chemical_formula_structural   Li3V3O5F3
_chemical_formula_sum   'Li3 V3 O5 F3'
_cell_volume   153.88703171
_cell_formula_units_Z   1
loop_
 _symmetry_equiv_pos_site_id
 _symmetry_equiv_pos_as_xyz
  1  'x, y, z'
loop_
 _atom_site_type_symbol
 _atom_site_label
 _atom_site_symmetry_multiplicity
 _atom_site_fract_x
 _atom_site_fract_y
 _atom_site_fract_z
 _atom_site_occupancy
  Li  Li0  1  0.011599  0.010088  0.023556  1
  Li  Li1  1  0.747262  0.245654  0.232719  1
  Li  Li2  1  0.370734  0.124728  0.624079  1
  V  V3  1  0.357212  0.608293  0.604895  1
  V  V4  1  0.363910  0.611669  0.131490  1
  V  V5  1  0.876802  0.627934  0.624351  1
  O  O6  1  0.154527  0.394691  0.381231  1
  O  O7  1  0.606867  0.833101  0.369518  1
  O  O8  1  0.609721  0.419481  0.829667  1
  O  O9  1  0.153830  0.845133  0.428262  1
  O  O10  1  0.142457  0.417235  0.868744  1
  F  F11  1  0.627951  0.383312  0.383992  1
  F  F12  1  0.123592  0.864143  0.872308  1
  F  F13  1  0.603535  0.864540  0.875187  1
