# generated using pymatgen
data_Na5Fe2P2(CO7)2
_symmetry_space_group_name_H-M   'P 1'
_cell_length_a   5.21066302
_cell_length_b   6.60446797
_cell_length_c   8.92888877
_cell_angle_alpha   90.00000000
_cell_angle_beta   90.55612935
_cell_angle_gamma   90.00000000
_symmetry_Int_Tables_number   1
_chemical_formula_structural   Na5Fe2P2(CO7)2
_chemical_formula_sum   'Na5 Fe2 P2 C2 O14'
_cell_volume   307.26124143
_cell_formula_units_Z   1
loop_
 _symmetry_equiv_pos_site_id
 _symmetry_equiv_pos_as_xyz
  1  'x, y, z'
loop_
 _atom_site_type_symbol
 _atom_site_label
 _atom_site_symmetry_multiplicity
 _atom_site_fract_x
 _atom_site_fract_y
 _atom_site_fract_z
 _atom_site_occupancy
  Na  Na0  1  0.244638  0.255626  0.749587  1
  Na  Na1  1  0.244638  0.744374  0.749587  1
  Na  Na2  1  0.751236  0.751111  0.251441  1
  Na  Na3  1  0.751236  0.248889  0.251441  1
  Na  Na4  1  0.237785  0.000000  0.077571  1
  Fe  Fe5  1  0.779837  0.000000  0.648413  1
  Fe  Fe6  1  0.216291  0.500000  0.351758  1
  P  P7  1  0.713446  0.500000  0.579893  1
  P  P8  1  0.298587  0.000000  0.418159  1
  C  C9  1  0.727495  0.000000  0.938094  1
  C  C10  1  0.265831  0.500000  0.070117  1
  O  O11  1  0.292208  0.500000  0.930764  1
  O  O12  1  0.949620  0.000000  0.872059  1
  O  O13  1  0.522962  0.000000  0.853227  1
  O  O14  1  0.779710  0.308151  0.668923  1
  O  O15  1  0.779710  0.691849  0.668923  1
  O  O16  1  0.165567  0.000000  0.571104  1
  O  O17  1  0.414468  0.500000  0.540753  1
  O  O18  1  0.595777  0.000000  0.437823  1
  O  O19  1  0.856183  0.500000  0.425235  1
  O  O20  1  0.216777  0.812277  0.320648  1
  O  O21  1  0.216777  0.187723  0.320648  1
  O  O22  1  0.462050  0.500000  0.166287  1
  O  O23  1  0.041661  0.500000  0.137216  1
  O  O24  1  0.710585  0.000000  0.082425  1
