# generated using pymatgen
data_V2SnO7
_symmetry_space_group_name_H-M   'P 1'
_cell_length_a   8.94788793
_cell_length_b   8.94788793
_cell_length_c   8.94788793
_cell_angle_alpha   90.00000000
_cell_angle_beta   90.00000000
_cell_angle_gamma   90.00000000
_symmetry_Int_Tables_number   1
_chemical_formula_structural   V2SnO7
_chemical_formula_sum   'V8 Sn4 O28'
_cell_volume   716.40994850
_cell_formula_units_Z   4
loop_
 _symmetry_equiv_pos_site_id
 _symmetry_equiv_pos_as_xyz
  1  'x, y, z'
loop_
 _atom_site_type_symbol
 _atom_site_label
 _atom_site_symmetry_multiplicity
 _atom_site_fract_x
 _atom_site_fract_y
 _atom_site_fract_z
 _atom_site_occupancy
  V  V0  1  0.115375  0.884625  0.384625  1
  V  V1  1  0.115375  0.615375  0.884625  1
  V  V2  1  0.384625  0.384625  0.384625  1
  V  V3  1  0.384625  0.115375  0.884625  1
  V  V4  1  0.615375  0.615375  0.615375  1
  V  V5  1  0.615375  0.884625  0.115375  1
  V  V6  1  0.884625  0.115375  0.615375  1
  V  V7  1  0.884625  0.384625  0.115375  1
  Sn  Sn8  1  0.000000  0.000000  0.000000  1
  Sn  Sn9  1  0.000000  0.500000  0.500000  1
  Sn  Sn10  1  0.500000  0.000000  0.500000  1
  Sn  Sn11  1  0.500000  0.500000  0.000000  1
  O  O12  1  0.000000  0.000000  0.500000  1
  O  O13  1  0.000000  0.500000  0.000000  1
  O  O14  1  0.060510  0.702217  0.408109  1
  O  O15  1  0.060510  0.797783  0.908109  1
  O  O16  1  0.091891  0.560510  0.702217  1
  O  O17  1  0.091891  0.939490  0.202217  1
  O  O18  1  0.202217  0.091891  0.939490  1
  O  O19  1  0.202217  0.408109  0.439490  1
  O  O20  1  0.297783  0.591891  0.939490  1
  O  O21  1  0.297783  0.908109  0.439490  1
  O  O22  1  0.408109  0.060510  0.702217  1
  O  O23  1  0.408109  0.439490  0.202217  1
  O  O24  1  0.439490  0.297783  0.908109  1
  O  O25  1  0.439490  0.202217  0.408109  1
  O  O26  1  0.500000  0.500000  0.500000  1
  O  O27  1  0.500000  0.000000  0.000000  1
  O  O28  1  0.560510  0.702217  0.091891  1
  O  O29  1  0.560510  0.797783  0.591891  1
  O  O30  1  0.591891  0.560510  0.797783  1
  O  O31  1  0.591891  0.939490  0.297783  1
  O  O32  1  0.702217  0.091891  0.560510  1
  O  O33  1  0.702217  0.408109  0.060510  1
  O  O34  1  0.797783  0.591891  0.560510  1
  O  O35  1  0.797783  0.908109  0.060510  1
  O  O36  1  0.908109  0.060510  0.797783  1
  O  O37  1  0.908109  0.439490  0.297783  1
  O  O38  1  0.939490  0.202217  0.091891  1
  O  O39  1  0.939490  0.297783  0.591891  1
