# generated using pymatgen
data_Dy2P4O13
_symmetry_space_group_name_H-M   'P 1'
_cell_length_a   9.49505263
_cell_length_b   9.49505263
_cell_length_c   8.62785098
_cell_angle_alpha   90.00000000
_cell_angle_beta   90.00000000
_cell_angle_gamma   136.27238562
_symmetry_Int_Tables_number   1
_chemical_formula_structural   Dy2P4O13
_chemical_formula_sum   'Dy4 P8 O26'
_cell_volume   537.67575415
_cell_formula_units_Z   2
loop_
 _symmetry_equiv_pos_site_id
 _symmetry_equiv_pos_as_xyz
  1  'x, y, z'
loop_
 _atom_site_type_symbol
 _atom_site_label
 _atom_site_symmetry_multiplicity
 _atom_site_fract_x
 _atom_site_fract_y
 _atom_site_fract_z
 _atom_site_occupancy
  Dy  Dy0  1  0.106836  0.400602  0.852883  1
  Dy  Dy1  1  0.599398  0.893164  0.647117  1
  Dy  Dy2  1  0.400602  0.106836  0.147117  1
  Dy  Dy3  1  0.893164  0.599398  0.352883  1
  P  P4  1  0.584722  0.904268  0.002768  1
  P  P5  1  0.095732  0.415278  0.497232  1
  P  P6  1  0.720498  0.837169  0.273903  1
  P  P7  1  0.162831  0.279502  0.226097  1
  P  P8  1  0.279502  0.162831  0.773903  1
  P  P9  1  0.837169  0.720498  0.726097  1
  P  P10  1  0.904268  0.584722  0.997232  1
  P  P11  1  0.415278  0.095732  0.502768  1
  O  O12  1  0.062109  0.937891  0.750000  1
  O  O13  1  0.067734  0.776691  0.098317  1
  O  O14  1  0.223309  0.932266  0.401683  1
  O  O15  1  0.527528  0.983013  0.108528  1
  O  O16  1  0.016987  0.472472  0.391472  1
  O  O17  1  0.418610  0.739509  0.886904  1
  O  O18  1  0.260491  0.581390  0.613096  1
  O  O19  1  0.158493  0.386916  0.102129  1
  O  O20  1  0.613084  0.841507  0.397871  1
  O  O21  1  0.617871  0.788046  0.108127  1
  O  O22  1  0.211954  0.382129  0.391873  1
  O  O23  1  0.698117  0.743577  0.704326  1
  O  O24  1  0.256423  0.301883  0.795674  1
  O  O25  1  0.743577  0.698117  0.295674  1
  O  O26  1  0.301883  0.256423  0.204326  1
  O  O27  1  0.788046  0.617871  0.891873  1
  O  O28  1  0.382129  0.211954  0.608127  1
  O  O29  1  0.841507  0.613084  0.602129  1
  O  O30  1  0.386916  0.158493  0.897871  1
  O  O31  1  0.739509  0.418610  0.113096  1
  O  O32  1  0.581390  0.260491  0.386904  1
  O  O33  1  0.472472  0.016987  0.608528  1
  O  O34  1  0.983013  0.527528  0.891472  1
  O  O35  1  0.932266  0.223309  0.598317  1
  O  O36  1  0.776691  0.067734  0.901683  1
  O  O37  1  0.937891  0.062109  0.250000  1
