# generated using pymatgen
data_LiVP2HO8
_symmetry_space_group_name_H-M   'P 1'
_cell_length_a   7.48070695
_cell_length_b   9.34636251
_cell_length_c   9.36242136
_cell_angle_alpha   117.49468633
_cell_angle_beta   97.92932612
_cell_angle_gamma   97.96877476
_symmetry_Int_Tables_number   1
_chemical_formula_structural   LiVP2HO8
_chemical_formula_sum   'Li4 V4 P8 H4 O32'
_cell_volume   559.65325374
_cell_formula_units_Z   4
loop_
 _symmetry_equiv_pos_site_id
 _symmetry_equiv_pos_as_xyz
  1  'x, y, z'
loop_
 _atom_site_type_symbol
 _atom_site_label
 _atom_site_symmetry_multiplicity
 _atom_site_fract_x
 _atom_site_fract_y
 _atom_site_fract_z
 _atom_site_occupancy
  Li  Li0  1  0.145361  0.862756  0.733227  1
  Li  Li1  1  0.645365  0.731242  0.362465  1
  Li  Li2  1  0.649055  0.230445  0.861028  1
  Li  Li3  1  0.855240  0.143439  0.272248  1
  V  V4  1  0.005341  0.505758  0.002309  1
  V  V5  1  0.499817  0.498408  0.504389  1
  V  V6  1  0.499367  0.998191  0.004023  1
  V  V7  1  0.004829  0.004736  0.501784  1
  P  P8  1  0.767707  0.889665  0.738978  1
  P  P9  1  0.236263  0.604895  0.761452  1
  P  P10  1  0.265109  0.735846  0.392557  1
  P  P11  1  0.263259  0.239539  0.892757  1
  P  P12  1  0.731321  0.260559  0.608143  1
  P  P13  1  0.734199  0.757781  0.107087  1
  P  P14  1  0.769341  0.394149  0.240671  1
  P  P15  1  0.237715  0.109930  0.263865  1
  H  H16  1  0.494684  0.992112  0.495780  1
  H  H17  1  0.496271  0.493045  0.996244  1
  H  H18  1  0.009335  0.509765  0.517518  1
  H  H19  1  0.010083  0.010431  0.016530  1
  O  O20  1  0.346495  0.792094  0.845795  1
  O  O21  1  0.182973  0.565394  0.892385  1
  O  O22  1  0.949353  0.913000  0.851734  1
  O  O23  1  0.863496  0.669937  0.999323  1
  O  O24  1  0.145296  0.835302  0.508817  1
  O  O25  1  0.062214  0.601983  0.647514  1
  O  O26  1  0.810964  0.917042  0.594705  1
  O  O27  1  0.648473  0.708390  0.656491  1
  O  O28  1  0.444854  0.850338  0.406728  1
  O  O29  1  0.447867  0.349431  0.910071  1
  O  O30  1  0.359928  0.998384  0.166868  1
  O  O31  1  0.361899  0.495908  0.669092  1
  O  O32  1  0.317153  0.602957  0.430390  1
  O  O33  1  0.311132  0.096056  0.919163  1
  O  O34  1  0.146737  0.153638  0.708861  1
  O  O35  1  0.145616  0.654434  0.212116  1
  O  O36  1  0.844980  0.343934  0.792253  1
  O  O37  1  0.844465  0.844029  0.294475  1
  O  O38  1  0.687745  0.900134  0.077664  1
  O  O39  1  0.681913  0.391616  0.565695  1
  O  O40  1  0.644592  0.508306  0.333449  1
  O  O41  1  0.644813  0.005598  0.835043  1
  O  O42  1  0.560746  0.141917  0.598718  1
  O  O43  1  0.558570  0.643153  0.095308  1
  O  O44  1  0.349126  0.292242  0.346964  1
  O  O45  1  0.183125  0.069011  0.395069  1
  O  O46  1  0.938965  0.398831  0.353772  1
  O  O47  1  0.858567  0.167764  0.494134  1
  O  O48  1  0.140868  0.334785  0.002453  1
  O  O49  1  0.052615  0.090645  0.150597  1
  O  O50  1  0.811994  0.420744  0.097310  1
  O  O51  1  0.648949  0.208229  0.155888  1
