# generated using pymatgen
data_LiCr2O4
_symmetry_space_group_name_H-M   'P 1'
_cell_length_a   5.91855319
_cell_length_b   5.97475338
_cell_length_c   8.32037174
_cell_angle_alpha   89.64124146
_cell_angle_beta   89.72061078
_cell_angle_gamma   89.87090276
_symmetry_Int_Tables_number   1
_chemical_formula_structural   LiCr2O4
_chemical_formula_sum   'Li4 Cr8 O16'
_cell_volume   294.21412513
_cell_formula_units_Z   4
loop_
 _symmetry_equiv_pos_site_id
 _symmetry_equiv_pos_as_xyz
  1  'x, y, z'
loop_
 _atom_site_type_symbol
 _atom_site_label
 _atom_site_symmetry_multiplicity
 _atom_site_fract_x
 _atom_site_fract_y
 _atom_site_fract_z
 _atom_site_occupancy
  Li  Li0  1  0.998860  0.000999  0.999411  1
  Li  Li1  1  0.997515  0.499031  0.750946  1
  Li  Li2  1  0.499646  0.002691  0.253283  1
  Li  Li3  1  0.503417  0.497467  0.499673  1
  Cr  Cr4  1  0.002136  0.247463  0.374650  1
  Cr  Cr5  1  0.249647  0.501107  0.126084  1
  Cr  Cr6  1  0.752637  0.000236  0.625016  1
  Cr  Cr7  1  0.496657  0.754981  0.873959  1
  Cr  Cr8  1  0.999334  0.751876  0.375122  1
  Cr  Cr9  1  0.751207  0.502828  0.126133  1
  Cr  Cr10  1  0.249735  0.997681  0.625208  1
  Cr  Cr11  1  0.502889  0.251441  0.875980  1
  O  O12  1  0.996870  0.222718  0.615282  1
  O  O13  1  0.771021  0.002375  0.393601  1
  O  O14  1  0.497020  0.725666  0.110330  1
  O  O15  1  0.004938  0.282781  0.130326  1
  O  O16  1  0.275242  0.502914  0.893505  1
  O  O17  1  0.229482  0.502917  0.354498  1
  O  O18  1  0.507934  0.767198  0.644575  1
  O  O19  1  0.726891  0.996415  0.859761  1
  O  O20  1  0.771484  0.497104  0.353363  1
  O  O21  1  0.996400  0.718339  0.131024  1
  O  O22  1  0.283999  0.993274  0.871295  1
  O  O23  1  0.224510  0.997992  0.387099  1
  O  O24  1  0.508585  0.215992  0.635635  1
  O  O25  1  0.991965  0.779242  0.617181  1
  O  O26  1  0.721745  0.511683  0.892378  1
  O  O27  1  0.505864  0.286542  0.117904  1
