# generated using pymatgen
data_Li7Mn(OF)3
_symmetry_space_group_name_H-M   'P 1'
_cell_length_a   5.41112165
_cell_length_b   5.62023877
_cell_length_c   5.89752041
_cell_angle_alpha   63.97642349
_cell_angle_beta   68.08370959
_cell_angle_gamma   63.17187636
_symmetry_Int_Tables_number   1
_chemical_formula_structural   Li7Mn(OF)3
_chemical_formula_sum   'Li7 Mn1 O3 F3'
_cell_volume   140.34616051
_cell_formula_units_Z   1
loop_
 _symmetry_equiv_pos_site_id
 _symmetry_equiv_pos_as_xyz
  1  'x, y, z'
loop_
 _atom_site_type_symbol
 _atom_site_label
 _atom_site_symmetry_multiplicity
 _atom_site_fract_x
 _atom_site_fract_y
 _atom_site_fract_z
 _atom_site_occupancy
  Li  Li0  1  0.542699  0.861477  0.366662  1
  Li  Li1  1  0.109893  0.778497  0.646678  1
  Li  Li2  1  0.612222  0.697387  0.013797  1
  Li  Li3  1  0.411004  0.258469  0.984441  1
  Li  Li4  1  0.880541  0.224785  0.393068  1
  Li  Li5  1  0.218063  0.540760  0.338080  1
  Li  Li6  1  0.488557  0.111079  0.619314  1
  Mn  Mn7  1  0.953202  0.067045  0.003441  1
  O  O8  1  0.229380  0.918154  0.243449  1
  O  O9  1  0.769152  0.039694  0.772143  1
  O  O10  1  0.575843  0.254743  0.243236  1
  F  F11  1  0.424631  0.766656  0.734972  1
  F  F12  1  0.889501  0.591112  0.250524  1
  F  F13  1  0.160044  0.397674  0.728961  1
