# generated using pymatgen
data_Li4Ti2Cr3Fe3O16
_symmetry_space_group_name_H-M   'P 1'
_cell_length_a   5.87738378
_cell_length_b   5.87738378
_cell_length_c   9.44894493
_cell_angle_alpha   89.97082835
_cell_angle_beta   90.02917165
_cell_angle_gamma   119.93930500
_symmetry_Int_Tables_number   1
_chemical_formula_structural   Li4Ti2Cr3Fe3O16
_chemical_formula_sum   'Li4 Ti2 Cr3 Fe3 O16'
_cell_volume   282.84419262
_cell_formula_units_Z   1
loop_
 _symmetry_equiv_pos_site_id
 _symmetry_equiv_pos_as_xyz
  1  'x, y, z'
loop_
 _atom_site_type_symbol
 _atom_site_label
 _atom_site_symmetry_multiplicity
 _atom_site_fract_x
 _atom_site_fract_y
 _atom_site_fract_z
 _atom_site_occupancy
  Li  Li0  1  0.329415  0.670585  0.104345  1
  Li  Li1  1  0.003442  0.996558  0.005476  1
  Li  Li2  1  0.001259  0.998741  0.505815  1
  Li  Li3  1  0.665444  0.334556  0.603278  1
  Ti  Ti4  1  0.338364  0.661636  0.514922  1
  Ti  Ti5  1  0.666922  0.333078  0.000580  1
  Cr  Cr6  1  0.169273  0.340244  0.786277  1
  Cr  Cr7  1  0.659756  0.830727  0.786277  1
  Cr  Cr8  1  0.829960  0.170040  0.286284  1
  Fe  Fe9  1  0.170412  0.829588  0.782838  1
  Fe  Fe10  1  0.339617  0.169752  0.285437  1
  Fe  Fe11  1  0.830248  0.660383  0.285437  1
  O  O12  1  0.171603  0.328788  0.401592  1
  O  O13  1  0.480441  0.519559  0.656686  1
  O  O14  1  0.330683  0.669317  0.896079  1
  O  O15  1  0.000812  0.999188  0.691716  1
  O  O16  1  0.003582  0.996418  0.193406  1
  O  O17  1  0.671212  0.828397  0.401592  1
  O  O18  1  0.038967  0.515486  0.650497  1
  O  O19  1  0.484514  0.961033  0.650497  1
  O  O20  1  0.832639  0.167361  0.908160  1
  O  O21  1  0.163460  0.836540  0.398537  1
  O  O22  1  0.514324  0.042890  0.162905  1
  O  O23  1  0.957110  0.485676  0.162905  1
  O  O24  1  0.662009  0.337991  0.390175  1
  O  O25  1  0.338042  0.173347  0.907858  1
  O  O26  1  0.519968  0.480032  0.165089  1
  O  O27  1  0.826653  0.661958  0.907858  1
