# generated using pymatgen
data_Lu2Sb2O7
_symmetry_space_group_name_H-M   'P 1'
_cell_length_a   7.50032516
_cell_length_b   7.50032516
_cell_length_c   18.28162686
_cell_angle_alpha   90.00000000
_cell_angle_beta   90.00000000
_cell_angle_gamma   120.00000000
_symmetry_Int_Tables_number   1
_chemical_formula_structural   Lu2Sb2O7
_chemical_formula_sum   'Lu12 Sb12 O42'
_cell_volume   890.64709445
_cell_formula_units_Z   6
loop_
 _symmetry_equiv_pos_site_id
 _symmetry_equiv_pos_as_xyz
  1  'x, y, z'
loop_
 _atom_site_type_symbol
 _atom_site_label
 _atom_site_symmetry_multiplicity
 _atom_site_fract_x
 _atom_site_fract_y
 _atom_site_fract_z
 _atom_site_occupancy
  Lu  Lu0  1  0.000000  0.848733  0.666667  1
  Lu  Lu1  1  0.000000  0.832191  0.166667  1
  Lu  Lu2  1  0.175287  0.681559  0.010985  1
  Lu  Lu3  1  0.151267  0.151267  0.000000  1
  Lu  Lu4  1  0.506272  0.824713  0.677652  1
  Lu  Lu5  1  0.167809  0.167809  0.500000  1
  Lu  Lu6  1  0.318441  0.493728  0.344319  1
  Lu  Lu7  1  0.493728  0.318441  0.655681  1
  Lu  Lu8  1  0.681559  0.175287  0.989015  1
  Lu  Lu9  1  0.824713  0.506272  0.322348  1
  Lu  Lu10  1  0.832191  0.000000  0.833333  1
  Lu  Lu11  1  0.848733  0.000000  0.333333  1
  Sb  Sb12  1  0.000000  0.324179  0.166667  1
  Sb  Sb13  1  0.000000  0.314265  0.666667  1
  Sb  Sb14  1  0.170502  0.671507  0.501983  1
  Sb  Sb15  1  0.501005  0.829498  0.168650  1
  Sb  Sb16  1  0.328493  0.498995  0.835316  1
  Sb  Sb17  1  0.314265  0.000000  0.333333  1
  Sb  Sb18  1  0.675821  0.675821  0.500000  1
  Sb  Sb19  1  0.324179  0.000000  0.833333  1
  Sb  Sb20  1  0.685735  0.685735  0.000000  1
  Sb  Sb21  1  0.498995  0.328493  0.164684  1
  Sb  Sb22  1  0.671507  0.170502  0.498017  1
  Sb  Sb23  1  0.829498  0.501005  0.831350  1
  O  O24  1  0.024918  0.853376  0.283460  1
  O  O25  1  0.979618  0.802140  0.800404  1
  O  O26  1  0.101654  0.658754  0.394726  1
  O  O27  1  0.055497  0.451052  0.804181  1
  O  O28  1  0.323839  0.991100  0.958413  1
  O  O29  1  0.244012  0.687397  0.606959  1
  O  O30  1  0.008900  0.332739  0.291746  1
  O  O31  1  0.198662  0.682940  0.137805  1
  O  O32  1  0.395556  0.944503  0.470847  1
  O  O33  1  0.443384  0.755988  0.273626  1
  O  O34  1  0.484278  0.801338  0.804471  1
  O  O35  1  0.341246  0.442900  0.728060  1
  O  O36  1  0.146624  0.171542  0.616793  1
  O  O37  1  0.317060  0.515722  0.471138  1
  O  O38  1  0.197860  0.177478  0.133737  1
  O  O39  1  0.171542  0.146624  0.383207  1
  O  O40  1  0.312603  0.556616  0.940293  1
  O  O41  1  0.177478  0.197860  0.866263  1
  O  O42  1  0.557100  0.898346  0.061393  1
  O  O43  1  0.548948  0.604444  0.137514  1
  O  O44  1  0.822522  0.020382  0.467071  1
  O  O45  1  0.667261  0.676161  0.625079  1
  O  O46  1  0.442900  0.341246  0.271940  1
  O  O47  1  0.604444  0.548948  0.862486  1
  O  O48  1  0.332739  0.008900  0.708254  1
  O  O49  1  0.828458  0.975082  0.950126  1
  O  O50  1  0.556616  0.312603  0.059707  1
  O  O51  1  0.676161  0.667261  0.374921  1
  O  O52  1  0.515722  0.317060  0.528862  1
  O  O53  1  0.451052  0.055497  0.195819  1
  O  O54  1  0.687397  0.244012  0.393041  1
  O  O55  1  0.682940  0.198662  0.862195  1
  O  O56  1  0.898346  0.557100  0.938607  1
  O  O57  1  0.975082  0.828458  0.049874  1
  O  O58  1  0.801338  0.484278  0.195529  1
  O  O59  1  0.020382  0.822522  0.532929  1
  O  O60  1  0.755988  0.443384  0.726374  1
  O  O61  1  0.658754  0.101654  0.605274  1
  O  O62  1  0.944503  0.395556  0.529153  1
  O  O63  1  0.802140  0.979618  0.199596  1
  O  O64  1  0.991100  0.323839  0.041587  1
  O  O65  1  0.853376  0.024918  0.716540  1
