# generated using pymatgen
data_Li2Nb(PO4)2
_symmetry_space_group_name_H-M   'P 1'
_cell_length_a   4.90650040
_cell_length_b   4.90650040
_cell_length_c   7.72111253
_cell_angle_alpha   90.00000000
_cell_angle_beta   90.00000000
_cell_angle_gamma   120.00000000
_symmetry_Int_Tables_number   1
_chemical_formula_structural   Li2Nb(PO4)2
_chemical_formula_sum   'Li2 Nb1 P2 O8'
_cell_volume   160.97342770
_cell_formula_units_Z   1
loop_
 _symmetry_equiv_pos_site_id
 _symmetry_equiv_pos_as_xyz
  1  'x, y, z'
loop_
 _atom_site_type_symbol
 _atom_site_label
 _atom_site_symmetry_multiplicity
 _atom_site_fract_x
 _atom_site_fract_y
 _atom_site_fract_z
 _atom_site_occupancy
  Li  Li0  1  0.666667  0.333333  0.833151  1
  Li  Li1  1  0.333333  0.666667  0.166849  1
  Nb  Nb2  1  0.000000  0.000000  0.500000  1
  P  P3  1  0.666667  0.333333  0.266745  1
  P  P4  1  0.333333  0.666667  0.733255  1
  O  O5  1  0.361727  0.324106  0.339076  1
  O  O6  1  0.666667  0.333333  0.072979  1
  O  O7  1  0.962379  0.638273  0.339076  1
  O  O8  1  0.675894  0.037621  0.339076  1
  O  O9  1  0.324106  0.962379  0.660924  1
  O  O10  1  0.037621  0.361727  0.660924  1
  O  O11  1  0.333333  0.666667  0.927021  1
  O  O12  1  0.638273  0.675894  0.660924  1
