# generated using pymatgen
data_LiSi2BiO6
_symmetry_space_group_name_H-M   'P 1'
_cell_length_a   6.88179767
_cell_length_b   6.88179767
_cell_length_c   5.29160276
_cell_angle_alpha   78.64584094
_cell_angle_beta   101.35415906
_cell_angle_gamma   94.06482598
_symmetry_Int_Tables_number   1
_chemical_formula_structural   LiSi2BiO6
_chemical_formula_sum   'Li2 Si4 Bi2 O12'
_cell_volume   240.75795398
_cell_formula_units_Z   2
loop_
 _symmetry_equiv_pos_site_id
 _symmetry_equiv_pos_as_xyz
  1  'x, y, z'
loop_
 _atom_site_type_symbol
 _atom_site_label
 _atom_site_symmetry_multiplicity
 _atom_site_fract_x
 _atom_site_fract_y
 _atom_site_fract_z
 _atom_site_occupancy
  Li  Li0  1  0.910916  0.910916  0.750000  1
  Li  Li1  1  0.089084  0.089084  0.250000  1
  Si  Si2  1  0.375491  0.806797  0.731594  1
  Si  Si3  1  0.193203  0.624509  0.231594  1
  Si  Si4  1  0.806797  0.375491  0.768406  1
  Si  Si5  1  0.624509  0.193203  0.268406  1
  Bi  Bi6  1  0.272189  0.272189  0.750000  1
  Bi  Bi7  1  0.727811  0.727811  0.250000  1
  O  O8  1  0.208349  0.977942  0.645584  1
  O  O9  1  0.022058  0.791651  0.145584  1
  O  O10  1  0.601367  0.882816  0.820625  1
  O  O11  1  0.360506  0.682405  0.486958  1
  O  O12  1  0.117184  0.398633  0.320625  1
  O  O13  1  0.317595  0.639494  0.986958  1
  O  O14  1  0.682405  0.360506  0.013042  1
  O  O15  1  0.882816  0.601367  0.679375  1
  O  O16  1  0.639494  0.317595  0.513042  1
  O  O17  1  0.398633  0.117184  0.179375  1
  O  O18  1  0.977942  0.208349  0.854416  1
  O  O19  1  0.791651  0.022058  0.354416  1
