# generated using pymatgen
data_NdO2
_symmetry_space_group_name_H-M   'P 1'
_cell_length_a   5.82614605
_cell_length_b   5.85377069
_cell_length_c   5.90673219
_cell_angle_alpha   90.00000000
_cell_angle_beta   99.13791311
_cell_angle_gamma   90.00000000
_symmetry_Int_Tables_number   1
_chemical_formula_structural   NdO2
_chemical_formula_sum   'Nd4 O8'
_cell_volume   198.89204904
_cell_formula_units_Z   4
loop_
 _symmetry_equiv_pos_site_id
 _symmetry_equiv_pos_as_xyz
  1  'x, y, z'
loop_
 _atom_site_type_symbol
 _atom_site_label
 _atom_site_symmetry_multiplicity
 _atom_site_fract_x
 _atom_site_fract_y
 _atom_site_fract_z
 _atom_site_occupancy
  Nd  Nd0  1  0.213210  0.526588  0.288242  1
  Nd  Nd1  1  0.713210  0.973412  0.288242  1
  Nd  Nd2  1  0.286790  0.026588  0.711758  1
  Nd  Nd3  1  0.786790  0.473412  0.711758  1
  O  O4  1  0.339328  0.837532  0.071395  1
  O  O5  1  0.839328  0.662468  0.071395  1
  O  O6  1  0.490180  0.253295  0.469440  1
  O  O7  1  0.990180  0.246705  0.469440  1
  O  O8  1  0.009820  0.753295  0.530560  1
  O  O9  1  0.509820  0.746705  0.530560  1
  O  O10  1  0.160672  0.337532  0.928605  1
  O  O11  1  0.660672  0.162468  0.928605  1
