# generated using pymatgen
data_Mn3TeO8
_symmetry_space_group_name_H-M   'P 1'
_cell_length_a   5.98073382
_cell_length_b   5.98073382
_cell_length_c   5.87447943
_cell_angle_alpha   64.29079865
_cell_angle_beta   115.70920135
_cell_angle_gamma   120.60094030
_symmetry_Int_Tables_number   1
_chemical_formula_structural   Mn3TeO8
_chemical_formula_sum   'Mn3 Te1 O8'
_cell_volume   156.69275513
_cell_formula_units_Z   1
loop_
 _symmetry_equiv_pos_site_id
 _symmetry_equiv_pos_as_xyz
  1  'x, y, z'
loop_
 _atom_site_type_symbol
 _atom_site_label
 _atom_site_symmetry_multiplicity
 _atom_site_fract_x
 _atom_site_fract_y
 _atom_site_fract_z
 _atom_site_occupancy
  Mn  Mn0  1  0.000000  0.500000  0.000000  1
  Mn  Mn1  1  0.500000  0.500000  0.500000  1
  Mn  Mn2  1  0.500000  0.000000  0.000000  1
  Te  Te3  1  0.000000  0.000000  0.500000  1
  O  O4  1  0.711970  0.288030  0.759736  1
  O  O5  1  0.762507  0.742406  0.290623  1
  O  O6  1  0.217391  0.782609  0.750995  1
  O  O7  1  0.288030  0.711970  0.240264  1
  O  O8  1  0.257594  0.237493  0.290623  1
  O  O9  1  0.237493  0.257594  0.709377  1
  O  O10  1  0.782609  0.217391  0.249005  1
  O  O11  1  0.742406  0.762507  0.709377  1
