# generated using pymatgen
data_Li2NiP2O7
_symmetry_space_group_name_H-M   'P 1'
_cell_length_a   5.11491469
_cell_length_b   7.04579443
_cell_length_c   8.67595992
_cell_angle_alpha   113.57369493
_cell_angle_beta   90.43398454
_cell_angle_gamma   110.51826374
_symmetry_Int_Tables_number   1
_chemical_formula_structural   Li2NiP2O7
_chemical_formula_sum   'Li4 Ni2 P4 O14'
_cell_volume   264.39036481
_cell_formula_units_Z   2
loop_
 _symmetry_equiv_pos_site_id
 _symmetry_equiv_pos_as_xyz
  1  'x, y, z'
loop_
 _atom_site_type_symbol
 _atom_site_label
 _atom_site_symmetry_multiplicity
 _atom_site_fract_x
 _atom_site_fract_y
 _atom_site_fract_z
 _atom_site_occupancy
  Li  Li0  1  0.065285  0.301741  0.008526  1
  Li  Li1  1  0.322411  0.860602  0.749055  1
  Li  Li2  1  0.677589  0.139398  0.250945  1
  Li  Li3  1  0.934715  0.698259  0.991474  1
  Ni  Ni4  1  0.145016  0.817208  0.334140  1
  Ni  Ni5  1  0.854984  0.182792  0.665860  1
  P  P6  1  0.253143  0.250538  0.395547  1
  P  P7  1  0.480469  0.693300  0.140906  1
  P  P8  1  0.519531  0.306700  0.859094  1
  P  P9  1  0.746857  0.749462  0.604453  1
  O  O10  1  0.997873  0.280422  0.433692  1
  O  O11  1  0.438478  0.136600  0.551438  1
  O  O12  1  0.155010  0.139357  0.258987  1
  O  O13  1  0.199427  0.231313  0.852733  1
  O  O14  1  0.305404  0.623160  0.988016  1
  O  O15  1  0.456526  0.483150  0.314999  1
  O  O16  1  0.649150  0.149500  0.846978  1
  O  O17  1  0.350850  0.850500  0.153022  1
  O  O18  1  0.543474  0.516850  0.685001  1
  O  O19  1  0.694596  0.376840  0.011984  1
  O  O20  1  0.800573  0.768687  0.147267  1
  O  O21  1  0.844990  0.860643  0.741013  1
  O  O22  1  0.561522  0.863400  0.448562  1
  O  O23  1  0.002127  0.719578  0.566308  1
