# generated using pymatgen
data_Li3Mn(PO4)2
_symmetry_space_group_name_H-M   'P 1'
_cell_length_a   4.73276887
_cell_length_b   6.02635375
_cell_length_c   10.04876270
_cell_angle_alpha   90.00000000
_cell_angle_beta   92.01011811
_cell_angle_gamma   90.00000000
_symmetry_Int_Tables_number   1
_chemical_formula_structural   Li3Mn(PO4)2
_chemical_formula_sum   'Li6 Mn2 P4 O16'
_cell_volume   286.42780981
_cell_formula_units_Z   2
loop_
 _symmetry_equiv_pos_site_id
 _symmetry_equiv_pos_as_xyz
  1  'x, y, z'
loop_
 _atom_site_type_symbol
 _atom_site_label
 _atom_site_symmetry_multiplicity
 _atom_site_fract_x
 _atom_site_fract_y
 _atom_site_fract_z
 _atom_site_occupancy
  Li  Li0  1  0.000000  0.000000  0.000000  1
  Li  Li1  1  0.000000  0.500000  0.000000  1
  Li  Li2  1  0.473902  0.750000  0.215750  1
  Li  Li3  1  0.500000  0.000000  0.500000  1
  Li  Li4  1  0.500000  0.500000  0.500000  1
  Li  Li5  1  0.526098  0.250000  0.784250  1
  Mn  Mn6  1  0.973174  0.250000  0.281356  1
  Mn  Mn7  1  0.026826  0.750000  0.718644  1
  P  P8  1  0.408030  0.250000  0.100429  1
  P  P9  1  0.932389  0.750000  0.408067  1
  P  P10  1  0.067611  0.250000  0.591933  1
  P  P11  1  0.591970  0.750000  0.899571  1
  O  O12  1  0.693148  0.750000  0.045877  1
  O  O13  1  0.741457  0.250000  0.113155  1
  O  O14  1  0.275171  0.046277  0.171322  1
  O  O15  1  0.275171  0.453723  0.171322  1
  O  O16  1  0.793416  0.543639  0.339101  1
  O  O17  1  0.793416  0.956361  0.339101  1
  O  O18  1  0.252810  0.750000  0.414810  1
  O  O19  1  0.197997  0.250000  0.446903  1
  O  O20  1  0.802003  0.750000  0.553097  1
  O  O21  1  0.747190  0.250000  0.585190  1
  O  O22  1  0.206584  0.043639  0.660899  1
  O  O23  1  0.206584  0.456361  0.660899  1
  O  O24  1  0.724829  0.546277  0.828678  1
  O  O25  1  0.724829  0.953723  0.828678  1
  O  O26  1  0.258543  0.750000  0.886845  1
  O  O27  1  0.306852  0.250000  0.954123  1
