# generated using pymatgen
data_Li6Sb3S
_symmetry_space_group_name_H-M   'P 1'
_cell_length_a   8.06534596
_cell_length_b   5.88537168
_cell_length_c   11.64928393
_cell_angle_alpha   90.00000000
_cell_angle_beta   130.39886418
_cell_angle_gamma   90.00000000
_symmetry_Int_Tables_number   1
_chemical_formula_structural   Li6Sb3S
_chemical_formula_sum   'Li12 Sb6 S2'
_cell_volume   421.10966405
_cell_formula_units_Z   2
loop_
 _symmetry_equiv_pos_site_id
 _symmetry_equiv_pos_as_xyz
  1  'x, y, z'
loop_
 _atom_site_type_symbol
 _atom_site_label
 _atom_site_symmetry_multiplicity
 _atom_site_fract_x
 _atom_site_fract_y
 _atom_site_fract_z
 _atom_site_occupancy
  Li  Li0  1  0.919563  0.031965  0.770026  1
  Li  Li1  1  0.305224  0.242512  0.103633  1
  Li  Li2  1  0.718328  0.266745  0.435445  1
  Li  Li3  1  0.281672  0.766745  0.064555  1
  Li  Li4  1  0.694776  0.742512  0.396367  1
  Li  Li5  1  0.080437  0.531965  0.729974  1
  Li  Li6  1  0.919563  0.468035  0.270026  1
  Li  Li7  1  0.305224  0.257488  0.603633  1
  Li  Li8  1  0.718328  0.233255  0.935445  1
  Li  Li9  1  0.281672  0.733255  0.564555  1
  Li  Li10  1  0.694776  0.757488  0.896367  1
  Li  Li11  1  0.080437  0.968035  0.229974  1
  Sb  Sb12  1  0.500000  0.000000  0.500000  1
  Sb  Sb13  1  0.324489  0.502053  0.333295  1
  Sb  Sb14  1  0.675511  0.002053  0.166705  1
  Sb  Sb15  1  0.500000  0.500000  0.000000  1
  Sb  Sb16  1  0.324489  0.997947  0.833295  1
  Sb  Sb17  1  0.675511  0.497947  0.666705  1
  S  S18  1  0.000000  0.000000  0.000000  1
  S  S19  1  0.000000  0.500000  0.500000  1
