# generated using pymatgen
data_Li3V4FeO8
_symmetry_space_group_name_H-M   'P 1'
_cell_length_a   6.03381775
_cell_length_b   6.03381775
_cell_length_c   6.08541947
_cell_angle_alpha   60.00978708
_cell_angle_beta   119.99021292
_cell_angle_gamma   119.98739156
_symmetry_Int_Tables_number   1
_chemical_formula_structural   Li3V4FeO8
_chemical_formula_sum   'Li3 V4 Fe1 O8'
_cell_volume   156.69874054
_cell_formula_units_Z   1
loop_
 _symmetry_equiv_pos_site_id
 _symmetry_equiv_pos_as_xyz
  1  'x, y, z'
loop_
 _atom_site_type_symbol
 _atom_site_label
 _atom_site_symmetry_multiplicity
 _atom_site_fract_x
 _atom_site_fract_y
 _atom_site_fract_z
 _atom_site_occupancy
  Li  Li0  1  0.000000  0.500000  0.500000  1
  Li  Li1  1  0.500000  1.000000  0.500000  1
  Li  Li2  1  0.000000  0.000000  0.000000  1
  V  V3  1  0.500000  0.500000  0.000000  1
  V  V4  1  0.000000  0.000000  0.500000  1
  V  V5  1  0.500000  0.000000  0.000000  1
  V  V6  1  0.000000  0.500000  0.000000  1
  Fe  Fe7  1  0.500000  0.500000  0.500000  1
  O  O8  1  0.745143  0.254857  0.765133  1
  O  O9  1  0.244550  0.260119  0.231570  1
  O  O10  1  0.739881  0.755450  0.231570  1
  O  O11  1  0.254857  0.745143  0.234867  1
  O  O12  1  0.258068  0.741932  0.770123  1
  O  O13  1  0.755450  0.739881  0.768430  1
  O  O14  1  0.260119  0.244550  0.768430  1
  O  O15  1  0.741932  0.258068  0.229877  1
