# generated using pymatgen
data_LiBiB2O5
_symmetry_space_group_name_H-M   'P 1'
_cell_length_a   5.35622268
_cell_length_b   4.39290468
_cell_length_c   7.57957883
_cell_angle_alpha   90.00000000
_cell_angle_beta   95.51674490
_cell_angle_gamma   90.00000000
_symmetry_Int_Tables_number   1
_chemical_formula_structural   LiBiB2O5
_chemical_formula_sum   'Li2 Bi2 B4 O10'
_cell_volume   177.51670002
_cell_formula_units_Z   2
loop_
 _symmetry_equiv_pos_site_id
 _symmetry_equiv_pos_as_xyz
  1  'x, y, z'
loop_
 _atom_site_type_symbol
 _atom_site_label
 _atom_site_symmetry_multiplicity
 _atom_site_fract_x
 _atom_site_fract_y
 _atom_site_fract_z
 _atom_site_occupancy
  Li  Li0  1  0.160755  0.327883  0.110150  1
  Li  Li1  1  0.839245  0.827883  0.889850  1
  Bi  Bi2  1  0.123679  0.356111  0.706317  1
  Bi  Bi3  1  0.876321  0.856111  0.293683  1
  B  B4  1  0.388133  0.795446  0.935084  1
  B  B5  1  0.434729  0.334428  0.408617  1
  B  B6  1  0.565271  0.834428  0.591383  1
  B  B7  1  0.611867  0.295446  0.064916  1
  O  O8  1  0.149960  0.670273  0.963334  1
  O  O9  1  0.155717  0.295061  0.368791  1
  O  O10  1  0.413265  0.727182  0.736030  1
  O  O11  1  0.401224  0.130523  0.960924  1
  O  O12  1  0.482653  0.669437  0.427319  1
  O  O13  1  0.517347  0.169437  0.572681  1
  O  O14  1  0.598776  0.630523  0.039076  1
  O  O15  1  0.586735  0.227182  0.263970  1
  O  O16  1  0.844283  0.795061  0.631209  1
  O  O17  1  0.850040  0.170273  0.036666  1
