# generated using pymatgen
data_Li2V2(PO4)3
_symmetry_space_group_name_H-M   'P 1'
_cell_length_a   8.30297789
_cell_length_b   8.45287213
_cell_length_c   8.94587973
_cell_angle_alpha   91.19065394
_cell_angle_beta   117.26622768
_cell_angle_gamma   119.21355771
_symmetry_Int_Tables_number   1
_chemical_formula_structural   Li2V2(PO4)3
_chemical_formula_sum   'Li4 V4 P6 O24'
_cell_volume   462.31313503
_cell_formula_units_Z   2
loop_
 _symmetry_equiv_pos_site_id
 _symmetry_equiv_pos_as_xyz
  1  'x, y, z'
loop_
 _atom_site_type_symbol
 _atom_site_label
 _atom_site_symmetry_multiplicity
 _atom_site_fract_x
 _atom_site_fract_y
 _atom_site_fract_z
 _atom_site_occupancy
  Li  Li0  1  0.058088  0.731857  0.143140  1
  Li  Li1  1  0.812633  0.074626  0.139674  1
  Li  Li2  1  0.187367  0.925374  0.860326  1
  Li  Li3  1  0.941912  0.268143  0.856860  1
  V  V4  1  0.699315  0.353099  0.055776  1
  V  V5  1  0.291628  0.152877  0.435885  1
  V  V6  1  0.708372  0.847123  0.564115  1
  V  V7  1  0.300685  0.646901  0.944224  1
  P  P8  1  0.788670  0.752647  0.252587  1
  P  P9  1  0.499247  0.034294  0.253060  1
  P  P10  1  0.213113  0.459084  0.243761  1
  P  P11  1  0.786887  0.540916  0.756239  1
  P  P12  1  0.500753  0.965706  0.746940  1
  P  P13  1  0.211330  0.247353  0.747413  1
  O  O14  1  0.715841  0.545386  0.206032  1
  O  O15  1  0.009909  0.889006  0.268690  1
  O  O16  1  0.817106  0.810270  0.434059  1
  O  O17  1  0.299913  0.847774  0.091448  1
  O  O18  1  0.390203  0.123793  0.289606  1
  O  O19  1  0.660020  0.166909  0.202391  1
  O  O20  1  0.031429  0.493430  0.204232  1
  O  O21  1  0.236225  0.456987  0.081924  1
  O  O22  1  0.626243  0.794587  0.113767  1
  O  O23  1  0.572852  0.387904  0.587363  1
  O  O24  1  0.862063  0.742951  0.733709  1
  O  O25  1  0.382425  0.009095  0.581579  1
  O  O26  1  0.617575  0.990905  0.418421  1
  O  O27  1  0.137937  0.257049  0.266291  1
  O  O28  1  0.427148  0.612096  0.412637  1
  O  O29  1  0.373757  0.205413  0.886233  1
  O  O30  1  0.763775  0.543013  0.918076  1
  O  O31  1  0.968571  0.506570  0.795768  1
  O  O32  1  0.339980  0.833091  0.797609  1
  O  O33  1  0.609797  0.876207  0.710394  1
  O  O34  1  0.700087  0.152226  0.908552  1
  O  O35  1  0.182894  0.189730  0.565941  1
  O  O36  1  0.990091  0.110994  0.731310  1
  O  O37  1  0.284159  0.454614  0.793968  1
