# generated using pymatgen
data_K2CaH8(N3O)4
_symmetry_space_group_name_H-M   'P 1'
_cell_length_a   10.96504914
_cell_length_b   10.96504914
_cell_length_c   6.21654247
_cell_angle_alpha   90.00000000
_cell_angle_beta   90.00000000
_cell_angle_gamma   118.86556411
_symmetry_Int_Tables_number   1
_chemical_formula_structural   K2CaH8(N3O)4
_chemical_formula_sum   'K4 Ca2 H16 N24 O8'
_cell_volume   654.56474590
_cell_formula_units_Z   2
loop_
 _symmetry_equiv_pos_site_id
 _symmetry_equiv_pos_as_xyz
  1  'x, y, z'
loop_
 _atom_site_type_symbol
 _atom_site_label
 _atom_site_symmetry_multiplicity
 _atom_site_fract_x
 _atom_site_fract_y
 _atom_site_fract_z
 _atom_site_occupancy
  K  K0  1  0.668505  0.331495  0.500000  1
  K  K1  1  0.831495  0.168505  1.000000  1
  K  K2  1  0.168505  0.831495  0.000000  1
  K  K3  1  0.331495  0.668505  0.500000  1
  Ca  Ca4  1  0.000000  0.000000  0.500000  1
  Ca  Ca5  1  0.500000  0.500000  0.000000  1
  H  H6  1  0.720848  0.891694  0.334034  1
  H  H7  1  0.391694  0.220848  0.834034  1
  H  H8  1  0.608306  0.779152  0.834034  1
  H  H9  1  0.279152  0.108306  0.334034  1
  H  H10  1  0.779152  0.608306  0.165966  1
  H  H11  1  0.108306  0.279152  0.665966  1
  H  H12  1  0.891694  0.720848  0.665966  1
  H  H13  1  0.220848  0.391694  0.165966  1
  H  H14  1  0.729071  0.012587  0.479684  1
  H  H15  1  0.512587  0.229071  0.979684  1
  H  H16  1  0.487413  0.770929  0.979684  1
  H  H17  1  0.270929  0.987413  0.479684  1
  H  H18  1  0.770929  0.487413  0.020316  1
  H  H19  1  0.987413  0.270929  0.520316  1
  H  H20  1  0.012587  0.729071  0.520316  1
  H  H21  1  0.229071  0.512587  0.020316  1
  N  N22  1  0.623670  0.055216  0.668320  1
  N  N23  1  0.555216  0.123670  0.168320  1
  N  N24  1  0.444784  0.876330  0.168320  1
  N  N25  1  0.376330  0.944784  0.668320  1
  N  N26  1  0.876330  0.444784  0.831680  1
  N  N27  1  0.944784  0.376330  0.331680  1
  N  N28  1  0.055216  0.623670  0.331680  1
  N  N29  1  0.123670  0.555216  0.831680  1
  N  N30  1  0.500000  0.000000  0.667011  1
  N  N31  1  0.500000  0.000000  0.167011  1
  N  N32  1  0.000000  0.500000  0.832989  1
  N  N33  1  0.000000  0.500000  0.332989  1
  N  N34  1  0.669127  0.593705  0.653320  1
  N  N35  1  0.093705  0.169127  0.153320  1
  N  N36  1  0.906295  0.830873  0.153320  1
  N  N37  1  0.330873  0.406295  0.653320  1
  N  N38  1  0.830873  0.906295  0.846680  1
  N  N39  1  0.406295  0.330873  0.346680  1
  N  N40  1  0.593705  0.669127  0.346680  1
  N  N41  1  0.169127  0.093705  0.846680  1
  N  N42  1  0.131080  0.131080  1.000000  1
  N  N43  1  0.631080  0.631080  0.500000  1
  N  N44  1  0.368920  0.368920  0.500000  1
  N  N45  1  0.868920  0.868920  0.000000  1
  O  O46  1  0.783641  0.989397  0.373836  1
  O  O47  1  0.489397  0.283641  0.873836  1
  O  O48  1  0.510603  0.716359  0.873836  1
  O  O49  1  0.216359  0.010603  0.373836  1
  O  O50  1  0.716359  0.510603  0.126164  1
  O  O51  1  0.010603  0.216359  0.626164  1
  O  O52  1  0.989397  0.783641  0.626164  1
  O  O53  1  0.283641  0.489397  0.126164  1
