# generated using pymatgen
data_Li4Ti3Ni3(WO8)2
_symmetry_space_group_name_H-M   'P 1'
_cell_length_a   5.94739633
_cell_length_b   5.95635970
_cell_length_c   9.75057732
_cell_angle_alpha   91.07504326
_cell_angle_beta   89.62013230
_cell_angle_gamma   119.62926646
_symmetry_Int_Tables_number   1
_chemical_formula_structural   Li4Ti3Ni3(WO8)2
_chemical_formula_sum   'Li4 Ti3 Ni3 W2 O16'
_cell_volume   300.19304229
_cell_formula_units_Z   1
loop_
 _symmetry_equiv_pos_site_id
 _symmetry_equiv_pos_as_xyz
  1  'x, y, z'
loop_
 _atom_site_type_symbol
 _atom_site_label
 _atom_site_symmetry_multiplicity
 _atom_site_fract_x
 _atom_site_fract_y
 _atom_site_fract_z
 _atom_site_occupancy
  Li  Li0  1  0.663359  0.324303  0.899629  1
  Li  Li1  1  0.994597  0.988079  0.984692  1
  Li  Li2  1  0.003254  0.003955  0.496041  1
  Li  Li3  1  0.330113  0.666054  0.408822  1
  Ti  Ti4  1  0.341147  0.184650  0.217327  1
  Ti  Ti5  1  0.835613  0.174361  0.214106  1
  Ti  Ti6  1  0.162307  0.343536  0.719210  1
  Ni  Ni7  1  0.829665  0.659508  0.209523  1
  Ni  Ni8  1  0.178981  0.837422  0.710718  1
  Ni  Ni9  1  0.660895  0.836184  0.710835  1
  W  W10  1  0.671568  0.344482  0.491232  1
  W  W11  1  0.340809  0.682192  0.982161  1
  O  O12  1  0.339023  0.173387  0.593378  1
  O  O13  1  0.521515  0.042264  0.340262  1
  O  O14  1  0.654289  0.309566  0.106804  1
  O  O15  1  0.006786  0.008658  0.306094  1
  O  O16  1  0.005298  0.013010  0.799837  1
  O  O17  1  0.839391  0.179116  0.594797  1
  O  O18  1  0.501516  0.467989  0.341367  1
  O  O19  1  0.961626  0.467322  0.339447  1
  O  O20  1  0.167787  0.330894  0.104858  1
  O  O21  1  0.833536  0.664159  0.582865  1
  O  O22  1  0.031532  0.507430  0.847596  1
  O  O23  1  0.463993  0.501294  0.856658  1
  O  O24  1  0.326388  0.639994  0.606904  1
  O  O25  1  0.178616  0.837861  0.095298  1
  O  O26  1  0.482509  0.964473  0.849916  1
  O  O27  1  0.673590  0.847861  0.097464  1
