# generated using pymatgen
data_Ba2LaCl7
_symmetry_space_group_name_H-M   'P 1'
_cell_length_a   7.07665587
_cell_length_b   16.01080488
_cell_length_c   10.79899471
_cell_angle_alpha   90.00000000
_cell_angle_beta   90.89578284
_cell_angle_gamma   90.00000000
_symmetry_Int_Tables_number   1
_chemical_formula_structural   Ba2LaCl7
_chemical_formula_sum   'Ba8 La4 Cl28'
_cell_volume   1223.40848919
_cell_formula_units_Z   4
loop_
 _symmetry_equiv_pos_site_id
 _symmetry_equiv_pos_as_xyz
  1  'x, y, z'
loop_
 _atom_site_type_symbol
 _atom_site_label
 _atom_site_symmetry_multiplicity
 _atom_site_fract_x
 _atom_site_fract_y
 _atom_site_fract_z
 _atom_site_occupancy
  Ba  Ba0  1  0.730605  0.221096  0.949638  1
  Ba  Ba1  1  0.731386  0.561747  0.824264  1
  Ba  Ba2  1  0.268614  0.061747  0.675736  1
  Ba  Ba3  1  0.269395  0.721096  0.550362  1
  Ba  Ba4  1  0.730605  0.278904  0.449638  1
  Ba  Ba5  1  0.731386  0.938253  0.324264  1
  Ba  Ba6  1  0.268614  0.438253  0.175736  1
  Ba  Ba7  1  0.269395  0.778904  0.050362  1
  La  La8  1  0.780924  0.873572  0.782574  1
  La  La9  1  0.219076  0.373572  0.717426  1
  La  La10  1  0.780924  0.626428  0.282574  1
  La  La11  1  0.219076  0.126428  0.217426  1
  Cl  Cl12  1  0.296739  0.141838  0.962555  1
  Cl  Cl13  1  0.995460  0.396533  0.933757  1
  Cl  Cl14  1  0.493631  0.396163  0.920323  1
  Cl  Cl15  1  0.140558  0.928931  0.876645  1
  Cl  Cl16  1  0.505418  0.740157  0.804709  1
  Cl  Cl17  1  0.003535  0.724058  0.794390  1
  Cl  Cl18  1  0.697426  0.044807  0.787466  1
  Cl  Cl19  1  0.302574  0.544807  0.712534  1
  Cl  Cl20  1  0.996465  0.224058  0.705610  1
  Cl  Cl21  1  0.494582  0.240157  0.695291  1
  Cl  Cl22  1  0.859442  0.428931  0.623355  1
  Cl  Cl23  1  0.506369  0.896163  0.579677  1
  Cl  Cl24  1  0.004540  0.896533  0.566243  1
  Cl  Cl25  1  0.703261  0.641838  0.537445  1
  Cl  Cl26  1  0.296739  0.358162  0.462555  1
  Cl  Cl27  1  0.995460  0.103467  0.433757  1
  Cl  Cl28  1  0.493631  0.103837  0.420323  1
  Cl  Cl29  1  0.140558  0.571069  0.376645  1
  Cl  Cl30  1  0.505418  0.759843  0.304709  1
  Cl  Cl31  1  0.003535  0.775942  0.294390  1
  Cl  Cl32  1  0.697426  0.455193  0.287466  1
  Cl  Cl33  1  0.302574  0.955193  0.212534  1
  Cl  Cl34  1  0.996465  0.275942  0.205610  1
  Cl  Cl35  1  0.494582  0.259843  0.195291  1
  Cl  Cl36  1  0.859442  0.071069  0.123355  1
  Cl  Cl37  1  0.506369  0.603837  0.079677  1
  Cl  Cl38  1  0.004540  0.603467  0.066243  1
  Cl  Cl39  1  0.703261  0.858162  0.037445  1
