# generated using pymatgen
data_La2B4O9
_symmetry_space_group_name_H-M   'P 1'
_cell_length_a   6.39377193
_cell_length_b   6.74158528
_cell_length_c   7.76321819
_cell_angle_alpha   101.59617180
_cell_angle_beta   96.61736179
_cell_angle_gamma   102.41085952
_symmetry_Int_Tables_number   1
_chemical_formula_structural   La2B4O9
_chemical_formula_sum   'La4 B8 O18'
_cell_volume   315.71597858
_cell_formula_units_Z   2
loop_
 _symmetry_equiv_pos_site_id
 _symmetry_equiv_pos_as_xyz
  1  'x, y, z'
loop_
 _atom_site_type_symbol
 _atom_site_label
 _atom_site_symmetry_multiplicity
 _atom_site_fract_x
 _atom_site_fract_y
 _atom_site_fract_z
 _atom_site_occupancy
  La  La0  1  0.113514  0.322420  0.643528  1
  La  La1  1  0.456015  0.907434  0.717832  1
  La  La2  1  0.543985  0.092566  0.282168  1
  La  La3  1  0.886486  0.677580  0.356472  1
  B  B4  1  0.005327  0.845271  0.817691  1
  B  B5  1  0.274196  0.663425  0.019058  1
  B  B6  1  0.371964  0.640810  0.342489  1
  B  B7  1  0.338168  0.328371  0.076086  1
  B  B8  1  0.661832  0.671629  0.923914  1
  B  B9  1  0.628036  0.359190  0.657511  1
  B  B10  1  0.725804  0.336575  0.980942  1
  B  B11  1  0.994673  0.154729  0.182309  1
  O  O12  1  0.060665  0.943758  0.684332  1
  O  O13  1  0.142319  0.721536  0.868457  1
  O  O14  1  0.231114  0.436970  0.965340  1
  O  O15  1  0.224216  0.593285  0.469003  1
  O  O16  1  0.243359  0.731220  0.204786  1
  O  O17  1  0.184723  0.146317  0.115300  1
  O  O18  1  0.431319  0.191471  0.565537  1
  O  O19  1  0.495441  0.225086  0.988469  1
  O  O20  1  0.548133  0.535656  0.750524  1
  O  O21  1  0.451867  0.464344  0.249476  1
  O  O22  1  0.504559  0.774914  0.011531  1
  O  O23  1  0.568681  0.808529  0.434463  1
  O  O24  1  0.815277  0.853683  0.884700  1
  O  O25  1  0.756641  0.268780  0.795214  1
  O  O26  1  0.775784  0.406715  0.530997  1
  O  O27  1  0.768886  0.563030  0.034660  1
  O  O28  1  0.857681  0.278464  0.131543  1
  O  O29  1  0.939335  0.056242  0.315668  1
