# generated using pymatgen
data_Li3MnNb4O12
_symmetry_space_group_name_H-M   'P 1'
_cell_length_a   5.28325747
_cell_length_b   5.62465704
_cell_length_c   7.71221480
_cell_angle_alpha   94.91762883
_cell_angle_beta   90.04403925
_cell_angle_gamma   90.12329708
_symmetry_Int_Tables_number   1
_chemical_formula_structural   Li3MnNb4O12
_chemical_formula_sum   'Li3 Mn1 Nb4 O12'
_cell_volume   228.33586626
_cell_formula_units_Z   1
loop_
 _symmetry_equiv_pos_site_id
 _symmetry_equiv_pos_as_xyz
  1  'x, y, z'
loop_
 _atom_site_type_symbol
 _atom_site_label
 _atom_site_symmetry_multiplicity
 _atom_site_fract_x
 _atom_site_fract_y
 _atom_site_fract_z
 _atom_site_occupancy
  Li  Li0  1  0.500436  0.937548  0.784295  1
  Li  Li1  1  0.000059  0.429940  0.785203  1
  Li  Li2  1  0.500787  0.937198  0.280891  1
  Mn  Mn3  1  0.997565  0.436705  0.279779  1
  Nb  Nb4  1  0.006127  0.992132  0.993031  1
  Nb  Nb5  1  0.498000  0.515978  0.502885  1
  Nb  Nb6  1  0.999729  0.013122  0.500471  1
  Nb  Nb7  1  0.502228  0.497845  0.991375  1
  O  O8  1  0.302235  0.222580  0.422275  1
  O  O9  1  0.123416  0.033934  0.739884  1
  O  O10  1  0.318746  0.841610  0.043166  1
  O  O11  1  0.195295  0.719804  0.420634  1
  O  O12  1  0.803916  0.716034  0.921766  1
  O  O13  1  0.375777  0.535648  0.740508  1
  O  O14  1  0.617562  0.536276  0.237137  1
  O  O15  1  0.179463  0.343481  0.040265  1
  O  O16  1  0.814849  0.338924  0.543074  1
  O  O17  1  0.695914  0.218843  0.922331  1
  O  O18  1  0.882228  0.035803  0.236608  1
  O  O19  1  0.685668  0.837399  0.544021  1
