# generated using pymatgen
data_Na3CoO3
_symmetry_space_group_name_H-M   'P 1'
_cell_length_a   6.09590087
_cell_length_b   7.67933302
_cell_length_c   10.82502282
_cell_angle_alpha   90.00000000
_cell_angle_beta   123.78012996
_cell_angle_gamma   90.00000000
_symmetry_Int_Tables_number   1
_chemical_formula_structural   Na3CoO3
_chemical_formula_sum   'Na12 Co4 O12'
_cell_volume   421.19568512
_cell_formula_units_Z   4
loop_
 _symmetry_equiv_pos_site_id
 _symmetry_equiv_pos_as_xyz
  1  'x, y, z'
loop_
 _atom_site_type_symbol
 _atom_site_label
 _atom_site_symmetry_multiplicity
 _atom_site_fract_x
 _atom_site_fract_y
 _atom_site_fract_z
 _atom_site_occupancy
  Na  Na0  1  0.109749  0.731651  0.226186  1
  Na  Na1  1  0.459785  0.842516  0.567324  1
  Na  Na2  1  0.706237  0.968266  0.960520  1
  Na  Na3  1  0.293763  0.468266  0.539480  1
  Na  Na4  1  0.890251  0.231651  0.273814  1
  Na  Na5  1  0.540215  0.342516  0.932676  1
  Na  Na6  1  0.459785  0.657484  0.067324  1
  Na  Na7  1  0.109749  0.768349  0.726186  1
  Na  Na8  1  0.706237  0.531734  0.460520  1
  Na  Na9  1  0.293763  0.031734  0.039480  1
  Na  Na10  1  0.540215  0.157484  0.432676  1
  Na  Na11  1  0.890251  0.268349  0.773814  1
  Co  Co12  1  0.782479  0.649939  0.853911  1
  Co  Co13  1  0.217521  0.149939  0.646089  1
  Co  Co14  1  0.782479  0.850061  0.353911  1
  Co  Co15  1  0.217521  0.350061  0.146089  1
  O  O16  1  0.254921  0.418974  0.313984  1
  O  O17  1  0.944743  0.223393  0.011488  1
  O  O18  1  0.484563  0.135487  0.624878  1
  O  O19  1  0.515437  0.635487  0.875122  1
  O  O20  1  0.055257  0.723393  0.488512  1
  O  O21  1  0.745079  0.918974  0.186016  1
  O  O22  1  0.254921  0.081026  0.813984  1
  O  O23  1  0.944743  0.276607  0.511488  1
  O  O24  1  0.484563  0.364513  0.124878  1
  O  O25  1  0.515437  0.864513  0.375122  1
  O  O26  1  0.055257  0.776607  0.988512  1
  O  O27  1  0.745079  0.581026  0.686016  1
