# generated using pymatgen
data_Li2Fe(PO3)5
_symmetry_space_group_name_H-M   'P 1'
_cell_length_a   5.15684995
_cell_length_b   13.46880914
_cell_length_c   8.85754353
_cell_angle_alpha   90.00000000
_cell_angle_beta   101.86998594
_cell_angle_gamma   90.00000000
_symmetry_Int_Tables_number   1
_chemical_formula_structural   Li2Fe(PO3)5
_chemical_formula_sum   'Li4 Fe2 P10 O30'
_cell_volume   602.05987850
_cell_formula_units_Z   2
loop_
 _symmetry_equiv_pos_site_id
 _symmetry_equiv_pos_as_xyz
  1  'x, y, z'
loop_
 _atom_site_type_symbol
 _atom_site_label
 _atom_site_symmetry_multiplicity
 _atom_site_fract_x
 _atom_site_fract_y
 _atom_site_fract_z
 _atom_site_occupancy
  Li  Li0  1  0.059209  0.616008  0.097007  1
  Li  Li1  1  0.940791  0.383992  0.902993  1
  Li  Li2  1  0.940791  0.116008  0.902993  1
  Li  Li3  1  0.059209  0.883992  0.097007  1
  Fe  Fe4  1  0.500000  0.000000  0.500000  1
  Fe  Fe5  1  0.500000  0.500000  0.500000  1
  P  P6  1  0.001096  0.858638  0.516600  1
  P  P7  1  0.341325  0.923248  0.815897  1
  P  P8  1  0.998904  0.358638  0.483400  1
  P  P9  1  0.658675  0.423248  0.184103  1
  P  P10  1  0.341325  0.576752  0.815897  1
  P  P11  1  0.545083  0.750000  0.013570  1
  P  P12  1  0.658675  0.076752  0.184103  1
  P  P13  1  0.998904  0.141362  0.483400  1
  P  P14  1  0.454917  0.250000  0.986430  1
  P  P15  1  0.001096  0.641362  0.516600  1
  O  O16  1  0.850019  0.426875  0.571680  1
  O  O17  1  0.191451  0.250000  0.877560  1
  O  O18  1  0.292461  0.372767  0.498182  1
  O  O19  1  0.809759  0.032008  0.074453  1
  O  O20  1  0.861143  0.145577  0.305361  1
  O  O21  1  0.808549  0.750000  0.122440  1
  O  O22  1  0.292461  0.127233  0.498182  1
  O  O23  1  0.512626  0.009398  0.275306  1
  O  O24  1  0.138857  0.854423  0.694639  1
  O  O25  1  0.055040  0.750000  0.458889  1
  O  O26  1  0.512626  0.490602  0.275306  1
  O  O27  1  0.712681  0.250000  0.933944  1
  O  O28  1  0.809759  0.467992  0.074453  1
  O  O29  1  0.444446  0.343141  0.103882  1
  O  O30  1  0.149981  0.926875  0.428320  1
  O  O31  1  0.850019  0.073125  0.571680  1
  O  O32  1  0.190241  0.532008  0.925547  1
  O  O33  1  0.861143  0.354423  0.305361  1
  O  O34  1  0.487374  0.509398  0.724694  1
  O  O35  1  0.444446  0.156859  0.103882  1
  O  O36  1  0.555554  0.656859  0.896118  1
  O  O37  1  0.190241  0.967992  0.925547  1
  O  O38  1  0.138857  0.645577  0.694639  1
  O  O39  1  0.287319  0.750000  0.066056  1
  O  O40  1  0.487374  0.990602  0.724694  1
  O  O41  1  0.555554  0.843141  0.896118  1
  O  O42  1  0.944960  0.250000  0.541111  1
  O  O43  1  0.149981  0.573125  0.428320  1
  O  O44  1  0.707539  0.627233  0.501818  1
  O  O45  1  0.707539  0.872767  0.501818  1
