# generated using pymatgen
data_Li2MnF4
_symmetry_space_group_name_H-M   'P 1'
_cell_length_a   5.05278857
_cell_length_b   5.05278857
_cell_length_c   9.90172283
_cell_angle_alpha   90.00000000
_cell_angle_beta   90.00000000
_cell_angle_gamma   145.74163476
_symmetry_Int_Tables_number   1
_chemical_formula_structural   Li2MnF4
_chemical_formula_sum   'Li4 Mn2 F8'
_cell_volume   142.30626520
_cell_formula_units_Z   2
loop_
 _symmetry_equiv_pos_site_id
 _symmetry_equiv_pos_as_xyz
  1  'x, y, z'
loop_
 _atom_site_type_symbol
 _atom_site_label
 _atom_site_symmetry_multiplicity
 _atom_site_fract_x
 _atom_site_fract_y
 _atom_site_fract_z
 _atom_site_occupancy
  Li  Li0  1  0.625732  0.374268  0.438901  1
  Li  Li1  1  0.625732  0.374268  0.061099  1
  Li  Li2  1  0.374268  0.625732  0.561099  1
  Li  Li3  1  0.374268  0.625732  0.938901  1
  Mn  Mn4  1  0.881967  0.118033  0.250000  1
  Mn  Mn5  1  0.118033  0.881967  0.750000  1
  F  F6  1  0.000000  0.000000  0.000000  1
  F  F7  1  0.000000  0.000000  0.500000  1
  F  F8  1  0.541627  0.458373  0.250000  1
  F  F9  1  0.721037  0.278963  0.618054  1
  F  F10  1  0.721037  0.278963  0.881946  1
  F  F11  1  0.458373  0.541627  0.750000  1
  F  F12  1  0.278963  0.721037  0.118054  1
  F  F13  1  0.278963  0.721037  0.381946  1
