# generated using pymatgen
data_Li3FePO5
_symmetry_space_group_name_H-M   'P 1'
_cell_length_a   4.98073755
_cell_length_b   5.52206722
_cell_length_c   15.90947275
_cell_angle_alpha   90.00000000
_cell_angle_beta   90.00000000
_cell_angle_gamma   90.00000000
_symmetry_Int_Tables_number   1
_chemical_formula_structural   Li3FePO5
_chemical_formula_sum   'Li12 Fe4 P4 O20'
_cell_volume   437.57362235
_cell_formula_units_Z   4
loop_
 _symmetry_equiv_pos_site_id
 _symmetry_equiv_pos_as_xyz
  1  'x, y, z'
loop_
 _atom_site_type_symbol
 _atom_site_label
 _atom_site_symmetry_multiplicity
 _atom_site_fract_x
 _atom_site_fract_y
 _atom_site_fract_z
 _atom_site_occupancy
  Li  Li0  1  0.006092  0.659282  0.593445  1
  Li  Li1  1  0.006092  0.159282  0.906555  1
  Li  Li2  1  0.006503  0.669080  0.002924  1
  Li  Li3  1  0.006503  0.169080  0.497076  1
  Li  Li4  1  0.492642  0.330398  0.803898  1
  Li  Li5  1  0.492642  0.830398  0.696102  1
  Li  Li6  1  0.506092  0.340718  0.406555  1
  Li  Li7  1  0.506092  0.840718  0.093445  1
  Li  Li8  1  0.506503  0.330920  0.997076  1
  Li  Li9  1  0.506503  0.830920  0.502924  1
  Li  Li10  1  0.992642  0.169602  0.303898  1
  Li  Li11  1  0.992642  0.669602  0.196102  1
  Fe  Fe12  1  0.014435  0.168934  0.704805  1
  Fe  Fe13  1  0.014435  0.668934  0.795195  1
  Fe  Fe14  1  0.514435  0.331066  0.204805  1
  Fe  Fe15  1  0.514435  0.831066  0.295195  1
  P  P16  1  0.999364  0.165277  0.098086  1
  P  P17  1  0.999364  0.665277  0.401914  1
  P  P18  1  0.499364  0.334723  0.598086  1
  P  P19  1  0.499364  0.834723  0.901914  1
  O  O20  1  0.101853  0.331097  0.809621  1
  O  O21  1  0.101853  0.831097  0.690379  1
  O  O22  1  0.107191  0.310185  0.020839  1
  O  O23  1  0.107191  0.810185  0.479161  1
  O  O24  1  0.101467  0.399572  0.402176  1
  O  O25  1  0.101467  0.899572  0.097824  1
  O  O26  1  0.090172  0.294567  0.181543  1
  O  O27  1  0.090172  0.794567  0.318457  1
  O  O28  1  0.184079  0.331335  0.594771  1
  O  O29  1  0.184079  0.831335  0.905229  1
  O  O30  1  0.601853  0.168903  0.309621  1
  O  O31  1  0.601853  0.668903  0.190379  1
  O  O32  1  0.607191  0.189815  0.520839  1
  O  O33  1  0.607191  0.689815  0.979161  1
  O  O34  1  0.601467  0.100428  0.902176  1
  O  O35  1  0.601467  0.600428  0.597824  1
  O  O36  1  0.590172  0.205433  0.681543  1
  O  O37  1  0.590172  0.705433  0.818457  1
  O  O38  1  0.684079  0.168665  0.094771  1
  O  O39  1  0.684079  0.668665  0.405229  1
