# generated using pymatgen
data_MoH4O5
_symmetry_space_group_name_H-M   'P 1'
_cell_length_a   10.59816078
_cell_length_b   14.05839893
_cell_length_c   14.90901444
_cell_angle_alpha   90.00000000
_cell_angle_beta   133.70164805
_cell_angle_gamma   90.00000000
_symmetry_Int_Tables_number   1
_chemical_formula_structural   MoH4O5
_chemical_formula_sum   'Mo16 H64 O80'
_cell_volume   1605.91267456
_cell_formula_units_Z   16
loop_
 _symmetry_equiv_pos_site_id
 _symmetry_equiv_pos_as_xyz
  1  'x, y, z'
loop_
 _atom_site_type_symbol
 _atom_site_label
 _atom_site_symmetry_multiplicity
 _atom_site_fract_x
 _atom_site_fract_y
 _atom_site_fract_z
 _atom_site_occupancy
  Mo  Mo0  1  0.026916  0.751300  0.644275  1
  Mo  Mo1  1  0.026916  0.748700  0.144275  1
  Mo  Mo2  1  0.973084  0.248700  0.355725  1
  Mo  Mo3  1  0.973084  0.251300  0.855725  1
  Mo  Mo4  1  0.466275  0.746359  0.117411  1
  Mo  Mo5  1  0.466275  0.753641  0.617411  1
  Mo  Mo6  1  0.533725  0.253641  0.882589  1
  Mo  Mo7  1  0.533725  0.246359  0.382589  1
  Mo  Mo8  1  0.970497  0.755587  0.861029  1
  Mo  Mo9  1  0.970497  0.744413  0.361029  1
  Mo  Mo10  1  0.029503  0.244413  0.138971  1
  Mo  Mo11  1  0.029503  0.255587  0.638971  1
  Mo  Mo12  1  0.533867  0.748941  0.395616  1
  Mo  Mo13  1  0.533867  0.751059  0.895616  1
  Mo  Mo14  1  0.466133  0.251059  0.604384  1
  Mo  Mo15  1  0.466133  0.248941  0.104384  1
  H  H16  1  0.921034  0.563318  0.535271  1
  H  H17  1  0.921034  0.936682  0.035271  1
  H  H18  1  0.078966  0.436682  0.464729  1
  H  H19  1  0.078966  0.063318  0.964729  1
  H  H20  1  0.125159  0.559315  0.626256  1
  H  H21  1  0.125159  0.940685  0.126256  1
  H  H22  1  0.874841  0.440685  0.373744  1
  H  H23  1  0.874841  0.059315  0.873744  1
  H  H24  1  0.404136  0.557778  0.021342  1
  H  H25  1  0.404136  0.942222  0.521342  1
  H  H26  1  0.595864  0.442222  0.978658  1
  H  H27  1  0.595864  0.057778  0.478658  1
  H  H28  1  0.610293  0.564415  0.118355  1
  H  H29  1  0.610293  0.935585  0.618355  1
  H  H30  1  0.389707  0.435585  0.881645  1
  H  H31  1  0.389707  0.064415  0.381645  1
  H  H32  1  0.893195  0.564137  0.776069  1
  H  H33  1  0.893195  0.935863  0.276069  1
  H  H34  1  0.106805  0.435863  0.223931  1
  H  H35  1  0.106805  0.064137  0.723931  1
  H  H36  1  0.873515  0.936528  0.371305  1
  H  H37  1  0.873515  0.563472  0.871305  1
  H  H38  1  0.126485  0.063472  0.628695  1
  H  H39  1  0.126485  0.436528  0.128695  1
  H  H40  1  0.396891  0.564428  0.281317  1
  H  H41  1  0.396891  0.935572  0.781317  1
  H  H42  1  0.603109  0.435572  0.718683  1
  H  H43  1  0.603109  0.064428  0.218683  1
  H  H44  1  0.378153  0.934123  0.877083  1
  H  H45  1  0.378153  0.565877  0.377083  1
  H  H46  1  0.621847  0.065877  0.122917  1
  H  H47  1  0.621847  0.434123  0.622917  1
  H  H48  1  0.699555  0.545828  0.557605  1
  H  H49  1  0.699555  0.954172  0.057605  1
  H  H50  1  0.300445  0.454172  0.442395  1
  H  H51  1  0.300445  0.045828  0.942395  1
  H  H52  1  0.164977  0.961253  0.875848  1
  H  H53  1  0.164977  0.538747  0.375848  1
  H  H54  1  0.835023  0.038747  0.124152  1
  H  H55  1  0.835023  0.461253  0.624152  1
  H  H56  1  0.167972  0.546047  0.809474  1
  H  H57  1  0.167972  0.953953  0.309474  1
  H  H58  1  0.832028  0.453953  0.190526  1
  H  H59  1  0.832028  0.046047  0.690526  1
  H  H60  1  0.838419  0.957640  0.628814  1
  H  H61  1  0.838419  0.542360  0.128814  1
  H  H62  1  0.161581  0.042360  0.371186  1
  H  H63  1  0.161581  0.457640  0.871186  1
  H  H64  1  0.200157  0.551830  0.063794  1
  H  H65  1  0.200157  0.948170  0.563794  1
  H  H66  1  0.799843  0.448170  0.936206  1
  H  H67  1  0.799843  0.051830  0.436206  1
  H  H68  1  0.672841  0.963646  0.376958  1
  H  H69  1  0.672841  0.536354  0.876958  1
  H  H70  1  0.327159  0.036354  0.623042  1
  H  H71  1  0.327159  0.463646  0.123042  1
  H  H72  1  0.679956  0.561592  0.324894  1
  H  H73  1  0.679956  0.938408  0.824894  1
  H  H74  1  0.320044  0.438408  0.675106  1
  H  H75  1  0.320044  0.061592  0.175106  1
  H  H76  1  0.331685  0.965174  0.126859  1
  H  H77  1  0.331685  0.534826  0.626859  1
  H  H78  1  0.668315  0.034826  0.873141  1
  H  H79  1  0.668315  0.465174  0.373141  1
  O  O80  1  0.985552  0.871927  0.640314  1
  O  O81  1  0.985552  0.628073  0.140314  1
  O  O82  1  0.014448  0.128073  0.359686  1
  O  O83  1  0.014448  0.371927  0.859686  1
  O  O84  1  0.453704  0.868535  0.129017  1
  O  O85  1  0.453704  0.631465  0.629017  1
  O  O86  1  0.546296  0.131465  0.870983  1
  O  O87  1  0.546296  0.368535  0.370983  1
  O  O88  1  0.035574  0.873091  0.875696  1
  O  O89  1  0.035574  0.626909  0.375696  1
  O  O90  1  0.964426  0.126909  0.124304  1
  O  O91  1  0.964426  0.373091  0.624304  1
  O  O92  1  0.561747  0.869659  0.387766  1
  O  O93  1  0.561747  0.630341  0.887766  1
  O  O94  1  0.438253  0.130341  0.612234  1
  O  O95  1  0.438253  0.369659  0.112234  1
  O  O96  1  0.035709  0.711936  0.768022  1
  O  O97  1  0.035709  0.788064  0.268022  1
  O  O98  1  0.964291  0.288064  0.231978  1
  O  O99  1  0.964291  0.211936  0.731978  1
  O  O100  1  0.757876  0.711109  0.521399  1
  O  O101  1  0.757876  0.788891  0.021399  1
  O  O102  1  0.242124  0.288891  0.478601  1
  O  O103  1  0.242124  0.211109  0.978601  1
  O  O104  1  0.738809  0.760822  0.723035  1
  O  O105  1  0.738809  0.739178  0.223035  1
  O  O106  1  0.261191  0.239178  0.276965  1
  O  O107  1  0.261191  0.260822  0.776965  1
  O  O108  1  0.463997  0.752524  0.980700  1
  O  O109  1  0.463997  0.747476  0.480700  1
  O  O110  1  0.536003  0.247476  0.019300  1
  O  O111  1  0.536003  0.252524  0.519300  1
  O  O112  1  0.958395  0.748081  0.978680  1
  O  O113  1  0.958395  0.751919  0.478680  1
  O  O114  1  0.041605  0.251919  0.021320  1
  O  O115  1  0.041605  0.248081  0.521320  1
  O  O116  1  0.239437  0.712502  0.011921  1
  O  O117  1  0.239437  0.787498  0.511921  1
  O  O118  1  0.760563  0.287498  0.988079  1
  O  O119  1  0.760563  0.212502  0.488079  1
  O  O120  1  0.256638  0.753672  0.231898  1
  O  O121  1  0.256638  0.746328  0.731898  1
  O  O122  1  0.743362  0.246328  0.768102  1
  O  O123  1  0.743362  0.253672  0.268102  1
  O  O124  1  0.535103  0.707033  0.266667  1
  O  O125  1  0.535103  0.792967  0.766667  1
  O  O126  1  0.464897  0.292967  0.733333  1
  O  O127  1  0.464897  0.207033  0.233333  1
  O  O128  1  0.030009  0.589073  0.615681  1
  O  O129  1  0.030009  0.910927  0.115681  1
  O  O130  1  0.969991  0.410927  0.384319  1
  O  O131  1  0.969991  0.089073  0.884319  1
  O  O132  1  0.507102  0.587009  0.102059  1
  O  O133  1  0.507102  0.912991  0.602059  1
  O  O134  1  0.492898  0.412991  0.897941  1
  O  O135  1  0.492898  0.087009  0.397941  1
  O  O136  1  0.943752  0.592515  0.856277  1
  O  O137  1  0.943752  0.907485  0.356277  1
  O  O138  1  0.056248  0.407485  0.143723  1
  O  O139  1  0.056248  0.092515  0.643723  1
  O  O140  1  0.453728  0.589678  0.364400  1
  O  O141  1  0.453728  0.910322  0.864400  1
  O  O142  1  0.546272  0.410322  0.635600  1
  O  O143  1  0.546272  0.089678  0.135600  1
  O  O144  1  0.765135  0.503011  0.629376  1
  O  O145  1  0.765135  0.996989  0.129376  1
  O  O146  1  0.234865  0.496989  0.370624  1
  O  O147  1  0.234865  0.003011  0.870624  1
  O  O148  1  0.241867  0.500733  0.878229  1
  O  O149  1  0.241867  0.999267  0.378229  1
  O  O150  1  0.758133  0.499267  0.121771  1
  O  O151  1  0.758133  0.000733  0.621771  1
  O  O152  1  0.262484  0.506196  0.132405  1
  O  O153  1  0.262484  0.993804  0.632405  1
  O  O154  1  0.737516  0.493804  0.867595  1
  O  O155  1  0.737516  0.006196  0.367595  1
  O  O156  1  0.750702  0.509589  0.384569  1
  O  O157  1  0.750702  0.990411  0.884569  1
  O  O158  1  0.249298  0.490411  0.615431  1
  O  O159  1  0.249298  0.009589  0.115431  1
