# generated using pymatgen
data_LiMnF3
_symmetry_space_group_name_H-M   'P 1'
_cell_length_a   5.46586250
_cell_length_b   9.03598870
_cell_length_c   10.05294797
_cell_angle_alpha   90.00000000
_cell_angle_beta   90.00000000
_cell_angle_gamma   90.00000000
_symmetry_Int_Tables_number   1
_chemical_formula_structural   LiMnF3
_chemical_formula_sum   'Li8 Mn8 F24'
_cell_volume   496.50979013
_cell_formula_units_Z   8
loop_
 _symmetry_equiv_pos_site_id
 _symmetry_equiv_pos_as_xyz
  1  'x, y, z'
loop_
 _atom_site_type_symbol
 _atom_site_label
 _atom_site_symmetry_multiplicity
 _atom_site_fract_x
 _atom_site_fract_y
 _atom_site_fract_z
 _atom_site_occupancy
  Li  Li0  1  0.183006  0.165366  0.004793  1
  Li  Li1  1  0.151717  0.827560  0.781962  1
  Li  Li2  1  0.348283  0.327560  0.281962  1
  Li  Li3  1  0.316994  0.665366  0.504793  1
  Li  Li4  1  0.683006  0.334634  0.004793  1
  Li  Li5  1  0.651717  0.672440  0.781962  1
  Li  Li6  1  0.848283  0.172440  0.281962  1
  Li  Li7  1  0.816994  0.834634  0.504793  1
  Mn  Mn8  1  0.156392  0.477450  0.807203  1
  Mn  Mn9  1  0.161494  0.143298  0.572073  1
  Mn  Mn10  1  0.338506  0.643298  0.072073  1
  Mn  Mn11  1  0.343608  0.977450  0.307203  1
  Mn  Mn12  1  0.656392  0.022550  0.807203  1
  Mn  Mn13  1  0.661494  0.356702  0.572073  1
  Mn  Mn14  1  0.838506  0.856702  0.072073  1
  Mn  Mn15  1  0.843608  0.522550  0.307203  1
  F  F16  1  0.007660  0.332342  0.942232  1
  F  F17  1  0.013731  0.998418  0.431572  1
  F  F18  1  0.041634  0.681485  0.932017  1
  F  F19  1  0.176541  0.825353  0.172317  1
  F  F20  1  0.172189  0.156405  0.199023  1
  F  F21  1  0.174058  0.492121  0.201198  1
  F  F22  1  0.325942  0.992121  0.701198  1
  F  F23  1  0.327811  0.656405  0.699023  1
  F  F24  1  0.323459  0.325353  0.672317  1
  F  F25  1  0.458366  0.181485  0.432017  1
  F  F26  1  0.486269  0.498418  0.931572  1
  F  F27  1  0.492340  0.832342  0.442232  1
  F  F28  1  0.507660  0.167658  0.942232  1
  F  F29  1  0.513731  0.501582  0.431572  1
  F  F30  1  0.541634  0.818515  0.932017  1
  F  F31  1  0.676541  0.674647  0.172317  1
  F  F32  1  0.672189  0.343595  0.199023  1
  F  F33  1  0.674058  0.007879  0.201198  1
  F  F34  1  0.825942  0.507879  0.701198  1
  F  F35  1  0.827811  0.843595  0.699023  1
  F  F36  1  0.823459  0.174647  0.672317  1
  F  F37  1  0.958366  0.318515  0.432017  1
  F  F38  1  0.986269  0.001582  0.931572  1
  F  F39  1  0.992340  0.667658  0.442232  1
