# generated using pymatgen
data_Co3OF5
_symmetry_space_group_name_H-M   'P 1'
_cell_length_a   5.64159600
_cell_length_b   5.64159600
_cell_length_c   7.26380181
_cell_angle_alpha   74.24865690
_cell_angle_beta   105.75134310
_cell_angle_gamma   106.08280013
_symmetry_Int_Tables_number   1
_chemical_formula_structural   Co3OF5
_chemical_formula_sum   'Co6 O2 F10'
_cell_volume   208.92942953
_cell_formula_units_Z   2
loop_
 _symmetry_equiv_pos_site_id
 _symmetry_equiv_pos_as_xyz
  1  'x, y, z'
loop_
 _atom_site_type_symbol
 _atom_site_label
 _atom_site_symmetry_multiplicity
 _atom_site_fract_x
 _atom_site_fract_y
 _atom_site_fract_z
 _atom_site_occupancy
  Co  Co0  1  0.326931  0.673069  0.845188  1
  Co  Co1  1  0.347922  0.652078  0.312626  1
  Co  Co2  1  0.660550  0.339450  0.663755  1
  Co  Co3  1  0.661711  0.338289  0.177634  1
  Co  Co4  1  0.001631  0.998369  0.496820  1
  Co  Co5  1  0.008694  0.991306  0.995869  1
  O  O6  1  0.558856  0.441144  0.369555  1
  O  O7  1  0.237160  0.762840  0.027427  1
  F  F8  1  0.639212  0.970436  0.331069  1
  F  F9  1  0.969986  0.639833  0.672087  1
  F  F10  1  0.421917  0.578083  0.640698  1
  F  F11  1  0.115312  0.884688  0.299412  1
  F  F12  1  0.768094  0.231906  0.967746  1
  F  F13  1  0.895610  0.104390  0.700156  1
  F  F14  1  0.029564  0.360788  0.331069  1
  F  F15  1  0.360167  0.030014  0.672087  1
  F  F16  1  0.693718  0.697033  0.998399  1
  F  F17  1  0.302967  0.306282  0.998399  1
