# generated using pymatgen
data_La(BRu)4
_symmetry_space_group_name_H-M   'P 1'
_cell_length_a   7.59259004
_cell_length_b   7.59259004
_cell_length_c   4.01887235
_cell_angle_alpha   90.00000000
_cell_angle_beta   90.00000000
_cell_angle_gamma   90.00000000
_symmetry_Int_Tables_number   1
_chemical_formula_structural   La(BRu)4
_chemical_formula_sum   'La2 B8 Ru8'
_cell_volume   231.67763642
_cell_formula_units_Z   2
loop_
 _symmetry_equiv_pos_site_id
 _symmetry_equiv_pos_as_xyz
  1  'x, y, z'
loop_
 _atom_site_type_symbol
 _atom_site_label
 _atom_site_symmetry_multiplicity
 _atom_site_fract_x
 _atom_site_fract_y
 _atom_site_fract_z
 _atom_site_occupancy
  La  La0  1  0.500000  0.500000  0.000000  1
  La  La1  1  0.000000  0.000000  0.500000  1
  B  B2  1  0.666515  0.788129  0.609399  1
  B  B3  1  0.288129  0.833485  0.109399  1
  B  B4  1  0.833485  0.711871  0.890601  1
  B  B5  1  0.211871  0.666515  0.390601  1
  B  B6  1  0.788129  0.333485  0.390601  1
  B  B7  1  0.166515  0.288129  0.890601  1
  B  B8  1  0.711871  0.166515  0.109399  1
  B  B9  1  0.333485  0.211871  0.609399  1
  Ru  Ru10  1  0.356026  0.108025  0.108684  1
  Ru  Ru11  1  0.391975  0.856026  0.608684  1
  Ru  Ru12  1  0.108025  0.643974  0.891316  1
  Ru  Ru13  1  0.143974  0.391975  0.391316  1
  Ru  Ru14  1  0.856026  0.608025  0.391316  1
  Ru  Ru15  1  0.891975  0.356026  0.891316  1
  Ru  Ru16  1  0.643974  0.891975  0.108684  1
  Ru  Ru17  1  0.608025  0.143974  0.608684  1
