# generated using pymatgen
data_Gd3YO6
_symmetry_space_group_name_H-M   'P 1'
_cell_length_a   7.26809343
_cell_length_b   7.26809343
_cell_length_c   5.78382337
_cell_angle_alpha   90.00000000
_cell_angle_beta   90.00000000
_cell_angle_gamma   102.29045729
_symmetry_Int_Tables_number   1
_chemical_formula_structural   Gd3YO6
_chemical_formula_sum   'Gd6 Y2 O12'
_cell_volume   298.52905882
_cell_formula_units_Z   2
loop_
 _symmetry_equiv_pos_site_id
 _symmetry_equiv_pos_as_xyz
  1  'x, y, z'
loop_
 _atom_site_type_symbol
 _atom_site_label
 _atom_site_symmetry_multiplicity
 _atom_site_fract_x
 _atom_site_fract_y
 _atom_site_fract_z
 _atom_site_occupancy
  Gd  Gd0  1  0.088424  0.313234  0.464558  1
  Gd  Gd1  1  0.313234  0.088424  0.964558  1
  Gd  Gd2  1  0.602083  0.397917  0.410742  1
  Gd  Gd3  1  0.397917  0.602083  0.910741  1
  Gd  Gd4  1  0.686766  0.911576  0.464558  1
  Gd  Gd5  1  0.911576  0.686766  0.964558  1
  Y  Y6  1  0.836535  0.163465  0.978111  1
  Y  Y7  1  0.163465  0.836535  0.478111  1
  O  O8  1  0.320185  0.355676  0.182495  1
  O  O9  1  0.355676  0.320185  0.682495  1
  O  O10  1  0.579151  0.098344  0.177050  1
  O  O11  1  0.098344  0.579151  0.677050  1
  O  O12  1  0.983551  0.016449  0.252144  1
  O  O13  1  0.777542  0.222458  0.618096  1
  O  O14  1  0.222458  0.777542  0.118096  1
  O  O15  1  0.016449  0.983551  0.752144  1
  O  O16  1  0.901656  0.420849  0.177050  1
  O  O17  1  0.420849  0.901656  0.677050  1
  O  O18  1  0.644324  0.679815  0.182495  1
  O  O19  1  0.679815  0.644324  0.682495  1
