# generated using pymatgen
data_Li3V(SiO3)3
_symmetry_space_group_name_H-M   'P 1'
_cell_length_a   5.37557192
_cell_length_b   11.79932645
_cell_length_c   12.73911283
_cell_angle_alpha   90.00000000
_cell_angle_beta   90.00000000
_cell_angle_gamma   90.00000000
_symmetry_Int_Tables_number   1
_chemical_formula_structural   Li3V(SiO3)3
_chemical_formula_sum   'Li12 V4 Si12 O36'
_cell_volume   808.01807842
_cell_formula_units_Z   4
loop_
 _symmetry_equiv_pos_site_id
 _symmetry_equiv_pos_as_xyz
  1  'x, y, z'
loop_
 _atom_site_type_symbol
 _atom_site_label
 _atom_site_symmetry_multiplicity
 _atom_site_fract_x
 _atom_site_fract_y
 _atom_site_fract_z
 _atom_site_occupancy
  Li  Li0  1  0.829218  0.937667  0.000000  1
  Li  Li1  1  0.180287  0.602600  0.000000  1
  Li  Li2  1  0.841159  0.141806  0.000000  1
  Li  Li3  1  0.326263  0.400630  0.000000  1
  Li  Li4  1  0.326559  0.833513  0.753603  1
  Li  Li5  1  0.673441  0.333513  0.746397  1
  Li  Li6  1  0.170782  0.437667  0.500000  1
  Li  Li7  1  0.673737  0.900630  0.500000  1
  Li  Li8  1  0.158841  0.641806  0.500000  1
  Li  Li9  1  0.819713  0.102600  0.500000  1
  Li  Li10  1  0.673441  0.333513  0.253603  1
  Li  Li11  1  0.326559  0.833513  0.246397  1
  V  V12  1  0.873404  0.044321  0.773566  1
  V  V13  1  0.126596  0.544321  0.726434  1
  V  V14  1  0.126596  0.544321  0.273566  1
  V  V15  1  0.873404  0.044321  0.226434  1
  Si  Si16  1  0.350616  0.164164  0.886711  1
  Si  Si17  1  0.639631  0.537463  0.883034  1
  Si  Si18  1  0.836883  0.762939  0.811147  1
  Si  Si19  1  0.163117  0.262939  0.688853  1
  Si  Si20  1  0.360369  0.037463  0.616966  1
  Si  Si21  1  0.649384  0.664164  0.613289  1
  Si  Si22  1  0.649384  0.664164  0.386711  1
  Si  Si23  1  0.360369  0.037463  0.383034  1
  Si  Si24  1  0.163117  0.262939  0.311147  1
  Si  Si25  1  0.836883  0.762939  0.188853  1
  Si  Si26  1  0.639631  0.537463  0.116966  1
  Si  Si27  1  0.350616  0.164164  0.113289  1
  O  O28  1  0.724724  0.484816  0.000000  1
  O  O29  1  0.364210  0.238901  0.000000  1
  O  O30  1  0.089918  0.096138  0.890683  1
  O  O31  1  0.604718  0.093856  0.878130  1
  O  O32  1  0.692288  0.674893  0.891666  1
  O  O33  1  0.340151  0.513556  0.873920  1
  O  O34  1  0.813024  0.476728  0.796024  1
  O  O35  1  0.344515  0.265837  0.796247  1
  O  O36  1  0.837098  0.890056  0.855914  1
  O  O37  1  0.108655  0.708965  0.786839  1
  O  O38  1  0.891345  0.208965  0.713161  1
  O  O39  1  0.162902  0.390056  0.644086  1
  O  O40  1  0.655485  0.765837  0.703753  1
  O  O41  1  0.186976  0.976728  0.703976  1
  O  O42  1  0.659849  0.013556  0.626080  1
  O  O43  1  0.307712  0.174893  0.608334  1
  O  O44  1  0.395282  0.593856  0.621870  1
  O  O45  1  0.910082  0.596138  0.609317  1
  O  O46  1  0.635790  0.738901  0.500000  1
  O  O47  1  0.275276  0.984816  0.500000  1
  O  O48  1  0.910082  0.596138  0.390683  1
  O  O49  1  0.395282  0.593856  0.378130  1
  O  O50  1  0.307712  0.174893  0.391666  1
  O  O51  1  0.659849  0.013556  0.373920  1
  O  O52  1  0.186976  0.976728  0.296024  1
  O  O53  1  0.655485  0.765837  0.296247  1
  O  O54  1  0.162902  0.390056  0.355914  1
  O  O55  1  0.891345  0.208965  0.286839  1
  O  O56  1  0.108655  0.708965  0.213161  1
  O  O57  1  0.837098  0.890056  0.144086  1
  O  O58  1  0.344515  0.265837  0.203753  1
  O  O59  1  0.813024  0.476728  0.203976  1
  O  O60  1  0.340151  0.513556  0.126080  1
  O  O61  1  0.692288  0.674893  0.108334  1
  O  O62  1  0.604718  0.093856  0.121870  1
  O  O63  1  0.089918  0.096138  0.109317  1
