# generated using pymatgen
data_Gd3NbO7
_symmetry_space_group_name_H-M   'P 1'
_cell_length_a   6.55239851
_cell_length_b   6.55239851
_cell_length_c   7.60520160
_cell_angle_alpha   90.00000000
_cell_angle_beta   90.00000000
_cell_angle_gamma   110.71412290
_symmetry_Int_Tables_number   1
_chemical_formula_structural   Gd3NbO7
_chemical_formula_sum   'Gd6 Nb2 O14'
_cell_volume   305.41381593
_cell_formula_units_Z   2
loop_
 _symmetry_equiv_pos_site_id
 _symmetry_equiv_pos_as_xyz
  1  'x, y, z'
loop_
 _atom_site_type_symbol
 _atom_site_label
 _atom_site_symmetry_multiplicity
 _atom_site_fract_x
 _atom_site_fract_y
 _atom_site_fract_z
 _atom_site_occupancy
  Gd  Gd0  1  0.518840  0.060604  0.250000  1
  Gd  Gd1  1  0.939396  0.481160  0.750000  1
  Gd  Gd2  1  0.000000  0.000000  0.000000  1
  Gd  Gd3  1  0.000000  0.000000  0.500000  1
  Gd  Gd4  1  0.060604  0.518840  0.250000  1
  Gd  Gd5  1  0.481160  0.939396  0.750000  1
  Nb  Nb6  1  0.500000  0.500000  1.000000  1
  Nb  Nb7  1  0.500000  0.500000  0.500000  1
  O  O8  1  0.845590  0.109202  0.750000  1
  O  O9  1  0.890798  0.154410  0.250000  1
  O  O10  1  0.437437  0.179722  0.537376  1
  O  O11  1  0.820278  0.562563  0.037376  1
  O  O12  1  0.820278  0.562563  0.462624  1
  O  O13  1  0.437437  0.179722  0.962624  1
  O  O14  1  0.580687  0.580687  0.750000  1
  O  O15  1  0.419313  0.419313  0.250000  1
  O  O16  1  0.179722  0.437437  0.962624  1
  O  O17  1  0.562563  0.820278  0.037376  1
  O  O18  1  0.179722  0.437437  0.537376  1
  O  O19  1  0.562563  0.820278  0.462624  1
  O  O20  1  0.109202  0.845590  0.750000  1
  O  O21  1  0.154410  0.890798  0.250000  1
