# generated using pymatgen
data_Na4Ti7O16
_symmetry_space_group_name_H-M   'P 1'
_cell_length_a   5.51814459
_cell_length_b   6.03373390
_cell_length_c   9.58328649
_cell_angle_alpha   90.00000000
_cell_angle_beta   91.22903760
_cell_angle_gamma   90.00000000
_symmetry_Int_Tables_number   1
_chemical_formula_structural   Na4Ti7O16
_chemical_formula_sum   'Na4 Ti7 O16'
_cell_volume   319.00227186
_cell_formula_units_Z   1
loop_
 _symmetry_equiv_pos_site_id
 _symmetry_equiv_pos_as_xyz
  1  'x, y, z'
loop_
 _atom_site_type_symbol
 _atom_site_label
 _atom_site_symmetry_multiplicity
 _atom_site_fract_x
 _atom_site_fract_y
 _atom_site_fract_z
 _atom_site_occupancy
  Na  Na0  1  0.566470  0.500000  0.039921  1
  Na  Na1  1  0.526742  0.500000  0.345334  1
  Na  Na2  1  0.044474  0.256606  0.455620  1
  Na  Na3  1  0.044474  0.743394  0.455620  1
  Ti  Ti4  1  0.957672  0.000000  0.864071  1
  Ti  Ti5  1  0.994119  0.500000  0.840579  1
  Ti  Ti6  1  0.542536  0.000000  0.349183  1
  Ti  Ti7  1  0.481581  0.248397  0.639500  1
  Ti  Ti8  1  0.481581  0.751603  0.639500  1
  Ti  Ti9  1  0.048039  0.252910  0.137691  1
  Ti  Ti10  1  0.048039  0.747090  0.137691  1
  O  O11  1  0.825461  0.000000  0.234123  1
  O  O12  1  0.880373  0.500000  0.225663  1
  O  O13  1  0.828948  0.253147  0.959362  1
  O  O14  1  0.828948  0.746853  0.959362  1
  O  O15  1  0.661598  0.775854  0.476104  1
  O  O16  1  0.661598  0.224146  0.476104  1
  O  O17  1  0.685653  0.500000  0.727503  1
  O  O18  1  0.661909  0.000000  0.736017  1
  O  O19  1  0.305428  0.217688  0.264474  1
  O  O20  1  0.305428  0.782312  0.264474  1
  O  O21  1  0.303955  0.000000  0.547583  1
  O  O22  1  0.310982  0.500000  0.560846  1
  O  O23  1  0.184679  0.500000  0.029885  1
  O  O24  1  0.172140  0.000000  0.030833  1
  O  O25  1  0.160644  0.248847  0.772043  1
  O  O26  1  0.160644  0.751153  0.772043  1
