# generated using pymatgen
data_Li4Ti3Cr3(SbO8)2
_symmetry_space_group_name_H-M   'P 1'
_cell_length_a   5.98355009
_cell_length_b   5.98355009
_cell_length_c   10.15504860
_cell_angle_alpha   89.72119847
_cell_angle_beta   90.27880153
_cell_angle_gamma   119.75661671
_symmetry_Int_Tables_number   1
_chemical_formula_structural   Li4Ti3Cr3(SbO8)2
_chemical_formula_sum   'Li4 Ti3 Cr3 Sb2 O16'
_cell_volume   315.63380866
_cell_formula_units_Z   1
loop_
 _symmetry_equiv_pos_site_id
 _symmetry_equiv_pos_as_xyz
  1  'x, y, z'
loop_
 _atom_site_type_symbol
 _atom_site_label
 _atom_site_symmetry_multiplicity
 _atom_site_fract_x
 _atom_site_fract_y
 _atom_site_fract_z
 _atom_site_occupancy
  Li  Li0  1  0.334363  0.665637  0.898161  1
  Li  Li1  1  0.000548  0.999452  0.991874  1
  Li  Li2  1  0.000272  0.999728  0.496019  1
  Li  Li3  1  0.666908  0.333092  0.392973  1
  Ti  Ti4  1  0.654537  0.832637  0.217591  1
  Ti  Ti5  1  0.167363  0.345463  0.217591  1
  Ti  Ti6  1  0.828126  0.171874  0.722910  1
  Cr  Cr7  1  0.168793  0.831207  0.206978  1
  Cr  Cr8  1  0.830347  0.661808  0.720749  1
  Cr  Cr9  1  0.338192  0.169653  0.720749  1
  Sb  Sb10  1  0.330577  0.669423  0.510962  1
  Sb  Sb11  1  0.663725  0.336275  0.992885  1
  O  O12  1  0.685337  0.847957  0.610823  1
  O  O13  1  0.489303  0.510697  0.315525  1
  O  O14  1  0.338364  0.661636  0.106642  1
  O  O15  1  0.999090  0.000910  0.307497  1
  O  O16  1  0.997642  0.002358  0.812400  1
  O  O17  1  0.152043  0.314663  0.610823  1
  O  O18  1  0.500974  0.980516  0.315312  1
  O  O19  1  0.019484  0.499026  0.315312  1
  O  O20  1  0.843856  0.156144  0.096560  1
  O  O21  1  0.155982  0.844018  0.609812  1
  O  O22  1  0.967547  0.476943  0.837212  1
  O  O23  1  0.523057  0.032453  0.837212  1
  O  O24  1  0.671137  0.328863  0.613681  1
  O  O25  1  0.841043  0.685503  0.096077  1
  O  O26  1  0.516918  0.483082  0.837432  1
  O  O27  1  0.314497  0.158957  0.096077  1
