# generated using pymatgen
data_SiH18C4N8(O2F3)2
_symmetry_space_group_name_H-M   'P 1'
_cell_length_a   9.34302425
_cell_length_b   9.34302425
_cell_length_c   17.99072796
_cell_angle_alpha   90.00000000
_cell_angle_beta   90.00000000
_cell_angle_gamma   90.00000000
_symmetry_Int_Tables_number   1
_chemical_formula_structural   SiH18C4N8(O2F3)2
_chemical_formula_sum   'Si4 H72 C16 N32 O16 F24'
_cell_volume   1570.44846259
_cell_formula_units_Z   4
loop_
 _symmetry_equiv_pos_site_id
 _symmetry_equiv_pos_as_xyz
  1  'x, y, z'
loop_
 _atom_site_type_symbol
 _atom_site_label
 _atom_site_symmetry_multiplicity
 _atom_site_fract_x
 _atom_site_fract_y
 _atom_site_fract_z
 _atom_site_occupancy
  Si  Si0  1  0.678393  0.321607  0.750000  1
  Si  Si1  1  0.321607  0.678393  0.250000  1
  Si  Si2  1  0.821607  0.821607  0.500000  1
  Si  Si3  1  0.178393  0.178393  0.000000  1
  H  H4  1  0.664444  0.335556  0.250000  1
  H  H5  1  0.335556  0.664444  0.750000  1
  H  H6  1  0.835556  0.835556  0.000000  1
  H  H7  1  0.164444  0.164444  0.500000  1
  H  H8  1  0.917522  0.082478  0.250000  1
  H  H9  1  0.082478  0.917522  0.750000  1
  H  H10  1  0.582478  0.582478  0.000000  1
  H  H11  1  0.417522  0.417522  0.500000  1
  H  H12  1  0.845124  0.423559  0.586127  1
  H  H13  1  0.154876  0.576442  0.086127  1
  H  H14  1  0.923558  0.654876  0.336127  1
  H  H15  1  0.076441  0.345124  0.836127  1
  H  H16  1  0.576442  0.154876  0.913873  1
  H  H17  1  0.423559  0.845124  0.413873  1
  H  H18  1  0.654876  0.923558  0.663873  1
  H  H19  1  0.345124  0.076441  0.163873  1
  H  H20  1  0.922427  0.473929  0.502793  1
  H  H21  1  0.077573  0.526071  0.002793  1
  H  H22  1  0.973929  0.577573  0.252793  1
  H  H23  1  0.026071  0.422427  0.752793  1
  H  H24  1  0.526071  0.077573  0.997207  1
  H  H25  1  0.473929  0.922427  0.497207  1
  H  H26  1  0.577573  0.973929  0.747207  1
  H  H27  1  0.422427  0.026071  0.247207  1
  H  H28  1  0.888915  0.199975  0.636251  1
  H  H29  1  0.111085  0.800025  0.136251  1
  H  H30  1  0.699975  0.611085  0.386251  1
  H  H31  1  0.300025  0.388915  0.886251  1
  H  H32  1  0.800025  0.111085  0.863749  1
  H  H33  1  0.199975  0.888915  0.363749  1
  H  H34  1  0.611085  0.699975  0.613749  1
  H  H35  1  0.388915  0.300025  0.113749  1
  H  H36  1  0.014259  0.085429  0.595517  1
  H  H37  1  0.985741  0.914571  0.095517  1
  H  H38  1  0.585429  0.485741  0.345517  1
  H  H39  1  0.414571  0.514259  0.845517  1
  H  H40  1  0.914571  0.985741  0.904483  1
  H  H41  1  0.085429  0.014259  0.404483  1
  H  H42  1  0.485741  0.585429  0.654483  1
  H  H43  1  0.514259  0.414571  0.154483  1
  H  H44  1  0.706621  0.099923  0.436093  1
  H  H45  1  0.293379  0.900077  0.936093  1
  H  H46  1  0.599923  0.793379  0.186093  1
  H  H47  1  0.400077  0.206621  0.686093  1
  H  H48  1  0.900077  0.293379  0.063907  1
  H  H49  1  0.099923  0.706621  0.563907  1
  H  H50  1  0.793379  0.599923  0.813907  1
  H  H51  1  0.206621  0.400077  0.313907  1
  H  H52  1  0.614729  0.197109  0.366850  1
  H  H53  1  0.385271  0.802891  0.866850  1
  H  H54  1  0.697109  0.885271  0.116850  1
  H  H55  1  0.302891  0.114729  0.616850  1
  H  H56  1  0.802891  0.385271  0.133150  1
  H  H57  1  0.197109  0.614729  0.633150  1
  H  H58  1  0.885271  0.697109  0.883150  1
  H  H59  1  0.114729  0.302891  0.383150  1
  H  H60  1  0.661292  0.154007  0.560745  1
  H  H61  1  0.338708  0.845993  0.060745  1
  H  H62  1  0.654007  0.838708  0.310745  1
  H  H63  1  0.345993  0.161292  0.810745  1
  H  H64  1  0.845993  0.338708  0.939255  1
  H  H65  1  0.154007  0.661292  0.439255  1
  H  H66  1  0.838708  0.654007  0.689255  1
  H  H67  1  0.161292  0.345993  0.189255  1
  H  H68  1  0.548597  0.294634  0.585271  1
  H  H69  1  0.451403  0.705366  0.085271  1
  H  H70  1  0.794634  0.951403  0.335271  1
  H  H71  1  0.205366  0.048597  0.835271  1
  H  H72  1  0.705366  0.451403  0.914729  1
  H  H73  1  0.294634  0.548597  0.414729  1
  H  H74  1  0.951403  0.794634  0.664729  1
  H  H75  1  0.048597  0.205366  0.164729  1
  C  C76  1  0.985570  0.277390  0.541910  1
  C  C77  1  0.014430  0.722610  0.041910  1
  C  C78  1  0.777390  0.514430  0.291910  1
  C  C79  1  0.222610  0.485570  0.791910  1
  C  C80  1  0.722610  0.014430  0.958090  1
  C  C81  1  0.277390  0.985570  0.458090  1
  C  C82  1  0.514430  0.777390  0.708090  1
  C  C83  1  0.485570  0.222610  0.208090  1
  C  C84  1  0.567834  0.256933  0.472734  1
  C  C85  1  0.432166  0.743067  0.972734  1
  C  C86  1  0.756933  0.932166  0.222734  1
  C  C87  1  0.243067  0.067834  0.722734  1
  C  C88  1  0.743067  0.432166  0.027266  1
  C  C89  1  0.256933  0.567834  0.527266  1
  C  C90  1  0.932166  0.756933  0.777266  1
  C  C91  1  0.067834  0.243067  0.277266  1
  N  N92  1  0.907170  0.397596  0.541904  1
  N  N93  1  0.092830  0.602404  0.041904  1
  N  N94  1  0.897596  0.592830  0.291904  1
  N  N95  1  0.102404  0.407170  0.791904  1
  N  N96  1  0.602404  0.092830  0.958096  1
  N  N97  1  0.397596  0.907170  0.458096  1
  N  N98  1  0.592830  0.897596  0.708096  1
  N  N99  1  0.407170  0.102404  0.208096  1
  N  N100  1  0.966334  0.183149  0.596805  1
  N  N101  1  0.033666  0.816851  0.096805  1
  N  N102  1  0.683149  0.533666  0.346805  1
  N  N103  1  0.316851  0.466334  0.846805  1
  N  N104  1  0.816851  0.033666  0.903195  1
  N  N105  1  0.183149  0.966334  0.403195  1
  N  N106  1  0.533666  0.683149  0.653195  1
  N  N107  1  0.466334  0.316851  0.153195  1
  N  N108  1  0.636539  0.178870  0.421584  1
  N  N109  1  0.363461  0.821130  0.921584  1
  N  N110  1  0.678870  0.863461  0.171584  1
  N  N111  1  0.321130  0.136539  0.671584  1
  N  N112  1  0.821130  0.363461  0.078416  1
  N  N113  1  0.178870  0.636539  0.578416  1
  N  N114  1  0.863461  0.678870  0.828416  1
  N  N115  1  0.136539  0.321130  0.328416  1
  N  N116  1  0.590442  0.230708  0.545009  1
  N  N117  1  0.409558  0.769292  0.045009  1
  N  N118  1  0.730708  0.909558  0.295009  1
  N  N119  1  0.269292  0.090442  0.795009  1
  N  N120  1  0.769292  0.409558  0.954991  1
  N  N121  1  0.230708  0.590442  0.454991  1
  N  N122  1  0.909558  0.730708  0.704991  1
  N  N123  1  0.090442  0.269292  0.204991  1
  O  O124  1  0.077614  0.257333  0.488910  1
  O  O125  1  0.922386  0.742667  0.988910  1
  O  O126  1  0.757333  0.422386  0.238910  1
  O  O127  1  0.242667  0.577614  0.738910  1
  O  O128  1  0.742667  0.922386  0.011090  1
  O  O129  1  0.257333  0.077614  0.511090  1
  O  O130  1  0.422386  0.757333  0.761090  1
  O  O131  1  0.577614  0.242667  0.261090  1
  O  O132  1  0.480611  0.355885  0.450901  1
  O  O133  1  0.519389  0.644115  0.950901  1
  O  O134  1  0.855885  0.019389  0.200901  1
  O  O135  1  0.144115  0.980611  0.700901  1
  O  O136  1  0.644115  0.519389  0.049099  1
  O  O137  1  0.355885  0.480611  0.549099  1
  O  O138  1  0.019389  0.855885  0.799099  1
  O  O139  1  0.980611  0.144115  0.299099  1
  F  F140  1  0.535153  0.362526  0.693266  1
  F  F141  1  0.464847  0.637474  0.193266  1
  F  F142  1  0.862526  0.964847  0.443266  1
  F  F143  1  0.137474  0.035153  0.943266  1
  F  F144  1  0.637474  0.464847  0.806734  1
  F  F145  1  0.362526  0.535153  0.306734  1
  F  F146  1  0.964847  0.862526  0.556734  1
  F  F147  1  0.035153  0.137474  0.056734  1
  F  F148  1  0.789498  0.431630  0.697920  1
  F  F149  1  0.210502  0.568370  0.197920  1
  F  F150  1  0.931630  0.710502  0.447920  1
  F  F151  1  0.068370  0.289498  0.947920  1
  F  F152  1  0.568370  0.210502  0.802080  1
  F  F153  1  0.431630  0.789498  0.302080  1
  F  F154  1  0.710502  0.931630  0.552080  1
  F  F155  1  0.289498  0.068370  0.052080  1
  F  F156  1  0.721015  0.180689  0.692989  1
  F  F157  1  0.278985  0.819311  0.192989  1
  F  F158  1  0.680689  0.778985  0.442989  1
  F  F159  1  0.319311  0.221015  0.942989  1
  F  F160  1  0.819311  0.278985  0.807011  1
  F  F161  1  0.180689  0.721015  0.307011  1
  F  F162  1  0.778985  0.680689  0.557011  1
  F  F163  1  0.221015  0.319311  0.057011  1
