# generated using pymatgen
data_CoOF
_symmetry_space_group_name_H-M   'P 1'
_cell_length_a   4.48157740
_cell_length_b   4.50899203
_cell_length_c   8.99859921
_cell_angle_alpha   90.00000000
_cell_angle_beta   90.00000000
_cell_angle_gamma   90.00000000
_symmetry_Int_Tables_number   1
_chemical_formula_structural   CoOF
_chemical_formula_sum   'Co6 O6 F6'
_cell_volume   181.83826455
_cell_formula_units_Z   6
loop_
 _symmetry_equiv_pos_site_id
 _symmetry_equiv_pos_as_xyz
  1  'x, y, z'
loop_
 _atom_site_type_symbol
 _atom_site_label
 _atom_site_symmetry_multiplicity
 _atom_site_fract_x
 _atom_site_fract_y
 _atom_site_fract_z
 _atom_site_occupancy
  Co  Co0  1  0.774886  0.025214  0.666347  1
  Co  Co1  1  0.774886  0.025214  0.333653  1
  Co  Co2  1  0.729272  0.965879  0.000000  1
  Co  Co3  1  0.270728  0.465879  0.500000  1
  Co  Co4  1  0.225114  0.525214  0.833653  1
  Co  Co5  1  0.225114  0.525214  0.166347  1
  O  O6  1  0.926087  0.808591  0.836243  1
  O  O7  1  0.926087  0.808591  0.163757  1
  O  O8  1  0.424388  0.691862  0.000000  1
  O  O9  1  0.073913  0.308591  0.663757  1
  O  O10  1  0.073913  0.308591  0.336243  1
  O  O11  1  0.575612  0.191862  0.500000  1
  F  F12  1  0.980677  0.780131  0.500000  1
  F  F13  1  0.466610  0.696952  0.340901  1
  F  F14  1  0.466610  0.696952  0.659099  1
  F  F15  1  0.019323  0.280131  0.000000  1
  F  F16  1  0.533390  0.196952  0.840901  1
  F  F17  1  0.533390  0.196952  0.159099  1
