# generated using pymatgen
data_LiCrP2H5O9
_symmetry_space_group_name_H-M   'P 1'
_cell_length_a   6.77738485
_cell_length_b   7.76430760
_cell_length_c   15.11590918
_cell_angle_alpha   90.00000000
_cell_angle_beta   90.00000000
_cell_angle_gamma   90.00000000
_symmetry_Int_Tables_number   1
_chemical_formula_structural   LiCrP2H5O9
_chemical_formula_sum   'Li4 Cr4 P8 H20 O36'
_cell_volume   795.42484866
_cell_formula_units_Z   4
loop_
 _symmetry_equiv_pos_site_id
 _symmetry_equiv_pos_as_xyz
  1  'x, y, z'
loop_
 _atom_site_type_symbol
 _atom_site_label
 _atom_site_symmetry_multiplicity
 _atom_site_fract_x
 _atom_site_fract_y
 _atom_site_fract_z
 _atom_site_occupancy
  Li  Li0  1  0.244097  0.259952  0.940837  1
  Li  Li1  1  0.744097  0.759952  0.559163  1
  Li  Li2  1  0.255903  0.259952  0.440837  1
  Li  Li3  1  0.755903  0.759952  0.059163  1
  Cr  Cr4  1  0.936650  0.749734  0.812709  1
  Cr  Cr5  1  0.436650  0.249734  0.687291  1
  Cr  Cr6  1  0.563350  0.749734  0.312709  1
  Cr  Cr7  1  0.063350  0.249734  0.187291  1
  P  P8  1  0.626411  0.439470  0.861735  1
  P  P9  1  0.633283  0.063616  0.861954  1
  P  P10  1  0.126411  0.939470  0.638265  1
  P  P11  1  0.133283  0.563616  0.638046  1
  P  P12  1  0.873589  0.439470  0.361735  1
  P  P13  1  0.866717  0.063616  0.361954  1
  P  P14  1  0.373589  0.939470  0.138265  1
  P  P15  1  0.366717  0.563616  0.138046  1
  H  H16  1  0.495520  0.006099  0.993575  1
  H  H17  1  0.288748  0.849908  0.911223  1
  H  H18  1  0.291347  0.646577  0.911698  1
  H  H19  1  0.092909  0.352582  0.789906  1
  H  H20  1  0.095132  0.145030  0.791092  1
  H  H21  1  0.592909  0.852582  0.710094  1
  H  H22  1  0.595132  0.645030  0.708908  1
  H  H23  1  0.788748  0.349908  0.588777  1
  H  H24  1  0.791347  0.146577  0.588302  1
  H  H25  1  0.995520  0.506099  0.506425  1
  H  H26  1  0.004480  0.006099  0.493575  1
  H  H27  1  0.211252  0.849908  0.411223  1
  H  H28  1  0.208653  0.646577  0.411698  1
  H  H29  1  0.407091  0.352582  0.289906  1
  H  H30  1  0.404868  0.145030  0.291092  1
  H  H31  1  0.907091  0.852582  0.210094  1
  H  H32  1  0.904868  0.645030  0.208908  1
  H  H33  1  0.711252  0.349908  0.088777  1
  H  H34  1  0.708653  0.146577  0.088302  1
  H  H35  1  0.504480  0.506099  0.006425  1
  O  O36  1  0.446967  0.450503  0.925897  1
  O  O37  1  0.449036  0.050734  0.927328  1
  O  O38  1  0.203237  0.747702  0.911077  1
  O  O39  1  0.726292  0.251415  0.880279  1
  O  O40  1  0.788118  0.934181  0.888567  1
  O  O41  1  0.783913  0.569204  0.886828  1
  O  O42  1  0.150501  0.250155  0.819036  1
  O  O43  1  0.561809  0.444031  0.764874  1
  O  O44  1  0.559413  0.055246  0.767063  1
  O  O45  1  0.061809  0.944031  0.735126  1
  O  O46  1  0.059413  0.555246  0.732937  1
  O  O47  1  0.650501  0.750155  0.680964  1
  O  O48  1  0.283913  0.069204  0.613172  1
  O  O49  1  0.288118  0.434181  0.611433  1
  O  O50  1  0.226292  0.751415  0.619721  1
  O  O51  1  0.703237  0.247702  0.588923  1
  O  O52  1  0.946967  0.950503  0.574103  1
  O  O53  1  0.949036  0.550734  0.572672  1
  O  O54  1  0.053033  0.450503  0.425897  1
  O  O55  1  0.050964  0.050734  0.427328  1
  O  O56  1  0.296763  0.747702  0.411077  1
  O  O57  1  0.773708  0.251415  0.380279  1
  O  O58  1  0.711882  0.934181  0.388567  1
  O  O59  1  0.716087  0.569204  0.386828  1
  O  O60  1  0.349499  0.250155  0.319036  1
  O  O61  1  0.938191  0.444031  0.264874  1
  O  O62  1  0.940587  0.055246  0.267063  1
  O  O63  1  0.438191  0.944031  0.235126  1
  O  O64  1  0.440587  0.555246  0.232937  1
  O  O65  1  0.849499  0.750155  0.180964  1
  O  O66  1  0.211882  0.434181  0.111433  1
  O  O67  1  0.216087  0.069204  0.113172  1
  O  O68  1  0.273708  0.751415  0.119721  1
  O  O69  1  0.796763  0.247702  0.088923  1
  O  O70  1  0.553033  0.950503  0.074103  1
  O  O71  1  0.550964  0.550734  0.072672  1
