# generated using pymatgen
data_Co6O5F7
_symmetry_space_group_name_H-M   'P 1'
_cell_length_a   4.70044758
_cell_length_b   4.70044758
_cell_length_c   8.94692391
_cell_angle_alpha   90.00000000
_cell_angle_beta   90.00000000
_cell_angle_gamma   96.76355635
_symmetry_Int_Tables_number   1
_chemical_formula_structural   Co6O5F7
_chemical_formula_sum   'Co6 O5 F7'
_cell_volume   196.29949583
_cell_formula_units_Z   1
loop_
 _symmetry_equiv_pos_site_id
 _symmetry_equiv_pos_as_xyz
  1  'x, y, z'
loop_
 _atom_site_type_symbol
 _atom_site_label
 _atom_site_symmetry_multiplicity
 _atom_site_fract_x
 _atom_site_fract_y
 _atom_site_fract_z
 _atom_site_occupancy
  Co  Co0  1  0.996203  0.996203  0.833156  1
  Co  Co1  1  0.996203  0.996203  0.166844  1
  Co  Co2  1  0.023360  0.023360  0.500000  1
  Co  Co3  1  0.494767  0.494767  0.000000  1
  Co  Co4  1  0.497178  0.497178  0.671934  1
  Co  Co5  1  0.497178  0.497178  0.328066  1
  O  O6  1  0.298416  0.298416  0.163899  1
  O  O7  1  0.298416  0.298416  0.836101  1
  O  O8  1  0.321325  0.321325  0.500000  1
  O  O9  1  0.689880  0.689880  0.835860  1
  O  O10  1  0.689880  0.689880  0.164140  1
  F  F11  1  0.801951  0.188316  1.000000  1
  F  F12  1  0.804891  0.197485  0.668653  1
  F  F13  1  0.804891  0.197485  0.331347  1
  F  F14  1  0.702175  0.702175  0.500000  1
  F  F15  1  0.188316  0.801951  1.000000  1
  F  F16  1  0.197485  0.804891  0.668653  1
  F  F17  1  0.197485  0.804891  0.331347  1
