# generated using pymatgen
data_LiV(TeO4)3
_symmetry_space_group_name_H-M   'P 1'
_cell_length_a   5.03069260
_cell_length_b   5.31244078
_cell_length_c   7.34962898
_cell_angle_alpha   93.64261475
_cell_angle_beta   90.06183987
_cell_angle_gamma   90.03590275
_symmetry_Int_Tables_number   1
_chemical_formula_structural   LiV(TeO4)3
_chemical_formula_sum   'Li1 V1 Te3 O12'
_cell_volume   196.02373905
_cell_formula_units_Z   1
loop_
 _symmetry_equiv_pos_site_id
 _symmetry_equiv_pos_as_xyz
  1  'x, y, z'
loop_
 _atom_site_type_symbol
 _atom_site_label
 _atom_site_symmetry_multiplicity
 _atom_site_fract_x
 _atom_site_fract_y
 _atom_site_fract_z
 _atom_site_occupancy
  Li  Li0  1  0.497181  0.932028  0.795994  1
  V  V1  1  0.002451  0.002265  0.016801  1
  Te  Te2  1  0.503813  0.494902  0.999940  1
  Te  Te3  1  0.005730  0.004181  0.503241  1
  Te  Te4  1  0.498507  0.501180  0.493350  1
  O  O5  1  0.320456  0.185898  0.424821  1
  O  O6  1  0.126470  0.005307  0.745933  1
  O  O7  1  0.300402  0.811264  0.043905  1
  O  O8  1  0.182223  0.686097  0.423790  1
  O  O9  1  0.793790  0.713942  0.936868  1
  O  O10  1  0.370229  0.519712  0.744973  1
  O  O11  1  0.639162  0.508322  0.248845  1
  O  O12  1  0.188597  0.305189  0.054180  1
  O  O13  1  0.814980  0.320163  0.565617  1
  O  O14  1  0.691337  0.189687  0.936748  1
  O  O15  1  0.886290  0.004741  0.248439  1
  O  O16  1  0.678380  0.822720  0.562755  1
