# generated using pymatgen
data_Li3Fe8(BO3)8
_symmetry_space_group_name_H-M   'P 1'
_cell_length_a   5.21961134
_cell_length_b   9.11582627
_cell_length_c   11.38124315
_cell_angle_alpha   113.20155882
_cell_angle_beta   103.19882102
_cell_angle_gamma   89.46624356
_symmetry_Int_Tables_number   1
_chemical_formula_structural   Li3Fe8(BO3)8
_chemical_formula_sum   'Li3 Fe8 B8 O24'
_cell_volume   482.61515965
_cell_formula_units_Z   1
loop_
 _symmetry_equiv_pos_site_id
 _symmetry_equiv_pos_as_xyz
  1  'x, y, z'
loop_
 _atom_site_type_symbol
 _atom_site_label
 _atom_site_symmetry_multiplicity
 _atom_site_fract_x
 _atom_site_fract_y
 _atom_site_fract_z
 _atom_site_occupancy
  Li  Li0  1  0.292662  0.276517  0.914196  1
  Li  Li1  1  0.978883  0.001979  0.658372  1
  Li  Li2  1  0.760914  0.747721  0.156056  1
  Fe  Fe3  1  0.025277  0.351666  0.375061  1
  Fe  Fe4  1  0.260429  0.926756  0.879209  1
  Fe  Fe5  1  0.461159  0.162071  0.621437  1
  Fe  Fe6  1  0.253197  0.556004  0.139904  1
  Fe  Fe7  1  0.770504  0.443096  0.874740  1
  Fe  Fe8  1  0.509961  0.854353  0.382317  1
  Fe  Fe9  1  0.980636  0.642227  0.630603  1
  Fe  Fe10  1  0.735560  0.071968  0.123305  1
  B  B11  1  0.019416  0.684922  0.381305  1
  B  B12  1  0.272535  0.594918  0.875600  1
  B  B13  1  0.481850  0.816153  0.627005  1
  B  B14  1  0.238204  0.897078  0.132791  1
  B  B15  1  0.525941  0.185588  0.369312  1
  B  B16  1  0.770824  0.116011  0.880206  1
  B  B17  1  0.961756  0.311860  0.627231  1
  B  B18  1  0.734712  0.395943  0.124076  1
  O  O19  1  0.019195  0.095115  0.857517  1
  O  O20  1  0.123740  0.690601  0.822143  1
  O  O21  1  0.149138  0.492155  0.915399  1
  O  O22  1  0.091454  0.181562  0.628232  1
  O  O23  1  0.040342  0.411435  0.572353  1
  O  O24  1  0.233988  0.831652  0.659369  1
  O  O25  1  0.261260  0.678662  0.349428  1
  O  O26  1  0.539429  0.602768  0.894400  1
  O  O27  1  0.619707  0.230059  0.847808  1
  O  O28  1  0.465159  0.076063  0.418407  1
  O  O29  1  0.371285  0.305303  0.371051  1
  O  O30  1  0.655155  0.026885  0.931817  1
  O  O31  1  0.367177  0.983764  0.083365  1
  O  O32  1  0.637897  0.701836  0.639793  1
  O  O33  1  0.572059  0.928589  0.584311  1
  O  O34  1  0.385538  0.791655  0.178664  1
  O  O35  1  0.467781  0.377066  0.103706  1
  O  O36  1  0.743402  0.348954  0.681370  1
  O  O37  1  0.756425  0.170623  0.322541  1
  O  O38  1  0.951511  0.577111  0.430739  1
  O  O39  1  0.849044  0.791304  0.358830  1
  O  O40  1  0.851718  0.508482  0.091632  1
  O  O41  1  0.893400  0.296908  0.172900  1
  O  O42  1  0.976209  0.909796  0.132902  1
