# generated using pymatgen
data_Li3MnFe2(BO3)3
_symmetry_space_group_name_H-M   'P 1'
_cell_length_a   8.26642751
_cell_length_b   3.14831424
_cell_length_c   16.51571398
_cell_angle_alpha   90.00000000
_cell_angle_beta   120.04902110
_cell_angle_gamma   90.00000000
_symmetry_Int_Tables_number   1
_chemical_formula_structural   Li3MnFe2(BO3)3
_chemical_formula_sum   'Li6 Mn2 Fe4 B6 O18'
_cell_volume   372.05674325
_cell_formula_units_Z   2
loop_
 _symmetry_equiv_pos_site_id
 _symmetry_equiv_pos_as_xyz
  1  'x, y, z'
loop_
 _atom_site_type_symbol
 _atom_site_label
 _atom_site_symmetry_multiplicity
 _atom_site_fract_x
 _atom_site_fract_y
 _atom_site_fract_z
 _atom_site_occupancy
  Li  Li0  1  0.696696  0.500000  0.989671  1
  Li  Li1  1  0.018143  0.500000  0.358522  1
  Li  Li2  1  0.286194  0.500000  0.651295  1
  Li  Li3  1  0.699881  0.500000  0.493378  1
  Li  Li4  1  0.016028  0.500000  0.856890  1
  Li  Li5  1  0.284717  0.500000  0.150066  1
  Mn  Mn6  1  0.988284  0.000000  0.180015  1
  Mn  Mn7  1  0.639655  0.000000  0.314010  1
  Fe  Fe8  1  0.367120  0.000000  0.504464  1
  Fe  Fe9  1  0.640316  0.000000  0.816091  1
  Fe  Fe10  1  0.365860  0.000000  0.003157  1
  Fe  Fe11  1  0.992780  0.000000  0.680095  1
  B  B12  1  0.667047  0.500000  0.666947  1
  B  B13  1  0.001185  0.000000  0.999463  1
  B  B14  1  0.333304  0.500000  0.334455  1
  B  B15  1  0.664870  0.500000  0.164897  1
  B  B16  1  0.000626  0.000000  0.501145  1
  B  B17  1  0.333501  0.500000  0.833502  1
  O  O18  1  0.420573  0.500000  0.431738  1
  O  O19  1  0.744848  0.500000  0.763883  1
  O  O20  1  0.473234  0.500000  0.609041  1
  O  O21  1  0.139731  0.500000  0.280989  1
  O  O22  1  0.806776  0.000000  0.957669  1
  O  O23  1  0.776764  0.500000  0.124016  1
  O  O24  1  0.443135  0.500000  0.791282  1
  O  O25  1  0.083791  0.000000  0.445636  1
  O  O26  1  0.112163  0.000000  0.598281  1
  O  O27  1  0.418150  0.500000  0.930585  1
  O  O28  1  0.748272  0.500000  0.262202  1
  O  O29  1  0.471105  0.500000  0.108871  1
  O  O30  1  0.139439  0.500000  0.778763  1
  O  O31  1  0.806942  0.000000  0.460056  1
  O  O32  1  0.782969  0.500000  0.628202  1
  O  O33  1  0.439338  0.500000  0.290530  1
  O  O34  1  0.083651  0.000000  0.943790  1
  O  O35  1  0.112911  0.000000  0.096406  1
