# generated using pymatgen
data_LiMnCo3O8
_symmetry_space_group_name_H-M   'P 1'
_cell_length_a   5.94205819
_cell_length_b   5.94205819
_cell_length_c   5.94205819
_cell_angle_alpha   56.78466140
_cell_angle_beta   56.78466140
_cell_angle_gamma   56.78466140
_symmetry_Int_Tables_number   1
_chemical_formula_structural   LiMnCo3O8
_chemical_formula_sum   'Li1 Mn1 Co3 O8'
_cell_volume   137.34254316
_cell_formula_units_Z   1
loop_
 _symmetry_equiv_pos_site_id
 _symmetry_equiv_pos_as_xyz
  1  'x, y, z'
loop_
 _atom_site_type_symbol
 _atom_site_label
 _atom_site_symmetry_multiplicity
 _atom_site_fract_x
 _atom_site_fract_y
 _atom_site_fract_z
 _atom_site_occupancy
  Li  Li0  1  0.500000  0.500000  0.500000  1
  Mn  Mn1  1  0.000000  0.000000  0.000000  1
  Co  Co2  1  0.000000  0.500000  0.500000  1
  Co  Co3  1  0.500000  0.500000  0.000000  1
  Co  Co4  1  0.500000  0.000000  0.500000  1
  O  O5  1  0.764017  0.273093  0.764017  1
  O  O6  1  0.764017  0.764017  0.273093  1
  O  O7  1  0.727721  0.727721  0.727721  1
  O  O8  1  0.273093  0.764017  0.764017  1
  O  O9  1  0.726907  0.235983  0.235983  1
  O  O10  1  0.272279  0.272279  0.272279  1
  O  O11  1  0.235983  0.235983  0.726907  1
  O  O12  1  0.235983  0.726907  0.235983  1
