# generated using pymatgen
data_Mn(SbO3)2
_symmetry_space_group_name_H-M   'P 1'
_cell_length_a   4.79379403
_cell_length_b   4.79379403
_cell_length_c   9.55560055
_cell_angle_alpha   90.00000000
_cell_angle_beta   90.00000000
_cell_angle_gamma   90.00000000
_symmetry_Int_Tables_number   1
_chemical_formula_structural   Mn(SbO3)2
_chemical_formula_sum   'Mn2 Sb4 O12'
_cell_volume   219.59210770
_cell_formula_units_Z   2
loop_
 _symmetry_equiv_pos_site_id
 _symmetry_equiv_pos_as_xyz
  1  'x, y, z'
loop_
 _atom_site_type_symbol
 _atom_site_label
 _atom_site_symmetry_multiplicity
 _atom_site_fract_x
 _atom_site_fract_y
 _atom_site_fract_z
 _atom_site_occupancy
  Mn  Mn0  1  0.500000  0.500000  0.000000  1
  Mn  Mn1  1  0.000000  0.000000  0.500000  1
  Sb  Sb2  1  0.500000  0.500000  0.667766  1
  Sb  Sb3  1  0.500000  0.500000  0.332234  1
  Sb  Sb4  1  0.000000  0.000000  0.832234  1
  Sb  Sb5  1  0.000000  0.000000  0.167766  1
  O  O6  1  0.684913  0.315087  0.500000  1
  O  O7  1  0.700270  0.299730  0.824007  1
  O  O8  1  0.700270  0.299730  0.175993  1
  O  O9  1  0.799730  0.799730  0.675993  1
  O  O10  1  0.815087  0.815087  0.000000  1
  O  O11  1  0.799730  0.799730  0.324007  1
  O  O12  1  0.200270  0.200270  0.675993  1
  O  O13  1  0.184913  0.184913  0.000000  1
  O  O14  1  0.200270  0.200270  0.324007  1
  O  O15  1  0.299730  0.700270  0.824007  1
  O  O16  1  0.315087  0.684913  0.500000  1
  O  O17  1  0.299730  0.700270  0.175993  1
