# generated using pymatgen
data_Li5V7O12
_symmetry_space_group_name_H-M   'P 1'
_cell_length_a   5.20757473
_cell_length_b   5.20757473
_cell_length_c   9.94478012
_cell_angle_alpha   84.60115373
_cell_angle_beta   95.39884627
_cell_angle_gamma   59.08559784
_symmetry_Int_Tables_number   1
_chemical_formula_structural   Li5V7O12
_chemical_formula_sum   'Li5 V7 O12'
_cell_volume   227.12588303
_cell_formula_units_Z   1
loop_
 _symmetry_equiv_pos_site_id
 _symmetry_equiv_pos_as_xyz
  1  'x, y, z'
loop_
 _atom_site_type_symbol
 _atom_site_label
 _atom_site_symmetry_multiplicity
 _atom_site_fract_x
 _atom_site_fract_y
 _atom_site_fract_z
 _atom_site_occupancy
  Li  Li0  1  0.669709  0.161882  0.254237  1
  Li  Li1  1  0.161882  0.669709  0.745763  1
  Li  Li2  1  0.082534  0.082534  0.500000  1
  Li  Li3  1  0.837426  0.327578  0.744668  1
  Li  Li4  1  0.327578  0.837426  0.255332  1
  V  V5  1  0.995390  0.493755  0.250872  1
  V  V6  1  0.236929  0.236929  0.000000  1
  V  V7  1  0.493755  0.995390  0.749128  1
  V  V8  1  0.574201  0.574201  0.000000  1
  V  V9  1  0.419989  0.419989  0.500000  1
  V  V10  1  0.914364  0.914364  0.000000  1
  V  V11  1  0.750456  0.750456  0.500000  1
  O  O12  1  0.771777  0.038183  0.620701  1
  O  O13  1  0.518836  0.278201  0.876573  1
  O  O14  1  0.371682  0.145747  0.379415  1
  O  O15  1  0.038183  0.771777  0.379299  1
  O  O16  1  0.278201  0.518836  0.123427  1
  O  O17  1  0.145747  0.371682  0.620585  1
  O  O18  1  0.867593  0.619628  0.877265  1
  O  O19  1  0.709843  0.473427  0.379858  1
  O  O20  1  0.619628  0.867593  0.122735  1
  O  O21  1  0.964595  0.199391  0.129363  1
  O  O22  1  0.473427  0.709843  0.620142  1
  O  O23  1  0.199391  0.964595  0.870637  1
