# generated using pymatgen
data_Li3FeAsCO7
_symmetry_space_group_name_H-M   'P 1'
_cell_length_a   5.11443082
_cell_length_b   6.65631244
_cell_length_c   8.65928233
_cell_angle_alpha   90.00000000
_cell_angle_beta   93.97539702
_cell_angle_gamma   90.00000000
_symmetry_Int_Tables_number   1
_chemical_formula_structural   Li3FeAsCO7
_chemical_formula_sum   'Li6 Fe2 As2 C2 O14'
_cell_volume   294.08081774
_cell_formula_units_Z   2
loop_
 _symmetry_equiv_pos_site_id
 _symmetry_equiv_pos_as_xyz
  1  'x, y, z'
loop_
 _atom_site_type_symbol
 _atom_site_label
 _atom_site_symmetry_multiplicity
 _atom_site_fract_x
 _atom_site_fract_y
 _atom_site_fract_z
 _atom_site_occupancy
  Li  Li0  1  0.253289  0.750000  0.089441  1
  Li  Li1  1  0.770656  0.973402  0.268896  1
  Li  Li2  1  0.770656  0.526598  0.268896  1
  Li  Li3  1  0.229344  0.473402  0.731104  1
  Li  Li4  1  0.229344  0.026598  0.731104  1
  Li  Li5  1  0.746711  0.250000  0.910559  1
  Fe  Fe6  1  0.210447  0.250000  0.324511  1
  Fe  Fe7  1  0.789553  0.750000  0.675489  1
  As  As8  1  0.292876  0.750000  0.416734  1
  As  As9  1  0.707124  0.250000  0.583266  1
  C  C10  1  0.285724  0.250000  0.027873  1
  C  C11  1  0.714276  0.750000  0.972127  1
  O  O12  1  0.657032  0.750000  0.116736  1
  O  O13  1  0.044458  0.250000  0.065837  1
  O  O14  1  0.475396  0.250000  0.135739  1
  O  O15  1  0.179217  0.944875  0.298761  1
  O  O16  1  0.179217  0.555125  0.298761  1
  O  O17  1  0.631921  0.750000  0.435816  1
  O  O18  1  0.817540  0.250000  0.400998  1
  O  O19  1  0.182460  0.750000  0.599002  1
  O  O20  1  0.368079  0.250000  0.564184  1
  O  O21  1  0.820783  0.444875  0.701239  1
  O  O22  1  0.820783  0.055125  0.701239  1
  O  O23  1  0.524604  0.750000  0.864261  1
  O  O24  1  0.955542  0.750000  0.934163  1
  O  O25  1  0.342968  0.250000  0.883264  1
