# generated using pymatgen
data_Li2MnVP2(HO5)2
_symmetry_space_group_name_H-M   'P 1'
_cell_length_a   5.50225565
_cell_length_b   10.14156701
_cell_length_c   10.15351339
_cell_angle_alpha   80.03937191
_cell_angle_beta   83.17522178
_cell_angle_gamma   80.40668751
_symmetry_Int_Tables_number   1
_chemical_formula_structural   Li2MnVP2(HO5)2
_chemical_formula_sum   'Li6 Mn3 V3 P6 H6 O30'
_cell_volume   547.86884536
_cell_formula_units_Z   3
loop_
 _symmetry_equiv_pos_site_id
 _symmetry_equiv_pos_as_xyz
  1  'x, y, z'
loop_
 _atom_site_type_symbol
 _atom_site_label
 _atom_site_symmetry_multiplicity
 _atom_site_fract_x
 _atom_site_fract_y
 _atom_site_fract_z
 _atom_site_occupancy
  Li  Li0  1  0.866336  0.024292  0.196723  1
  Li  Li1  1  0.800423  0.311505  0.131468  1
  Li  Li2  1  0.133664  0.975708  0.803277  1
  Li  Li3  1  0.199577  0.688495  0.868532  1
  Li  Li4  1  0.537906  0.358688  0.529562  1
  Li  Li5  1  0.462094  0.641312  0.470438  1
  Mn  Mn6  1  0.837287  0.664174  0.165061  1
  Mn  Mn7  1  0.000000  0.500000  0.500000  1
  Mn  Mn8  1  0.162713  0.335826  0.834939  1
  V  V9  1  0.336500  0.167329  0.164062  1
  V  V10  1  0.500000  0.000000  0.500000  1
  V  V11  1  0.663500  0.832671  0.835938  1
  P  P12  1  0.729682  0.135873  0.900671  1
  P  P13  1  0.948232  0.197209  0.429503  1
  P  P14  1  0.270318  0.864127  0.099329  1
  P  P15  1  0.051768  0.802791  0.570497  1
  P  P16  1  0.406205  0.468580  0.234224  1
  P  P17  1  0.593795  0.531420  0.765776  1
  H  H18  1  0.830981  0.597212  0.939800  1
  H  H19  1  0.835821  0.729736  0.393586  1
  H  H20  1  0.169019  0.402788  0.060200  1
  H  H21  1  0.164179  0.270264  0.606414  1
  H  H22  1  0.504906  0.932192  0.270674  1
  H  H23  1  0.495094  0.067808  0.729326  1
  O  O24  1  0.778119  0.978982  0.908983  1
  O  O25  1  0.672272  0.167539  0.047682  1
  O  O26  1  0.700339  0.153171  0.494477  1
  O  O27  1  0.831640  0.865246  0.487316  1
  O  O28  1  0.807236  0.469074  0.852455  1
  O  O29  1  0.985029  0.177512  0.839232  1
  O  O30  1  0.855648  0.685513  0.965288  1
  O  O31  1  0.999789  0.834225  0.717339  1
  O  O32  1  0.000211  0.165775  0.282661  1
  O  O33  1  0.900207  0.354495  0.424222  1
  O  O34  1  0.813605  0.641399  0.369153  1
  O  O35  1  0.221881  0.021018  0.091017  1
  O  O36  1  0.144352  0.314487  0.034712  1
  O  O37  1  0.168360  0.134754  0.512684  1
  O  O38  1  0.014971  0.822488  0.160768  1
  O  O39  1  0.299661  0.846829  0.505523  1
  O  O40  1  0.192764  0.530926  0.147545  1
  O  O41  1  0.186395  0.358601  0.630847  1
  O  O42  1  0.099793  0.645505  0.575778  1
  O  O43  1  0.521337  0.020764  0.297445  1
  O  O44  1  0.451227  0.311405  0.240973  1
  O  O45  1  0.358608  0.501475  0.379037  1
  O  O46  1  0.327728  0.832461  0.952318  1
  O  O47  1  0.478663  0.979236  0.702555  1
  O  O48  1  0.339386  0.491593  0.833379  1
  O  O49  1  0.518116  0.198443  0.813688  1
  O  O50  1  0.481884  0.801557  0.186312  1
  O  O51  1  0.660614  0.508407  0.166621  1
  O  O52  1  0.641392  0.498525  0.620963  1
  O  O53  1  0.548773  0.688595  0.759027  1
