# generated using pymatgen
data_Li6Cr3Sb3O16
_symmetry_space_group_name_H-M   'P 1'
_cell_length_a   6.04711653
_cell_length_b   6.04711653
_cell_length_c   10.02636874
_cell_angle_alpha   89.85000526
_cell_angle_beta   90.14999474
_cell_angle_gamma   119.68900320
_symmetry_Int_Tables_number   1
_chemical_formula_structural   Li6Cr3Sb3O16
_chemical_formula_sum   'Li6 Cr3 Sb3 O16'
_cell_volume   318.50882690
_cell_formula_units_Z   1
loop_
 _symmetry_equiv_pos_site_id
 _symmetry_equiv_pos_as_xyz
  1  'x, y, z'
loop_
 _atom_site_type_symbol
 _atom_site_label
 _atom_site_symmetry_multiplicity
 _atom_site_fract_x
 _atom_site_fract_y
 _atom_site_fract_z
 _atom_site_occupancy
  Li  Li0  1  0.339992  0.660008  0.500849  1
  Li  Li1  1  0.329367  0.670633  0.888681  1
  Li  Li2  1  0.989859  0.010141  0.003962  1
  Li  Li3  1  0.988835  0.011165  0.496943  1
  Li  Li4  1  0.669954  0.330046  0.000153  1
  Li  Li5  1  0.667215  0.332785  0.379876  1
  Cr  Cr6  1  0.665629  0.830567  0.215474  1
  Cr  Cr7  1  0.169433  0.334371  0.215474  1
  Cr  Cr8  1  0.832654  0.167346  0.716160  1
  Sb  Sb9  1  0.170274  0.829726  0.215293  1
  Sb  Sb10  1  0.832628  0.662658  0.715994  1
  Sb  Sb11  1  0.337342  0.167372  0.715994  1
  O  O12  1  0.692764  0.839324  0.609094  1
  O  O13  1  0.484154  0.515846  0.311765  1
  O  O14  1  0.334028  0.665972  0.104878  1
  O  O15  1  0.001524  0.998476  0.317743  1
  O  O16  1  0.000206  0.999794  0.822729  1
  O  O17  1  0.160676  0.307236  0.609094  1
  O  O18  1  0.491233  0.967621  0.322974  1
  O  O19  1  0.032379  0.508767  0.322974  1
  O  O20  1  0.847690  0.152310  0.120369  1
  O  O21  1  0.154647  0.845353  0.603793  1
  O  O22  1  0.971431  0.490308  0.824798  1
  O  O23  1  0.509692  0.028569  0.824798  1
  O  O24  1  0.667346  0.332654  0.602367  1
  O  O25  1  0.843489  0.696308  0.108950  1
  O  O26  1  0.512070  0.487930  0.827716  1
  O  O27  1  0.303692  0.156511  0.108950  1
