# generated using pymatgen
data_Dy5Ti5O17
_symmetry_space_group_name_H-M   'P 1'
_cell_length_a   3.85870504
_cell_length_b   5.44235860
_cell_length_c   31.64887761
_cell_angle_alpha   90.00000000
_cell_angle_beta   90.00000000
_cell_angle_gamma   90.00000000
_symmetry_Int_Tables_number   1
_chemical_formula_structural   Dy5Ti5O17
_chemical_formula_sum   'Dy10 Ti10 O34'
_cell_volume   664.64088011
_cell_formula_units_Z   2
loop_
 _symmetry_equiv_pos_site_id
 _symmetry_equiv_pos_as_xyz
  1  'x, y, z'
loop_
 _atom_site_type_symbol
 _atom_site_label
 _atom_site_symmetry_multiplicity
 _atom_site_fract_x
 _atom_site_fract_y
 _atom_site_fract_z
 _atom_site_occupancy
  Dy  Dy0  1  0.000000  0.173116  0.016961  1
  Dy  Dy1  1  0.000000  0.717856  0.698567  1
  Dy  Dy2  1  0.000000  0.265787  0.793381  1
  Dy  Dy3  1  0.000000  0.326621  0.571359  1
  Dy  Dy4  1  0.000000  0.798113  0.891142  1
  Dy  Dy5  1  0.500000  0.282144  0.198567  1
  Dy  Dy6  1  0.500000  0.826884  0.516961  1
  Dy  Dy7  1  0.500000  0.734213  0.293381  1
  Dy  Dy8  1  0.500000  0.673379  0.071359  1
  Dy  Dy9  1  0.500000  0.201887  0.391142  1
  Ti  Ti10  1  0.000000  0.759382  0.205767  1
  Ti  Ti11  1  0.000000  0.258430  0.296272  1
  Ti  Ti12  1  0.000000  0.754089  0.382659  1
  Ti  Ti13  1  0.000000  0.281330  0.469463  1
  Ti  Ti14  1  0.500000  0.772239  0.619099  1
  Ti  Ti15  1  0.500000  0.240618  0.705767  1
  Ti  Ti16  1  0.500000  0.741570  0.796272  1
  Ti  Ti17  1  0.500000  0.245911  0.882659  1
  Ti  Ti18  1  0.500000  0.718670  0.969463  1
  Ti  Ti19  1  0.000000  0.227761  0.119099  1
  O  O20  1  0.000000  0.210740  0.716654  1
  O  O21  1  0.000000  0.699033  0.797519  1
  O  O22  1  0.000000  0.216526  0.872003  1
  O  O23  1  0.000000  0.451201  0.069672  1
  O  O24  1  0.000000  0.957490  0.082187  1
  O  O25  1  0.000000  0.764414  0.964473  1
  O  O26  1  0.000000  0.550918  0.160696  1
  O  O27  1  0.000000  0.078082  0.176772  1
  O  O28  1  0.000000  0.957812  0.266625  1
  O  O29  1  0.000000  0.450778  0.241385  1
  O  O30  1  0.500000  0.897848  0.850510  1
  O  O31  1  0.500000  0.401349  0.824901  1
  O  O32  1  0.500000  0.448658  0.007352  1
  O  O33  1  0.500000  0.945829  0.018889  1
  O  O34  1  0.500000  0.025754  0.928464  1
  O  O35  1  0.500000  0.546196  0.912818  1
  O  O36  1  0.500000  0.280253  0.125458  1
  O  O37  1  0.500000  0.789260  0.216654  1
  O  O38  1  0.500000  0.300967  0.297519  1
  O  O39  1  0.500000  0.783474  0.372003  1
  O  O40  1  0.500000  0.235586  0.464473  1
  O  O41  1  0.500000  0.548799  0.569672  1
  O  O42  1  0.500000  0.042510  0.582187  1
  O  O43  1  0.500000  0.449082  0.660696  1
  O  O44  1  0.500000  0.921918  0.676772  1
  O  O45  1  0.500000  0.549222  0.741385  1
  O  O46  1  0.500000  0.042188  0.766625  1
  O  O47  1  0.000000  0.102152  0.350510  1
  O  O48  1  0.000000  0.598651  0.324901  1
  O  O49  1  0.000000  0.974246  0.428464  1
  O  O50  1  0.000000  0.453804  0.412818  1
  O  O51  1  0.000000  0.551342  0.507352  1
  O  O52  1  0.000000  0.054171  0.518889  1
  O  O53  1  0.000000  0.719747  0.625458  1
