# generated using pymatgen
data_CoH8(CO5)2
_symmetry_space_group_name_H-M   'P 1'
_cell_length_a   6.45880821
_cell_length_b   6.03132735
_cell_length_c   11.98632629
_cell_angle_alpha   90.00000000
_cell_angle_beta   114.47044783
_cell_angle_gamma   90.00000000
_symmetry_Int_Tables_number   1
_chemical_formula_structural   CoH8(CO5)2
_chemical_formula_sum   'Co2 H16 C4 O20'
_cell_volume   424.98764769
_cell_formula_units_Z   2
loop_
 _symmetry_equiv_pos_site_id
 _symmetry_equiv_pos_as_xyz
  1  'x, y, z'
loop_
 _atom_site_type_symbol
 _atom_site_label
 _atom_site_symmetry_multiplicity
 _atom_site_fract_x
 _atom_site_fract_y
 _atom_site_fract_z
 _atom_site_occupancy
  Co  Co0  1  0.000000  0.000000  0.000000  1
  Co  Co1  1  0.000000  0.500000  0.500000  1
  H  H2  1  0.284813  0.683747  0.069413  1
  H  H3  1  0.788455  0.690272  0.017272  1
  H  H4  1  0.421991  0.911178  0.115315  1
  H  H5  1  0.829270  0.852613  0.139819  1
  H  H6  1  0.578009  0.411178  0.384685  1
  H  H7  1  0.170730  0.352613  0.360181  1
  H  H8  1  0.715187  0.183747  0.430587  1
  H  H9  1  0.211545  0.190272  0.482728  1
  H  H10  1  0.788455  0.809728  0.517272  1
  H  H11  1  0.284813  0.816253  0.569413  1
  H  H12  1  0.829270  0.647387  0.639819  1
  H  H13  1  0.421991  0.588822  0.615315  1
  H  H14  1  0.170730  0.147387  0.860181  1
  H  H15  1  0.578009  0.088822  0.884685  1
  H  H16  1  0.211545  0.309728  0.982728  1
  H  H17  1  0.715187  0.316253  0.930587  1
  C  C18  1  0.253775  0.344148  0.174605  1
  C  C19  1  0.746225  0.844148  0.325395  1
  C  C20  1  0.253775  0.155852  0.674605  1
  C  C21  1  0.746225  0.655852  0.825395  1
  O  O22  1  0.283596  0.847472  0.046300  1
  O  O23  1  0.326586  0.429372  0.099262  1
  O  O24  1  0.904578  0.789549  0.086552  1
  O  O25  1  0.110419  0.175402  0.142879  1
  O  O26  1  0.688594  0.915963  0.216431  1
  O  O27  1  0.311406  0.415963  0.283569  1
  O  O28  1  0.889581  0.675402  0.357121  1
  O  O29  1  0.673414  0.929372  0.400738  1
  O  O30  1  0.716404  0.347472  0.453700  1
  O  O31  1  0.095422  0.289549  0.413448  1
  O  O32  1  0.904578  0.710451  0.586552  1
  O  O33  1  0.283596  0.652528  0.546300  1
  O  O34  1  0.326586  0.070628  0.599262  1
  O  O35  1  0.110419  0.324598  0.642879  1
  O  O36  1  0.688594  0.584037  0.716431  1
  O  O37  1  0.311406  0.084037  0.783569  1
  O  O38  1  0.889581  0.824598  0.857121  1
  O  O39  1  0.095422  0.210451  0.913448  1
  O  O40  1  0.673414  0.570628  0.900738  1
  O  O41  1  0.716404  0.152528  0.953700  1
