# generated using pymatgen
data_V3Cr2Sb3O16
_symmetry_space_group_name_H-M   'P 1'
_cell_length_a   6.11976821
_cell_length_b   6.11976821
_cell_length_c   9.11469834
_cell_angle_alpha   89.97424529
_cell_angle_beta   90.02575471
_cell_angle_gamma   120.64918118
_symmetry_Int_Tables_number   1
_chemical_formula_structural   V3Cr2Sb3O16
_chemical_formula_sum   'V3 Cr2 Sb3 O16'
_cell_volume   293.67333459
_cell_formula_units_Z   1
loop_
 _symmetry_equiv_pos_site_id
 _symmetry_equiv_pos_as_xyz
  1  'x, y, z'
loop_
 _atom_site_type_symbol
 _atom_site_label
 _atom_site_symmetry_multiplicity
 _atom_site_fract_x
 _atom_site_fract_y
 _atom_site_fract_z
 _atom_site_occupancy
  V  V0  1  0.831681  0.168319  0.207781  1
  V  V1  1  0.166722  0.333683  0.708671  1
  V  V2  1  0.666317  0.833278  0.708671  1
  Cr  Cr3  1  0.669497  0.330503  0.489332  1
  Cr  Cr4  1  0.338764  0.661236  0.984614  1
  Sb  Sb5  1  0.334046  0.169007  0.211347  1
  Sb  Sb6  1  0.830993  0.665954  0.211347  1
  Sb  Sb7  1  0.168618  0.831382  0.709649  1
  O  O8  1  0.335384  0.170479  0.606561  1
  O  O9  1  0.521284  0.478716  0.346427  1
  O  O10  1  0.659585  0.340415  0.090975  1
  O  O11  1  0.002820  0.997180  0.321559  1
  O  O12  1  0.999477  0.000523  0.812376  1
  O  O13  1  0.829521  0.664616  0.606561  1
  O  O14  1  0.519718  0.048731  0.338093  1
  O  O15  1  0.951269  0.480282  0.338093  1
  O  O16  1  0.166006  0.833994  0.099452  1
  O  O17  1  0.834558  0.165442  0.611017  1
  O  O18  1  0.051548  0.519273  0.838908  1
  O  O19  1  0.480727  0.948452  0.838908  1
  O  O20  1  0.333232  0.666768  0.595475  1
  O  O21  1  0.169911  0.333274  0.105792  1
  O  O22  1  0.471206  0.528794  0.828360  1
  O  O23  1  0.666726  0.830089  0.105792  1
