# generated using pymatgen
data_LiMnSiO4
_symmetry_space_group_name_H-M   'P 1'
_cell_length_a   5.88643470
_cell_length_b   5.88643470
_cell_length_c   5.88643470
_cell_angle_alpha   124.89365434
_cell_angle_beta   121.22988376
_cell_angle_gamma   84.80601057
_symmetry_Int_Tables_number   1
_chemical_formula_structural   LiMnSiO4
_chemical_formula_sum   'Li2 Mn2 Si2 O8'
_cell_volume   136.73971523
_cell_formula_units_Z   2
loop_
 _symmetry_equiv_pos_site_id
 _symmetry_equiv_pos_as_xyz
  1  'x, y, z'
loop_
 _atom_site_type_symbol
 _atom_site_label
 _atom_site_symmetry_multiplicity
 _atom_site_fract_x
 _atom_site_fract_y
 _atom_site_fract_z
 _atom_site_occupancy
  Li  Li0  1  0.632123  0.882123  0.750000  1
  Li  Li1  1  0.367877  0.117877  0.250000  1
  Mn  Mn2  1  0.500000  0.500000  0.000000  1
  Mn  Mn3  1  0.000000  0.500000  0.500000  1
  Si  Si4  1  0.000000  0.000000  0.500000  1
  Si  Si5  1  0.000000  0.500000  0.000000  1
  O  O6  1  0.205517  0.246969  0.958547  1
  O  O7  1  0.787646  0.301321  0.013675  1
  O  O8  1  0.212354  0.226028  0.513675  1
  O  O9  1  0.787646  0.773972  0.486325  1
  O  O10  1  0.794483  0.753031  0.041453  1
  O  O11  1  0.211578  0.753031  0.458547  1
  O  O12  1  0.788422  0.246969  0.541453  1
  O  O13  1  0.212354  0.698679  0.986325  1
