# generated using pymatgen
data_V2(SO4)3
_symmetry_space_group_name_H-M   'P 1'
_cell_length_a   8.50329380
_cell_length_b   8.68476245
_cell_length_c   14.60751132
_cell_angle_alpha   90.00000000
_cell_angle_beta   125.03925731
_cell_angle_gamma   90.00000000
_symmetry_Int_Tables_number   1
_chemical_formula_structural   V2(SO4)3
_chemical_formula_sum   'V8 S12 O48'
_cell_volume   883.23723725
_cell_formula_units_Z   4
loop_
 _symmetry_equiv_pos_site_id
 _symmetry_equiv_pos_as_xyz
  1  'x, y, z'
loop_
 _atom_site_type_symbol
 _atom_site_label
 _atom_site_symmetry_multiplicity
 _atom_site_fract_x
 _atom_site_fract_y
 _atom_site_fract_z
 _atom_site_occupancy
  V  V0  1  0.131685  0.032596  0.382765  1
  V  V1  1  0.364598  0.462185  0.616298  1
  V  V2  1  0.868315  0.532596  0.117235  1
  V  V3  1  0.635402  0.962185  0.883702  1
  V  V4  1  0.364598  0.037815  0.116298  1
  V  V5  1  0.131685  0.467404  0.882765  1
  V  V6  1  0.635402  0.537815  0.383702  1
  V  V7  1  0.868315  0.967404  0.617235  1
  S  S8  1  0.041463  0.747908  0.507454  1
  S  S9  1  0.749809  0.882105  0.148865  1
  S  S10  1  0.464228  0.611281  0.855184  1
  S  S11  1  0.535772  0.111281  0.644816  1
  S  S12  1  0.250191  0.382105  0.351135  1
  S  S13  1  0.958537  0.247908  0.992546  1
  S  S14  1  0.041463  0.752092  0.007454  1
  S  S15  1  0.749809  0.617895  0.648865  1
  S  S16  1  0.464228  0.888719  0.355184  1
  S  S17  1  0.535772  0.388719  0.144816  1
  S  S18  1  0.250191  0.117895  0.851135  1
  S  S19  1  0.958537  0.252092  0.492546  1
  O  O20  1  0.112335  0.366808  0.562205  1
  O  O21  1  0.684176  0.381055  0.120858  1
  O  O22  1  0.391442  0.077758  0.826156  1
  O  O23  1  0.974754  0.190479  0.402922  1
  O  O24  1  0.019417  0.870292  0.431217  1
  O  O25  1  0.788520  0.715408  0.171613  1
  O  O26  1  0.672023  0.918309  0.032048  1
  O  O27  1  0.409233  0.496098  0.768314  1
  O  O28  1  0.230651  0.672957  0.561302  1
  O  O29  1  0.482009  0.765517  0.817594  1
  O  O30  1  0.653394  0.567135  0.956709  1
  O  O31  1  0.928662  0.974085  0.222566  1
  O  O32  1  0.071338  0.474085  0.277434  1
  O  O33  1  0.346606  0.067135  0.543291  1
  O  O34  1  0.517991  0.265517  0.682406  1
  O  O35  1  0.769349  0.172957  0.938698  1
  O  O36  1  0.327977  0.418309  0.467952  1
  O  O37  1  0.590767  0.996098  0.731686  1
  O  O38  1  0.211480  0.215408  0.328387  1
  O  O39  1  0.980583  0.370292  0.068783  1
  O  O40  1  0.025246  0.690479  0.097078  1
  O  O41  1  0.315824  0.881055  0.379142  1
  O  O42  1  0.608558  0.577758  0.673844  1
  O  O43  1  0.887665  0.866808  0.937795  1
  O  O44  1  0.112335  0.133192  0.062205  1
  O  O45  1  0.391442  0.422242  0.326156  1
  O  O46  1  0.684176  0.118945  0.620858  1
  O  O47  1  0.974754  0.309521  0.902922  1
  O  O48  1  0.019417  0.629708  0.931217  1
  O  O49  1  0.788520  0.784592  0.671613  1
  O  O50  1  0.409233  0.003902  0.268314  1
  O  O51  1  0.672023  0.581691  0.532048  1
  O  O52  1  0.230651  0.827043  0.061302  1
  O  O53  1  0.482009  0.734483  0.317594  1
  O  O54  1  0.653394  0.932865  0.456709  1
  O  O55  1  0.928662  0.525915  0.722566  1
  O  O56  1  0.071338  0.025915  0.777434  1
  O  O57  1  0.346606  0.432865  0.043291  1
  O  O58  1  0.517991  0.234483  0.182406  1
  O  O59  1  0.769349  0.327043  0.438698  1
  O  O60  1  0.590767  0.503902  0.231686  1
  O  O61  1  0.327977  0.081691  0.967952  1
  O  O62  1  0.211480  0.284592  0.828387  1
  O  O63  1  0.980583  0.129708  0.568783  1
  O  O64  1  0.025246  0.809521  0.597078  1
  O  O65  1  0.608558  0.922242  0.173844  1
  O  O66  1  0.315824  0.618945  0.879142  1
  O  O67  1  0.887665  0.633192  0.437795  1
