# generated using pymatgen
data_Na3AsH14SO10
_symmetry_space_group_name_H-M   'P 1'
_cell_length_a   6.77473567
_cell_length_b   12.74214304
_cell_length_c   7.10608064
_cell_angle_alpha   90.00000000
_cell_angle_beta   94.13453855
_cell_angle_gamma   90.00000000
_symmetry_Int_Tables_number   1
_chemical_formula_structural   Na3AsH14SO10
_chemical_formula_sum   'Na6 As2 H28 S2 O20'
_cell_volume   611.83348072
_cell_formula_units_Z   2
loop_
 _symmetry_equiv_pos_site_id
 _symmetry_equiv_pos_as_xyz
  1  'x, y, z'
loop_
 _atom_site_type_symbol
 _atom_site_label
 _atom_site_symmetry_multiplicity
 _atom_site_fract_x
 _atom_site_fract_y
 _atom_site_fract_z
 _atom_site_occupancy
  Na  Na0  1  0.199580  0.238690  0.200204  1
  Na  Na1  1  0.800420  0.738690  0.799796  1
  Na  Na2  1  0.202979  0.131788  0.673854  1
  Na  Na3  1  0.797021  0.631788  0.326146  1
  Na  Na4  1  0.223271  0.493976  0.322581  1
  Na  Na5  1  0.776729  0.993976  0.677419  1
  As  As6  1  0.199500  0.851077  0.193086  1
  As  As7  1  0.800500  0.351077  0.806914  1
  H  H8  1  0.355264  0.777479  0.584201  1
  H  H9  1  0.644736  0.277479  0.415799  1
  H  H10  1  0.359992  0.670380  0.697276  1
  H  H11  1  0.640008  0.170380  0.302724  1
  H  H12  1  0.200244  0.404184  0.945738  1
  H  H13  1  0.799756  0.904184  0.054262  1
  H  H14  1  0.431890  0.393629  0.020647  1
  H  H15  1  0.568110  0.893629  0.979353  1
  H  H16  1  0.170674  0.912896  0.593465  1
  H  H17  1  0.829326  0.412896  0.406535  1
  H  H18  1  0.189125  0.926122  0.816358  1
  H  H19  1  0.810875  0.426122  0.183642  1
  H  H20  1  0.420352  0.972188  0.463363  1
  H  H21  1  0.579648  0.472188  0.536637  1
  H  H22  1  0.473490  0.089063  0.411556  1
  H  H23  1  0.526510  0.589063  0.588444  1
  H  H24  1  0.397901  0.329702  0.572572  1
  H  H25  1  0.602099  0.829702  0.427428  1
  H  H26  1  0.362568  0.046626  0.018770  1
  H  H27  1  0.637432  0.546626  0.981230  1
  H  H28  1  0.509781  0.144294  0.985664  1
  H  H29  1  0.490219  0.644294  0.014336  1
  H  H30  1  0.993461  0.033211  0.311791  1
  H  H31  1  0.006539  0.533211  0.688209  1
  H  H32  1  0.895252  0.147397  0.310000  1
  H  H33  1  0.104748  0.647397  0.690000  1
  H  H34  1  0.171684  0.346048  0.620009  1
  H  H35  1  0.828316  0.846048  0.379991  1
  S  S36  1  0.139365  0.691103  0.109506  1
  S  S37  1  0.860635  0.191103  0.890494  1
  O  O38  1  0.320651  0.919541  0.027244  1
  O  O39  1  0.679349  0.419541  0.972756  1
  O  O40  1  0.978844  0.914865  0.232661  1
  O  O41  1  0.021156  0.414865  0.767339  1
  O  O42  1  0.346361  0.859106  0.405564  1
  O  O43  1  0.653639  0.359106  0.594436  1
  O  O44  1  0.386188  0.745022  0.711677  1
  O  O45  1  0.613812  0.245022  0.288323  1
  O  O46  1  0.293663  0.394839  0.060647  1
  O  O47  1  0.706337  0.894839  0.939353  1
  O  O48  1  0.106840  0.946233  0.698074  1
  O  O49  1  0.893160  0.446233  0.301926  1
  O  O50  1  0.475946  0.041170  0.519160  1
  O  O51  1  0.524054  0.541170  0.480840  1
  O  O52  1  0.259028  0.308904  0.533321  1
  O  O53  1  0.740972  0.808904  0.466679  1
  O  O54  1  0.371840  0.125317  0.003642  1
  O  O55  1  0.628160  0.625317  0.996358  1
  O  O56  1  0.999368  0.105351  0.375349  1
  O  O57  1  0.000632  0.605351  0.624651  1
