# generated using pymatgen
data_Na4Fe6O13
_symmetry_space_group_name_H-M   'P 1'
_cell_length_a   11.14725773
_cell_length_b   11.14725773
_cell_length_c   11.14725773
_cell_angle_alpha   152.64595755
_cell_angle_beta   121.76276555
_cell_angle_gamma   65.50665159
_symmetry_Int_Tables_number   1
_chemical_formula_structural   Na4Fe6O13
_chemical_formula_sum   'Na8 Fe12 O26'
_cell_volume   536.15440462
_cell_formula_units_Z   2
loop_
 _symmetry_equiv_pos_site_id
 _symmetry_equiv_pos_as_xyz
  1  'x, y, z'
loop_
 _atom_site_type_symbol
 _atom_site_label
 _atom_site_symmetry_multiplicity
 _atom_site_fract_x
 _atom_site_fract_y
 _atom_site_fract_z
 _atom_site_occupancy
  Na  Na0  1  0.513209  0.665197  0.869925  1
  Na  Na1  1  0.709763  0.830542  0.878209  1
  Na  Na2  1  0.952333  0.330542  0.620779  1
  Na  Na3  1  0.795272  0.165197  0.651988  1
  Na  Na4  1  0.204728  0.856716  0.369925  1
  Na  Na5  1  0.047667  0.668446  0.378209  1
  Na  Na6  1  0.290237  0.168446  0.120779  1
  Na  Na7  1  0.486791  0.356716  0.151988  1
  Fe  Fe8  1  0.589825  0.039656  0.712054  1
  Fe  Fe9  1  0.616636  0.239818  0.377411  1
  Fe  Fe10  1  0.845220  0.443813  0.398913  1
  Fe  Fe11  1  0.044900  0.943813  0.098593  1
  Fe  Fe12  1  0.862407  0.739818  0.123182  1
  Fe  Fe13  1  0.672398  0.622229  0.212054  1
  Fe  Fe14  1  0.327602  0.539656  0.949831  1
  Fe  Fe15  1  0.137593  0.260775  0.877411  1
  Fe  Fe16  1  0.955100  0.053694  0.898913  1
  Fe  Fe17  1  0.154780  0.553694  0.598593  1
  Fe  Fe18  1  0.383364  0.760775  0.623182  1
  Fe  Fe19  1  0.410175  0.122229  0.449831  1
  O  O20  1  0.499047  0.811438  0.316212  1
  O  O21  1  0.495226  0.311438  0.812392  1
  O  O22  1  0.507005  0.858819  0.636042  1
  O  O23  1  0.687552  0.371459  0.138220  1
  O  O24  1  0.497098  0.003212  0.004228  1
  O  O25  1  0.743133  0.339509  0.382996  1
  O  O26  1  0.875814  0.840903  0.815845  1
  O  O27  1  0.733997  0.979576  0.244399  1
  O  O28  1  0.735177  0.479576  0.745579  1
  O  O29  1  0.025058  0.340903  0.465089  1
  O  O30  1  0.956512  0.839509  0.096375  1
  O  O31  1  0.777223  0.629037  0.136042  1
  O  O32  1  0.766761  0.950667  0.638220  1
  O  O33  1  0.998984  0.503212  0.006115  1
  O  O34  1  0.001016  0.007131  0.504228  1
  O  O35  1  0.233239  0.871459  0.183907  1
  O  O36  1  0.222777  0.358819  0.851814  1
  O  O37  1  0.043488  0.139863  0.882996  1
  O  O38  1  0.974942  0.440031  0.315845  1
  O  O39  1  0.264823  0.010402  0.744399  1
  O  O40  1  0.266003  0.510402  0.245579  1
  O  O41  1  0.124186  0.940031  0.965089  1
  O  O42  1  0.256867  0.639863  0.596375  1
  O  O43  1  0.502902  0.507131  0.506115  1
  O  O44  1  0.312448  0.450667  0.683907  1
  O  O45  1  0.492995  0.129037  0.351814  1
