# generated using pymatgen
data_Zr2N2O
_symmetry_space_group_name_H-M   'P 1'
_cell_length_a   8.84913782
_cell_length_b   8.87853629
_cell_length_c   8.88694147
_cell_angle_alpha   109.47927195
_cell_angle_beta   109.40436248
_cell_angle_gamma   109.35326161
_symmetry_Int_Tables_number   1
_chemical_formula_structural   Zr2N2O
_chemical_formula_sum   'Zr16 N16 O8'
_cell_volume   538.66180775
_cell_formula_units_Z   8
loop_
 _symmetry_equiv_pos_site_id
 _symmetry_equiv_pos_as_xyz
  1  'x, y, z'
loop_
 _atom_site_type_symbol
 _atom_site_label
 _atom_site_symmetry_multiplicity
 _atom_site_fract_x
 _atom_site_fract_y
 _atom_site_fract_z
 _atom_site_occupancy
  Zr  Zr0  1  0.511530  0.499034  0.500629  1
  Zr  Zr1  1  0.217235  0.756566  0.460488  1
  Zr  Zr2  1  0.962914  0.212000  0.256310  1
  Zr  Zr3  1  0.470299  0.719617  0.247027  1
  Zr  Zr4  1  0.285623  0.241227  0.030630  1
  Zr  Zr5  1  0.003383  0.009602  0.500815  1
  Zr  Zr6  1  0.756876  0.968991  0.709941  1
  Zr  Zr7  1  0.990272  0.501637  0.992540  1
  Zr  Zr8  1  0.244781  0.537365  0.787305  1
  Zr  Zr9  1  0.501696  0.007128  0.010728  1
  Zr  Zr10  1  0.736039  0.456960  0.206975  1
  Zr  Zr11  1  0.251050  0.029205  0.288096  1
  Zr  Zr12  1  0.718237  0.750513  0.968250  1
  Zr  Zr13  1  0.032270  0.790188  0.755858  1
  Zr  Zr14  1  0.538612  0.282338  0.749345  1
  Zr  Zr15  1  0.784903  0.250453  0.537247  1
  N  N16  1  0.768897  0.725990  0.735979  1
  N  N17  1  0.545386  0.513491  0.275788  1
  N  N18  1  0.507395  0.767978  0.038565  1
  N  N19  1  0.727328  0.235138  0.268281  1
  N  N20  1  0.239895  0.767902  0.228685  1
  N  N21  1  0.034787  0.047196  0.772288  1
  N  N22  1  0.052003  0.275609  0.536011  1
  N  N23  1  0.762875  0.227234  0.777317  1
  N  N24  1  0.772490  0.545770  0.011628  1
  N  N25  1  0.965952  0.959033  0.226885  1
  N  N26  1  0.726199  0.963678  0.455071  1
  N  N27  1  0.994233  0.536988  0.766801  1
  N  N28  1  0.260680  0.987862  0.033513  1
  N  N29  1  0.485983  0.225196  0.954045  1
  N  N30  1  0.272794  0.028316  0.546683  1
  N  N31  1  0.531971  0.264751  0.488492  1
  O  O32  1  0.272176  0.759097  0.723035  1
  O  O33  1  0.225549  0.279372  0.262648  1
  O  O34  1  0.460660  0.736377  0.515816  1
  O  O35  1  0.011986  0.464953  0.239805  1
  O  O36  1  0.225981  0.451248  0.984920  1
  O  O37  1  0.959579  0.723597  0.466899  1
  O  O38  1  0.737327  0.011254  0.964331  1
  O  O39  1  0.452155  0.489147  0.724333  1
