# generated using pymatgen
data_LaAlO3
_symmetry_space_group_name_H-M   'P 1'
_cell_length_a   7.15342893
_cell_length_b   7.15342893
_cell_length_c   10.24705034
_cell_angle_alpha   90.00000000
_cell_angle_beta   90.00000000
_cell_angle_gamma   120.10545881
_symmetry_Int_Tables_number   1
_chemical_formula_structural   LaAlO3
_chemical_formula_sum   'La6 Al6 O18'
_cell_volume   453.62349507
_cell_formula_units_Z   6
loop_
 _symmetry_equiv_pos_site_id
 _symmetry_equiv_pos_as_xyz
  1  'x, y, z'
loop_
 _atom_site_type_symbol
 _atom_site_label
 _atom_site_symmetry_multiplicity
 _atom_site_fract_x
 _atom_site_fract_y
 _atom_site_fract_z
 _atom_site_occupancy
  La  La0  1  0.171423  0.828577  1.000000  1
  La  La1  1  0.171423  0.828577  0.500000  1
  La  La2  1  0.828577  0.171423  1.000000  1
  La  La3  1  0.828577  0.171423  0.500000  1
  La  La4  1  0.500000  0.500000  0.500000  1
  La  La5  1  0.500000  0.500000  1.000000  1
  Al  Al6  1  0.834364  0.576414  0.250000  1
  Al  Al7  1  0.423586  0.165636  0.750000  1
  Al  Al8  1  0.576414  0.834364  0.250000  1
  Al  Al9  1  0.165636  0.423586  0.750000  1
  Al  Al10  1  0.905593  0.905593  0.750000  1
  Al  Al11  1  0.094407  0.094407  0.250000  1
  O  O12  1  0.164985  0.924713  0.750000  1
  O  O13  1  0.075287  0.835015  0.250000  1
  O  O14  1  0.833558  0.478979  0.092810  1
  O  O15  1  0.833558  0.478979  0.407190  1
  O  O16  1  0.521021  0.166442  0.907190  1
  O  O17  1  0.521021  0.166442  0.592810  1
  O  O18  1  0.478979  0.833558  0.092810  1
  O  O19  1  0.478979  0.833558  0.407190  1
  O  O20  1  0.166442  0.521021  0.907190  1
  O  O21  1  0.166442  0.521021  0.592810  1
  O  O22  1  0.835015  0.075287  0.250000  1
  O  O23  1  0.924713  0.164985  0.750000  1
  O  O24  1  0.406294  0.406294  0.750000  1
  O  O25  1  0.811539  0.811539  0.909773  1
  O  O26  1  0.811539  0.811539  0.590227  1
  O  O27  1  0.188461  0.188461  0.409773  1
  O  O28  1  0.188461  0.188461  0.090227  1
  O  O29  1  0.593706  0.593706  0.250000  1
