# generated using pymatgen
data_Li4FeBi(TeO6)2
_symmetry_space_group_name_H-M   'P 1'
_cell_length_a   5.24111046
_cell_length_b   5.49953369
_cell_length_c   7.62376113
_cell_angle_alpha   86.09602777
_cell_angle_beta   89.98108689
_cell_angle_gamma   89.78932888
_symmetry_Int_Tables_number   1
_chemical_formula_structural   Li4FeBi(TeO6)2
_chemical_formula_sum   'Li4 Fe1 Bi1 Te2 O12'
_cell_volume   219.23333864
_cell_formula_units_Z   1
loop_
 _symmetry_equiv_pos_site_id
 _symmetry_equiv_pos_as_xyz
  1  'x, y, z'
loop_
 _atom_site_type_symbol
 _atom_site_label
 _atom_site_symmetry_multiplicity
 _atom_site_fract_x
 _atom_site_fract_y
 _atom_site_fract_z
 _atom_site_occupancy
  Li  Li0  1  0.506841  0.087643  0.311709  1
  Li  Li1  1  0.497751  0.090223  0.763889  1
  Li  Li2  1  0.992195  0.537309  0.747788  1
  Li  Li3  1  0.002015  0.557337  0.307994  1
  Fe  Fe4  1  0.500555  0.516494  0.502447  1
  Bi  Bi5  1  0.999249  0.002800  0.005198  1
  Te  Te6  1  0.001205  0.001318  0.501685  1
  Te  Te7  1  0.499243  0.504047  0.000664  1
  O  O8  1  0.648970  0.177891  0.066902  1
  O  O9  1  0.303430  0.180633  0.550891  1
  O  O10  1  0.803433  0.290861  0.436563  1
  O  O11  1  0.199448  0.323925  0.912277  1
  O  O12  1  0.370746  0.492423  0.235913  1
  O  O13  1  0.624013  0.469891  0.761958  1
  O  O14  1  0.822434  0.652409  0.067130  1
  O  O15  1  0.177858  0.688814  0.548442  1
  O  O16  1  0.712748  0.805964  0.429564  1
  O  O17  1  0.331801  0.807985  0.916264  1
  O  O18  1  0.146909  0.983414  0.261616  1
  O  O19  1  0.859155  0.971016  0.742303  1
