# generated using pymatgen
data_MnP2O7
_symmetry_space_group_name_H-M   'P 1'
_cell_length_a   5.20685628
_cell_length_b   6.27307036
_cell_length_c   9.10414778
_cell_angle_alpha   102.43173564
_cell_angle_beta   102.61545346
_cell_angle_gamma   103.85475571
_symmetry_Int_Tables_number   1
_chemical_formula_structural   MnP2O7
_chemical_formula_sum   'Mn2 P4 O14'
_cell_volume   270.27761241
_cell_formula_units_Z   2
loop_
 _symmetry_equiv_pos_site_id
 _symmetry_equiv_pos_as_xyz
  1  'x, y, z'
loop_
 _atom_site_type_symbol
 _atom_site_label
 _atom_site_symmetry_multiplicity
 _atom_site_fract_x
 _atom_site_fract_y
 _atom_site_fract_z
 _atom_site_occupancy
  Mn  Mn0  1  0.252335  0.752745  0.357322  1
  Mn  Mn1  1  0.747665  0.247255  0.642678  1
  P  P2  1  0.121280  0.232912  0.384641  1
  P  P3  1  0.288467  0.173772  0.854196  1
  P  P4  1  0.711533  0.826228  0.145804  1
  P  P5  1  0.878720  0.767088  0.615359  1
  O  O6  1  0.273263  0.450053  0.352728  1
  O  O7  1  0.326552  0.090531  0.410271  1
  O  O8  1  0.512792  0.244192  0.777110  1
  O  O9  1  0.930400  0.700057  0.163314  1
  O  O10  1  0.609810  0.794652  0.970634  1
  O  O11  1  0.992523  0.721342  0.474805  1
  O  O12  1  0.128721  0.903542  0.768031  1
  O  O13  1  0.871279  0.096458  0.231969  1
  O  O14  1  0.007477  0.278658  0.525195  1
  O  O15  1  0.390190  0.205348  0.029366  1
  O  O16  1  0.069600  0.299943  0.836686  1
  O  O17  1  0.487208  0.755808  0.222890  1
  O  O18  1  0.673448  0.909469  0.589729  1
  O  O19  1  0.726737  0.549947  0.647272  1
