# generated using pymatgen
data_LiSn(PO3)3
_symmetry_space_group_name_H-M   'P 1'
_cell_length_a   7.94240427
_cell_length_b   9.35169672
_cell_length_c   12.96189096
_cell_angle_alpha   90.00000000
_cell_angle_beta   90.00000000
_cell_angle_gamma   90.00000000
_symmetry_Int_Tables_number   1
_chemical_formula_structural   LiSn(PO3)3
_chemical_formula_sum   'Li4 Sn4 P12 O36'
_cell_volume   962.74388022
_cell_formula_units_Z   4
loop_
 _symmetry_equiv_pos_site_id
 _symmetry_equiv_pos_as_xyz
  1  'x, y, z'
loop_
 _atom_site_type_symbol
 _atom_site_label
 _atom_site_symmetry_multiplicity
 _atom_site_fract_x
 _atom_site_fract_y
 _atom_site_fract_z
 _atom_site_occupancy
  Li  Li0  1  0.750000  0.987803  0.441195  1
  Li  Li1  1  0.750000  0.487803  0.058805  1
  Li  Li2  1  0.250000  0.012197  0.558805  1
  Li  Li3  1  0.250000  0.512197  0.941195  1
  Sn  Sn4  1  0.750000  0.027481  0.717222  1
  Sn  Sn5  1  0.750000  0.527481  0.782778  1
  Sn  Sn6  1  0.250000  0.472519  0.217222  1
  Sn  Sn7  1  0.250000  0.972519  0.282778  1
  P  P8  1  0.937276  0.238633  0.348034  1
  P  P9  1  0.937276  0.738633  0.151966  1
  P  P10  1  0.750000  0.795438  0.971608  1
  P  P11  1  0.750000  0.295438  0.528392  1
  P  P12  1  0.562724  0.738633  0.151966  1
  P  P13  1  0.562724  0.238633  0.348034  1
  P  P14  1  0.437276  0.761367  0.651966  1
  P  P15  1  0.437276  0.261367  0.848034  1
  P  P16  1  0.250000  0.204562  0.028392  1
  P  P17  1  0.250000  0.704562  0.471608  1
  P  P18  1  0.062724  0.761367  0.651966  1
  P  P19  1  0.062724  0.261367  0.848034  1
  O  O20  1  0.023989  0.165702  0.759231  1
  O  O21  1  0.023989  0.665702  0.740769  1
  O  O22  1  0.948439  0.383775  0.878134  1
  O  O23  1  0.948439  0.883775  0.621866  1
  O  O24  1  0.906429  0.833288  0.047840  1
  O  O25  1  0.906429  0.333288  0.452160  1
  O  O26  1  0.750000  0.162409  0.333216  1
  O  O27  1  0.750000  0.390793  0.619205  1
  O  O28  1  0.750000  0.890793  0.880795  1
  O  O29  1  0.750000  0.633712  0.953935  1
  O  O30  1  0.750000  0.662409  0.166784  1
  O  O31  1  0.750000  0.133712  0.546065  1
  O  O32  1  0.593571  0.833288  0.047840  1
  O  O33  1  0.593571  0.333288  0.452160  1
  O  O34  1  0.551561  0.383775  0.878134  1
  O  O35  1  0.551561  0.883775  0.621866  1
  O  O36  1  0.476011  0.165702  0.759231  1
  O  O37  1  0.476011  0.665702  0.740769  1
  O  O38  1  0.523989  0.334298  0.259231  1
  O  O39  1  0.523989  0.834298  0.240769  1
  O  O40  1  0.448439  0.116225  0.378134  1
  O  O41  1  0.448439  0.616225  0.121866  1
  O  O42  1  0.406429  0.666712  0.547840  1
  O  O43  1  0.406429  0.166712  0.952160  1
  O  O44  1  0.250000  0.366288  0.046065  1
  O  O45  1  0.250000  0.109207  0.119205  1
  O  O46  1  0.250000  0.866288  0.453935  1
  O  O47  1  0.250000  0.609207  0.380795  1
  O  O48  1  0.250000  0.837591  0.666784  1
  O  O49  1  0.250000  0.337591  0.833216  1
  O  O50  1  0.093571  0.666712  0.547840  1
  O  O51  1  0.093571  0.166712  0.952160  1
  O  O52  1  0.051561  0.116225  0.378134  1
  O  O53  1  0.051561  0.616225  0.121866  1
  O  O54  1  0.976011  0.834298  0.240769  1
  O  O55  1  0.976011  0.334298  0.259231  1
