# generated using pymatgen
data_Li2VGa3O8
_symmetry_space_group_name_H-M   'P 1'
_cell_length_a   5.19017187
_cell_length_b   5.44754682
_cell_length_c   6.70815656
_cell_angle_alpha   89.85624814
_cell_angle_beta   89.64854462
_cell_angle_gamma   89.96638707
_symmetry_Int_Tables_number   1
_chemical_formula_structural   Li2VGa3O8
_chemical_formula_sum   'Li2 V1 Ga3 O8'
_cell_volume   189.66023856
_cell_formula_units_Z   1
loop_
 _symmetry_equiv_pos_site_id
 _symmetry_equiv_pos_as_xyz
  1  'x, y, z'
loop_
 _atom_site_type_symbol
 _atom_site_label
 _atom_site_symmetry_multiplicity
 _atom_site_fract_x
 _atom_site_fract_y
 _atom_site_fract_z
 _atom_site_occupancy
  Li  Li0  1  0.507418  0.429482  0.869114  1
  Li  Li1  1  0.993989  0.082438  0.384614  1
  V  V2  1  0.500609  0.926617  0.123724  1
  Ga  Ga3  1  0.002410  0.573090  0.625356  1
  Ga  Ga4  1  0.517026  0.424385  0.389421  1
  Ga  Ga5  1  0.988565  0.087545  0.854957  1
  O  O6  1  0.833460  0.968645  0.101066  1
  O  O7  1  0.929662  0.904457  0.634428  1
  O  O8  1  0.429490  0.613664  0.153178  1
  O  O9  1  0.355196  0.514847  0.616670  1
  O  O10  1  0.865376  0.415283  0.403492  1
  O  O11  1  0.879875  0.403682  0.849362  1
  O  O12  1  0.391198  0.097812  0.326589  1
  O  O13  1  0.351527  0.058054  0.917810  1
