# generated using pymatgen
data_Mn2NbFe3(PO4)6
_symmetry_space_group_name_H-M   'P 1'
_cell_length_a   8.70573300
_cell_length_b   8.70573300
_cell_length_c   8.70573300
_cell_angle_alpha   59.96080716
_cell_angle_beta   59.96080716
_cell_angle_gamma   59.96080716
_symmetry_Int_Tables_number   1
_chemical_formula_structural   Mn2NbFe3(PO4)6
_chemical_formula_sum   'Mn2 Nb1 Fe3 P6 O24'
_cell_volume   466.13836924
_cell_formula_units_Z   1
loop_
 _symmetry_equiv_pos_site_id
 _symmetry_equiv_pos_as_xyz
  1  'x, y, z'
loop_
 _atom_site_type_symbol
 _atom_site_label
 _atom_site_symmetry_multiplicity
 _atom_site_fract_x
 _atom_site_fract_y
 _atom_site_fract_z
 _atom_site_occupancy
  Mn  Mn0  1  0.995252  0.995252  0.995252  1
  Mn  Mn1  1  0.499415  0.499415  0.499415  1
  Nb  Nb2  1  0.143998  0.143998  0.143998  1
  Fe  Fe3  1  0.853019  0.853019  0.853019  1
  Fe  Fe4  1  0.644965  0.644965  0.644965  1
  Fe  Fe5  1  0.355505  0.355505  0.355505  1
  P  P6  1  0.549140  0.955375  0.252911  1
  P  P7  1  0.252911  0.549140  0.955375  1
  P  P8  1  0.955375  0.252911  0.549140  1
  P  P9  1  0.042452  0.744742  0.461732  1
  P  P10  1  0.744742  0.461732  0.042452  1
  P  P11  1  0.461732  0.042452  0.744742  1
  O  O12  1  0.492462  0.884646  0.691615  1
  O  O13  1  0.884646  0.691615  0.492462  1
  O  O14  1  0.736691  0.939714  0.086529  1
  O  O15  1  0.691615  0.492462  0.884646  1
  O  O16  1  0.383788  0.005802  0.187549  1
  O  O17  1  0.555084  0.763294  0.412192  1
  O  O18  1  0.086529  0.736691  0.939714  1
  O  O19  1  0.412192  0.555084  0.763294  1
  O  O20  1  0.003269  0.813143  0.612307  1
  O  O21  1  0.763294  0.412192  0.555084  1
  O  O22  1  0.063359  0.911540  0.263436  1
  O  O23  1  0.813143  0.612307  0.003269  1
  O  O24  1  0.187549  0.383788  0.005802  1
  O  O25  1  0.939714  0.086529  0.736691  1
  O  O26  1  0.237243  0.586946  0.440239  1
  O  O27  1  0.005802  0.187549  0.383788  1
  O  O28  1  0.586946  0.440239  0.237243  1
  O  O29  1  0.911540  0.263436  0.063359  1
  O  O30  1  0.440239  0.237243  0.586946  1
  O  O31  1  0.612307  0.003269  0.813143  1
  O  O32  1  0.312599  0.504502  0.113547  1
  O  O33  1  0.263436  0.063359  0.911540  1
  O  O34  1  0.113547  0.312599  0.504502  1
  O  O35  1  0.504502  0.113547  0.312599  1
