# generated using pymatgen
data_Li4V5O9F
_symmetry_space_group_name_H-M   'P 1'
_cell_length_a   5.18582326
_cell_length_b   5.23388761
_cell_length_c   7.99786477
_cell_angle_alpha   108.75070622
_cell_angle_beta   101.58046204
_cell_angle_gamma   100.74927255
_symmetry_Int_Tables_number   1
_chemical_formula_structural   Li4V5O9F
_chemical_formula_sum   'Li4 V5 O9 F1'
_cell_volume   193.85865696
_cell_formula_units_Z   1
loop_
 _symmetry_equiv_pos_site_id
 _symmetry_equiv_pos_as_xyz
  1  'x, y, z'
loop_
 _atom_site_type_symbol
 _atom_site_label
 _atom_site_symmetry_multiplicity
 _atom_site_fract_x
 _atom_site_fract_y
 _atom_site_fract_z
 _atom_site_occupancy
  Li  Li0  1  0.293480  0.496503  0.097358  1
  Li  Li1  1  0.906142  0.493948  0.314440  1
  Li  Li2  1  0.492522  0.505416  0.491663  1
  Li  Li3  1  0.684091  0.516793  0.898882  1
  V  V4  1  0.003775  0.999658  0.005950  1
  V  V5  1  0.604665  0.999900  0.198237  1
  V  V6  1  0.805481  0.991441  0.597024  1
  V  V7  1  0.205498  0.989972  0.403871  1
  V  V8  1  0.383364  0.992194  0.799715  1
  O  O9  1  0.953511  0.226847  0.151271  1
  O  O10  1  0.559226  0.222917  0.361547  1
  O  O11  1  0.155565  0.211134  0.552132  1
  O  O12  1  0.355207  0.214204  0.961683  1
  O  O13  1  0.644397  0.776280  0.035461  1
  O  O14  1  0.840749  0.776944  0.431675  1
  O  O15  1  0.252191  0.769497  0.249941  1
  O  O16  1  0.467100  0.782822  0.652013  1
  O  O17  1  0.031969  0.783710  0.849029  1
  F  F18  1  0.739554  0.241471  0.753306  1
