# generated using pymatgen
data_Li5Sb(P2O7)2
_symmetry_space_group_name_H-M   'P 1'
_cell_length_a   7.25155944
_cell_length_b   8.57683530
_cell_length_c   9.86659831
_cell_angle_alpha   77.44954490
_cell_angle_beta   76.87593884
_cell_angle_gamma   68.81191762
_symmetry_Int_Tables_number   1
_chemical_formula_structural   Li5Sb(P2O7)2
_chemical_formula_sum   'Li10 Sb2 P8 O28'
_cell_volume   551.01458469
_cell_formula_units_Z   2
loop_
 _symmetry_equiv_pos_site_id
 _symmetry_equiv_pos_as_xyz
  1  'x, y, z'
loop_
 _atom_site_type_symbol
 _atom_site_label
 _atom_site_symmetry_multiplicity
 _atom_site_fract_x
 _atom_site_fract_y
 _atom_site_fract_z
 _atom_site_occupancy
  Li  Li0  1  0.337770  0.184501  0.276559  1
  Li  Li1  1  0.314578  0.251685  0.587256  1
  Li  Li2  1  0.752543  0.263501  0.099412  1
  Li  Li3  1  0.032886  0.462386  0.141052  1
  Li  Li4  1  0.446249  0.483770  0.356579  1
  Li  Li5  1  0.553751  0.516230  0.643421  1
  Li  Li6  1  0.967114  0.537614  0.858948  1
  Li  Li7  1  0.247457  0.736499  0.900588  1
  Li  Li8  1  0.685422  0.748315  0.412744  1
  Li  Li9  1  0.662230  0.815499  0.723441  1
  Sb  Sb10  1  0.875721  0.147201  0.759688  1
  Sb  Sb11  1  0.124279  0.852799  0.240312  1
  P  P12  1  0.162474  0.144594  0.962391  1
  P  P13  1  0.690204  0.099495  0.452264  1
  P  P14  1  0.415460  0.341136  0.943759  1
  P  P15  1  0.877116  0.362991  0.428758  1
  P  P16  1  0.122884  0.637009  0.571242  1
  P  P17  1  0.584540  0.658864  0.056241  1
  P  P18  1  0.309796  0.900505  0.547736  1
  P  P19  1  0.837526  0.855406  0.037609  1
  O  O20  1  0.216205  0.058588  0.621280  1
  O  O21  1  0.076454  0.205014  0.104474  1
  O  O22  1  0.795232  0.041422  0.038588  1
  O  O23  1  0.656607  0.062940  0.613412  1
  O  O24  1  0.023046  0.260826  0.850316  1
  O  O25  1  0.501046  0.228509  0.397455  1
  O  O26  1  0.372029  0.181874  0.905233  1
  O  O27  1  0.074622  0.370045  0.340293  1
  O  O28  1  0.460510  0.301863  0.092675  1
  O  O29  1  0.862119  0.189823  0.399313  1
  O  O30  1  0.600583  0.349414  0.827455  1
  O  O31  1  0.867304  0.342929  0.592017  1
  O  O32  1  0.230862  0.497314  0.922931  1
  O  O33  1  0.308453  0.486330  0.603169  1
  O  O34  1  0.691547  0.513670  0.396831  1
  O  O35  1  0.769138  0.502686  0.077069  1
  O  O36  1  0.132696  0.657071  0.407983  1
  O  O37  1  0.399417  0.650586  0.172545  1
  O  O38  1  0.137881  0.810177  0.600687  1
  O  O39  1  0.539490  0.698137  0.907325  1
  O  O40  1  0.925378  0.629955  0.659707  1
  O  O41  1  0.627971  0.818126  0.094767  1
  O  O42  1  0.498954  0.771491  0.602545  1
  O  O43  1  0.976954  0.739174  0.149684  1
  O  O44  1  0.343393  0.937060  0.386588  1
  O  O45  1  0.204768  0.958578  0.961412  1
  O  O46  1  0.923546  0.794986  0.895526  1
  O  O47  1  0.783795  0.941412  0.378720  1
