# generated using pymatgen
data_Li4Cr2Fe3Co3O16
_symmetry_space_group_name_H-M   'P 1'
_cell_length_a   5.75978817
_cell_length_b   5.75978817
_cell_length_c   9.38121619
_cell_angle_alpha   89.61496293
_cell_angle_beta   90.38503707
_cell_angle_gamma   119.95842215
_symmetry_Int_Tables_number   1
_chemical_formula_structural   Li4Cr2Fe3Co3O16
_chemical_formula_sum   'Li4 Cr2 Fe3 Co3 O16'
_cell_volume   269.63205391
_cell_formula_units_Z   1
loop_
 _symmetry_equiv_pos_site_id
 _symmetry_equiv_pos_as_xyz
  1  'x, y, z'
loop_
 _atom_site_type_symbol
 _atom_site_label
 _atom_site_symmetry_multiplicity
 _atom_site_fract_x
 _atom_site_fract_y
 _atom_site_fract_z
 _atom_site_occupancy
  Li  Li0  1  0.332516  0.667484  0.104866  1
  Li  Li1  1  0.996747  0.003253  0.001746  1
  Li  Li2  1  0.993920  0.006080  0.504661  1
  Li  Li3  1  0.666589  0.333411  0.607845  1
  Cr  Cr4  1  0.336878  0.663122  0.512107  1
  Cr  Cr5  1  0.667892  0.332108  0.011470  1
  Fe  Fe6  1  0.169879  0.830121  0.784958  1
  Fe  Fe7  1  0.337612  0.170535  0.285575  1
  Fe  Fe8  1  0.829465  0.662388  0.285575  1
  Co  Co9  1  0.170855  0.340336  0.786970  1
  Co  Co10  1  0.659664  0.829145  0.786970  1
  Co  Co11  1  0.829537  0.170463  0.285060  1
  O  O12  1  0.162291  0.323294  0.397395  1
  O  O13  1  0.480802  0.519198  0.668359  1
  O  O14  1  0.340139  0.659861  0.893888  1
  O  O15  1  0.992912  0.007088  0.692008  1
  O  O16  1  0.997031  0.002969  0.190427  1
  O  O17  1  0.676706  0.837709  0.397395  1
  O  O18  1  0.038295  0.510980  0.660404  1
  O  O19  1  0.489020  0.961705  0.660404  1
  O  O20  1  0.836062  0.163938  0.893549  1
  O  O21  1  0.159843  0.840157  0.400375  1
  O  O22  1  0.519412  0.037338  0.163333  1
  O  O23  1  0.962662  0.480588  0.163333  1
  O  O24  1  0.667267  0.332733  0.390015  1
  O  O25  1  0.325986  0.169899  0.901844  1
  O  O26  1  0.518984  0.481016  0.161370  1
  O  O27  1  0.830101  0.674014  0.901844  1
