# generated using pymatgen
data_Li2VF4
_symmetry_space_group_name_H-M   'P 1'
_cell_length_a   8.87401813
_cell_length_b   8.87401813
_cell_length_c   8.87401813
_cell_angle_alpha   108.79467359
_cell_angle_beta   108.79467359
_cell_angle_gamma   108.79467359
_symmetry_Int_Tables_number   1
_chemical_formula_structural   Li2VF4
_chemical_formula_sum   'Li12 V6 F24'
_cell_volume   551.00923909
_cell_formula_units_Z   6
loop_
 _symmetry_equiv_pos_site_id
 _symmetry_equiv_pos_as_xyz
  1  'x, y, z'
loop_
 _atom_site_type_symbol
 _atom_site_label
 _atom_site_symmetry_multiplicity
 _atom_site_fract_x
 _atom_site_fract_y
 _atom_site_fract_z
 _atom_site_occupancy
  Li  Li0  1  0.289931  0.920004  0.031155  1
  Li  Li1  1  0.968845  0.710069  0.079996  1
  Li  Li2  1  0.346537  0.634461  0.214508  1
  Li  Li3  1  0.079996  0.968845  0.710069  1
  Li  Li4  1  0.785492  0.653463  0.365539  1
  Li  Li5  1  0.365539  0.785492  0.653463  1
  Li  Li6  1  0.634461  0.214508  0.346537  1
  Li  Li7  1  0.214508  0.346537  0.634461  1
  Li  Li8  1  0.920004  0.031155  0.289931  1
  Li  Li9  1  0.653463  0.365539  0.785492  1
  Li  Li10  1  0.031155  0.289931  0.920004  1
  Li  Li11  1  0.710069  0.079996  0.968845  1
  V  V12  1  0.542761  0.709458  0.025990  1
  V  V13  1  0.290542  0.974010  0.457239  1
  V  V14  1  0.974010  0.457239  0.290542  1
  V  V15  1  0.025990  0.542761  0.709458  1
  V  V16  1  0.709458  0.025990  0.542761  1
  V  V17  1  0.457239  0.290542  0.974010  1
  F  F18  1  0.813392  0.794695  0.110963  1
  F  F19  1  0.267504  0.633201  0.960045  1
  F  F20  1  0.205305  0.889037  0.186608  1
  F  F21  1  0.366799  0.039955  0.732496  1
  F  F22  1  0.439572  0.819959  0.463806  1
  F  F23  1  0.124456  0.467620  0.154509  1
  F  F24  1  0.845491  0.875544  0.532380  1
  F  F25  1  0.039955  0.732496  0.366799  1
  F  F26  1  0.536194  0.560428  0.180041  1
  F  F27  1  0.180041  0.536194  0.560428  1
  F  F28  1  0.889037  0.186608  0.205305  1
  F  F29  1  0.532380  0.845491  0.875544  1
  F  F30  1  0.467620  0.154509  0.124456  1
  F  F31  1  0.110963  0.813392  0.794695  1
  F  F32  1  0.819959  0.463806  0.439572  1
  F  F33  1  0.463806  0.439572  0.819959  1
  F  F34  1  0.960045  0.267504  0.633201  1
  F  F35  1  0.154509  0.124456  0.467620  1
  F  F36  1  0.875544  0.532380  0.845491  1
  F  F37  1  0.560428  0.180041  0.536194  1
  F  F38  1  0.633201  0.960045  0.267504  1
  F  F39  1  0.794695  0.110963  0.813392  1
  F  F40  1  0.732496  0.366799  0.039955  1
  F  F41  1  0.186608  0.205305  0.889037  1
