# generated using pymatgen
data_Li12CrGa11O24
_symmetry_space_group_name_H-M   'P 1'
_cell_length_a   7.47903118
_cell_length_b   8.20110042
_cell_length_c   9.86144806
_cell_angle_alpha   101.11797081
_cell_angle_beta   86.67427533
_cell_angle_gamma   114.54732889
_symmetry_Int_Tables_number   1
_chemical_formula_structural   Li12CrGa11O24
_chemical_formula_sum   'Li12 Cr1 Ga11 O24'
_cell_volume   539.70453138
_cell_formula_units_Z   1
loop_
 _symmetry_equiv_pos_site_id
 _symmetry_equiv_pos_as_xyz
  1  'x, y, z'
loop_
 _atom_site_type_symbol
 _atom_site_label
 _atom_site_symmetry_multiplicity
 _atom_site_fract_x
 _atom_site_fract_y
 _atom_site_fract_z
 _atom_site_occupancy
  Li  Li0  1  0.850845  0.611460  0.735246  1
  Li  Li1  1  0.990153  0.555519  0.430530  1
  Li  Li2  1  0.655238  0.887226  0.762475  1
  Li  Li3  1  0.097683  0.608945  0.984734  1
  Li  Li4  1  0.430764  0.275621  0.651468  1
  Li  Li5  1  0.764591  0.942335  0.318089  1
  Li  Li6  1  0.405207  0.887728  0.512510  1
  Li  Li7  1  0.071665  0.221873  0.846259  1
  Li  Li8  1  0.738433  0.554386  0.177751  1
  Li  Li9  1  0.179540  0.275940  0.400514  1
  Li  Li10  1  0.515055  0.942908  0.067265  1
  Li  Li11  1  0.320831  0.220578  0.096022  1
  Cr  Cr12  1  0.601358  0.610199  0.484316  1
  Ga  Ga13  1  0.679074  0.276105  0.902370  1
  Ga  Ga14  1  0.820302  0.223395  0.597010  1
  Ga  Ga15  1  0.487284  0.556882  0.930095  1
  Ga  Ga16  1  0.264173  0.945098  0.818875  1
  Ga  Ga17  1  0.928781  0.278127  0.152623  1
  Ga  Ga18  1  0.234131  0.553548  0.681342  1
  Ga  Ga19  1  0.902958  0.888591  0.014477  1
  Ga  Ga20  1  0.566402  0.219524  0.347782  1
  Ga  Ga21  1  0.343328  0.608596  0.234654  1
  Ga  Ga22  1  0.018923  0.948135  0.570940  1
  Ga  Ga23  1  0.153816  0.890730  0.263720  1
  O  O24  1  0.927526  0.341212  0.979532  1
  O  O25  1  0.718294  0.736010  0.874316  1
  O  O26  1  0.886782  0.072487  0.684249  1
  O  O27  1  0.701655  0.342694  0.728827  1
  O  O28  1  0.866975  0.700077  0.558195  1
  O  O29  1  0.521123  0.025161  0.886781  1
  O  O30  1  0.310298  0.419774  0.782339  1
  O  O31  1  0.976705  0.753333  0.115723  1
  O  O32  1  0.643623  0.086464  0.448847  1
  O  O33  1  0.126965  0.054141  0.942248  1
  O  O34  1  0.791914  0.388263  0.277241  1
  O  O35  1  0.459653  0.718268  0.609475  1
  O  O36  1  0.447708  0.350069  0.468203  1
  O  O37  1  0.127520  0.692263  0.804839  1
  O  O38  1  0.792894  0.025262  0.137531  1
  O  O39  1  0.267081  0.011348  0.646863  1
  O  O40  1  0.592506  0.672159  0.309179  1
  O  O41  1  0.050660  0.402410  0.540797  1
  O  O42  1  0.384665  0.068080  0.206213  1
  O  O43  1  0.552375  0.404404  0.016946  1
  O  O44  1  0.219582  0.738188  0.350177  1
  O  O45  1  0.033735  0.007868  0.395530  1
  O  O46  1  0.367371  0.674914  0.061422  1
  O  O47  1  0.185453  0.358101  0.219862  1
