# generated using pymatgen
data_YAl3O6
_symmetry_space_group_name_H-M   'P 1'
_cell_length_a   7.27266566
_cell_length_b   7.27266566
_cell_length_c   5.88754678
_cell_angle_alpha   67.40649447
_cell_angle_beta   112.59350553
_cell_angle_gamma   100.67548388
_symmetry_Int_Tables_number   1
_chemical_formula_structural   YAl3O6
_chemical_formula_sum   'Y2 Al6 O12'
_cell_volume   265.17945972
_cell_formula_units_Z   2
loop_
 _symmetry_equiv_pos_site_id
 _symmetry_equiv_pos_as_xyz
  1  'x, y, z'
loop_
 _atom_site_type_symbol
 _atom_site_label
 _atom_site_symmetry_multiplicity
 _atom_site_fract_x
 _atom_site_fract_y
 _atom_site_fract_z
 _atom_site_occupancy
  Y  Y0  1  0.261146  0.261146  0.750000  1
  Y  Y1  1  0.738854  0.738854  0.250000  1
  Al  Al2  1  0.208081  0.643109  0.254920  1
  Al  Al3  1  0.826754  0.826754  0.750000  1
  Al  Al4  1  0.356891  0.791919  0.754920  1
  Al  Al5  1  0.643109  0.208081  0.245080  1
  Al  Al6  1  0.173246  0.173246  0.250000  1
  Al  Al7  1  0.791919  0.356891  0.745080  1
  O  O8  1  0.387646  0.724870  0.095978  1
  O  O9  1  0.843834  0.613025  0.691655  1
  O  O10  1  0.787548  0.993214  0.419538  1
  O  O11  1  0.275130  0.612354  0.595978  1
  O  O12  1  0.993214  0.787548  0.080462  1
  O  O13  1  0.613025  0.843834  0.808345  1
  O  O14  1  0.386975  0.156166  0.191655  1
  O  O15  1  0.006786  0.212452  0.919538  1
  O  O16  1  0.724870  0.387646  0.404022  1
  O  O17  1  0.212452  0.006786  0.580462  1
  O  O18  1  0.156166  0.386975  0.308345  1
  O  O19  1  0.612354  0.275130  0.904022  1
