# generated using pymatgen
data_LiMnPO4
_symmetry_space_group_name_H-M   'P 1'
_cell_length_a   5.62580944
_cell_length_b   5.62580944
_cell_length_c   5.62580944
_cell_angle_alpha   134.25685653
_cell_angle_beta   134.25685653
_cell_angle_gamma   66.68709565
_symmetry_Int_Tables_number   1
_chemical_formula_structural   LiMnPO4
_chemical_formula_sum   'Li1 Mn1 P1 O4'
_cell_volume   89.87920225
_cell_formula_units_Z   1
loop_
 _symmetry_equiv_pos_site_id
 _symmetry_equiv_pos_as_xyz
  1  'x, y, z'
loop_
 _atom_site_type_symbol
 _atom_site_label
 _atom_site_symmetry_multiplicity
 _atom_site_fract_x
 _atom_site_fract_y
 _atom_site_fract_z
 _atom_site_occupancy
  Li  Li0  1  0.500000  0.500000  0.000000  1
  Mn  Mn1  1  0.250000  0.750000  0.500000  1
  P  P2  1  0.000000  0.000000  0.000000  1
  O  O3  1  0.124008  0.713610  0.029413  1
  O  O4  1  0.905405  0.875992  0.589602  1
  O  O5  1  0.684197  0.094595  0.970587  1
  O  O6  1  0.286390  0.315803  0.410398  1
