# generated using pymatgen
data_Li2VOF3
_symmetry_space_group_name_H-M   'P 1'
_cell_length_a   5.01875811
_cell_length_b   5.17862356
_cell_length_c   11.59613319
_cell_angle_alpha   90.00000000
_cell_angle_beta   90.00000000
_cell_angle_gamma   90.00000000
_symmetry_Int_Tables_number   1
_chemical_formula_structural   Li2VOF3
_chemical_formula_sum   'Li8 V4 O4 F12'
_cell_volume   301.38650496
_cell_formula_units_Z   4
loop_
 _symmetry_equiv_pos_site_id
 _symmetry_equiv_pos_as_xyz
  1  'x, y, z'
loop_
 _atom_site_type_symbol
 _atom_site_label
 _atom_site_symmetry_multiplicity
 _atom_site_fract_x
 _atom_site_fract_y
 _atom_site_fract_z
 _atom_site_occupancy
  Li  Li0  1  0.000000  0.000000  0.207974  1
  Li  Li1  1  0.000000  0.500000  0.352091  1
  Li  Li2  1  0.000000  0.000000  0.627524  1
  Li  Li3  1  0.000000  0.500000  0.778400  1
  Li  Li4  1  0.500000  0.500000  0.278400  1
  Li  Li5  1  0.500000  0.000000  0.707974  1
  Li  Li6  1  0.500000  0.500000  0.852091  1
  Li  Li7  1  0.500000  0.000000  0.127524  1
  V  V8  1  0.000000  0.500000  0.071524  1
  V  V9  1  0.000000  0.000000  0.942769  1
  V  V10  1  0.500000  0.500000  0.571524  1
  V  V11  1  0.500000  0.000000  0.442769  1
  O  O12  1  0.799735  0.178739  0.060463  1
  O  O13  1  0.700265  0.178739  0.560463  1
  O  O14  1  0.299735  0.821261  0.560463  1
  O  O15  1  0.200265  0.821261  0.060463  1
  F  F16  1  0.775396  0.663187  0.939743  1
  F  F17  1  0.777698  0.671757  0.197419  1
  F  F18  1  0.783301  0.179851  0.812256  1
  F  F19  1  0.716699  0.179851  0.312256  1
  F  F20  1  0.722302  0.671757  0.697419  1
  F  F21  1  0.724604  0.663187  0.439743  1
  F  F22  1  0.275396  0.336813  0.439743  1
  F  F23  1  0.283301  0.820149  0.312256  1
  F  F24  1  0.277698  0.328243  0.697419  1
  F  F25  1  0.222302  0.328243  0.197419  1
  F  F26  1  0.216699  0.820149  0.812256  1
  F  F27  1  0.224604  0.336813  0.939743  1
