# generated using pymatgen
data_Li4Mn5Fe3O16
_symmetry_space_group_name_H-M   'P 1'
_cell_length_a   5.90344183
_cell_length_b   5.90344183
_cell_length_c   9.49848907
_cell_angle_alpha   88.89159929
_cell_angle_beta   91.10840071
_cell_angle_gamma   120.18858031
_symmetry_Int_Tables_number   1
_chemical_formula_structural   Li4Mn5Fe3O16
_chemical_formula_sum   'Li4 Mn5 Fe3 O16'
_cell_volume   286.06133481
_cell_formula_units_Z   1
loop_
 _symmetry_equiv_pos_site_id
 _symmetry_equiv_pos_as_xyz
  1  'x, y, z'
loop_
 _atom_site_type_symbol
 _atom_site_label
 _atom_site_symmetry_multiplicity
 _atom_site_fract_x
 _atom_site_fract_y
 _atom_site_fract_z
 _atom_site_occupancy
  Li  Li0  1  0.669824  0.330176  0.102634  1
  Li  Li1  1  0.997878  0.002122  0.003958  1
  Li  Li2  1  0.999765  0.000235  0.507802  1
  Li  Li3  1  0.337205  0.662795  0.604094  1
  Mn  Mn4  1  0.665704  0.334296  0.515459  1
  Mn  Mn5  1  0.827228  0.172772  0.786607  1
  Mn  Mn6  1  0.330588  0.669412  0.014651  1
  Mn  Mn7  1  0.662249  0.828779  0.286627  1
  Mn  Mn8  1  0.171221  0.337751  0.286627  1
  Fe  Fe9  1  0.825817  0.661994  0.787566  1
  Fe  Fe10  1  0.338006  0.174183  0.787566  1
  Fe  Fe11  1  0.169697  0.830303  0.287628  1
  O  O12  1  0.834289  0.670256  0.400208  1
  O  O13  1  0.518680  0.481320  0.655726  1
  O  O14  1  0.673262  0.326738  0.896061  1
  O  O15  1  0.990736  0.009264  0.694162  1
  O  O16  1  0.994779  0.005221  0.192391  1
  O  O17  1  0.329744  0.165711  0.400208  1
  O  O18  1  0.959127  0.472546  0.657031  1
  O  O19  1  0.527454  0.040873  0.657031  1
  O  O20  1  0.165663  0.834337  0.905538  1
  O  O21  1  0.836756  0.163244  0.395362  1
  O  O22  1  0.485763  0.955998  0.157626  1
  O  O23  1  0.044002  0.514237  0.157626  1
  O  O24  1  0.340892  0.659108  0.392316  1
  O  O25  1  0.663889  0.839408  0.900427  1
  O  O26  1  0.480914  0.519086  0.158729  1
  O  O27  1  0.160592  0.336111  0.900427  1
