# generated using pymatgen
data_Na6Mn2B4SO16
_symmetry_space_group_name_H-M   'P 1'
_cell_length_a   9.83437653
_cell_length_b   9.83437653
_cell_length_c   9.83437653
_cell_angle_alpha   60.00000000
_cell_angle_beta   60.00000000
_cell_angle_gamma   60.00000000
_symmetry_Int_Tables_number   1
_chemical_formula_structural   Na6Mn2B4SO16
_chemical_formula_sum   'Na12 Mn4 B8 S2 O32'
_cell_volume   672.55142765
_cell_formula_units_Z   2
loop_
 _symmetry_equiv_pos_site_id
 _symmetry_equiv_pos_as_xyz
  1  'x, y, z'
loop_
 _atom_site_type_symbol
 _atom_site_label
 _atom_site_symmetry_multiplicity
 _atom_site_fract_x
 _atom_site_fract_y
 _atom_site_fract_z
 _atom_site_occupancy
  Na  Na0  1  0.532354  0.967646  0.967646  1
  Na  Na1  1  0.717646  0.282354  0.717646  1
  Na  Na2  1  0.532354  0.532354  0.967646  1
  Na  Na3  1  0.967646  0.967646  0.532354  1
  Na  Na4  1  0.282354  0.717646  0.717646  1
  Na  Na5  1  0.282354  0.717646  0.282354  1
  Na  Na6  1  0.967646  0.532354  0.532354  1
  Na  Na7  1  0.967646  0.532354  0.967646  1
  Na  Na8  1  0.282354  0.282354  0.717646  1
  Na  Na9  1  0.717646  0.717646  0.282354  1
  Na  Na10  1  0.532354  0.967646  0.532354  1
  Na  Na11  1  0.717646  0.282354  0.282354  1
  Mn  Mn12  1  0.125000  0.625000  0.125000  1
  Mn  Mn13  1  0.125000  0.125000  0.125000  1
  Mn  Mn14  1  0.625000  0.125000  0.125000  1
  Mn  Mn15  1  0.125000  0.125000  0.625000  1
  B  B16  1  0.336054  0.991837  0.336054  1
  B  B17  1  0.336054  0.336054  0.991837  1
  B  B18  1  0.336054  0.336054  0.336054  1
  B  B19  1  0.991837  0.336054  0.336054  1
  B  B20  1  0.258163  0.913946  0.913946  1
  B  B21  1  0.913946  0.913946  0.258163  1
  B  B22  1  0.913946  0.913946  0.913946  1
  B  B23  1  0.913946  0.258163  0.913946  1
  S  S24  1  0.750000  0.750000  0.750000  1
  S  S25  1  0.500000  0.500000  0.500000  1
  O  O26  1  0.758243  0.033971  0.942513  1
  O  O27  1  0.942513  0.265272  0.758243  1
  O  O28  1  0.491757  0.984728  0.216029  1
  O  O29  1  0.216029  0.984728  0.307487  1
  O  O30  1  0.936401  0.687866  0.687866  1
  O  O31  1  0.491757  0.307487  0.984728  1
  O  O32  1  0.307487  0.216029  0.984728  1
  O  O33  1  0.687866  0.687866  0.687866  1
  O  O34  1  0.687866  0.687866  0.936401  1
  O  O35  1  0.216029  0.307487  0.491757  1
  O  O36  1  0.307487  0.491757  0.216029  1
  O  O37  1  0.687866  0.936401  0.687866  1
  O  O38  1  0.984728  0.216029  0.491757  1
  O  O39  1  0.216029  0.491757  0.984728  1
  O  O40  1  0.984728  0.307487  0.216029  1
  O  O41  1  0.265272  0.758243  0.942513  1
  O  O42  1  0.984728  0.491757  0.307487  1
  O  O43  1  0.265272  0.942513  0.033971  1
  O  O44  1  0.033971  0.758243  0.265272  1
  O  O45  1  0.265272  0.033971  0.758243  1
  O  O46  1  0.562134  0.313599  0.562134  1
  O  O47  1  0.942513  0.758243  0.033971  1
  O  O48  1  0.033971  0.942513  0.758243  1
  O  O49  1  0.562134  0.562134  0.562134  1
  O  O50  1  0.562134  0.562134  0.313599  1
  O  O51  1  0.942513  0.033971  0.265272  1
  O  O52  1  0.758243  0.942513  0.265272  1
  O  O53  1  0.313599  0.562134  0.562134  1
  O  O54  1  0.033971  0.265272  0.942513  1
  O  O55  1  0.758243  0.265272  0.033971  1
  O  O56  1  0.307487  0.984728  0.491757  1
  O  O57  1  0.491757  0.216029  0.307487  1
