# generated using pymatgen
data_Mn2OF3
_symmetry_space_group_name_H-M   'P 1'
_cell_length_a   4.87168238
_cell_length_b   4.87168238
_cell_length_c   12.73520111
_cell_angle_alpha   90.00000000
_cell_angle_beta   90.00000000
_cell_angle_gamma   93.41860826
_symmetry_Int_Tables_number   1
_chemical_formula_structural   Mn2OF3
_chemical_formula_sum   'Mn8 O4 F12'
_cell_volume   301.71036527
_cell_formula_units_Z   4
loop_
 _symmetry_equiv_pos_site_id
 _symmetry_equiv_pos_as_xyz
  1  'x, y, z'
loop_
 _atom_site_type_symbol
 _atom_site_label
 _atom_site_symmetry_multiplicity
 _atom_site_fract_x
 _atom_site_fract_y
 _atom_site_fract_z
 _atom_site_occupancy
  Mn  Mn0  1  0.963919  0.963919  0.000000  1
  Mn  Mn1  1  0.023188  0.023188  0.249066  1
  Mn  Mn2  1  0.016224  0.016224  0.500000  1
  Mn  Mn3  1  0.023188  0.023188  0.750934  1
  Mn  Mn4  1  0.485497  0.485497  0.625295  1
  Mn  Mn5  1  0.495400  0.495400  0.124856  1
  Mn  Mn6  1  0.485497  0.485497  0.374705  1
  Mn  Mn7  1  0.495400  0.495400  0.875144  1
  O  O8  1  0.318697  0.318697  0.246820  1
  O  O9  1  0.306976  0.306976  0.500000  1
  O  O10  1  0.318697  0.318697  0.753180  1
  O  O11  1  0.666536  0.666536  0.000000  1
  F  F12  1  0.794195  0.195880  0.125209  1
  F  F13  1  0.812314  0.200320  0.375761  1
  F  F14  1  0.812314  0.200320  0.624239  1
  F  F15  1  0.794195  0.195880  0.874791  1
  F  F16  1  0.278149  0.278149  0.000000  1
  F  F17  1  0.707781  0.707781  0.255213  1
  F  F18  1  0.701654  0.701654  0.500000  1
  F  F19  1  0.707781  0.707781  0.744787  1
  F  F20  1  0.195880  0.794195  0.125209  1
  F  F21  1  0.200320  0.812314  0.375761  1
  F  F22  1  0.200320  0.812314  0.624239  1
  F  F23  1  0.195880  0.794195  0.874791  1
