# generated using pymatgen
data_Mn7Cr(PO4)12
_symmetry_space_group_name_H-M   'P 1'
_cell_length_a   8.46250869
_cell_length_b   8.49689027
_cell_length_c   11.80664137
_cell_angle_alpha   89.96760695
_cell_angle_beta   89.94490765
_cell_angle_gamma   89.91296822
_symmetry_Int_Tables_number   1
_chemical_formula_structural   Mn7Cr(PO4)12
_chemical_formula_sum   'Mn7 Cr1 P12 O48'
_cell_volume   848.95513170
_cell_formula_units_Z   1
loop_
 _symmetry_equiv_pos_site_id
 _symmetry_equiv_pos_as_xyz
  1  'x, y, z'
loop_
 _atom_site_type_symbol
 _atom_site_label
 _atom_site_symmetry_multiplicity
 _atom_site_fract_x
 _atom_site_fract_y
 _atom_site_fract_z
 _atom_site_occupancy
  Mn  Mn0  1  0.033176  0.249742  0.618524  1
  Mn  Mn1  1  0.465572  0.250977  0.381258  1
  Mn  Mn2  1  0.965426  0.249503  0.118074  1
  Mn  Mn3  1  0.534892  0.250554  0.882845  1
  Mn  Mn4  1  0.465171  0.750670  0.118625  1
  Mn  Mn5  1  0.033812  0.750622  0.882465  1
  Mn  Mn6  1  0.965435  0.748752  0.382178  1
  Cr  Cr7  1  0.532448  0.748513  0.619243  1
  P  P8  1  0.750806  0.035390  0.499410  1
  P  P9  1  0.249871  0.464541  0.000307  1
  P  P10  1  0.749701  0.536128  0.000376  1
  P  P11  1  0.248856  0.964876  0.499571  1
  P  P12  1  0.608308  0.105843  0.145352  1
  P  P13  1  0.891762  0.106502  0.855241  1
  P  P14  1  0.391787  0.391943  0.645059  1
  P  P15  1  0.107757  0.393082  0.354947  1
  P  P16  1  0.892708  0.606556  0.645192  1
  P  P17  1  0.607922  0.605835  0.355035  1
  P  P18  1  0.390226  0.894812  0.855770  1
  P  P19  1  0.108077  0.893644  0.145384  1
  O  O20  1  0.357858  0.061517  0.423075  1
  O  O21  1  0.142449  0.059240  0.579590  1
  O  O22  1  0.099840  0.074920  0.159538  1
  O  O23  1  0.401462  0.075207  0.839423  1
  O  O24  1  0.839197  0.143481  0.583138  1
  O  O25  1  0.657908  0.142901  0.418231  1
  O  O26  1  0.560634  0.157506  0.026515  1
  O  O27  1  0.939788  0.159202  0.973517  1
  O  O28  1  0.778905  0.149750  0.175649  1
  O  O29  1  0.721140  0.150946  0.824643  1
  O  O30  1  0.486480  0.180806  0.226861  1
  O  O31  1  0.013733  0.179768  0.772940  1
  O  O32  1  0.986110  0.320476  0.272766  1
  O  O33  1  0.514179  0.320900  0.727313  1
  O  O34  1  0.220279  0.353125  0.675526  1
  O  O35  1  0.278510  0.349501  0.323923  1
  O  O36  1  0.438097  0.342455  0.525827  1
  O  O37  1  0.059861  0.339736  0.473254  1
  O  O38  1  0.159165  0.355048  0.082291  1
  O  O39  1  0.340967  0.354717  0.918751  1
  O  O40  1  0.897922  0.425708  0.660196  1
  O  O41  1  0.602513  0.424631  0.343075  1
  O  O42  1  0.858487  0.439583  0.077368  1
  O  O43  1  0.641165  0.440039  0.922905  1
  O  O44  1  0.358423  0.560983  0.077286  1
  O  O45  1  0.141269  0.560484  0.922648  1
  O  O46  1  0.408668  0.572677  0.658011  1
  O  O47  1  0.099759  0.574148  0.341162  1
  O  O48  1  0.659344  0.645368  0.082581  1
  O  O49  1  0.839978  0.644870  0.917846  1
  O  O50  1  0.939305  0.657777  0.526155  1
  O  O51  1  0.560916  0.660320  0.473293  1
  O  O52  1  0.777948  0.651650  0.324807  1
  O  O53  1  0.721427  0.652965  0.672243  1
  O  O54  1  0.484970  0.679200  0.273932  1
  O  O55  1  0.011791  0.683475  0.726810  1
  O  O56  1  0.986812  0.819661  0.227543  1
  O  O57  1  0.508347  0.823740  0.769850  1
  O  O58  1  0.278876  0.850066  0.175713  1
  O  O59  1  0.220701  0.849084  0.824524  1
  O  O60  1  0.441731  0.840362  0.972484  1
  O  O61  1  0.060825  0.841495  0.026892  1
  O  O62  1  0.345025  0.855664  0.577316  1
  O  O63  1  0.160246  0.852617  0.419154  1
  O  O64  1  0.899451  0.925216  0.841710  1
  O  O65  1  0.599472  0.924872  0.160059  1
  O  O66  1  0.860476  0.939633  0.422526  1
  O  O67  1  0.643873  0.934013  0.574286  1
