# generated using pymatgen
data_LiCoH8(CO5)2
_symmetry_space_group_name_H-M   'P 1'
_cell_length_a   5.39143213
_cell_length_b   5.39143213
_cell_length_c   15.28126688
_cell_angle_alpha   81.55459282
_cell_angle_beta   98.44540718
_cell_angle_gamma   102.26704357
_symmetry_Int_Tables_number   1
_chemical_formula_structural   LiCoH8(CO5)2
_chemical_formula_sum   'Li2 Co2 H16 C4 O20'
_cell_volume   426.25543171
_cell_formula_units_Z   2
loop_
 _symmetry_equiv_pos_site_id
 _symmetry_equiv_pos_as_xyz
  1  'x, y, z'
loop_
 _atom_site_type_symbol
 _atom_site_label
 _atom_site_symmetry_multiplicity
 _atom_site_fract_x
 _atom_site_fract_y
 _atom_site_fract_z
 _atom_site_occupancy
  Li  Li0  1  0.570561  0.736325  0.535165  1
  Li  Li1  1  0.263675  0.429439  0.035165  1
  Co  Co2  1  0.937620  0.939150  0.750085  1
  Co  Co3  1  0.060850  0.062380  0.250085  1
  H  H4  1  0.772166  0.144678  0.055885  1
  H  H5  1  0.864417  0.169682  0.458633  1
  H  H6  1  0.769251  0.527262  0.108765  1
  H  H7  1  0.855322  0.227834  0.555885  1
  H  H8  1  0.728857  0.618519  0.384201  1
  H  H9  1  0.830318  0.135583  0.958633  1
  H  H10  1  0.617485  0.726985  0.124350  1
  H  H11  1  0.550446  0.812883  0.373263  1
  H  H12  1  0.472738  0.230749  0.608765  1
  H  H13  1  0.381481  0.271143  0.884201  1
  H  H14  1  0.179573  0.895722  0.042114  1
  H  H15  1  0.273015  0.382515  0.624350  1
  H  H16  1  0.142171  0.774098  0.445858  1
  H  H17  1  0.187117  0.449554  0.873263  1
  H  H18  1  0.104278  0.820427  0.542114  1
  H  H19  1  0.225902  0.857829  0.945858  1
  C  C20  1  0.953843  0.515589  0.711021  1
  C  C21  1  0.484411  0.046157  0.211021  1
  C  C22  1  0.515938  0.961263  0.786853  1
  C  C23  1  0.038737  0.484062  0.286853  1
  O  O24  1  0.900723  0.206238  0.014765  1
  O  O25  1  0.979758  0.303685  0.686267  1
  O  O26  1  0.696315  0.020242  0.186267  1
  O  O27  1  0.958368  0.721752  0.654352  1
  O  O28  1  0.926813  0.542784  0.791589  1
  O  O29  1  0.793762  0.099277  0.514765  1
  O  O30  1  0.595885  0.554088  0.107960  1
  O  O31  1  0.457216  0.073187  0.291589  1
  O  O32  1  0.598142  0.664921  0.413169  1
  O  O33  1  0.723875  0.983805  0.842601  1
  O  O34  1  0.278248  0.041632  0.154352  1
  O  O35  1  0.445912  0.404115  0.607960  1
  O  O36  1  0.539906  0.910354  0.708785  1
  O  O37  1  0.335079  0.401858  0.913169  1
  O  O38  1  0.232857  0.823124  0.502981  1
  O  O39  1  0.089646  0.460094  0.208785  1
  O  O40  1  0.016195  0.276125  0.342601  1
  O  O41  1  0.303305  0.991405  0.809929  1
  O  O42  1  0.008595  0.696695  0.309929  1
  O  O43  1  0.176876  0.767143  0.002981  1
