# generated using pymatgen
data_Li13Ti28O56
_symmetry_space_group_name_H-M   'P 1'
_cell_length_a   10.36501625
_cell_length_b   10.36501625
_cell_length_c   10.36501625
_cell_angle_alpha   99.54046362
_cell_angle_beta   99.54046362
_cell_angle_gamma   99.54046362
_symmetry_Int_Tables_number   1
_chemical_formula_structural   Li13Ti28O56
_chemical_formula_sum   'Li13 Ti28 O56'
_cell_volume   1061.37224385
_cell_formula_units_Z   1
loop_
 _symmetry_equiv_pos_site_id
 _symmetry_equiv_pos_as_xyz
  1  'x, y, z'
loop_
 _atom_site_type_symbol
 _atom_site_label
 _atom_site_symmetry_multiplicity
 _atom_site_fract_x
 _atom_site_fract_y
 _atom_site_fract_z
 _atom_site_occupancy
  Li  Li0  1  0.053316  0.625813  0.910874  1
  Li  Li1  1  0.803538  0.374948  0.660741  1
  Li  Li2  1  0.374948  0.660741  0.803538  1
  Li  Li3  1  0.910874  0.053316  0.625813  1
  Li  Li4  1  0.339275  0.768056  0.482246  1
  Li  Li5  1  0.482246  0.339275  0.768056  1
  Li  Li6  1  0.232032  0.089156  0.517833  1
  Li  Li7  1  0.089156  0.517833  0.232032  1
  Li  Li8  1  0.660741  0.803538  0.374948  1
  Li  Li9  1  0.625813  0.910874  0.053316  1
  Li  Li10  1  0.195737  0.195737  0.195737  1
  Li  Li11  1  0.768056  0.482246  0.339275  1
  Li  Li12  1  0.517833  0.232032  0.089156  1
  Ti  Ti13  1  0.999008  0.283624  0.929003  1
  Ti  Ti14  1  0.285392  0.428653  0.999310  1
  Ti  Ti15  1  0.856996  0.715536  0.644890  1
  Ti  Ti16  1  0.142127  0.858152  0.716282  1
  Ti  Ti17  1  0.143174  0.357383  0.714842  1
  Ti  Ti18  1  0.212884  0.141120  0.857718  1
  Ti  Ti19  1  0.283624  0.929003  0.999008  1
  Ti  Ti20  1  0.715536  0.644890  0.856996  1
  Ti  Ti21  1  0.644890  0.856996  0.715536  1
  Ti  Ti22  1  0.071239  0.571757  0.571048  1
  Ti  Ti23  1  0.785251  0.428552  0.000160  1
  Ti  Ti24  1  0.000160  0.785251  0.428552  1
  Ti  Ti25  1  0.716282  0.142127  0.858152  1
  Ti  Ti26  1  0.428552  0.000160  0.785251  1
  Ti  Ti27  1  0.858152  0.716282  0.142127  1
  Ti  Ti28  1  0.141120  0.857718  0.212884  1
  Ti  Ti29  1  0.999310  0.285392  0.428653  1
  Ti  Ti30  1  0.571687  0.571687  0.571687  1
  Ti  Ti31  1  0.285536  0.428474  0.499988  1
  Ti  Ti32  1  0.571048  0.071239  0.571757  1
  Ti  Ti33  1  0.499988  0.285536  0.428474  1
  Ti  Ti34  1  0.428474  0.499988  0.285536  1
  Ti  Ti35  1  0.357383  0.714842  0.143174  1
  Ti  Ti36  1  0.929003  0.999008  0.283624  1
  Ti  Ti37  1  0.857718  0.212884  0.141120  1
  Ti  Ti38  1  0.428653  0.999310  0.285392  1
  Ti  Ti39  1  0.571757  0.571048  0.071239  1
  Ti  Ti40  1  0.714842  0.143174  0.357383  1
  O  O41  1  0.876674  0.605161  0.969955  1
  O  O42  1  0.805481  0.805481  0.805481  1
  O  O43  1  0.822982  0.316359  0.837281  1
  O  O44  1  0.394637  0.601626  0.980420  1
  O  O45  1  0.885783  0.127495  0.966364  1
  O  O46  1  0.316359  0.837281  0.822982  1
  O  O47  1  0.112835  0.448296  0.891123  1
  O  O48  1  0.034202  0.683867  0.733734  1
  O  O49  1  0.969955  0.876674  0.605161  1
  O  O50  1  0.162342  0.748154  0.541142  1
  O  O51  1  0.048306  0.191287  0.762414  1
  O  O52  1  0.476724  0.905582  0.619685  1
  O  O53  1  0.305283  0.319865  0.826904  1
  O  O54  1  0.905582  0.619685  0.476724  1
  O  O55  1  0.619685  0.476724  0.905582  1
  O  O56  1  0.237485  0.523223  0.666046  1
  O  O57  1  0.380869  0.094888  0.951910  1
  O  O58  1  0.837281  0.822982  0.316359  1
  O  O59  1  0.980420  0.394637  0.601626  1
  O  O60  1  0.127495  0.966364  0.885783  1
  O  O61  1  0.551158  0.679847  0.744350  1
  O  O62  1  0.173029  0.266110  0.537410  1
  O  O63  1  0.966364  0.885783  0.127495  1
  O  O64  1  0.679847  0.744350  0.551158  1
  O  O65  1  0.108839  0.458658  0.408908  1
  O  O66  1  0.030339  0.694182  0.251952  1
  O  O67  1  0.744350  0.551158  0.679847  1
  O  O68  1  0.251952  0.030339  0.694182  1
  O  O69  1  0.319865  0.826904  0.305283  1
  O  O70  1  0.891123  0.112835  0.448296  1
  O  O71  1  0.462478  0.398332  0.590987  1
  O  O72  1  0.541142  0.162342  0.748154  1
  O  O73  1  0.605161  0.969955  0.876674  1
  O  O74  1  0.826904  0.305283  0.319865  1
  O  O75  1  0.398332  0.590987  0.462478  1
  O  O76  1  0.191287  0.762414  0.048306  1
  O  O77  1  0.019715  0.177089  0.255827  1
  O  O78  1  0.733734  0.034202  0.683867  1
  O  O79  1  0.590987  0.462478  0.398332  1
  O  O80  1  0.448296  0.891123  0.112835  1
  O  O81  1  0.333872  0.333872  0.333872  1
  O  O82  1  0.408908  0.108839  0.458658  1
  O  O83  1  0.523223  0.666046  0.237485  1
  O  O84  1  0.666046  0.237485  0.523223  1
  O  O85  1  0.094888  0.951910  0.380869  1
  O  O86  1  0.951910  0.380869  0.094888  1
  O  O87  1  0.266110  0.537410  0.173029  1
  O  O88  1  0.537410  0.173029  0.266110  1
  O  O89  1  0.458658  0.408908  0.108839  1
  O  O90  1  0.601626  0.980420  0.394637  1
  O  O91  1  0.255827  0.019715  0.177089  1
  O  O92  1  0.748154  0.541142  0.162342  1
  O  O93  1  0.683867  0.733734  0.034202  1
  O  O94  1  0.177089  0.255827  0.019715  1
  O  O95  1  0.762414  0.048306  0.191287  1
  O  O96  1  0.694182  0.251952  0.030339  1
