# generated using pymatgen
data_K6Na2MnH24(WO6)6
_symmetry_space_group_name_H-M   'P 1'
_cell_length_a   9.82044824
_cell_length_b   9.82044824
_cell_length_c   9.82044824
_cell_angle_alpha   84.39754962
_cell_angle_beta   84.39754962
_cell_angle_gamma   84.39754962
_symmetry_Int_Tables_number   1
_chemical_formula_structural   K6Na2MnH24(WO6)6
_chemical_formula_sum   'K6 Na2 Mn1 H24 W6 O36'
_cell_volume   934.35154769
_cell_formula_units_Z   1
loop_
 _symmetry_equiv_pos_site_id
 _symmetry_equiv_pos_as_xyz
  1  'x, y, z'
loop_
 _atom_site_type_symbol
 _atom_site_label
 _atom_site_symmetry_multiplicity
 _atom_site_fract_x
 _atom_site_fract_y
 _atom_site_fract_z
 _atom_site_occupancy
  K  K0  1  0.332987  0.898503  0.332987  1
  K  K1  1  0.667013  0.667013  0.101497  1
  K  K2  1  0.898503  0.332987  0.332987  1
  K  K3  1  0.101497  0.667013  0.667013  1
  K  K4  1  0.332987  0.332987  0.898503  1
  K  K5  1  0.667013  0.101497  0.667013  1
  Na  Na6  1  0.260451  0.260451  0.260451  1
  Na  Na7  1  0.739549  0.739548  0.739548  1
  Mn  Mn8  1  0.000000  0.000000  0.000000  1
  H  H9  1  0.098023  0.473595  0.098023  1
  H  H10  1  0.901977  0.901977  0.526405  1
  H  H11  1  0.601886  0.842855  0.482657  1
  H  H12  1  0.398114  0.517343  0.157145  1
  H  H13  1  0.963014  0.963014  0.647491  1
  H  H14  1  0.036986  0.352509  0.036986  1
  H  H15  1  0.482657  0.842855  0.601886  1
  H  H16  1  0.517343  0.398114  0.157145  1
  H  H17  1  0.157145  0.517343  0.398114  1
  H  H18  1  0.842855  0.601886  0.482657  1
  H  H19  1  0.526405  0.901977  0.901977  1
  H  H20  1  0.647491  0.963014  0.963014  1
  H  H21  1  0.352509  0.036986  0.036986  1
  H  H22  1  0.473595  0.098023  0.098023  1
  H  H23  1  0.842855  0.482657  0.601886  1
  H  H24  1  0.157145  0.398114  0.517343  1
  H  H25  1  0.517343  0.157145  0.398114  1
  H  H26  1  0.482657  0.601886  0.842855  1
  H  H27  1  0.963014  0.647491  0.963014  1
  H  H28  1  0.036986  0.036986  0.352509  1
  H  H29  1  0.398114  0.157145  0.517343  1
  H  H30  1  0.601886  0.482657  0.842855  1
  H  H31  1  0.901977  0.526405  0.901977  1
  H  H32  1  0.098023  0.098023  0.473595  1
  W  W33  1  0.754600  0.000000  0.245400  1
  W  W34  1  0.000000  0.754600  0.245400  1
  W  W35  1  0.245400  0.000000  0.754600  1
  W  W36  1  0.245400  0.754600  0.000000  1
  W  W37  1  0.000000  0.245400  0.754600  1
  W  W38  1  0.754600  0.245400  0.000000  1
  O  O39  1  0.126250  0.899801  0.126250  1
  O  O40  1  0.873750  0.873750  0.100199  1
  O  O41  1  0.631955  0.874804  0.291295  1
  O  O42  1  0.368045  0.708705  0.125196  1
  O  O43  1  0.090516  0.651949  0.090516  1
  O  O44  1  0.909484  0.909484  0.348051  1
  O  O45  1  0.874804  0.631955  0.291295  1
  O  O46  1  0.125196  0.708705  0.368045  1
  O  O47  1  0.101672  0.372102  0.101672  1
  O  O48  1  0.898328  0.898328  0.627898  1
  O  O49  1  0.583047  0.843721  0.583047  1
  O  O50  1  0.416953  0.416953  0.156279  1
  O  O51  1  0.708705  0.368045  0.125196  1
  O  O52  1  0.291295  0.874804  0.631955  1
  O  O53  1  0.100199  0.873750  0.873750  1
  O  O54  1  0.627898  0.898328  0.898328  1
  O  O55  1  0.156279  0.416953  0.416953  1
  O  O56  1  0.372102  0.101672  0.101672  1
  O  O57  1  0.348051  0.909484  0.909484  1
  O  O58  1  0.843721  0.583047  0.583047  1
  O  O59  1  0.651949  0.090516  0.090516  1
  O  O60  1  0.899801  0.126250  0.126250  1
  O  O61  1  0.708705  0.125196  0.368045  1
  O  O62  1  0.291295  0.631955  0.874804  1
  O  O63  1  0.416953  0.156279  0.416953  1
  O  O64  1  0.583047  0.583047  0.843721  1
  O  O65  1  0.898328  0.627898  0.898328  1
  O  O66  1  0.101672  0.101672  0.372102  1
  O  O67  1  0.125196  0.368045  0.708705  1
  O  O68  1  0.874804  0.291295  0.631955  1
  O  O69  1  0.090516  0.090516  0.651949  1
  O  O70  1  0.909484  0.348051  0.909484  1
  O  O71  1  0.368045  0.125196  0.708705  1
  O  O72  1  0.631955  0.291295  0.874804  1
  O  O73  1  0.126250  0.126250  0.899801  1
  O  O74  1  0.873750  0.100199  0.873750  1
