# generated using pymatgen
data_Li4V2Fe3Sb3O16
_symmetry_space_group_name_H-M   'P 1'
_cell_length_a   6.13542539
_cell_length_b   6.14400565
_cell_length_c   9.77365263
_cell_angle_alpha   90.18595798
_cell_angle_beta   91.11186028
_cell_angle_gamma   119.19893025
_symmetry_Int_Tables_number   1
_chemical_formula_structural   Li4V2Fe3Sb3O16
_chemical_formula_sum   'Li4 V2 Fe3 Sb3 O16'
_cell_volume   321.51803988
_cell_formula_units_Z   1
loop_
 _symmetry_equiv_pos_site_id
 _symmetry_equiv_pos_as_xyz
  1  'x, y, z'
loop_
 _atom_site_type_symbol
 _atom_site_label
 _atom_site_symmetry_multiplicity
 _atom_site_fract_x
 _atom_site_fract_y
 _atom_site_fract_z
 _atom_site_occupancy
  Li  Li0  1  0.326190  0.659785  0.882872  1
  Li  Li1  1  0.973205  0.987676  0.987734  1
  Li  Li2  1  0.984251  0.990535  0.503261  1
  Li  Li3  1  0.649098  0.323977  0.401269  1
  V  V4  1  0.349044  0.679508  0.499031  1
  V  V5  1  0.694275  0.344803  0.975851  1
  Fe  Fe6  1  0.664606  0.832120  0.214844  1
  Fe  Fe7  1  0.834355  0.664204  0.712129  1
  Fe  Fe8  1  0.833028  0.171355  0.712946  1
  Sb  Sb9  1  0.169999  0.832831  0.213902  1
  Sb  Sb10  1  0.170606  0.339026  0.214884  1
  Sb  Sb11  1  0.342944  0.170738  0.714132  1
  O  O12  1  0.180162  0.852505  0.597363  1
  O  O13  1  0.035427  0.521869  0.337427  1
  O  O14  1  0.314799  0.655703  0.100643  1
  O  O15  1  0.018305  0.011871  0.317670  1
  O  O16  1  0.016030  0.016790  0.807405  1
  O  O17  1  0.171456  0.330518  0.600495  1
  O  O18  1  0.468081  0.960180  0.337524  1
  O  O19  1  0.465879  0.504900  0.339474  1
  O  O20  1  0.317477  0.157166  0.102705  1
  O  O21  1  0.669706  0.842588  0.595479  1
  O  O22  1  0.505557  0.460955  0.850060  1
  O  O23  1  0.520036  0.035063  0.839830  1
  O  O24  1  0.653588  0.318793  0.602815  1
  O  O25  1  0.858069  0.687057  0.100709  1
  O  O26  1  0.957670  0.468895  0.844192  1
  O  O27  1  0.856157  0.178890  0.101193  1
