# generated using pymatgen
data_Al2O3
_symmetry_space_group_name_H-M   'P 1'
_cell_length_a   5.37987586
_cell_length_b   8.37093177
_cell_length_c   5.48333668
_cell_angle_alpha   90.00000000
_cell_angle_beta   118.30905726
_cell_angle_gamma   90.00000000
_symmetry_Int_Tables_number   1
_chemical_formula_structural   Al2O3
_chemical_formula_sum   'Al8 O12'
_cell_volume   217.40633084
_cell_formula_units_Z   4
loop_
 _symmetry_equiv_pos_site_id
 _symmetry_equiv_pos_as_xyz
  1  'x, y, z'
loop_
 _atom_site_type_symbol
 _atom_site_label
 _atom_site_symmetry_multiplicity
 _atom_site_fract_x
 _atom_site_fract_y
 _atom_site_fract_z
 _atom_site_occupancy
  Al  Al0  1  0.948226  0.957489  0.232647  1
  Al  Al1  1  0.948226  0.542511  0.732647  1
  Al  Al2  1  0.535784  0.656340  0.240372  1
  Al  Al3  1  0.464216  0.156340  0.259628  1
  Al  Al4  1  0.535784  0.843660  0.740372  1
  Al  Al5  1  0.464216  0.343660  0.759628  1
  Al  Al6  1  0.051774  0.457489  0.267353  1
  Al  Al7  1  0.051774  0.042511  0.767353  1
  O  O8  1  0.175460  0.891190  0.605661  1
  O  O9  1  0.318987  0.294734  0.400342  1
  O  O10  1  0.175460  0.608810  0.105661  1
  O  O11  1  0.249681  0.519124  0.671208  1
  O  O12  1  0.750319  0.019124  0.828792  1
  O  O13  1  0.318987  0.205266  0.900342  1
  O  O14  1  0.681013  0.794734  0.099658  1
  O  O15  1  0.249681  0.980876  0.171208  1
  O  O16  1  0.750319  0.480876  0.328792  1
  O  O17  1  0.824540  0.391190  0.894339  1
  O  O18  1  0.681013  0.705266  0.599658  1
  O  O19  1  0.824540  0.108810  0.394339  1
