# generated using pymatgen
data_CaZrO3
_symmetry_space_group_name_H-M   'P 1'
_cell_length_a   5.83183526
_cell_length_b   8.12360446
_cell_length_c   11.45709201
_cell_angle_alpha   90.00000000
_cell_angle_beta   90.00000000
_cell_angle_gamma   90.00000000
_symmetry_Int_Tables_number   1
_chemical_formula_structural   CaZrO3
_chemical_formula_sum   'Ca8 Zr8 O24'
_cell_volume   542.78572521
_cell_formula_units_Z   8
loop_
 _symmetry_equiv_pos_site_id
 _symmetry_equiv_pos_as_xyz
  1  'x, y, z'
loop_
 _atom_site_type_symbol
 _atom_site_label
 _atom_site_symmetry_multiplicity
 _atom_site_fract_x
 _atom_site_fract_y
 _atom_site_fract_z
 _atom_site_occupancy
  Ca  Ca0  1  0.750639  0.504657  0.638122  1
  Ca  Ca1  1  0.764220  0.005126  0.612109  1
  Ca  Ca2  1  0.749361  0.504657  0.138122  1
  Ca  Ca3  1  0.735780  0.005126  0.112109  1
  Ca  Ca4  1  0.264220  0.005126  0.887891  1
  Ca  Ca5  1  0.250639  0.504657  0.861878  1
  Ca  Ca6  1  0.235780  0.005126  0.387891  1
  Ca  Ca7  1  0.249361  0.504657  0.361878  1
  Zr  Zr8  1  0.752510  0.255331  0.874754  1
  Zr  Zr9  1  0.750087  0.755416  0.875057  1
  Zr  Zr10  1  0.747490  0.255331  0.374754  1
  Zr  Zr11  1  0.749913  0.755416  0.375057  1
  Zr  Zr12  1  0.250087  0.755416  0.624943  1
  Zr  Zr13  1  0.252510  0.255331  0.625246  1
  Zr  Zr14  1  0.249913  0.755416  0.124943  1
  Zr  Zr15  1  0.247490  0.255331  0.125246  1
  O  O16  1  0.000000  0.186710  0.000000  1
  O  O17  1  0.000000  0.822356  0.000000  1
  O  O18  1  0.000000  0.194227  0.500000  1
  O  O19  1  0.000000  0.822248  0.500000  1
  O  O20  1  0.001242  0.322703  0.750469  1
  O  O21  1  0.987937  0.691159  0.745402  1
  O  O22  1  0.749883  0.506297  0.434036  1
  O  O23  1  0.768206  0.006540  0.315549  1
  O  O24  1  0.731794  0.006540  0.815549  1
  O  O25  1  0.750117  0.506297  0.934036  1
  O  O26  1  0.498758  0.322703  0.250469  1
  O  O27  1  0.512063  0.691159  0.245402  1
  O  O28  1  0.500000  0.194227  0.000000  1
  O  O29  1  0.500000  0.822248  0.000000  1
  O  O30  1  0.500000  0.822356  0.500000  1
  O  O31  1  0.500000  0.186710  0.500000  1
  O  O32  1  0.487937  0.691159  0.754598  1
  O  O33  1  0.501242  0.322703  0.749531  1
  O  O34  1  0.249883  0.506297  0.065964  1
  O  O35  1  0.268206  0.006540  0.184451  1
  O  O36  1  0.250117  0.506297  0.565964  1
  O  O37  1  0.231794  0.006540  0.684451  1
  O  O38  1  0.012063  0.691159  0.254598  1
  O  O39  1  0.998758  0.322703  0.249531  1
