# generated using pymatgen
data_LiMnPO4
_symmetry_space_group_name_H-M   'P 1'
_cell_length_a   5.27885118
_cell_length_b   7.79658124
_cell_length_c   8.82378381
_cell_angle_alpha   89.29442449
_cell_angle_beta   88.69506472
_cell_angle_gamma   82.06415034
_symmetry_Int_Tables_number   1
_chemical_formula_structural   LiMnPO4
_chemical_formula_sum   'Li4 Mn4 P4 O16'
_cell_volume   359.57380702
_cell_formula_units_Z   4
loop_
 _symmetry_equiv_pos_site_id
 _symmetry_equiv_pos_as_xyz
  1  'x, y, z'
loop_
 _atom_site_type_symbol
 _atom_site_label
 _atom_site_symmetry_multiplicity
 _atom_site_fract_x
 _atom_site_fract_y
 _atom_site_fract_z
 _atom_site_occupancy
  Li  Li0  1  0.184245  0.961488  0.375301  1
  Li  Li1  1  0.206436  0.478881  0.204387  1
  Li  Li2  1  0.793564  0.521119  0.795613  1
  Li  Li3  1  0.815755  0.038512  0.624699  1
  Mn  Mn4  1  0.283851  0.196870  0.899682  1
  Mn  Mn5  1  0.305664  0.662663  0.592471  1
  Mn  Mn6  1  0.694336  0.337337  0.407529  1
  Mn  Mn7  1  0.716149  0.803130  0.100318  1
  P  P8  1  0.229235  0.284846  0.557845  1
  P  P9  1  0.230034  0.769907  0.915910  1
  P  P10  1  0.769966  0.230093  0.084090  1
  P  P11  1  0.770765  0.715154  0.442155  1
  O  O12  1  0.036181  0.178633  0.481877  1
  O  O13  1  0.040199  0.292515  0.079007  1
  O  O14  1  0.127031  0.346741  0.715805  1
  O  O15  1  0.263668  0.444772  0.452705  1
  O  O16  1  0.209573  0.953167  0.841338  1
  O  O17  1  0.414539  0.642291  0.814707  1
  O  O18  1  0.336507  0.767358  0.079227  1
  O  O19  1  0.497548  0.177002  0.565023  1
  O  O20  1  0.502452  0.822998  0.434977  1
  O  O21  1  0.663493  0.232642  0.920773  1
  O  O22  1  0.585461  0.357709  0.185293  1
  O  O23  1  0.790427  0.046833  0.158662  1
  O  O24  1  0.736332  0.555228  0.547295  1
  O  O25  1  0.872969  0.653259  0.284195  1
  O  O26  1  0.959801  0.707485  0.920993  1
  O  O27  1  0.963819  0.821367  0.518123  1
