# generated using pymatgen
data_RbLi2Cr2(BO3)3
_symmetry_space_group_name_H-M   'P 1'
_cell_length_a   5.67268182
_cell_length_b   5.29532387
_cell_length_c   12.93151345
_cell_angle_alpha   90.00000000
_cell_angle_beta   92.37224550
_cell_angle_gamma   90.00000000
_symmetry_Int_Tables_number   1
_chemical_formula_structural   RbLi2Cr2(BO3)3
_chemical_formula_sum   'Rb2 Li4 Cr4 B6 O18'
_cell_volume   388.11279163
_cell_formula_units_Z   2
loop_
 _symmetry_equiv_pos_site_id
 _symmetry_equiv_pos_as_xyz
  1  'x, y, z'
loop_
 _atom_site_type_symbol
 _atom_site_label
 _atom_site_symmetry_multiplicity
 _atom_site_fract_x
 _atom_site_fract_y
 _atom_site_fract_z
 _atom_site_occupancy
  Rb  Rb0  1  0.000000  0.752797  0.250000  1
  Rb  Rb1  1  0.000000  0.247203  0.750000  1
  Li  Li2  1  0.488250  0.900578  0.354165  1
  Li  Li3  1  0.511750  0.900578  0.145835  1
  Li  Li4  1  0.488250  0.099422  0.854165  1
  Li  Li5  1  0.511750  0.099422  0.645835  1
  Cr  Cr6  1  0.266818  0.354454  0.029066  1
  Cr  Cr7  1  0.266818  0.645546  0.529066  1
  Cr  Cr8  1  0.733182  0.354454  0.470934  1
  Cr  Cr9  1  0.733182  0.645546  0.970934  1
  B  B10  1  0.215569  0.196533  0.460199  1
  B  B11  1  0.215569  0.803467  0.960199  1
  B  B12  1  0.500000  0.392553  0.250000  1
  B  B13  1  0.500000  0.607447  0.750000  1
  B  B14  1  0.784431  0.196533  0.039801  1
  B  B15  1  0.784431  0.803467  0.539801  1
  O  O16  1  0.070787  0.386958  0.419657  1
  O  O17  1  0.070787  0.613042  0.919657  1
  O  O18  1  0.193383  0.947211  0.440014  1
  O  O19  1  0.193383  0.052789  0.940014  1
  O  O20  1  0.391060  0.708297  0.030866  1
  O  O21  1  0.391060  0.291703  0.530866  1
  O  O22  1  0.407648  0.245576  0.165955  1
  O  O23  1  0.407648  0.754424  0.665955  1
  O  O24  1  0.500000  0.649254  0.250000  1
  O  O25  1  0.500000  0.350746  0.750000  1
  O  O26  1  0.592352  0.245576  0.334045  1
  O  O27  1  0.592352  0.754424  0.834045  1
  O  O28  1  0.608940  0.708297  0.469134  1
  O  O29  1  0.608940  0.291703  0.969134  1
  O  O30  1  0.806617  0.947211  0.059986  1
  O  O31  1  0.806617  0.052789  0.559986  1
  O  O32  1  0.929213  0.386958  0.080343  1
  O  O33  1  0.929213  0.613042  0.580343  1
