# generated using pymatgen
data_LiV2OF5
_symmetry_space_group_name_H-M   'P 1'
_cell_length_a   5.24795071
_cell_length_b   5.24795071
_cell_length_c   13.75690843
_cell_angle_alpha   90.00000000
_cell_angle_beta   90.00000000
_cell_angle_gamma   120.00000000
_symmetry_Int_Tables_number   1
_chemical_formula_structural   LiV2OF5
_chemical_formula_sum   'Li3 V6 O3 F15'
_cell_volume   328.11869270
_cell_formula_units_Z   3
loop_
 _symmetry_equiv_pos_site_id
 _symmetry_equiv_pos_as_xyz
  1  'x, y, z'
loop_
 _atom_site_type_symbol
 _atom_site_label
 _atom_site_symmetry_multiplicity
 _atom_site_fract_x
 _atom_site_fract_y
 _atom_site_fract_z
 _atom_site_occupancy
  Li  Li0  1  0.999598  0.020491  0.670911  1
  Li  Li1  1  0.979509  0.979107  0.004245  1
  Li  Li2  1  0.020893  0.000402  0.337578  1
  V  V3  1  0.331781  0.683474  0.496227  1
  V  V4  1  0.351692  0.668219  0.162893  1
  V  V5  1  0.316526  0.648308  0.829560  1
  V  V6  1  0.648944  0.316877  0.496300  1
  V  V7  1  0.667933  0.351056  0.162966  1
  V  V8  1  0.683123  0.332067  0.829633  1
  O  O9  1  0.999751  0.351936  0.759654  1
  O  O10  1  0.352185  0.000249  0.426320  1
  O  O11  1  0.648064  0.647815  0.092987  1
  F  F12  1  0.006548  0.652421  0.243128  1
  F  F13  1  0.992583  0.647604  0.575493  1
  F  F14  1  0.000918  0.659892  0.913375  1
  F  F15  1  0.004471  0.349906  0.088733  1
  F  F16  1  0.995626  0.345160  0.422859  1
  F  F17  1  0.347579  0.354127  0.576461  1
  F  F18  1  0.340108  0.341025  0.246708  1
  F  F19  1  0.352396  0.344979  0.908826  1
  F  F20  1  0.345435  0.995529  0.755400  1
  F  F21  1  0.349535  0.004374  0.089526  1
  F  F22  1  0.650094  0.654565  0.422066  1
  F  F23  1  0.654840  0.650465  0.756192  1
  F  F24  1  0.645873  0.993452  0.909795  1
  F  F25  1  0.655021  0.007417  0.242159  1
  F  F26  1  0.658975  0.999082  0.580041  1
