# generated using pymatgen
data_K2Li2CoO4
_symmetry_space_group_name_H-M   'P 1'
_cell_length_a   5.50888889
_cell_length_b   9.12620108
_cell_length_c   11.16134811
_cell_angle_alpha   90.00000000
_cell_angle_beta   111.74948618
_cell_angle_gamma   90.00000000
_symmetry_Int_Tables_number   1
_chemical_formula_structural   K2Li2CoO4
_chemical_formula_sum   'K8 Li8 Co4 O16'
_cell_volume   521.19342407
_cell_formula_units_Z   4
loop_
 _symmetry_equiv_pos_site_id
 _symmetry_equiv_pos_as_xyz
  1  'x, y, z'
loop_
 _atom_site_type_symbol
 _atom_site_label
 _atom_site_symmetry_multiplicity
 _atom_site_fract_x
 _atom_site_fract_y
 _atom_site_fract_z
 _atom_site_occupancy
  K  K0  1  0.296192  0.998492  0.141506  1
  K  K1  1  0.789103  0.753932  0.643714  1
  K  K2  1  0.703808  0.498492  0.358494  1
  K  K3  1  0.789103  0.746068  0.143714  1
  K  K4  1  0.210897  0.253932  0.856286  1
  K  K5  1  0.296192  0.501508  0.641506  1
  K  K6  1  0.210897  0.246068  0.356286  1
  K  K7  1  0.703808  0.001508  0.858494  1
  Li  Li8  1  0.393618  0.743342  0.313680  1
  Li  Li9  1  0.348227  0.482626  0.069247  1
  Li  Li10  1  0.651773  0.982626  0.430753  1
  Li  Li11  1  0.606382  0.243342  0.186320  1
  Li  Li12  1  0.393618  0.756658  0.813680  1
  Li  Li13  1  0.348227  0.017374  0.569247  1
  Li  Li14  1  0.651773  0.517374  0.930753  1
  Li  Li15  1  0.606382  0.256658  0.686320  1
  Co  Co16  1  0.128953  0.713709  0.952911  1
  Co  Co17  1  0.871047  0.213709  0.547089  1
  Co  Co18  1  0.128953  0.786291  0.452911  1
  Co  Co19  1  0.871047  0.286291  0.047089  1
  O  O20  1  0.226710  0.292090  0.107405  1
  O  O21  1  0.276750  0.688021  0.127560  1
  O  O22  1  0.724381  0.073445  0.615574  1
  O  O23  1  0.770307  0.385185  0.592187  1
  O  O24  1  0.723250  0.188021  0.372440  1
  O  O25  1  0.773290  0.792090  0.392595  1
  O  O26  1  0.229693  0.885185  0.907813  1
  O  O27  1  0.275619  0.573445  0.884426  1
  O  O28  1  0.724381  0.426555  0.115574  1
  O  O29  1  0.770307  0.114815  0.092187  1
  O  O30  1  0.226710  0.207910  0.607405  1
  O  O31  1  0.276750  0.811979  0.627560  1
  O  O32  1  0.229693  0.614815  0.407813  1
  O  O33  1  0.275619  0.926555  0.384426  1
  O  O34  1  0.723250  0.311979  0.872440  1
  O  O35  1  0.773290  0.707910  0.892595  1
