# generated using pymatgen
data_LiVOF2
_symmetry_space_group_name_H-M   'P 1'
_cell_length_a   8.82417828
_cell_length_b   5.27548697
_cell_length_c   12.62204990
_cell_angle_alpha   90.00000000
_cell_angle_beta   130.85618553
_cell_angle_gamma   90.00000000
_symmetry_Int_Tables_number   1
_chemical_formula_structural   LiVOF2
_chemical_formula_sum   'Li8 V8 O8 F16'
_cell_volume   444.41815351
_cell_formula_units_Z   8
loop_
 _symmetry_equiv_pos_site_id
 _symmetry_equiv_pos_as_xyz
  1  'x, y, z'
loop_
 _atom_site_type_symbol
 _atom_site_label
 _atom_site_symmetry_multiplicity
 _atom_site_fract_x
 _atom_site_fract_y
 _atom_site_fract_z
 _atom_site_occupancy
  Li  Li0  1  0.830268  0.072245  0.998801  1
  Li  Li1  1  0.952817  0.092909  0.785549  1
  Li  Li2  1  0.952817  0.907091  0.285549  1
  Li  Li3  1  0.830268  0.927755  0.498801  1
  Li  Li4  1  0.634623  0.573053  0.994040  1
  Li  Li5  1  0.153938  0.587829  0.803520  1
  Li  Li6  1  0.153938  0.412171  0.303520  1
  Li  Li7  1  0.634623  0.426947  0.494040  1
  V  V8  1  0.321963  0.077488  0.809043  1
  V  V9  1  0.437411  0.041429  0.579730  1
  V  V10  1  0.437411  0.958571  0.079730  1
  V  V11  1  0.321963  0.922512  0.309043  1
  V  V12  1  0.790230  0.604332  0.804311  1
  V  V13  1  0.238631  0.610344  0.565592  1
  V  V14  1  0.238631  0.389656  0.065592  1
  V  V15  1  0.790230  0.395668  0.304311  1
  O  O16  1  0.416766  0.204307  0.437021  1
  O  O17  1  0.259473  0.237861  0.931944  1
  O  O18  1  0.336553  0.075849  0.173121  1
  O  O19  1  0.699336  0.093800  0.204084  1
  O  O20  1  0.699336  0.906200  0.704084  1
  O  O21  1  0.336553  0.924151  0.673121  1
  O  O22  1  0.259473  0.762139  0.431944  1
  O  O23  1  0.416766  0.795693  0.937021  1
  F  F24  1  0.593226  0.240414  0.925997  1
  F  F25  1  0.038844  0.080108  0.195966  1
  F  F26  1  0.038844  0.919892  0.695966  1
  F  F27  1  0.593226  0.759586  0.425997  1
  F  F28  1  0.773348  0.724947  0.942808  1
  F  F29  1  0.939416  0.722495  0.433139  1
  F  F30  1  0.097386  0.711306  0.936363  1
  F  F31  1  0.513604  0.579328  0.177987  1
  F  F32  1  0.852833  0.571274  0.197033  1
  F  F33  1  0.208114  0.579064  0.192729  1
  F  F34  1  0.208114  0.420936  0.692729  1
  F  F35  1  0.852833  0.428726  0.697033  1
  F  F36  1  0.513604  0.420672  0.677987  1
  F  F37  1  0.097386  0.288694  0.436363  1
  F  F38  1  0.939416  0.277505  0.933139  1
  F  F39  1  0.773348  0.275053  0.442808  1
