# generated using pymatgen
data_HoCrO3
_symmetry_space_group_name_H-M   'P 1'
_cell_length_a   5.28969275
_cell_length_b   5.59749621
_cell_length_c   7.64300163
_cell_angle_alpha   90.00000000
_cell_angle_beta   90.00000000
_cell_angle_gamma   90.00000000
_symmetry_Int_Tables_number   1
_chemical_formula_structural   HoCrO3
_chemical_formula_sum   'Ho4 Cr4 O12'
_cell_volume   226.30190369
_cell_formula_units_Z   4
loop_
 _symmetry_equiv_pos_site_id
 _symmetry_equiv_pos_as_xyz
  1  'x, y, z'
loop_
 _atom_site_type_symbol
 _atom_site_label
 _atom_site_symmetry_multiplicity
 _atom_site_fract_x
 _atom_site_fract_y
 _atom_site_fract_z
 _atom_site_occupancy
  Ho  Ho0  1  0.519388  0.568461  0.250000  1
  Ho  Ho1  1  0.980612  0.068461  0.250000  1
  Ho  Ho2  1  0.480612  0.431539  0.750000  1
  Ho  Ho3  1  0.019388  0.931539  0.750000  1
  Cr  Cr4  1  0.000000  0.500000  0.000000  1
  Cr  Cr5  1  0.500000  0.000000  0.500000  1
  Cr  Cr6  1  0.000000  0.500000  0.500000  1
  Cr  Cr7  1  0.500000  0.000000  0.000000  1
  O  O8  1  0.384830  0.957564  0.250000  1
  O  O9  1  0.115170  0.457564  0.250000  1
  O  O10  1  0.615170  0.042436  0.750000  1
  O  O11  1  0.884830  0.542436  0.750000  1
  O  O12  1  0.809236  0.804566  0.058941  1
  O  O13  1  0.690764  0.304566  0.441059  1
  O  O14  1  0.190764  0.195434  0.558941  1
  O  O15  1  0.309236  0.695434  0.941059  1
  O  O16  1  0.190764  0.195434  0.941059  1
  O  O17  1  0.309236  0.695434  0.558941  1
  O  O18  1  0.809236  0.804566  0.441059  1
  O  O19  1  0.690764  0.304566  0.058941  1
