# generated using pymatgen
data_Na3Li6Mn5O9
_symmetry_space_group_name_H-M   'P 1'
_cell_length_a   5.88179973
_cell_length_b   5.89436540
_cell_length_c   9.27598850
_cell_angle_alpha   96.03838785
_cell_angle_beta   96.14508965
_cell_angle_gamma   119.79230745
_symmetry_Int_Tables_number   1
_chemical_formula_structural   Na3Li6Mn5O9
_chemical_formula_sum   'Na3 Li6 Mn5 O9'
_cell_volume   272.77092898
_cell_formula_units_Z   1
loop_
 _symmetry_equiv_pos_site_id
 _symmetry_equiv_pos_as_xyz
  1  'x, y, z'
loop_
 _atom_site_type_symbol
 _atom_site_label
 _atom_site_symmetry_multiplicity
 _atom_site_fract_x
 _atom_site_fract_y
 _atom_site_fract_z
 _atom_site_occupancy
  Na  Na0  1  0.162716  0.840479  0.495316  1
  Na  Na1  1  0.837123  0.161645  0.495795  1
  Na  Na2  1  0.481424  0.484160  0.487027  1
  Li  Li3  1  0.014336  0.338797  0.064865  1
  Li  Li4  1  0.334689  0.017765  0.064824  1
  Li  Li5  1  0.068224  0.071252  0.247053  1
  Li  Li6  1  0.648227  0.930046  0.973757  1
  Li  Li7  1  0.360815  0.364257  0.963953  1
  Li  Li8  1  0.920005  0.654706  0.981205  1
  Mn  Mn9  1  0.263630  0.583532  0.755357  1
  Mn  Mn10  1  0.584667  0.271674  0.755717  1
  Mn  Mn11  1  0.424960  0.747480  0.241357  1
  Mn  Mn12  1  0.745048  0.425387  0.243747  1
  Mn  Mn13  1  0.890064  0.888907  0.757539  1
  O  O14  1  0.285725  0.661203  0.002646  1
  O  O15  1  0.657233  0.290253  0.004318  1
  O  O16  1  0.097616  0.425985  0.295090  1
  O  O17  1  0.778357  0.779825  0.324281  1
  O  O18  1  0.422486  0.097128  0.295130  1
  O  O19  1  0.548829  0.902010  0.671223  1
  O  O20  1  0.896168  0.548651  0.663445  1
  O  O21  1  0.204340  0.206768  0.674467  1
  O  O22  1  0.025584  0.030087  0.995644  1
