# generated using pymatgen
data_Li(BiO2)3
_symmetry_space_group_name_H-M   'P 1'
_cell_length_a   9.35148321
_cell_length_b   9.35148321
_cell_length_c   9.35148321
_cell_angle_alpha   109.47122063
_cell_angle_beta   109.47122063
_cell_angle_gamma   109.47122063
_symmetry_Int_Tables_number   1
_chemical_formula_structural   Li(BiO2)3
_chemical_formula_sum   'Li4 Bi12 O24'
_cell_volume   629.53460067
_cell_formula_units_Z   4
loop_
 _symmetry_equiv_pos_site_id
 _symmetry_equiv_pos_as_xyz
  1  'x, y, z'
loop_
 _atom_site_type_symbol
 _atom_site_label
 _atom_site_symmetry_multiplicity
 _atom_site_fract_x
 _atom_site_fract_y
 _atom_site_fract_z
 _atom_site_occupancy
  Li  Li0  1  0.968913  0.500000  0.000000  1
  Li  Li1  1  0.500000  1.000000  0.968913  1
  Li  Li2  1  0.531087  0.531087  0.531087  1
  Li  Li3  1  1.000000  0.968913  0.500000  1
  Bi  Bi4  1  0.963445  0.250000  0.213445  1
  Bi  Bi5  1  0.786870  0.036870  0.750000  1
  Bi  Bi6  1  0.713130  0.463130  0.250000  1
  Bi  Bi7  1  0.750000  0.286555  0.536555  1
  Bi  Bi8  1  0.750000  0.786870  0.036870  1
  Bi  Bi9  1  0.463130  0.250000  0.713130  1
  Bi  Bi10  1  0.536555  0.750000  0.286555  1
  Bi  Bi11  1  0.250000  0.713130  0.463130  1
  Bi  Bi12  1  0.250000  0.213445  0.963445  1
  Bi  Bi13  1  0.213445  0.963445  0.250000  1
  Bi  Bi14  1  0.286555  0.536555  0.750000  1
  Bi  Bi15  1  0.036870  0.750000  0.786870  1
  O  O16  1  0.026119  0.057191  0.259603  1
  O  O17  1  0.733484  0.031072  0.473881  1
  O  O18  1  0.766516  0.240397  0.297588  1
  O  O19  1  0.005164  0.967289  0.724468  1
  O  O20  1  0.494836  0.219304  0.962125  1
  O  O21  1  0.757179  0.532711  0.537875  1
  O  O22  1  0.742821  0.280696  0.775532  1
  O  O23  1  0.442809  0.468928  0.202412  1
  O  O24  1  0.468928  0.202412  0.442809  1
  O  O25  1  0.775532  0.742821  0.280696  1
  O  O26  1  0.724468  0.005164  0.967289  1
  O  O27  1  0.219304  0.962125  0.494836  1
  O  O28  1  0.473881  0.733484  0.031072  1
  O  O29  1  0.202412  0.442809  0.468928  1
  O  O30  1  0.297588  0.766516  0.240397  1
  O  O31  1  0.532711  0.537875  0.757179  1
  O  O32  1  0.537875  0.757179  0.532711  1
  O  O33  1  0.962125  0.494836  0.219304  1
  O  O34  1  0.240397  0.297588  0.766516  1
  O  O35  1  0.259603  0.026119  0.057191  1
  O  O36  1  0.057191  0.259603  0.026119  1
  O  O37  1  0.031072  0.473881  0.733484  1
  O  O38  1  0.280696  0.775532  0.742821  1
  O  O39  1  0.967289  0.724468  0.005164  1
