# generated using pymatgen
data_VOF3
_symmetry_space_group_name_H-M   'P 1'
_cell_length_a   5.33459576
_cell_length_b   7.31155062
_cell_length_c   8.57537351
_cell_angle_alpha   90.00000000
_cell_angle_beta   90.00000000
_cell_angle_gamma   90.00000000
_symmetry_Int_Tables_number   1
_chemical_formula_structural   VOF3
_chemical_formula_sum   'V4 O4 F12'
_cell_volume   334.47529993
_cell_formula_units_Z   4
loop_
 _symmetry_equiv_pos_site_id
 _symmetry_equiv_pos_as_xyz
  1  'x, y, z'
loop_
 _atom_site_type_symbol
 _atom_site_label
 _atom_site_symmetry_multiplicity
 _atom_site_fract_x
 _atom_site_fract_y
 _atom_site_fract_z
 _atom_site_occupancy
  V  V0  1  0.972689  0.003385  0.042842  1
  V  V1  1  0.972689  0.496615  0.542842  1
  V  V2  1  0.027311  0.503385  0.042842  1
  V  V3  1  0.027311  0.996615  0.542842  1
  O  O4  1  0.131710  0.023188  0.716216  1
  O  O5  1  0.131710  0.476812  0.216216  1
  O  O6  1  0.868290  0.523188  0.716216  1
  O  O7  1  0.868290  0.976812  0.216216  1
  F  F8  1  0.274246  0.044587  0.411819  1
  F  F9  1  0.280609  0.092133  0.055430  1
  F  F10  1  0.880383  0.234626  0.508356  1
  F  F11  1  0.880383  0.265374  0.008356  1
  F  F12  1  0.280609  0.407867  0.555430  1
  F  F13  1  0.274246  0.455413  0.911819  1
  F  F14  1  0.725754  0.544587  0.411819  1
  F  F15  1  0.719391  0.592133  0.055430  1
  F  F16  1  0.119617  0.734626  0.508356  1
  F  F17  1  0.119617  0.765374  0.008356  1
  F  F18  1  0.719391  0.907867  0.555430  1
  F  F19  1  0.725754  0.955413  0.911819  1
