# generated using pymatgen
data_Li2MnFe(BO3)2
_symmetry_space_group_name_H-M   'P 1'
_cell_length_a   5.23877272
_cell_length_b   5.24546673
_cell_length_c   10.44061609
_cell_angle_alpha   91.37640053
_cell_angle_beta   89.66508877
_cell_angle_gamma   119.75202461
_symmetry_Int_Tables_number   1
_chemical_formula_structural   Li2MnFe(BO3)2
_chemical_formula_sum   'Li4 Mn2 Fe2 B4 O12'
_cell_volume   249.00855854
_cell_formula_units_Z   2
loop_
 _symmetry_equiv_pos_site_id
 _symmetry_equiv_pos_as_xyz
  1  'x, y, z'
loop_
 _atom_site_type_symbol
 _atom_site_label
 _atom_site_symmetry_multiplicity
 _atom_site_fract_x
 _atom_site_fract_y
 _atom_site_fract_z
 _atom_site_occupancy
  Li  Li0  1  0.025818  0.677796  0.667574  1
  Li  Li1  1  0.974677  0.653500  0.167525  1
  Li  Li2  1  0.011142  0.346339  0.416670  1
  Li  Li3  1  0.989139  0.337515  0.917333  1
  Mn  Mn4  1  0.666783  0.672868  0.881689  1
  Mn  Mn5  1  0.321614  0.322156  0.134992  1
  Fe  Fe6  1  0.685068  0.006225  0.630821  1
  Fe  Fe7  1  0.326271  0.997555  0.385319  1
  B  B8  1  0.655439  0.995921  0.127281  1
  B  B9  1  0.663691  0.669923  0.378012  1
  B  B10  1  0.340669  0.336640  0.624311  1
  B  B11  1  0.339957  0.006862  0.874021  1
  O  O12  1  0.677195  0.932114  0.416026  1
  O  O13  1  0.675619  0.745171  0.096448  1
  O  O14  1  0.389425  0.966467  0.168610  1
  O  O15  1  0.392859  0.418876  0.349609  1
  O  O16  1  0.089625  0.732714  0.860120  1
  O  O17  1  0.919339  0.654320  0.364423  1
  O  O18  1  0.087470  0.356869  0.611750  1
  O  O19  1  0.901532  0.271419  0.112615  1
  O  O20  1  0.605094  0.583106  0.662104  1
  O  O21  1  0.614354  0.038404  0.842838  1
  O  O22  1  0.319057  0.249218  0.917103  1
  O  O23  1  0.328162  0.068620  0.596604  1
