# generated using pymatgen
data_H15RhBr3N5
_symmetry_space_group_name_H-M   'P 1'
_cell_length_a   7.11763240
_cell_length_b   11.09600036
_cell_length_c   14.10139643
_cell_angle_alpha   90.00000000
_cell_angle_beta   90.00000000
_cell_angle_gamma   90.00000000
_symmetry_Int_Tables_number   1
_chemical_formula_structural   H15RhBr3N5
_chemical_formula_sum   'H60 Rh4 Br12 N20'
_cell_volume   1113.68953479
_cell_formula_units_Z   4
loop_
 _symmetry_equiv_pos_site_id
 _symmetry_equiv_pos_as_xyz
  1  'x, y, z'
loop_
 _atom_site_type_symbol
 _atom_site_label
 _atom_site_symmetry_multiplicity
 _atom_site_fract_x
 _atom_site_fract_y
 _atom_site_fract_z
 _atom_site_occupancy
  H  H0  1  0.908861  0.974122  0.153543  1
  H  H1  1  0.591139  0.525878  0.653543  1
  H  H2  1  0.091139  0.474122  0.846457  1
  H  H3  1  0.408861  0.025878  0.346457  1
  H  H4  1  0.091139  0.025878  0.846457  1
  H  H5  1  0.408861  0.474122  0.346457  1
  H  H6  1  0.908861  0.525878  0.153543  1
  H  H7  1  0.591139  0.974122  0.653543  1
  H  H8  1  0.867388  0.969925  0.037215  1
  H  H9  1  0.632612  0.530075  0.537215  1
  H  H10  1  0.132612  0.469925  0.962785  1
  H  H11  1  0.367388  0.030075  0.462785  1
  H  H12  1  0.132612  0.030075  0.962785  1
  H  H13  1  0.367388  0.469925  0.462785  1
  H  H14  1  0.867388  0.530075  0.037215  1
  H  H15  1  0.632612  0.969925  0.537215  1
  H  H16  1  0.690141  0.971832  0.113845  1
  H  H17  1  0.809859  0.528168  0.613845  1
  H  H18  1  0.309859  0.471832  0.886155  1
  H  H19  1  0.190141  0.028168  0.386155  1
  H  H20  1  0.309859  0.028168  0.886155  1
  H  H21  1  0.190141  0.471832  0.386155  1
  H  H22  1  0.690141  0.528168  0.113845  1
  H  H23  1  0.809859  0.971832  0.613845  1
  H  H24  1  0.006728  0.750000  0.267456  1
  H  H25  1  0.493272  0.750000  0.767456  1
  H  H26  1  0.993272  0.250000  0.732544  1
  H  H27  1  0.506728  0.250000  0.232544  1
  H  H28  1  0.134265  0.825426  0.188713  1
  H  H29  1  0.365735  0.674574  0.688713  1
  H  H30  1  0.865735  0.325426  0.811287  1
  H  H31  1  0.634265  0.174574  0.311287  1
  H  H32  1  0.865735  0.174574  0.811287  1
  H  H33  1  0.634265  0.325426  0.311287  1
  H  H34  1  0.134265  0.674574  0.188713  1
  H  H35  1  0.365735  0.825426  0.688713  1
  H  H36  1  0.471745  0.750000  0.044476  1
  H  H37  1  0.028255  0.750000  0.544476  1
  H  H38  1  0.528255  0.250000  0.955524  1
  H  H39  1  0.971745  0.250000  0.455524  1
  H  H40  1  0.602483  0.674449  0.967288  1
  H  H41  1  0.897517  0.825551  0.467288  1
  H  H42  1  0.397517  0.174449  0.032712  1
  H  H43  1  0.102483  0.325551  0.532712  1
  H  H44  1  0.397517  0.325551  0.032712  1
  H  H45  1  0.102483  0.174449  0.532712  1
  H  H46  1  0.602483  0.825551  0.967288  1
  H  H47  1  0.897517  0.674449  0.467288  1
  H  H48  1  0.702038  0.750000  0.281317  1
  H  H49  1  0.797962  0.750000  0.781317  1
  H  H50  1  0.297962  0.250000  0.718683  1
  H  H51  1  0.202038  0.250000  0.218683  1
  H  H52  1  0.552698  0.674290  0.214752  1
  H  H53  1  0.947302  0.825710  0.714752  1
  H  H54  1  0.447302  0.174290  0.785248  1
  H  H55  1  0.052698  0.325710  0.285248  1
  H  H56  1  0.447302  0.325710  0.785248  1
  H  H57  1  0.052698  0.174290  0.285248  1
  H  H58  1  0.552698  0.825710  0.214752  1
  H  H59  1  0.947302  0.674290  0.714752  1
  Rh  Rh60  1  0.826489  0.750000  0.103134  1
  Rh  Rh61  1  0.673511  0.750000  0.603134  1
  Rh  Rh62  1  0.173511  0.250000  0.896866  1
  Rh  Rh63  1  0.326489  0.250000  0.396866  1
  Br  Br64  1  0.056599  0.750000  0.965995  1
  Br  Br65  1  0.443401  0.750000  0.465995  1
  Br  Br66  1  0.943401  0.250000  0.034005  1
  Br  Br67  1  0.556599  0.250000  0.534005  1
  Br  Br68  1  0.152405  0.498702  0.648174  1
  Br  Br69  1  0.347595  0.001298  0.148174  1
  Br  Br70  1  0.847595  0.998702  0.351826  1
  Br  Br71  1  0.652405  0.501298  0.851826  1
  Br  Br72  1  0.847595  0.501298  0.351826  1
  Br  Br73  1  0.652405  0.998702  0.851826  1
  Br  Br74  1  0.152405  0.001298  0.648174  1
  Br  Br75  1  0.347595  0.498702  0.148174  1
  N  N76  1  0.637085  0.750000  0.216551  1
  N  N77  1  0.862915  0.750000  0.716551  1
  N  N78  1  0.362915  0.250000  0.783449  1
  N  N79  1  0.137085  0.250000  0.283449  1
  N  N80  1  0.051193  0.750000  0.198502  1
  N  N81  1  0.448807  0.750000  0.698502  1
  N  N82  1  0.948807  0.250000  0.801498  1
  N  N83  1  0.551193  0.250000  0.301498  1
  N  N84  1  0.598645  0.750000  0.010004  1
  N  N85  1  0.901355  0.750000  0.510004  1
  N  N86  1  0.401355  0.250000  0.989996  1
  N  N87  1  0.098645  0.250000  0.489996  1
  N  N88  1  0.823356  0.938378  0.102167  1
  N  N89  1  0.676644  0.561622  0.602167  1
  N  N90  1  0.176644  0.438378  0.897833  1
  N  N91  1  0.323356  0.061622  0.397833  1
  N  N92  1  0.176644  0.061622  0.897833  1
  N  N93  1  0.323356  0.438378  0.397833  1
  N  N94  1  0.823356  0.561622  0.102167  1
  N  N95  1  0.676644  0.938378  0.602167  1
