# generated using pymatgen
data_BaSi2
_symmetry_space_group_name_H-M   'P 1'
_cell_length_a   6.77143949
_cell_length_b   6.77143949
_cell_length_c   6.77143949
_cell_angle_alpha   90.00000000
_cell_angle_beta   90.00000000
_cell_angle_gamma   90.00000000
_symmetry_Int_Tables_number   1
_chemical_formula_structural   BaSi2
_chemical_formula_sum   'Ba4 Si8'
_cell_volume   310.48670309
_cell_formula_units_Z   4
loop_
 _symmetry_equiv_pos_site_id
 _symmetry_equiv_pos_as_xyz
  1  'x, y, z'
loop_
 _atom_site_type_symbol
 _atom_site_label
 _atom_site_symmetry_multiplicity
 _atom_site_fract_x
 _atom_site_fract_y
 _atom_site_fract_z
 _atom_site_occupancy
  Ba  Ba0  1  0.625000  0.375000  0.875000  1
  Ba  Ba1  1  0.375000  0.875000  0.625000  1
  Ba  Ba2  1  0.875000  0.625000  0.375000  1
  Ba  Ba3  1  0.125000  0.125000  0.125000  1
  Si  Si4  1  0.831912  0.831912  0.831912  1
  Si  Si5  1  0.581912  0.918088  0.081912  1
  Si  Si6  1  0.918088  0.081912  0.581912  1
  Si  Si7  1  0.081912  0.581912  0.918088  1
  Si  Si8  1  0.418088  0.418088  0.418088  1
  Si  Si9  1  0.168088  0.331912  0.668088  1
  Si  Si10  1  0.668088  0.168088  0.331912  1
  Si  Si11  1  0.331912  0.668088  0.168088  1
