# generated using pymatgen
data_B2TeO5
_symmetry_space_group_name_H-M   'P 1'
_cell_length_a   7.22592018
_cell_length_b   7.22592018
_cell_length_c   9.71870790
_cell_angle_alpha   74.66780737
_cell_angle_beta   105.33219263
_cell_angle_gamma   90.65070783
_symmetry_Int_Tables_number   1
_chemical_formula_structural   B2TeO5
_chemical_formula_sum   'B8 Te4 O20'
_cell_volume   471.03684200
_cell_formula_units_Z   4
loop_
 _symmetry_equiv_pos_site_id
 _symmetry_equiv_pos_as_xyz
  1  'x, y, z'
loop_
 _atom_site_type_symbol
 _atom_site_label
 _atom_site_symmetry_multiplicity
 _atom_site_fract_x
 _atom_site_fract_y
 _atom_site_fract_z
 _atom_site_occupancy
  B  B0  1  0.371388  0.139730  0.130953  1
  B  B1  1  0.254409  0.897526  0.995634  1
  B  B2  1  0.860270  0.628612  0.630953  1
  B  B3  1  0.102474  0.745591  0.495634  1
  B  B4  1  0.897526  0.254409  0.504366  1
  B  B5  1  0.139730  0.371388  0.369047  1
  B  B6  1  0.745591  0.102474  0.004366  1
  B  B7  1  0.628612  0.860270  0.869047  1
  Te  Te8  1  0.381009  0.729650  0.326500  1
  Te  Te9  1  0.270350  0.618991  0.826500  1
  Te  Te10  1  0.729650  0.381009  0.173500  1
  Te  Te11  1  0.618991  0.270350  0.673500  1
  O  O12  1  0.444242  0.319062  0.110251  1
  O  O13  1  0.395316  0.018732  0.268532  1
  O  O14  1  0.680938  0.555758  0.610251  1
  O  O15  1  0.272502  0.736304  0.116361  1
  O  O16  1  0.785252  0.132753  0.143833  1
  O  O17  1  0.981268  0.604684  0.768532  1
  O  O18  1  0.916208  0.720691  0.502333  1
  O  O19  1  0.720691  0.916208  0.997667  1
  O  O20  1  0.263696  0.727498  0.616361  1
  O  O21  1  0.867247  0.214748  0.643833  1
  O  O22  1  0.132753  0.785252  0.356167  1
  O  O23  1  0.736304  0.272502  0.383639  1
  O  O24  1  0.279309  0.083792  0.002333  1
  O  O25  1  0.083792  0.279309  0.497667  1
  O  O26  1  0.018732  0.395316  0.231468  1
  O  O27  1  0.214748  0.867247  0.856167  1
  O  O28  1  0.727498  0.263696  0.883639  1
  O  O29  1  0.319062  0.444242  0.389749  1
  O  O30  1  0.604684  0.981268  0.731468  1
  O  O31  1  0.555758  0.680938  0.889749  1
