# generated using pymatgen
data_Li3Fe3TeO8
_symmetry_space_group_name_H-M   'P 1'
_cell_length_a   6.08894360
_cell_length_b   6.08894360
_cell_length_c   6.10394778
_cell_angle_alpha   61.30570906
_cell_angle_beta   118.69429094
_cell_angle_gamma   119.56042739
_symmetry_Int_Tables_number   1
_chemical_formula_structural   Li3Fe3TeO8
_chemical_formula_sum   'Li3 Fe3 Te1 O8'
_cell_volume   163.66327265
_cell_formula_units_Z   1
loop_
 _symmetry_equiv_pos_site_id
 _symmetry_equiv_pos_as_xyz
  1  'x, y, z'
loop_
 _atom_site_type_symbol
 _atom_site_label
 _atom_site_symmetry_multiplicity
 _atom_site_fract_x
 _atom_site_fract_y
 _atom_site_fract_z
 _atom_site_occupancy
  Li  Li0  1  0.000000  0.500000  0.500000  1
  Li  Li1  1  0.500000  0.000000  0.500000  1
  Li  Li2  1  0.000000  0.000000  0.000000  1
  Fe  Fe3  1  0.500000  0.000000  0.000000  1
  Fe  Fe4  1  0.000000  0.500000  0.000000  1
  Fe  Fe5  1  0.500000  0.500000  0.500000  1
  Te  Te6  1  0.000000  0.000000  0.500000  1
  O  O7  1  0.728884  0.271116  0.746565  1
  O  O8  1  0.234831  0.228086  0.279649  1
  O  O9  1  0.771914  0.765169  0.279649  1
  O  O10  1  0.271116  0.728884  0.253435  1
  O  O11  1  0.221842  0.778158  0.719782  1
  O  O12  1  0.765169  0.771914  0.720351  1
  O  O13  1  0.228086  0.234831  0.720351  1
  O  O14  1  0.778158  0.221842  0.280218  1
