# generated using pymatgen
data_Li2MnO2F
_symmetry_space_group_name_H-M   'P 1'
_cell_length_a   5.16412828
_cell_length_b   5.16412828
_cell_length_c   9.83002053
_cell_angle_alpha   85.23482235
_cell_angle_beta   94.76517765
_cell_angle_gamma   60.34415640
_symmetry_Int_Tables_number   1
_chemical_formula_structural   Li2MnO2F
_chemical_formula_sum   'Li8 Mn4 O8 F4'
_cell_volume   224.67769077
_cell_formula_units_Z   4
loop_
 _symmetry_equiv_pos_site_id
 _symmetry_equiv_pos_as_xyz
  1  'x, y, z'
loop_
 _atom_site_type_symbol
 _atom_site_label
 _atom_site_symmetry_multiplicity
 _atom_site_fract_x
 _atom_site_fract_y
 _atom_site_fract_z
 _atom_site_occupancy
  Li  Li0  1  0.000000  0.500000  0.500000  1
  Li  Li1  1  0.358433  0.832975  0.495171  1
  Li  Li2  1  0.641567  0.167025  0.504829  1
  Li  Li3  1  0.737142  0.737142  0.750000  1
  Li  Li4  1  0.500000  0.000000  0.000000  1
  Li  Li5  1  0.832975  0.358433  0.004829  1
  Li  Li6  1  0.167025  0.641567  0.995171  1
  Li  Li7  1  0.262857  0.262857  0.250000  1
  Mn  Mn8  1  0.415067  0.415067  0.750000  1
  Mn  Mn9  1  0.091860  0.091860  0.750000  1
  Mn  Mn10  1  0.908140  0.908140  0.250000  1
  Mn  Mn11  1  0.584933  0.584933  0.250000  1
  O  O12  1  0.278284  0.579741  0.355372  1
  O  O13  1  0.369776  0.149083  0.632138  1
  O  O14  1  0.420259  0.721716  0.855372  1
  O  O15  1  0.850917  0.630224  0.132138  1
  O  O16  1  0.630224  0.850917  0.367862  1
  O  O17  1  0.721716  0.420259  0.644628  1
  O  O18  1  0.149083  0.369776  0.867862  1
  O  O19  1  0.579741  0.278284  0.144628  1
  F  F20  1  0.976472  0.192700  0.384757  1
  F  F21  1  0.807300  0.023528  0.884757  1
  F  F22  1  0.023528  0.807300  0.615243  1
  F  F23  1  0.192700  0.976472  0.115243  1
