# generated using pymatgen
data_YUO4
_symmetry_space_group_name_H-M   'P 1'
_cell_length_a   6.55949123
_cell_length_b   6.55949123
_cell_length_c   6.55949123
_cell_angle_alpha   131.69788696
_cell_angle_beta   131.69788696
_cell_angle_gamma   70.70660214
_symmetry_Int_Tables_number   1
_chemical_formula_structural   YUO4
_chemical_formula_sum   'Y2 U2 O8'
_cell_volume   154.13430070
_cell_formula_units_Z   2
loop_
 _symmetry_equiv_pos_site_id
 _symmetry_equiv_pos_as_xyz
  1  'x, y, z'
loop_
 _atom_site_type_symbol
 _atom_site_label
 _atom_site_symmetry_multiplicity
 _atom_site_fract_x
 _atom_site_fract_y
 _atom_site_fract_z
 _atom_site_occupancy
  Y  Y0  1  0.750000  0.250000  0.500000  1
  Y  Y1  1  0.000000  0.000000  0.000000  1
  U  U2  1  0.250000  0.750000  0.500000  1
  U  U3  1  0.500000  0.500000  0.000000  1
  O  O4  1  0.612386  0.625000  0.487386  1
  O  O5  1  0.137614  0.125000  0.512614  1
  O  O6  1  0.612386  0.125000  0.987386  1
  O  O7  1  0.137614  0.625000  0.012614  1
  O  O8  1  0.375000  0.862386  0.987386  1
  O  O9  1  0.875000  0.387614  0.012614  1
  O  O10  1  0.375000  0.387614  0.512614  1
  O  O11  1  0.875000  0.862386  0.487386  1
