# generated using pymatgen
data_Li2V3CrO8
_symmetry_space_group_name_H-M   'P 1'
_cell_length_a   5.26849074
_cell_length_b   5.90651592
_cell_length_c   10.68784453
_cell_angle_alpha   98.74957907
_cell_angle_beta   102.22087224
_cell_angle_gamma   107.19691940
_symmetry_Int_Tables_number   1
_chemical_formula_structural   Li2V3CrO8
_chemical_formula_sum   'Li4 V6 Cr2 O16'
_cell_volume   302.19844604
_cell_formula_units_Z   2
loop_
 _symmetry_equiv_pos_site_id
 _symmetry_equiv_pos_as_xyz
  1  'x, y, z'
loop_
 _atom_site_type_symbol
 _atom_site_label
 _atom_site_symmetry_multiplicity
 _atom_site_fract_x
 _atom_site_fract_y
 _atom_site_fract_z
 _atom_site_occupancy
  Li  Li0  1  0.996155  0.248177  0.000987  1
  Li  Li1  1  0.500000  0.000000  0.500000  1
  Li  Li2  1  0.003845  0.751823  0.999013  1
  Li  Li3  1  0.500000  0.500000  0.500000  1
  V  V4  1  0.391536  0.065950  0.871915  1
  V  V5  1  0.600142  0.431880  0.129312  1
  V  V6  1  0.896695  0.819714  0.369099  1
  V  V7  1  0.103305  0.180286  0.630901  1
  V  V8  1  0.399858  0.568120  0.870688  1
  V  V9  1  0.608464  0.934050  0.128085  1
  Cr  Cr10  1  0.890503  0.316510  0.374155  1
  Cr  Cr11  1  0.109497  0.683490  0.625845  1
  O  O12  1  0.165414  0.657955  0.444646  1
  O  O13  1  0.382914  0.024644  0.684695  1
  O  O14  1  0.664026  0.390883  0.943803  1
  O  O15  1  0.883912  0.774279  0.182209  1
  O  O16  1  0.158664  0.139970  0.442043  1
  O  O17  1  0.370581  0.500887  0.675482  1
  O  O18  1  0.670784  0.910642  0.945590  1
  O  O19  1  0.871440  0.255037  0.178777  1
  O  O20  1  0.629419  0.499113  0.324518  1
  O  O21  1  0.841336  0.860030  0.557957  1
  O  O22  1  0.116088  0.225721  0.817791  1
  O  O23  1  0.335974  0.609117  0.056197  1
  O  O24  1  0.617086  0.975356  0.315305  1
  O  O25  1  0.834586  0.342045  0.555354  1
  O  O26  1  0.128560  0.744963  0.821223  1
  O  O27  1  0.329216  0.089358  0.054410  1
