# generated using pymatgen
data_Li2(FeO2)3
_symmetry_space_group_name_H-M   'P 1'
_cell_length_a   9.69492067
_cell_length_b   9.04771234
_cell_length_c   5.34408046
_cell_angle_alpha   80.21865695
_cell_angle_beta   66.87879631
_cell_angle_gamma   32.90254674
_symmetry_Int_Tables_number   1
_chemical_formula_structural   Li2(FeO2)3
_chemical_formula_sum   'Li4 Fe6 O12'
_cell_volume   221.88159561
_cell_formula_units_Z   2
loop_
 _symmetry_equiv_pos_site_id
 _symmetry_equiv_pos_as_xyz
  1  'x, y, z'
loop_
 _atom_site_type_symbol
 _atom_site_label
 _atom_site_symmetry_multiplicity
 _atom_site_fract_x
 _atom_site_fract_y
 _atom_site_fract_z
 _atom_site_occupancy
  Li  Li0  1  0.580289  0.580289  0.919711  1
  Li  Li1  1  0.919711  0.919711  0.580289  1
  Li  Li2  1  0.330289  0.330289  0.669711  1
  Li  Li3  1  0.669711  0.669711  0.330289  1
  Fe  Fe4  1  0.086653  0.086653  0.413347  1
  Fe  Fe5  1  0.500000  0.500000  0.500000  1
  Fe  Fe6  1  0.413347  0.413347  0.086653  1
  Fe  Fe7  1  0.836653  0.836653  0.163347  1
  Fe  Fe8  1  0.750000  0.750000  0.750000  1
  Fe  Fe9  1  0.163347  0.163347  0.836653  1
  O  O10  1  0.852431  0.320968  0.198320  1
  O  O11  1  0.320968  0.852431  0.628281  1
  O  O12  1  0.282633  0.717367  0.282633  1
  O  O13  1  0.198320  0.628281  0.852431  1
  O  O14  1  0.717367  0.282633  0.717367  1
  O  O15  1  0.628281  0.198320  0.320968  1
  O  O16  1  0.051680  0.621719  0.397569  1
  O  O17  1  0.621719  0.051680  0.929032  1
  O  O18  1  0.967367  0.532633  0.967367  1
  O  O19  1  0.532633  0.967367  0.532633  1
  O  O20  1  0.929032  0.397569  0.621719  1
  O  O21  1  0.397569  0.929032  0.051680  1
