# generated using pymatgen
data_Li2VOF4
_symmetry_space_group_name_H-M   'P 1'
_cell_length_a   5.44813993
_cell_length_b   7.20342132
_cell_length_c   9.60725539
_cell_angle_alpha   90.00000000
_cell_angle_beta   90.00000000
_cell_angle_gamma   90.00000000
_symmetry_Int_Tables_number   1
_chemical_formula_structural   Li2VOF4
_chemical_formula_sum   'Li8 V4 O4 F16'
_cell_volume   377.03911391
_cell_formula_units_Z   4
loop_
 _symmetry_equiv_pos_site_id
 _symmetry_equiv_pos_as_xyz
  1  'x, y, z'
loop_
 _atom_site_type_symbol
 _atom_site_label
 _atom_site_symmetry_multiplicity
 _atom_site_fract_x
 _atom_site_fract_y
 _atom_site_fract_z
 _atom_site_occupancy
  Li  Li0  1  0.999485  0.798531  0.719621  1
  Li  Li1  1  0.534187  0.625197  0.571776  1
  Li  Li2  1  0.965813  0.374803  0.071776  1
  Li  Li3  1  0.500515  0.201469  0.219621  1
  Li  Li4  1  0.000515  0.298531  0.780379  1
  Li  Li5  1  0.465813  0.125197  0.928224  1
  Li  Li6  1  0.034187  0.874803  0.428224  1
  Li  Li7  1  0.499485  0.701469  0.280379  1
  V  V8  1  0.472832  0.551647  0.947660  1
  V  V9  1  0.027168  0.448353  0.447660  1
  V  V10  1  0.527168  0.051647  0.552340  1
  V  V11  1  0.972832  0.948353  0.052340  1
  O  O12  1  0.253364  0.600122  0.421117  1
  O  O13  1  0.246636  0.399878  0.921117  1
  O  O14  1  0.746636  0.100122  0.078883  1
  O  O15  1  0.753364  0.899878  0.578883  1
  F  F16  1  0.772827  0.734175  0.997823  1
  F  F17  1  0.272827  0.765825  0.002177  1
  F  F18  1  0.506204  0.648055  0.764538  1
  F  F19  1  0.749455  0.610341  0.410690  1
  F  F20  1  0.985738  0.511295  0.648150  1
  F  F21  1  0.514262  0.488705  0.148150  1
  F  F22  1  0.750545  0.389659  0.910690  1
  F  F23  1  0.993796  0.351945  0.264539  1
  F  F24  1  0.727173  0.265825  0.497823  1
  F  F25  1  0.227173  0.234175  0.502177  1
  F  F26  1  0.493796  0.148055  0.735462  1
  F  F27  1  0.250545  0.110341  0.089310  1
  F  F28  1  0.014262  0.011295  0.851850  1
  F  F29  1  0.485738  0.988705  0.351850  1
  F  F30  1  0.249455  0.889659  0.589310  1
  F  F31  1  0.006204  0.851945  0.235462  1
