# generated using pymatgen
data_H7SIO10
_symmetry_space_group_name_H-M   'P 1'
_cell_length_a   5.79662526
_cell_length_b   6.02867262
_cell_length_c   12.39203754
_cell_angle_alpha   86.83824744
_cell_angle_beta   86.33139619
_cell_angle_gamma   73.65553135
_symmetry_Int_Tables_number   1
_chemical_formula_structural   H7SIO10
_chemical_formula_sum   'H14 S2 I2 O20'
_cell_volume   414.38707130
_cell_formula_units_Z   2
loop_
 _symmetry_equiv_pos_site_id
 _symmetry_equiv_pos_as_xyz
  1  'x, y, z'
loop_
 _atom_site_type_symbol
 _atom_site_label
 _atom_site_symmetry_multiplicity
 _atom_site_fract_x
 _atom_site_fract_y
 _atom_site_fract_z
 _atom_site_occupancy
  H  H0  1  0.052012  0.247808  0.141336  1
  H  H1  1  0.039631  0.302928  0.366726  1
  H  H2  1  0.137527  0.184437  0.644440  1
  H  H3  1  0.268879  0.683400  0.100472  1
  H  H4  1  0.348789  0.054513  0.891803  1
  H  H5  1  0.505273  0.317662  0.350994  1
  H  H6  1  0.422567  0.785888  0.451187  1
  H  H7  1  0.577433  0.214112  0.548813  1
  H  H8  1  0.494727  0.682338  0.649006  1
  H  H9  1  0.651211  0.945487  0.108197  1
  H  H10  1  0.731121  0.316600  0.899528  1
  H  H11  1  0.862473  0.815563  0.355560  1
  H  H12  1  0.960369  0.697072  0.633274  1
  H  H13  1  0.947988  0.752192  0.858664  1
  S  S14  1  0.360728  0.433554  0.743934  1
  S  S15  1  0.639272  0.566446  0.256066  1
  I  I16  1  0.000000  0.000000  0.000000  1
  I  I17  1  0.000000  0.000000  0.500000  1
  O  O18  1  0.167770  0.135088  0.093448  1
  O  O19  1  0.131389  0.233494  0.432908  1
  O  O20  1  0.006573  0.878046  0.361848  1
  O  O21  1  0.105560  0.703962  0.073160  1
  O  O22  1  0.117383  0.596627  0.746016  1
  O  O23  1  0.384086  0.263538  0.658152  1
  O  O24  1  0.451166  0.423858  0.287813  1
  O  O25  1  0.323605  0.810855  0.522016  1
  O  O26  1  0.436492  0.324554  0.848174  1
  O  O27  1  0.286870  0.917327  0.908685  1
  O  O28  1  0.713130  0.082673  0.091315  1
  O  O29  1  0.563508  0.675446  0.151826  1
  O  O30  1  0.676395  0.189145  0.477984  1
  O  O31  1  0.548834  0.576142  0.712187  1
  O  O32  1  0.615914  0.736462  0.341848  1
  O  O33  1  0.882617  0.403373  0.253984  1
  O  O34  1  0.894440  0.296038  0.926840  1
  O  O35  1  0.993427  0.121954  0.638152  1
  O  O36  1  0.868611  0.766506  0.567092  1
  O  O37  1  0.832230  0.864912  0.906552  1
