# generated using pymatgen
data_Li2VP4(H2O3)6
_symmetry_space_group_name_H-M   'P 1'
_cell_length_a   8.14121457
_cell_length_b   11.54307082
_cell_length_c   8.96567721
_cell_angle_alpha   90.00000000
_cell_angle_beta   115.52764165
_cell_angle_gamma   90.00000000
_symmetry_Int_Tables_number   1
_chemical_formula_structural   Li2VP4(H2O3)6
_chemical_formula_sum   'Li4 V2 P8 H24 O36'
_cell_volume   760.29460863
_cell_formula_units_Z   2
loop_
 _symmetry_equiv_pos_site_id
 _symmetry_equiv_pos_as_xyz
  1  'x, y, z'
loop_
 _atom_site_type_symbol
 _atom_site_label
 _atom_site_symmetry_multiplicity
 _atom_site_fract_x
 _atom_site_fract_y
 _atom_site_fract_z
 _atom_site_occupancy
  Li  Li0  1  0.023912  0.750000  0.575146  1
  Li  Li1  1  0.249665  0.250000  0.908778  1
  Li  Li2  1  0.750335  0.750000  0.091222  1
  Li  Li3  1  0.976088  0.250000  0.424854  1
  V  V4  1  0.471594  0.750000  0.739208  1
  V  V5  1  0.528406  0.250000  0.260792  1
  P  P6  1  0.287864  0.486801  0.643354  1
  P  P7  1  0.287864  0.013199  0.643354  1
  P  P8  1  0.305038  0.500400  0.161648  1
  P  P9  1  0.305038  0.999600  0.161648  1
  P  P10  1  0.694962  0.000400  0.838352  1
  P  P11  1  0.694962  0.499600  0.838352  1
  P  P12  1  0.712136  0.986801  0.356646  1
  P  P13  1  0.712136  0.513199  0.356646  1
  H  H14  1  0.059656  0.817248  0.865912  1
  H  H15  1  0.059656  0.682752  0.865912  1
  H  H16  1  0.250942  0.490752  0.872973  1
  H  H17  1  0.250942  0.009248  0.872973  1
  H  H18  1  0.394323  0.818318  0.995302  1
  H  H19  1  0.394323  0.681682  0.995302  1
  H  H20  1  0.084547  0.817896  0.281821  1
  H  H21  1  0.084547  0.682104  0.281821  1
  H  H22  1  0.175752  0.482788  0.335614  1
  H  H23  1  0.175752  0.017212  0.335614  1
  H  H24  1  0.415880  0.183421  0.495394  1
  H  H25  1  0.415880  0.316579  0.495394  1
  H  H26  1  0.584120  0.816579  0.504606  1
  H  H27  1  0.584120  0.683421  0.504606  1
  H  H28  1  0.824248  0.982788  0.664386  1
  H  H29  1  0.824248  0.517212  0.664386  1
  H  H30  1  0.915453  0.317896  0.718179  1
  H  H31  1  0.915453  0.182104  0.718179  1
  H  H32  1  0.605677  0.318318  0.004698  1
  H  H33  1  0.605677  0.181682  0.004698  1
  H  H34  1  0.749058  0.990752  0.127027  1
  H  H35  1  0.749058  0.509248  0.127027  1
  H  H36  1  0.940344  0.317248  0.134088  1
  H  H37  1  0.940344  0.182752  0.134088  1
  O  O38  1  0.248390  0.431386  0.785420  1
  O  O39  1  0.248390  0.068614  0.785420  1
  O  O40  1  0.011735  0.750000  0.281904  1
  O  O41  1  0.980503  0.250000  0.207561  1
  O  O42  1  0.190465  0.416055  0.486522  1
  O  O43  1  0.190465  0.083945  0.486522  1
  O  O44  1  0.262012  0.883105  0.634077  1
  O  O45  1  0.262012  0.616895  0.634077  1
  O  O46  1  0.461145  0.750000  0.980323  1
  O  O47  1  0.167922  0.533002  0.235913  1
  O  O48  1  0.167922  0.966998  0.235913  1
  O  O49  1  0.501967  0.458162  0.693361  1
  O  O50  1  0.501967  0.041838  0.693361  1
  O  O51  1  0.261204  0.925554  0.008423  1
  O  O52  1  0.261204  0.574446  0.008423  1
  O  O53  1  0.314233  0.372000  0.133281  1
  O  O54  1  0.314233  0.128000  0.133281  1
  O  O55  1  0.484906  0.250000  0.484736  1
  O  O56  1  0.515094  0.750000  0.515264  1
  O  O57  1  0.685767  0.628000  0.866719  1
  O  O58  1  0.685767  0.872000  0.866719  1
  O  O59  1  0.738796  0.425554  0.991577  1
  O  O60  1  0.738796  0.074446  0.991577  1
  O  O61  1  0.498033  0.958162  0.306639  1
  O  O62  1  0.498033  0.541838  0.306639  1
  O  O63  1  0.832078  0.466998  0.764087  1
  O  O64  1  0.832078  0.033002  0.764087  1
  O  O65  1  0.538855  0.250000  0.019677  1
  O  O66  1  0.737988  0.116895  0.365923  1
  O  O67  1  0.737988  0.383105  0.365923  1
  O  O68  1  0.809535  0.916055  0.513478  1
  O  O69  1  0.809535  0.583945  0.513478  1
  O  O70  1  0.019497  0.750000  0.792439  1
  O  O71  1  0.988265  0.250000  0.718096  1
  O  O72  1  0.751610  0.931386  0.214580  1
  O  O73  1  0.751610  0.568614  0.214580  1
