# generated using pymatgen
data_Zr3N4
_symmetry_space_group_name_H-M   'P 1'
_cell_length_a   8.72483665
_cell_length_b   8.72483665
_cell_length_c   8.72483665
_cell_angle_alpha   22.90867365
_cell_angle_beta   22.90867365
_cell_angle_gamma   22.90867365
_symmetry_Int_Tables_number   1
_chemical_formula_structural   Zr3N4
_chemical_formula_sum   'Zr3 N4'
_cell_volume   88.31499692
_cell_formula_units_Z   1
loop_
 _symmetry_equiv_pos_site_id
 _symmetry_equiv_pos_as_xyz
  1  'x, y, z'
loop_
 _atom_site_type_symbol
 _atom_site_label
 _atom_site_symmetry_multiplicity
 _atom_site_fract_x
 _atom_site_fract_y
 _atom_site_fract_z
 _atom_site_occupancy
  Zr  Zr0  1  0.222296  0.222296  0.222296  1
  Zr  Zr1  1  0.777704  0.777704  0.777704  1
  Zr  Zr2  1  0.000000  0.000000  0.000000  1
  N  N3  1  0.621742  0.621742  0.621742  1
  N  N4  1  0.867864  0.867864  0.867864  1
  N  N5  1  0.132136  0.132136  0.132136  1
  N  N6  1  0.378258  0.378258  0.378258  1
