# generated using pymatgen
data_Rb2S2O7
_symmetry_space_group_name_H-M   'P 1'
_cell_length_a   7.76993722
_cell_length_b   7.74196071
_cell_length_c   15.29223542
_cell_angle_alpha   90.00000000
_cell_angle_beta   119.95877433
_cell_angle_gamma   90.00000000
_symmetry_Int_Tables_number   1
_chemical_formula_structural   Rb2S2O7
_chemical_formula_sum   'Rb8 S8 O28'
_cell_volume   796.98535913
_cell_formula_units_Z   4
loop_
 _symmetry_equiv_pos_site_id
 _symmetry_equiv_pos_as_xyz
  1  'x, y, z'
loop_
 _atom_site_type_symbol
 _atom_site_label
 _atom_site_symmetry_multiplicity
 _atom_site_fract_x
 _atom_site_fract_y
 _atom_site_fract_z
 _atom_site_occupancy
  Rb  Rb0  1  0.176973  0.225794  0.369348  1
  Rb  Rb1  1  0.702190  0.876914  0.343050  1
  Rb  Rb2  1  0.297810  0.376914  0.156950  1
  Rb  Rb3  1  0.823027  0.725794  0.130652  1
  Rb  Rb4  1  0.176973  0.274206  0.869348  1
  Rb  Rb5  1  0.702190  0.623086  0.843050  1
  Rb  Rb6  1  0.297810  0.123086  0.656950  1
  Rb  Rb7  1  0.823027  0.774206  0.630652  1
  S  S8  1  0.738995  0.326338  0.420535  1
  S  S9  1  0.266907  0.724054  0.387610  1
  S  S10  1  0.733093  0.224054  0.112390  1
  S  S11  1  0.261005  0.826338  0.079465  1
  S  S12  1  0.738995  0.173662  0.920535  1
  S  S13  1  0.266907  0.775946  0.887610  1
  S  S14  1  0.733093  0.275946  0.612390  1
  S  S15  1  0.261005  0.673662  0.579465  1
  O  O16  1  0.265054  0.598370  0.476838  1
  O  O17  1  0.914912  0.216388  0.458460  1
  O  O18  1  0.453188  0.819428  0.436512  1
  O  O19  1  0.748954  0.486657  0.374024  1
  O  O20  1  0.553437  0.230147  0.362331  1
  O  O21  1  0.091053  0.834697  0.348508  1
  O  O22  1  0.253114  0.591809  0.316371  1
  O  O23  1  0.746886  0.091809  0.183629  1
  O  O24  1  0.446563  0.730147  0.137669  1
  O  O25  1  0.251046  0.986657  0.125976  1
  O  O26  1  0.908947  0.334697  0.151492  1
  O  O27  1  0.546812  0.319428  0.063488  1
  O  O28  1  0.085088  0.716388  0.041540  1
  O  O29  1  0.734946  0.098370  0.023162  1
  O  O30  1  0.265054  0.901630  0.976838  1
  O  O31  1  0.914912  0.283612  0.958460  1
  O  O32  1  0.453188  0.680572  0.936512  1
  O  O33  1  0.091053  0.665303  0.848508  1
  O  O34  1  0.748954  0.013343  0.874024  1
  O  O35  1  0.553437  0.269853  0.862331  1
  O  O36  1  0.253114  0.908191  0.816371  1
  O  O37  1  0.746886  0.408191  0.683629  1
  O  O38  1  0.908947  0.165303  0.651492  1
  O  O39  1  0.446563  0.769853  0.637669  1
  O  O40  1  0.251046  0.513343  0.625976  1
  O  O41  1  0.546812  0.180572  0.563488  1
  O  O42  1  0.085088  0.783612  0.541540  1
  O  O43  1  0.734946  0.401630  0.523162  1
