# generated using pymatgen
data_NaMn10O20
_symmetry_space_group_name_H-M   'P 1'
_cell_length_a   10.22204940
_cell_length_b   10.22204940
_cell_length_c   10.22204940
_cell_angle_alpha   99.59279603
_cell_angle_beta   99.59279603
_cell_angle_gamma   131.81368092
_symmetry_Int_Tables_number   1
_chemical_formula_structural   NaMn10O20
_chemical_formula_sum   'Na2 Mn20 O40'
_cell_volume   726.72472146
_cell_formula_units_Z   2
loop_
 _symmetry_equiv_pos_site_id
 _symmetry_equiv_pos_as_xyz
  1  'x, y, z'
loop_
 _atom_site_type_symbol
 _atom_site_label
 _atom_site_symmetry_multiplicity
 _atom_site_fract_x
 _atom_site_fract_y
 _atom_site_fract_z
 _atom_site_occupancy
  Na  Na0  1  0.000000  0.000000  0.000000  1
  Na  Na1  1  0.250000  0.750000  0.500000  1
  Mn  Mn2  1  0.429735  0.278007  0.949611  1
  Mn  Mn3  1  0.328618  0.974837  0.050475  1
  Mn  Mn4  1  0.519876  0.570265  0.848272  1
  Mn  Mn5  1  0.125000  0.875000  0.750000  1
  Mn  Mn6  1  0.528143  0.078618  0.853781  1
  Mn  Mn7  1  0.721857  0.671382  0.646219  1
  Mn  Mn8  1  0.328396  0.480124  0.050389  1
  Mn  Mn9  1  0.924362  0.278143  0.949525  1
  Mn  Mn10  1  0.625000  0.875000  0.750000  1
  Mn  Mn11  1  0.025163  0.075638  0.353781  1
  Mn  Mn12  1  0.921382  0.775163  0.449525  1
  Mn  Mn13  1  0.820265  0.471993  0.550389  1
  Mn  Mn14  1  0.730124  0.179735  0.651728  1
  Mn  Mn15  1  0.325638  0.471857  0.550475  1
  Mn  Mn16  1  0.721993  0.671604  0.151728  1
  Mn  Mn17  1  0.528007  0.078396  0.348272  1
  Mn  Mn18  1  0.125000  0.875000  0.250000  1
  Mn  Mn19  1  0.921604  0.269876  0.449611  1
  Mn  Mn20  1  0.224837  0.674362  0.146219  1
  Mn  Mn21  1  0.125000  0.375000  0.250000  1
  O  O22  1  0.566801  0.697099  0.043434  1
  O  O23  1  0.653665  0.523367  0.956566  1
  O  O24  1  0.302901  0.346335  0.869702  1
  O  O25  1  0.738386  0.795582  0.825801  1
  O  O26  1  0.204418  0.030219  0.942804  1
  O  O27  1  0.549688  0.204637  0.031973  1
  O  O28  1  0.482285  0.450312  0.654949  1
  O  O29  1  0.373898  0.115414  0.768625  1
  O  O30  1  0.286652  0.854211  0.855476  1
  O  O31  1  0.172664  0.517715  0.968027  1
  O  O32  1  0.568825  0.713348  0.567560  1
  O  O33  1  0.963348  0.895789  0.644524  1
  O  O34  1  0.767715  0.299688  0.845051  1
  O  O35  1  0.876102  0.634586  0.731375  1
  O  O36  1  0.681175  0.036652  0.932440  1
  O  O37  1  0.700312  0.545363  0.468027  1
  O  O38  1  0.045582  0.719781  0.557196  1
  O  O39  1  0.511614  0.954418  0.674199  1
  O  O40  1  0.855273  0.123898  0.758485  1
  O  O41  1  0.251265  0.318825  0.355476  1
  O  O42  1  0.145789  0.001265  0.432440  1
  O  O43  1  0.596335  0.226633  0.543434  1
  O  O44  1  0.795363  0.827336  0.345051  1
  O  O45  1  0.947099  0.403665  0.630298  1
  O  O46  1  0.394727  0.626102  0.741515  1
  O  O47  1  0.884586  0.653212  0.258485  1
  O  O48  1  0.969781  0.912585  0.174199  1
  O  O49  1  0.683199  0.052901  0.456566  1
  O  O50  1  0.773367  0.316801  0.369702  1
  O  O51  1  0.162585  0.488386  0.442804  1
  O  O52  1  0.365414  0.096788  0.241515  1
  O  O53  1  0.476633  0.433199  0.130298  1
  O  O54  1  0.280219  0.837415  0.325801  1
  O  O55  1  0.077336  0.232285  0.531973  1
  O  O56  1  0.903212  0.144727  0.268625  1
  O  O57  1  0.454637  0.922664  0.154949  1
  O  O58  1  0.104211  0.748735  0.067560  1
  O  O59  1  0.998735  0.431175  0.144524  1
  O  O60  1  0.346788  0.605273  0.231375  1
  O  O61  1  0.087415  0.261614  0.057196  1
