# generated using pymatgen
data_LiFe8(BO3)8
_symmetry_space_group_name_H-M   'P 1'
_cell_length_a   5.22044033
_cell_length_b   9.19267706
_cell_length_c   11.38401270
_cell_angle_alpha   113.28372749
_cell_angle_beta   102.34459107
_cell_angle_gamma   91.08816116
_symmetry_Int_Tables_number   1
_chemical_formula_structural   LiFe8(BO3)8
_chemical_formula_sum   'Li1 Fe8 B8 O24'
_cell_volume   486.94972795
_cell_formula_units_Z   1
loop_
 _symmetry_equiv_pos_site_id
 _symmetry_equiv_pos_as_xyz
  1  'x, y, z'
loop_
 _atom_site_type_symbol
 _atom_site_label
 _atom_site_symmetry_multiplicity
 _atom_site_fract_x
 _atom_site_fract_y
 _atom_site_fract_z
 _atom_site_occupancy
  Li  Li0  1  0.329620  0.996571  0.347299  1
  Fe  Fe1  1  0.646300  0.651450  0.623613  1
  Fe  Fe2  1  0.393615  0.072556  0.122472  1
  Fe  Fe3  1  0.843537  0.837505  0.376735  1
  Fe  Fe4  1  0.105739  0.432445  0.870519  1
  Fe  Fe5  1  0.890885  0.565731  0.124322  1
  Fe  Fe6  1  0.137672  0.144970  0.620328  1
  Fe  Fe7  1  0.356846  0.358807  0.374828  1
  Fe  Fe8  1  0.607397  0.932703  0.871871  1
  B  B9  1  0.647039  0.312035  0.618313  1
  B  B10  1  0.388806  0.394132  0.120922  1
  B  B11  1  0.856799  0.181790  0.373016  1
  B  B12  1  0.108088  0.106802  0.871558  1
  B  B13  1  0.153979  0.815612  0.627049  1
  B  B14  1  0.886389  0.896955  0.127005  1
  B  B15  1  0.331762  0.687707  0.372677  1
  B  B16  1  0.609431  0.604875  0.872627  1
  O  O17  1  0.151267  0.943412  0.152541  1
  O  O18  1  0.308291  0.294129  0.177534  1
  O  O19  1  0.196026  0.466174  0.064942  1
  O  O20  1  0.462803  0.817540  0.375027  1
  O  O21  1  0.460241  0.587044  0.428570  1
  O  O22  1  0.576141  0.163199  0.330049  1
  O  O23  1  0.919708  0.326995  0.668940  1
  O  O24  1  0.642523  0.414528  0.120695  1
  O  O25  1  0.796588  0.783776  0.163917  1
  O  O26  1  0.048740  0.922243  0.576997  1
  O  O27  1  0.997172  0.697629  0.628546  1
  O  O28  1  0.700532  0.971923  0.068045  1
  O  O29  1  0.297180  0.032366  0.929769  1
  O  O30  1  0.006386  0.298299  0.365740  1
  O  O31  1  0.975414  0.074350  0.420698  1
  O  O32  1  0.198698  0.208808  0.821006  1
  O  O33  1  0.350847  0.579833  0.867046  1
  O  O34  1  0.062937  0.646942  0.315740  1
  O  O35  1  0.429228  0.832296  0.675584  1
  O  O36  1  0.546718  0.422226  0.568121  1
  O  O37  1  0.483194  0.192450  0.612485  1
  O  O38  1  0.795641  0.525492  0.924498  1
  O  O39  1  0.701521  0.710541  0.824756  1
  O  O40  1  0.850962  0.079345  0.866757  1
