# generated using pymatgen
data_K3FePCO7
_symmetry_space_group_name_H-M   'P 1'
_cell_length_a   5.66613171
_cell_length_b   6.79984780
_cell_length_c   9.84749539
_cell_angle_alpha   90.00000000
_cell_angle_beta   90.36658937
_cell_angle_gamma   90.00000000
_symmetry_Int_Tables_number   1
_chemical_formula_structural   K3FePCO7
_chemical_formula_sum   'K6 Fe2 P2 C2 O14'
_cell_volume   379.40474182
_cell_formula_units_Z   2
loop_
 _symmetry_equiv_pos_site_id
 _symmetry_equiv_pos_as_xyz
  1  'x, y, z'
loop_
 _atom_site_type_symbol
 _atom_site_label
 _atom_site_symmetry_multiplicity
 _atom_site_fract_x
 _atom_site_fract_y
 _atom_site_fract_z
 _atom_site_occupancy
  K  K0  1  0.761726  0.250000  0.077699  1
  K  K1  1  0.256113  0.009573  0.271209  1
  K  K2  1  0.256113  0.490427  0.271209  1
  K  K3  1  0.743887  0.509573  0.728791  1
  K  K4  1  0.743887  0.990427  0.728791  1
  K  K5  1  0.238274  0.750000  0.922301  1
  Fe  Fe6  1  0.772588  0.750000  0.358875  1
  Fe  Fe7  1  0.227412  0.250000  0.641125  1
  P  P8  1  0.714788  0.250000  0.424264  1
  P  P9  1  0.285212  0.750000  0.575736  1
  C  C10  1  0.739257  0.750000  0.082013  1
  C  C11  1  0.260743  0.250000  0.917987  1
  O  O12  1  0.263950  0.250000  0.049347  1
  O  O13  1  0.939154  0.750000  0.149036  1
  O  O14  1  0.543643  0.750000  0.151339  1
  O  O15  1  0.760911  0.064306  0.333096  1
  O  O16  1  0.760911  0.435694  0.333096  1
  O  O17  1  0.450570  0.250000  0.467498  1
  O  O18  1  0.119490  0.750000  0.450683  1
  O  O19  1  0.880510  0.250000  0.549317  1
  O  O20  1  0.549430  0.750000  0.532502  1
  O  O21  1  0.239089  0.564306  0.666904  1
  O  O22  1  0.239089  0.935694  0.666904  1
  O  O23  1  0.456357  0.250000  0.848661  1
  O  O24  1  0.060846  0.250000  0.850964  1
  O  O25  1  0.736050  0.750000  0.950653  1
