# generated using pymatgen
data_NaMnPCO7
_symmetry_space_group_name_H-M   'P 1'
_cell_length_a   8.13385488
_cell_length_b   8.15830805
_cell_length_c   9.11439009
_cell_angle_alpha   90.26386505
_cell_angle_beta   92.53727442
_cell_angle_gamma   100.40872429
_symmetry_Int_Tables_number   1
_chemical_formula_structural   NaMnPCO7
_chemical_formula_sum   'Na4 Mn4 P4 C4 O28'
_cell_volume   594.23223365
_cell_formula_units_Z   4
loop_
 _symmetry_equiv_pos_site_id
 _symmetry_equiv_pos_as_xyz
  1  'x, y, z'
loop_
 _atom_site_type_symbol
 _atom_site_label
 _atom_site_symmetry_multiplicity
 _atom_site_fract_x
 _atom_site_fract_y
 _atom_site_fract_z
 _atom_site_occupancy
  Na  Na0  1  0.396200  0.850116  0.755234  1
  Na  Na1  1  0.102472  0.143306  0.754593  1
  Na  Na2  1  0.894974  0.866178  0.238916  1
  Na  Na3  1  0.394350  0.365353  0.237765  1
  Mn  Mn4  1  0.522890  0.272513  0.660009  1
  Mn  Mn5  1  0.011057  0.760945  0.656032  1
  Mn  Mn6  1  0.476698  0.738095  0.342886  1
  Mn  Mn7  1  0.975322  0.240190  0.342158  1
  P  P8  1  0.732864  0.985880  0.566102  1
  P  P9  1  0.234905  0.483654  0.566461  1
  P  P10  1  0.760680  0.516240  0.433398  1
  P  P11  1  0.264852  0.020886  0.434440  1
  C  C12  1  0.993784  0.736110  0.920587  1
  C  C13  1  0.492028  0.234557  0.922203  1
  C  C14  1  0.512328  0.759106  0.080522  1
  C  C15  1  0.007530  0.263442  0.079092  1
  O  O16  1  0.534445  0.768429  0.948177  1
  O  O17  1  0.026338  0.275119  0.946539  1
  O  O18  1  0.605012  0.345393  0.861384  1
  O  O19  1  0.106453  0.847055  0.853676  1
  O  O20  1  0.898319  0.640343  0.821497  1
  O  O21  1  0.397653  0.139928  0.817357  1
  O  O22  1  0.867823  0.924601  0.668375  1
  O  O23  1  0.358621  0.415482  0.674512  1
  O  O24  1  0.667749  0.109860  0.667510  1
  O  O25  1  0.177130  0.619551  0.661218  1
  O  O26  1  0.586788  0.838936  0.524850  1
  O  O27  1  0.688285  0.439328  0.574215  1
  O  O28  1  0.191531  0.944481  0.578080  1
  O  O29  1  0.086845  0.338931  0.524682  1
  O  O30  1  0.902718  0.667881  0.473437  1
  O  O31  1  0.809415  0.061247  0.424866  1
  O  O32  1  0.315368  0.555141  0.425502  1
  O  O33  1  0.406452  0.171467  0.474975  1
  O  O34  1  0.824413  0.391601  0.331251  1
  O  O35  1  0.627811  0.578949  0.329820  1
  O  O36  1  0.325092  0.891165  0.335497  1
  O  O37  1  0.128682  0.080560  0.332609  1
  O  O38  1  0.604509  0.855992  0.182965  1
  O  O39  1  0.100931  0.359631  0.181460  1
  O  O40  1  0.893360  0.153631  0.142761  1
  O  O41  1  0.394786  0.652375  0.143223  1
  O  O42  1  0.981166  0.726565  0.054460  1
  O  O43  1  0.471473  0.217691  0.054708  1
