# generated using pymatgen
data_Tm2FeC4
_symmetry_space_group_name_H-M   'P 1'
_cell_length_a   6.49927288
_cell_length_b   6.49927288
_cell_length_c   6.49927288
_cell_angle_alpha   135.02521599
_cell_angle_beta   110.06669433
_cell_angle_gamma   87.10351565
_symmetry_Int_Tables_number   1
_chemical_formula_structural   Tm2FeC4
_chemical_formula_sum   'Tm4 Fe2 C8'
_cell_volume   174.45476620
_cell_formula_units_Z   2
loop_
 _symmetry_equiv_pos_site_id
 _symmetry_equiv_pos_as_xyz
  1  'x, y, z'
loop_
 _atom_site_type_symbol
 _atom_site_label
 _atom_site_symmetry_multiplicity
 _atom_site_fract_x
 _atom_site_fract_y
 _atom_site_fract_z
 _atom_site_occupancy
  Tm  Tm0  1  0.489773  0.644706  0.845068  1
  Tm  Tm1  1  0.510227  0.355294  0.154932  1
  Tm  Tm2  1  0.200362  0.855294  0.345068  1
  Tm  Tm3  1  0.799638  0.144706  0.654932  1
  Fe  Fe4  1  1.000000  0.750000  0.750000  1
  Fe  Fe5  1  0.000000  0.250000  0.250000  1
  C  C6  1  0.754957  0.921796  0.833160  1
  C  C7  1  0.245043  0.078204  0.166840  1
  C  C8  1  0.911364  0.578204  0.333160  1
  C  C9  1  0.088636  0.421796  0.666840  1
  C  C10  1  0.530392  0.870100  0.660292  1
  C  C11  1  0.469608  0.129900  0.339708  1
  C  C12  1  0.209808  0.370100  0.839708  1
  C  C13  1  0.790192  0.629900  0.160292  1
