# generated using pymatgen
data_Na3Ni2O5
_symmetry_space_group_name_H-M   'P 1'
_cell_length_a   5.27970087
_cell_length_b   6.30534340
_cell_length_c   6.90540721
_cell_angle_alpha   107.61089144
_cell_angle_beta   96.48225690
_cell_angle_gamma   107.23585140
_symmetry_Int_Tables_number   1
_chemical_formula_structural   Na3Ni2O5
_chemical_formula_sum   'Na6 Ni4 O10'
_cell_volume   204.02430823
_cell_formula_units_Z   2
loop_
 _symmetry_equiv_pos_site_id
 _symmetry_equiv_pos_as_xyz
  1  'x, y, z'
loop_
 _atom_site_type_symbol
 _atom_site_label
 _atom_site_symmetry_multiplicity
 _atom_site_fract_x
 _atom_site_fract_y
 _atom_site_fract_z
 _atom_site_occupancy
  Na  Na0  1  0.619928  0.711523  0.201468  1
  Na  Na1  1  0.380072  0.288477  0.798532  1
  Na  Na2  1  0.205303  0.902901  0.388698  1
  Na  Na3  1  0.000000  0.500000  0.000000  1
  Na  Na4  1  0.000000  0.000000  0.000000  1
  Na  Na5  1  0.794697  0.097099  0.611302  1
  Ni  Ni6  1  0.602422  0.204842  0.203942  1
  Ni  Ni7  1  0.397578  0.795158  0.796058  1
  Ni  Ni8  1  0.202439  0.405249  0.405579  1
  Ni  Ni9  1  0.797561  0.594751  0.594421  1
  O  O10  1  0.650892  0.121148  0.920213  1
  O  O11  1  0.670012  0.655800  0.851180  1
  O  O12  1  0.476058  0.719473  0.524469  1
  O  O13  1  0.523942  0.280527  0.475531  1
  O  O14  1  0.349108  0.878852  0.079787  1
  O  O15  1  0.329988  0.344200  0.148820  1
  O  O16  1  0.877075  0.515531  0.317666  1
  O  O17  1  0.898102  0.109935  0.305834  1
  O  O18  1  0.101898  0.890065  0.694166  1
  O  O19  1  0.122925  0.484469  0.682334  1
