# generated using pymatgen
data_Li10Sn(PO6)2
_symmetry_space_group_name_H-M   'P 1'
_cell_length_a   6.83684735
_cell_length_b   7.51185995
_cell_length_c   10.99537758
_cell_angle_alpha   90.08733562
_cell_angle_beta   90.27651591
_cell_angle_gamma   90.64911946
_symmetry_Int_Tables_number   1
_chemical_formula_structural   Li10Sn(PO6)2
_chemical_formula_sum   'Li20 Sn2 P4 O24'
_cell_volume   564.65092263
_cell_formula_units_Z   2
loop_
 _symmetry_equiv_pos_site_id
 _symmetry_equiv_pos_as_xyz
  1  'x, y, z'
loop_
 _atom_site_type_symbol
 _atom_site_label
 _atom_site_symmetry_multiplicity
 _atom_site_fract_x
 _atom_site_fract_y
 _atom_site_fract_z
 _atom_site_occupancy
  Li  Li0  1  0.459862  0.937300  0.904266  1
  Li  Li1  1  0.444023  0.922244  0.430183  1
  Li  Li2  1  0.048798  0.572342  0.542276  1
  Li  Li3  1  0.018712  0.452940  0.063514  1
  Li  Li4  1  0.699403  0.354701  0.195705  1
  Li  Li5  1  0.341361  0.609024  0.254249  1
  Li  Li6  1  0.045159  0.082442  0.768575  1
  Li  Li7  1  0.237278  0.218896  0.304356  1
  Li  Li8  1  0.778033  0.768974  0.348481  1
  Li  Li9  1  0.507342  0.483721  0.758842  1
  Li  Li10  1  0.691123  0.218887  0.390709  1
  Li  Li11  1  0.762504  0.807703  0.896717  1
  Li  Li12  1  0.261527  0.210023  0.979332  1
  Li  Li13  1  0.877851  0.756448  0.097775  1
  Li  Li14  1  0.267312  0.771447  0.656608  1
  Li  Li15  1  0.755525  0.170807  0.932316  1
  Li  Li16  1  0.234949  0.747011  0.996689  1
  Li  Li17  1  0.259331  0.297972  0.565518  1
  Li  Li18  1  0.757002  0.750023  0.631223  1
  Li  Li19  1  0.768746  0.317860  0.604527  1
  Sn  Sn20  1  0.519416  0.980820  0.161586  1
  Sn  Sn21  1  0.015838  0.494412  0.802996  1
  P  P22  1  0.010166  0.011871  0.503481  1
  P  P23  1  0.511707  0.514161  0.999507  1
  P  P24  1  0.512829  0.023930  0.685294  1
  P  P25  1  0.998317  0.481863  0.320766  1
  O  O26  1  0.828479  0.007625  0.418815  1
  O  O27  1  0.201744  0.047355  0.433663  1
  O  O28  1  0.514745  0.335069  0.927989  1
  O  O29  1  0.501529  0.669871  0.904623  1
  O  O30  1  0.321552  0.522337  0.078388  1
  O  O31  1  0.696795  0.533444  0.080545  1
  O  O32  1  0.992168  0.164679  0.600254  1
  O  O33  1  0.017542  0.827155  0.571121  1
  O  O34  1  0.735258  0.962859  0.042200  1
  O  O35  1  0.299319  0.980027  0.044247  1
  O  O36  1  0.522428  0.202514  0.614890  1
  O  O37  1  0.517679  0.862274  0.594938  1
  O  O38  1  0.191338  0.459669  0.396348  1
  O  O39  1  0.820080  0.474555  0.409863  1
  O  O40  1  0.017419  0.271866  0.900278  1
  O  O41  1  0.998989  0.683556  0.927833  1
  O  O42  1  0.317607  0.002821  0.756853  1
  O  O43  1  0.684916  0.002279  0.779012  1
  O  O44  1  0.518935  0.793485  0.287897  1
  O  O45  1  0.511175  0.203611  0.260132  1
  O  O46  1  0.781160  0.523443  0.697902  1
  O  O47  1  0.230205  0.515812  0.680323  1
  O  O48  1  0.004664  0.664627  0.253981  1
  O  O49  1  0.983058  0.328642  0.225614  1
