# generated using pymatgen
data_Li3Ti(FeO2)4
_symmetry_space_group_name_H-M   'P 1'
_cell_length_a   6.02042162
_cell_length_b   6.02042162
_cell_length_c   6.06227267
_cell_angle_alpha   59.83070372
_cell_angle_beta   120.16929628
_cell_angle_gamma   119.11173617
_symmetry_Int_Tables_number   1
_chemical_formula_structural   Li3Ti(FeO2)4
_chemical_formula_sum   'Li3 Ti1 Fe4 O8'
_cell_volume   155.98174270
_cell_formula_units_Z   1
loop_
 _symmetry_equiv_pos_site_id
 _symmetry_equiv_pos_as_xyz
  1  'x, y, z'
loop_
 _atom_site_type_symbol
 _atom_site_label
 _atom_site_symmetry_multiplicity
 _atom_site_fract_x
 _atom_site_fract_y
 _atom_site_fract_z
 _atom_site_occupancy
  Li  Li0  1  0.000000  0.500000  0.000000  1
  Li  Li1  1  0.000000  0.000000  0.500000  1
  Li  Li2  1  0.500000  0.000000  0.000000  1
  Ti  Ti3  1  0.500000  0.500000  0.000000  1
  Fe  Fe4  1  0.500000  0.500000  0.500000  1
  Fe  Fe5  1  0.000000  0.000000  0.000000  1
  Fe  Fe6  1  0.000000  0.500000  0.500000  1
  Fe  Fe7  1  0.500000  1.000000  0.500000  1
  O  O8  1  0.266732  0.733268  0.755697  1
  O  O9  1  0.267227  0.276998  0.239000  1
  O  O10  1  0.723002  0.732773  0.239000  1
  O  O11  1  0.745310  0.254690  0.745748  1
  O  O12  1  0.254690  0.745310  0.254252  1
  O  O13  1  0.276998  0.267227  0.761000  1
  O  O14  1  0.732773  0.723002  0.761000  1
  O  O15  1  0.733268  0.266732  0.244303  1
