# generated using pymatgen
data_Fe(CoO3)2
_symmetry_space_group_name_H-M   'P 1'
_cell_length_a   6.54196299
_cell_length_b   6.54196299
_cell_length_c   5.83264769
_cell_angle_alpha   76.41626547
_cell_angle_beta   103.58373453
_cell_angle_gamma   154.50352130
_symmetry_Int_Tables_number   1
_chemical_formula_structural   Fe(CoO3)2
_chemical_formula_sum   'Fe1 Co2 O6'
_cell_volume   104.28913108
_cell_formula_units_Z   1
loop_
 _symmetry_equiv_pos_site_id
 _symmetry_equiv_pos_as_xyz
  1  'x, y, z'
loop_
 _atom_site_type_symbol
 _atom_site_label
 _atom_site_symmetry_multiplicity
 _atom_site_fract_x
 _atom_site_fract_y
 _atom_site_fract_z
 _atom_site_occupancy
  Fe  Fe0  1  0.000000  1.000000  0.500000  1
  Co  Co1  1  0.330752  0.669248  0.162023  1
  Co  Co2  1  0.669248  0.330752  0.837977  1
  O  O3  1  0.838926  0.161074  0.376717  1
  O  O4  1  0.515925  0.484075  0.731909  1
  O  O5  1  0.179369  0.820631  0.055102  1
  O  O6  1  0.484075  0.515925  0.268091  1
  O  O7  1  0.161074  0.838926  0.623283  1
  O  O8  1  0.820631  0.179369  0.944898  1
