# generated using pymatgen
data_Na2Cr2O7
_symmetry_space_group_name_H-M   'P 1'
_cell_length_a   7.77206039
_cell_length_b   9.49204487
_cell_length_c   10.15017174
_cell_angle_alpha   75.73951679
_cell_angle_beta   70.06605141
_cell_angle_gamma   70.35793772
_symmetry_Int_Tables_number   1
_chemical_formula_structural   Na2Cr2O7
_chemical_formula_sum   'Na8 Cr8 O28'
_cell_volume   655.60180830
_cell_formula_units_Z   4
loop_
 _symmetry_equiv_pos_site_id
 _symmetry_equiv_pos_as_xyz
  1  'x, y, z'
loop_
 _atom_site_type_symbol
 _atom_site_label
 _atom_site_symmetry_multiplicity
 _atom_site_fract_x
 _atom_site_fract_y
 _atom_site_fract_z
 _atom_site_occupancy
  Na  Na0  1  0.533936  0.606435  0.226204  1
  Na  Na1  1  0.026086  0.263819  0.351955  1
  Na  Na2  1  0.024679  0.101994  0.740796  1
  Na  Na3  1  0.975321  0.898006  0.259204  1
  Na  Na4  1  0.532076  0.214831  0.173827  1
  Na  Na5  1  0.466064  0.393565  0.773796  1
  Na  Na6  1  0.973914  0.736181  0.648045  1
  Na  Na7  1  0.467924  0.785169  0.826173  1
  Cr  Cr8  1  0.324551  0.909103  0.441938  1
  Cr  Cr9  1  0.298069  0.371432  0.528632  1
  Cr  Cr10  1  0.701931  0.628568  0.471368  1
  Cr  Cr11  1  0.167888  0.591145  0.080832  1
  Cr  Cr12  1  0.675449  0.090897  0.558062  1
  Cr  Cr13  1  0.832112  0.408855  0.919168  1
  Cr  Cr14  1  0.794201  0.847847  0.011456  1
  Cr  Cr15  1  0.205799  0.152153  0.988544  1
  O  O16  1  0.287423  0.592256  0.912493  1
  O  O17  1  0.456328  0.230113  0.620856  1
  O  O18  1  0.149854  0.862226  0.423867  1
  O  O19  1  0.916374  0.876534  0.845075  1
  O  O20  1  0.079916  0.324206  0.900717  1
  O  O21  1  0.802426  0.582199  0.836805  1
  O  O22  1  0.335075  0.074361  0.347511  1
  O  O23  1  0.850146  0.137774  0.576133  1
  O  O24  1  0.920084  0.675794  0.099283  1
  O  O25  1  0.757221  0.475021  0.402234  1
  O  O26  1  0.771117  0.986152  0.092274  1
  O  O27  1  0.228883  0.013848  0.907726  1
  O  O28  1  0.890379  0.683919  0.446321  1
  O  O29  1  0.197574  0.417801  0.163195  1
  O  O30  1  0.245232  0.690008  0.148867  1
  O  O31  1  0.712577  0.407744  0.087507  1
  O  O32  1  0.588679  0.825164  0.026385  1
  O  O33  1  0.590825  0.602644  0.640017  1
  O  O34  1  0.754768  0.309992  0.851133  1
  O  O35  1  0.664925  0.925639  0.652489  1
  O  O36  1  0.715855  0.083900  0.390788  1
  O  O37  1  0.543672  0.769887  0.379144  1
  O  O38  1  0.409175  0.397356  0.359983  1
  O  O39  1  0.411321  0.174836  0.973615  1
  O  O40  1  0.109621  0.316081  0.553679  1
  O  O41  1  0.284145  0.916100  0.609212  1
  O  O42  1  0.083626  0.123466  0.154925  1
  O  O43  1  0.242779  0.524979  0.597766  1
