# generated using pymatgen
data_Fe6O7F5
_symmetry_space_group_name_H-M   'P 1'
_cell_length_a   4.80281271
_cell_length_b   5.67839498
_cell_length_c   7.75241615
_cell_angle_alpha   84.12065088
_cell_angle_beta   86.21750768
_cell_angle_gamma   84.81026224
_symmetry_Int_Tables_number   1
_chemical_formula_structural   Fe6O7F5
_chemical_formula_sum   'Fe6 O7 F5'
_cell_volume   209.10828634
_cell_formula_units_Z   1
loop_
 _symmetry_equiv_pos_site_id
 _symmetry_equiv_pos_as_xyz
  1  'x, y, z'
loop_
 _atom_site_type_symbol
 _atom_site_label
 _atom_site_symmetry_multiplicity
 _atom_site_fract_x
 _atom_site_fract_y
 _atom_site_fract_z
 _atom_site_occupancy
  Fe  Fe0  1  0.497631  0.832628  0.666136  1
  Fe  Fe1  1  0.536954  0.523739  0.012503  1
  Fe  Fe2  1  0.496096  0.164348  0.330861  1
  Fe  Fe3  1  0.002969  0.335354  0.669509  1
  Fe  Fe4  1  0.986608  0.662279  0.322000  1
  Fe  Fe5  1  0.988640  0.987432  0.001200  1
  O  O6  1  0.814322  0.710886  0.103601  1
  O  O7  1  0.699715  0.205070  0.102802  1
  O  O8  1  0.698966  0.539046  0.765119  1
  O  O9  1  0.692471  0.866146  0.437326  1
  O  O10  1  0.301745  0.130397  0.566887  1
  O  O11  1  0.307286  0.464371  0.234715  1
  O  O12  1  0.305433  0.798789  0.894676  1
  F  F13  1  0.809375  0.366721  0.438499  1
  F  F14  1  0.803084  0.040889  0.766837  1
  F  F15  1  0.194489  0.962896  0.232268  1
  F  F16  1  0.186270  0.625820  0.558804  1
  F  F17  1  0.177946  0.283192  0.896257  1
