# generated using pymatgen
data_La2S3
_symmetry_space_group_name_H-M   'P 1'
_cell_length_a   4.16067355
_cell_length_b   7.61656599
_cell_length_c   15.88406352
_cell_angle_alpha   90.00000000
_cell_angle_beta   90.00000000
_cell_angle_gamma   90.00000000
_symmetry_Int_Tables_number   1
_chemical_formula_structural   La2S3
_chemical_formula_sum   'La8 S12'
_cell_volume   503.36668227
_cell_formula_units_Z   4
loop_
 _symmetry_equiv_pos_site_id
 _symmetry_equiv_pos_as_xyz
  1  'x, y, z'
loop_
 _atom_site_type_symbol
 _atom_site_label
 _atom_site_symmetry_multiplicity
 _atom_site_fract_x
 _atom_site_fract_y
 _atom_site_fract_z
 _atom_site_occupancy
  La  La0  1  0.250000  0.646626  0.705016  1
  La  La1  1  0.750000  0.353374  0.294984  1
  La  La2  1  0.250000  0.146626  0.794984  1
  La  La3  1  0.750000  0.853374  0.205016  1
  La  La4  1  0.250000  0.263976  0.043932  1
  La  La5  1  0.750000  0.736024  0.956068  1
  La  La6  1  0.250000  0.763976  0.456068  1
  La  La7  1  0.750000  0.236024  0.543932  1
  S  S8  1  0.250000  0.871227  0.067361  1
  S  S9  1  0.750000  0.128773  0.932639  1
  S  S10  1  0.250000  0.371227  0.432639  1
  S  S11  1  0.750000  0.628773  0.567361  1
  S  S12  1  0.250000  0.645229  0.280408  1
  S  S13  1  0.750000  0.354771  0.719592  1
  S  S14  1  0.250000  0.145229  0.219592  1
  S  S15  1  0.750000  0.854771  0.780408  1
  S  S16  1  0.750000  0.988127  0.390554  1
  S  S17  1  0.250000  0.011873  0.609446  1
  S  S18  1  0.750000  0.488127  0.109446  1
  S  S19  1  0.250000  0.511873  0.890554  1
