# generated using pymatgen
data_V6O11F
_symmetry_space_group_name_H-M   'P 1'
_cell_length_a   4.62051243
_cell_length_b   4.62051243
_cell_length_c   8.97768742
_cell_angle_alpha   90.00000000
_cell_angle_beta   90.00000000
_cell_angle_gamma   91.94097669
_symmetry_Int_Tables_number   1
_chemical_formula_structural   V6O11F
_chemical_formula_sum   'V6 O11 F1'
_cell_volume   191.55589351
_cell_formula_units_Z   1
loop_
 _symmetry_equiv_pos_site_id
 _symmetry_equiv_pos_as_xyz
  1  'x, y, z'
loop_
 _atom_site_type_symbol
 _atom_site_label
 _atom_site_symmetry_multiplicity
 _atom_site_fract_x
 _atom_site_fract_y
 _atom_site_fract_z
 _atom_site_occupancy
  V  V0  1  0.983252  0.016748  0.819146  1
  V  V1  1  0.008527  0.991473  0.500000  1
  V  V2  1  0.983252  0.016748  0.180854  1
  V  V3  1  0.479096  0.520904  0.668081  1
  V  V4  1  0.533769  0.466231  0.000000  1
  V  V5  1  0.479096  0.520904  0.331919  1
  O  O6  1  0.801031  0.198969  0.676041  1
  O  O7  1  0.801031  0.198969  0.323959  1
  O  O8  1  0.806503  0.193497  0.000000  1
  O  O9  1  0.307549  0.299482  0.835572  1
  O  O10  1  0.310434  0.302986  0.500000  1
  O  O11  1  0.307549  0.299482  0.164428  1
  O  O12  1  0.700518  0.692451  0.835572  1
  O  O13  1  0.697014  0.689566  0.500000  1
  O  O14  1  0.700518  0.692451  0.164428  1
  O  O15  1  0.202510  0.797490  0.673138  1
  O  O16  1  0.202510  0.797490  0.326862  1
  F  F17  1  0.195839  0.804161  0.000000  1
