# generated using pymatgen
data_TiCo5O12
_symmetry_space_group_name_H-M   'P 1'
_cell_length_a   4.94394102
_cell_length_b   4.94394102
_cell_length_c   9.75658265
_cell_angle_alpha   89.98748555
_cell_angle_beta   90.01251445
_cell_angle_gamma   59.92742176
_symmetry_Int_Tables_number   1
_chemical_formula_structural   TiCo5O12
_chemical_formula_sum   'Ti1 Co5 O12'
_cell_volume   206.37486199
_cell_formula_units_Z   1
loop_
 _symmetry_equiv_pos_site_id
 _symmetry_equiv_pos_as_xyz
  1  'x, y, z'
loop_
 _atom_site_type_symbol
 _atom_site_label
 _atom_site_symmetry_multiplicity
 _atom_site_fract_x
 _atom_site_fract_y
 _atom_site_fract_z
 _atom_site_occupancy
  Ti  Ti0  1  0.000000  0.000000  0.000000  1
  Co  Co1  1  0.833262  0.833262  0.500000  1
  Co  Co2  1  0.333298  0.333298  0.000000  1
  Co  Co3  1  0.666702  0.666702  0.000000  1
  Co  Co4  1  0.166738  0.166738  0.500000  1
  Co  Co5  1  0.500000  0.500000  0.500000  1
  O  O6  1  0.999594  0.654448  0.100401  1
  O  O7  1  0.654448  0.999594  0.899599  1
  O  O8  1  0.833169  0.500371  0.404628  1
  O  O9  1  0.499629  0.166831  0.404628  1
  O  O10  1  0.500371  0.833169  0.595372  1
  O  O11  1  0.833550  0.166450  0.595265  1
  O  O12  1  0.166831  0.499629  0.595372  1
  O  O13  1  0.345552  0.000406  0.100401  1
  O  O14  1  0.654350  0.345650  0.100326  1
  O  O15  1  0.000406  0.345552  0.899599  1
  O  O16  1  0.345650  0.654350  0.899674  1
  O  O17  1  0.166450  0.833550  0.404735  1
