# generated using pymatgen
data_Li2Ni3SnO8
_symmetry_space_group_name_H-M   'P 1'
_cell_length_a   8.41534717
_cell_length_b   8.41534717
_cell_length_c   8.13467342
_cell_angle_alpha   90.00000000
_cell_angle_beta   90.00000000
_cell_angle_gamma   90.00000000
_symmetry_Int_Tables_number   1
_chemical_formula_structural   Li2Ni3SnO8
_chemical_formula_sum   'Li8 Ni12 Sn4 O32'
_cell_volume   576.08185593
_cell_formula_units_Z   4
loop_
 _symmetry_equiv_pos_site_id
 _symmetry_equiv_pos_as_xyz
  1  'x, y, z'
loop_
 _atom_site_type_symbol
 _atom_site_label
 _atom_site_symmetry_multiplicity
 _atom_site_fract_x
 _atom_site_fract_y
 _atom_site_fract_z
 _atom_site_occupancy
  Li  Li0  1  0.999835  0.751020  0.622565  1
  Li  Li1  1  0.248980  0.000165  0.877435  1
  Li  Li2  1  0.751020  0.999835  0.377435  1
  Li  Li3  1  0.000165  0.248980  0.122565  1
  Li  Li4  1  0.500165  0.251020  0.627435  1
  Li  Li5  1  0.251020  0.500165  0.372565  1
  Li  Li6  1  0.748980  0.499835  0.872565  1
  Li  Li7  1  0.499835  0.748980  0.127435  1
  Ni  Ni8  1  0.130491  0.869509  0.250000  1
  Ni  Ni9  1  0.379556  0.874879  0.490257  1
  Ni  Ni10  1  0.625121  0.879556  0.740257  1
  Ni  Ni11  1  0.374879  0.120444  0.240257  1
  Ni  Ni12  1  0.620444  0.125121  0.990257  1
  Ni  Ni13  1  0.869509  0.130491  0.750000  1
  Ni  Ni14  1  0.369509  0.369509  0.000000  1
  Ni  Ni15  1  0.120444  0.374879  0.759743  1
  Ni  Ni16  1  0.874879  0.379556  0.509743  1
  Ni  Ni17  1  0.125121  0.620444  0.009743  1
  Ni  Ni18  1  0.879556  0.625121  0.259743  1
  Ni  Ni19  1  0.630491  0.630491  0.500000  1
  Sn  Sn20  1  0.873066  0.873066  0.000000  1
  Sn  Sn21  1  0.126934  0.126934  0.500000  1
  Sn  Sn22  1  0.626934  0.373066  0.250000  1
  Sn  Sn23  1  0.373066  0.626934  0.750000  1
  O  O24  1  0.121753  0.854948  0.019940  1
  O  O25  1  0.904278  0.867149  0.252316  1
  O  O26  1  0.615391  0.857694  0.510084  1
  O  O27  1  0.145052  0.878247  0.480060  1
  O  O28  1  0.381737  0.871986  0.722645  1
  O  O29  1  0.357694  0.884609  0.260084  1
  O  O30  1  0.628014  0.881737  0.972645  1
  O  O31  1  0.867149  0.904278  0.747684  1
  O  O32  1  0.132851  0.095722  0.247684  1
  O  O33  1  0.371986  0.118263  0.472645  1
  O  O34  1  0.642306  0.115391  0.760084  1
  O  O35  1  0.618263  0.128014  0.222645  1
  O  O36  1  0.854948  0.121753  0.980060  1
  O  O37  1  0.384609  0.142306  0.010084  1
  O  O38  1  0.095722  0.132851  0.752316  1
  O  O39  1  0.878247  0.145052  0.519940  1
  O  O40  1  0.378247  0.354948  0.230060  1
  O  O41  1  0.595722  0.367149  0.997684  1
  O  O42  1  0.884609  0.357694  0.739916  1
  O  O43  1  0.354948  0.378247  0.769940  1
  O  O44  1  0.118263  0.371986  0.527355  1
  O  O45  1  0.142306  0.384609  0.989916  1
  O  O46  1  0.871986  0.381737  0.277355  1
  O  O47  1  0.632851  0.404278  0.502316  1
  O  O48  1  0.367149  0.595722  0.002316  1
  O  O49  1  0.128014  0.618263  0.777355  1
  O  O50  1  0.857694  0.615391  0.489916  1
  O  O51  1  0.881737  0.628014  0.027355  1
  O  O52  1  0.645052  0.621753  0.269940  1
  O  O53  1  0.115391  0.642306  0.239916  1
  O  O54  1  0.404278  0.632851  0.497684  1
  O  O55  1  0.621753  0.645052  0.730060  1
