# generated using pymatgen
data_NaCu(PO3)3
_symmetry_space_group_name_H-M   'P 1'
_cell_length_a   8.41922218
_cell_length_b   8.99286111
_cell_length_c   9.06504080
_cell_angle_alpha   90.00000000
_cell_angle_beta   90.00000000
_cell_angle_gamma   90.00000000
_symmetry_Int_Tables_number   1
_chemical_formula_structural   NaCu(PO3)3
_chemical_formula_sum   'Na4 Cu4 P12 O36'
_cell_volume   686.34048878
_cell_formula_units_Z   4
loop_
 _symmetry_equiv_pos_site_id
 _symmetry_equiv_pos_as_xyz
  1  'x, y, z'
loop_
 _atom_site_type_symbol
 _atom_site_label
 _atom_site_symmetry_multiplicity
 _atom_site_fract_x
 _atom_site_fract_y
 _atom_site_fract_z
 _atom_site_occupancy
  Na  Na0  1  0.877526  0.422720  0.107701  1
  Na  Na1  1  0.122474  0.922720  0.392299  1
  Na  Na2  1  0.622474  0.577280  0.607701  1
  Na  Na3  1  0.377526  0.077280  0.892299  1
  Cu  Cu4  1  0.098827  0.138780  0.116243  1
  Cu  Cu5  1  0.901173  0.638780  0.383757  1
  Cu  Cu6  1  0.401173  0.861220  0.616243  1
  Cu  Cu7  1  0.598827  0.361220  0.883757  1
  P  P8  1  0.952194  0.824453  0.047931  1
  P  P9  1  0.726831  0.076141  0.064710  1
  P  P10  1  0.561070  0.559693  0.231244  1
  P  P11  1  0.438930  0.059693  0.268756  1
  P  P12  1  0.273169  0.576141  0.435290  1
  P  P13  1  0.047806  0.324453  0.452069  1
  P  P14  1  0.547806  0.175547  0.547931  1
  P  P15  1  0.773169  0.923859  0.564710  1
  P  P16  1  0.938930  0.440307  0.731244  1
  P  P17  1  0.061070  0.940307  0.768756  1
  P  P18  1  0.226831  0.423859  0.935290  1
  P  P19  1  0.452194  0.675547  0.952069  1
  O  O20  1  0.787613  0.914855  0.013355  1
  O  O21  1  0.130582  0.354753  0.058360  1
  O  O22  1  0.915372  0.673902  0.107818  1
  O  O23  1  0.523008  0.694652  0.116938  1
  O  O24  1  0.864166  0.166641  0.122848  1
  O  O25  1  0.332460  0.118648  0.147919  1
  O  O26  1  0.610682  0.425357  0.145560  1
  O  O27  1  0.060352  0.921719  0.141268  1
  O  O28  1  0.612203  0.029041  0.198195  1
  O  O29  1  0.387797  0.529041  0.301805  1
  O  O30  1  0.939648  0.421719  0.358732  1
  O  O31  1  0.389318  0.925357  0.354440  1
  O  O32  1  0.667540  0.618648  0.352081  1
  O  O33  1  0.135834  0.666641  0.377152  1
  O  O34  1  0.476992  0.194652  0.383062  1
  O  O35  1  0.084628  0.173902  0.392182  1
  O  O36  1  0.869418  0.854753  0.441640  1
  O  O37  1  0.212387  0.414855  0.486645  1
  O  O38  1  0.712387  0.085145  0.513355  1
  O  O39  1  0.369418  0.645247  0.558360  1
  O  O40  1  0.584628  0.326098  0.607818  1
  O  O41  1  0.976992  0.305348  0.616938  1
  O  O42  1  0.635834  0.833359  0.622848  1
  O  O43  1  0.167540  0.881352  0.647919  1
  O  O44  1  0.889318  0.574643  0.645560  1
  O  O45  1  0.439648  0.078281  0.641268  1
  O  O46  1  0.887797  0.970959  0.698195  1
  O  O47  1  0.112203  0.470959  0.801805  1
  O  O48  1  0.560352  0.578281  0.858732  1
  O  O49  1  0.110682  0.074643  0.854440  1
  O  O50  1  0.832460  0.381352  0.852081  1
  O  O51  1  0.364166  0.333359  0.877152  1
  O  O52  1  0.023008  0.805348  0.883062  1
  O  O53  1  0.415372  0.826098  0.892182  1
  O  O54  1  0.630582  0.145247  0.941640  1
  O  O55  1  0.287613  0.585145  0.986645  1
