# generated using pymatgen
data_KVH4O7
_symmetry_space_group_name_H-M   'P 1'
_cell_length_a   6.57639303
_cell_length_b   7.72218446
_cell_length_c   7.75066262
_cell_angle_alpha   106.05439821
_cell_angle_beta   113.69883207
_cell_angle_gamma   84.59918142
_symmetry_Int_Tables_number   1
_chemical_formula_structural   KVH4O7
_chemical_formula_sum   'K2 V2 H8 O14'
_cell_volume   346.29638567
_cell_formula_units_Z   2
loop_
 _symmetry_equiv_pos_site_id
 _symmetry_equiv_pos_as_xyz
  1  'x, y, z'
loop_
 _atom_site_type_symbol
 _atom_site_label
 _atom_site_symmetry_multiplicity
 _atom_site_fract_x
 _atom_site_fract_y
 _atom_site_fract_z
 _atom_site_occupancy
  K  K0  1  0.977248  0.008351  0.986515  1
  K  K1  1  0.792149  0.598666  0.423810  1
  V  V2  1  0.468549  0.778525  0.901787  1
  V  V3  1  0.295383  0.952015  0.549225  1
  H  H4  1  0.362641  0.303013  0.638843  1
  H  H5  1  0.529552  0.196212  0.513584  1
  H  H6  1  0.350395  0.497185  0.055694  1
  H  H7  1  0.426651  0.298969  0.062175  1
  H  H8  1  0.619883  0.093550  0.305482  1
  H  H9  1  0.834056  0.130705  0.516713  1
  H  H10  1  0.702454  0.432324  0.832370  1
  H  H11  1  0.945253  0.444716  0.964047  1
  O  O12  1  0.524878  0.029402  0.946220  1
  O  O13  1  0.433957  0.995617  0.079671  1
  O  O14  1  0.277804  0.572490  0.741659  1
  O  O15  1  0.243149  0.656984  0.922297  1
  O  O16  1  0.483314  0.752413  0.635501  1
  O  O17  1  0.604718  0.896337  0.624487  1
  O  O18  1  0.104441  0.893261  0.656113  1
  O  O19  1  0.090445  0.082580  0.653012  1
  O  O20  1  0.710255  0.702763  0.023224  1
  O  O21  1  0.170137  0.871998  0.314660  1
  O  O22  1  0.384744  0.193521  0.548482  1
  O  O23  1  0.416762  0.417698  0.144722  1
  O  O24  1  0.690252  0.179226  0.437811  1
  O  O25  1  0.832129  0.356381  0.865296  1
