# generated using pymatgen
data_HoTa3O9
_symmetry_space_group_name_H-M   'P 1'
_cell_length_a   5.28723741
_cell_length_b   7.52611316
_cell_length_c   8.32551679
_cell_angle_alpha   90.00000000
_cell_angle_beta   92.66200295
_cell_angle_gamma   90.00000000
_symmetry_Int_Tables_number   1
_chemical_formula_structural   HoTa3O9
_chemical_formula_sum   'Ho2 Ta6 O18'
_cell_volume   330.93435493
_cell_formula_units_Z   2
loop_
 _symmetry_equiv_pos_site_id
 _symmetry_equiv_pos_as_xyz
  1  'x, y, z'
loop_
 _atom_site_type_symbol
 _atom_site_label
 _atom_site_symmetry_multiplicity
 _atom_site_fract_x
 _atom_site_fract_y
 _atom_site_fract_z
 _atom_site_occupancy
  Ho  Ho0  1  0.963845  0.250000  0.564839  1
  Ho  Ho1  1  0.036155  0.750000  0.435161  1
  Ta  Ta2  1  0.000000  0.000000  0.000000  1
  Ta  Ta3  1  0.000000  0.500000  0.000000  1
  Ta  Ta4  1  0.530946  0.493769  0.305050  1
  Ta  Ta5  1  0.530946  0.006231  0.305050  1
  Ta  Ta6  1  0.469054  0.993769  0.694950  1
  Ta  Ta7  1  0.469054  0.506231  0.694950  1
  O  O8  1  0.906552  0.250000  0.022454  1
  O  O9  1  0.852937  0.934753  0.215703  1
  O  O10  1  0.852937  0.565247  0.215703  1
  O  O11  1  0.743399  0.956669  0.532068  1
  O  O12  1  0.743399  0.543331  0.532068  1
  O  O13  1  0.664694  0.250000  0.346472  1
  O  O14  1  0.673324  0.948296  0.878856  1
  O  O15  1  0.673324  0.551704  0.878856  1
  O  O16  1  0.580893  0.250000  0.684304  1
  O  O17  1  0.419107  0.750000  0.315696  1
  O  O18  1  0.326676  0.051704  0.121144  1
  O  O19  1  0.326676  0.448296  0.121144  1
  O  O20  1  0.335306  0.750000  0.653528  1
  O  O21  1  0.256601  0.043331  0.467932  1
  O  O22  1  0.256601  0.456669  0.467932  1
  O  O23  1  0.147063  0.065247  0.784297  1
  O  O24  1  0.147063  0.434753  0.784297  1
  O  O25  1  0.093448  0.750000  0.977546  1
