# generated using pymatgen
data_Li12Fe3NiP4(CO7)4
_symmetry_space_group_name_H-M   'P 1'
_cell_length_a   8.47152783
_cell_length_b   6.43878898
_cell_length_c   9.99761666
_cell_angle_alpha   90.00000000
_cell_angle_beta   94.73591113
_cell_angle_gamma   90.00000000
_symmetry_Int_Tables_number   1
_chemical_formula_structural   Li12Fe3NiP4(CO7)4
_chemical_formula_sum   'Li12 Fe3 Ni1 P4 C4 O28'
_cell_volume   543.47193847
_cell_formula_units_Z   1
loop_
 _symmetry_equiv_pos_site_id
 _symmetry_equiv_pos_as_xyz
  1  'x, y, z'
loop_
 _atom_site_type_symbol
 _atom_site_label
 _atom_site_symmetry_multiplicity
 _atom_site_fract_x
 _atom_site_fract_y
 _atom_site_fract_z
 _atom_site_occupancy
  Li  Li0  1  0.906886  0.000000  0.381242  1
  Li  Li1  1  0.903738  0.000000  0.881729  1
  Li  Li2  1  0.724903  0.227568  0.122461  1
  Li  Li3  1  0.724903  0.772432  0.122461  1
  Li  Li4  1  0.724336  0.227015  0.625188  1
  Li  Li5  1  0.724336  0.772985  0.625188  1
  Li  Li6  1  0.274637  0.727843  0.377982  1
  Li  Li7  1  0.274637  0.272157  0.377982  1
  Li  Li8  1  0.274942  0.729256  0.874280  1
  Li  Li9  1  0.274942  0.270744  0.874280  1
  Li  Li10  1  0.094053  0.500000  0.119338  1
  Li  Li11  1  0.095266  0.500000  0.618404  1
  Fe  Fe12  1  0.666162  0.500000  0.395271  1
  Fe  Fe13  1  0.663773  0.500000  0.891476  1
  Fe  Fe14  1  0.333191  0.000000  0.106164  1
  Ni  Ni15  1  0.332887  0.000000  0.604164  1
  P  P16  1  0.587010  0.000000  0.361280  1
  P  P17  1  0.586645  0.000000  0.858516  1
  P  P18  1  0.412475  0.500000  0.140053  1
  P  P19  1  0.411691  0.500000  0.640961  1
  C  C20  1  0.965490  0.500000  0.350010  1
  C  C21  1  0.965193  0.500000  0.851216  1
  C  C22  1  0.034087  0.000000  0.149456  1
  C  C23  1  0.038561  0.000000  0.648663  1
  O  O24  1  0.929027  0.500000  0.473458  1
  O  O25  1  0.887554  0.000000  0.179091  1
  O  O26  1  0.929014  0.500000  0.974339  1
  O  O27  1  0.852075  0.500000  0.253691  1
  O  O28  1  0.892958  0.000000  0.679583  1
  O  O29  1  0.851400  0.500000  0.754918  1
  O  O30  1  0.690416  0.186990  0.414206  1
  O  O31  1  0.690416  0.813010  0.414206  1
  O  O32  1  0.690403  0.186993  0.910937  1
  O  O33  1  0.690403  0.813007  0.910937  1
  O  O34  1  0.578757  0.500000  0.088371  1
  O  O35  1  0.568641  0.000000  0.205012  1
  O  O36  1  0.579636  0.500000  0.592304  1
  O  O37  1  0.567218  0.000000  0.701422  1
  O  O38  1  0.430195  0.500000  0.296751  1
  O  O39  1  0.419829  0.000000  0.413435  1
  O  O40  1  0.428228  0.500000  0.797598  1
  O  O41  1  0.421111  0.000000  0.911141  1
  O  O42  1  0.309205  0.312711  0.087149  1
  O  O43  1  0.309205  0.687289  0.087149  1
  O  O44  1  0.308985  0.687991  0.587288  1
  O  O45  1  0.308985  0.312009  0.587288  1
  O  O46  1  0.147846  0.000000  0.245925  1
  O  O47  1  0.112263  0.500000  0.320753  1
  O  O48  1  0.154656  0.000000  0.743204  1
  O  O49  1  0.070673  0.000000  0.026181  1
  O  O50  1  0.111747  0.500000  0.820990  1
  O  O51  1  0.074412  0.000000  0.524914  1
