# generated using pymatgen
data_Li4FeOF5
_symmetry_space_group_name_H-M   'P 1'
_cell_length_a   5.15431923
_cell_length_b   5.15431923
_cell_length_c   14.43377782
_cell_angle_alpha   90.00000000
_cell_angle_beta   90.00000000
_cell_angle_gamma   120.00000000
_symmetry_Int_Tables_number   1
_chemical_formula_structural   Li4FeOF5
_chemical_formula_sum   'Li12 Fe3 O3 F15'
_cell_volume   332.08806907
_cell_formula_units_Z   3
loop_
 _symmetry_equiv_pos_site_id
 _symmetry_equiv_pos_as_xyz
  1  'x, y, z'
loop_
 _atom_site_type_symbol
 _atom_site_label
 _atom_site_symmetry_multiplicity
 _atom_site_fract_x
 _atom_site_fract_y
 _atom_site_fract_z
 _atom_site_occupancy
  Li  Li0  1  0.122390  0.570243  0.502038  1
  Li  Li1  1  0.447853  0.877610  0.168705  1
  Li  Li2  1  0.770993  0.213714  0.826538  1
  Li  Li3  1  0.429757  0.552147  0.835371  1
  Li  Li4  1  0.793756  0.907726  0.999037  1
  Li  Li5  1  0.764360  0.847352  0.491965  1
  Li  Li6  1  0.082992  0.235640  0.158631  1
  Li  Li7  1  0.113970  0.206244  0.665703  1
  Li  Li8  1  0.786286  0.557279  0.159871  1
  Li  Li9  1  0.092274  0.886030  0.332370  1
  Li  Li10  1  0.152648  0.917008  0.825298  1
  Li  Li11  1  0.442721  0.229007  0.493205  1
  Fe  Fe12  1  0.780036  0.250379  0.339792  1
  Fe  Fe13  1  0.749621  0.529657  0.673126  1
  Fe  Fe14  1  0.470343  0.219964  0.006459  1
  O  O15  1  0.737333  0.197716  0.081118  1
  O  O16  1  0.802284  0.539617  0.414451  1
  O  O17  1  0.460383  0.262667  0.747785  1
  F  F18  1  0.079562  0.550545  0.243046  1
  F  F19  1  0.086137  0.542214  0.755655  1
  F  F20  1  0.456077  0.913863  0.422322  1
  F  F21  1  0.470983  0.920438  0.909713  1
  F  F22  1  0.449455  0.529017  0.576379  1
  F  F23  1  0.457786  0.543923  0.088989  1
  F  F24  1  0.813549  0.261918  0.586793  1
  F  F25  1  0.805396  0.938756  0.251174  1
  F  F26  1  0.811244  0.889102  0.751104  1
  F  F27  1  0.738082  0.551631  0.920126  1
  F  F28  1  0.077858  0.188756  0.417770  1
  F  F29  1  0.133360  0.194604  0.917841  1
  F  F30  1  0.110898  0.922142  0.084437  1
  F  F31  1  0.061244  0.866640  0.584508  1
  F  F32  1  0.448369  0.186451  0.253460  1
