# generated using pymatgen
data_Li2AlVO4
_symmetry_space_group_name_H-M   'P 1'
_cell_length_a   4.99265576
_cell_length_b   6.44350647
_cell_length_c   11.07945890
_cell_angle_alpha   90.00000000
_cell_angle_beta   90.00000000
_cell_angle_gamma   90.00000000
_symmetry_Int_Tables_number   1
_chemical_formula_structural   Li2AlVO4
_chemical_formula_sum   'Li8 Al4 V4 O16'
_cell_volume   356.42851609
_cell_formula_units_Z   4
loop_
 _symmetry_equiv_pos_site_id
 _symmetry_equiv_pos_as_xyz
  1  'x, y, z'
loop_
 _atom_site_type_symbol
 _atom_site_label
 _atom_site_symmetry_multiplicity
 _atom_site_fract_x
 _atom_site_fract_y
 _atom_site_fract_z
 _atom_site_occupancy
  Li  Li0  1  0.753209  0.003410  0.169005  1
  Li  Li1  1  0.754508  0.248583  0.912082  1
  Li  Li2  1  0.754508  0.251417  0.412082  1
  Li  Li3  1  0.753209  0.496590  0.669005  1
  Li  Li4  1  0.253209  0.503410  0.330995  1
  Li  Li5  1  0.254508  0.748583  0.587918  1
  Li  Li6  1  0.254508  0.751417  0.087918  1
  Li  Li7  1  0.253209  0.996590  0.830995  1
  Al  Al8  1  0.260709  0.005239  0.332011  1
  Al  Al9  1  0.260709  0.494761  0.832011  1
  Al  Al10  1  0.760709  0.505239  0.167989  1
  Al  Al11  1  0.760709  0.994761  0.667989  1
  V  V12  1  0.253694  0.245550  0.582608  1
  V  V13  1  0.253694  0.254450  0.082608  1
  V  V14  1  0.753694  0.745550  0.917392  1
  V  V15  1  0.753694  0.754450  0.417392  1
  O  O16  1  0.118855  0.004036  0.664536  1
  O  O17  1  0.157038  0.012615  0.177651  1
  O  O18  1  0.158832  0.266312  0.912925  1
  O  O19  1  0.646279  0.224531  0.592582  1
  O  O20  1  0.646279  0.275469  0.092582  1
  O  O21  1  0.158832  0.233688  0.412925  1
  O  O22  1  0.157038  0.487385  0.677651  1
  O  O23  1  0.118855  0.495964  0.164536  1
  O  O24  1  0.618855  0.504036  0.835464  1
  O  O25  1  0.657038  0.512615  0.322349  1
  O  O26  1  0.658832  0.766312  0.587075  1
  O  O27  1  0.146279  0.724531  0.907418  1
  O  O28  1  0.146279  0.775469  0.407418  1
  O  O29  1  0.658832  0.733688  0.087075  1
  O  O30  1  0.657038  0.987385  0.822349  1
  O  O31  1  0.618855  0.995964  0.335464  1
