# generated using pymatgen
data_GeWO4
_symmetry_space_group_name_H-M   'P 1'
_cell_length_a   5.09685737
_cell_length_b   6.04224488
_cell_length_c   5.16984493
_cell_angle_alpha   90.00000000
_cell_angle_beta   91.11660530
_cell_angle_gamma   90.00000000
_symmetry_Int_Tables_number   1
_chemical_formula_structural   GeWO4
_chemical_formula_sum   'Ge2 W2 O8'
_cell_volume   159.18269090
_cell_formula_units_Z   2
loop_
 _symmetry_equiv_pos_site_id
 _symmetry_equiv_pos_as_xyz
  1  'x, y, z'
loop_
 _atom_site_type_symbol
 _atom_site_label
 _atom_site_symmetry_multiplicity
 _atom_site_fract_x
 _atom_site_fract_y
 _atom_site_fract_z
 _atom_site_occupancy
  Ge  Ge0  1  0.000000  0.308380  0.250000  1
  Ge  Ge1  1  0.000000  0.691620  0.750000  1
  W  W2  1  0.500000  0.829824  0.250000  1
  W  W3  1  0.500000  0.170176  0.750000  1
  O  O4  1  0.704349  0.097804  0.442538  1
  O  O5  1  0.704349  0.902196  0.942538  1
  O  O6  1  0.742241  0.635967  0.386663  1
  O  O7  1  0.742241  0.364033  0.886663  1
  O  O8  1  0.257759  0.635967  0.113337  1
  O  O9  1  0.257759  0.364033  0.613337  1
  O  O10  1  0.295651  0.097804  0.057462  1
  O  O11  1  0.295651  0.902196  0.557462  1
