# generated using pymatgen
data_LiVFeP2(HO5)2
_symmetry_space_group_name_H-M   'P 1'
_cell_length_a   5.20947569
_cell_length_b   7.42053570
_cell_length_c   10.24889418
_cell_angle_alpha   103.50386910
_cell_angle_beta   100.09604601
_cell_angle_gamma   105.17855876
_symmetry_Int_Tables_number   1
_chemical_formula_structural   LiVFeP2(HO5)2
_chemical_formula_sum   'Li2 V2 Fe2 P4 H4 O20'
_cell_volume   359.80598836
_cell_formula_units_Z   2
loop_
 _symmetry_equiv_pos_site_id
 _symmetry_equiv_pos_as_xyz
  1  'x, y, z'
loop_
 _atom_site_type_symbol
 _atom_site_label
 _atom_site_symmetry_multiplicity
 _atom_site_fract_x
 _atom_site_fract_y
 _atom_site_fract_z
 _atom_site_occupancy
  Li  Li0  1  0.352344  0.126043  0.280641  1
  Li  Li1  1  0.647656  0.873957  0.719359  1
  V  V2  1  0.744010  0.743791  0.248441  1
  V  V3  1  0.255990  0.256209  0.751559  1
  Fe  Fe4  1  0.000000  0.000000  0.000000  1
  Fe  Fe5  1  0.500000  0.500000  0.500000  1
  P  P6  1  0.614223  0.288169  0.064957  1
  P  P7  1  0.888789  0.205196  0.436370  1
  P  P8  1  0.111211  0.794804  0.563630  1
  P  P9  1  0.385777  0.711831  0.935043  1
  H  H10  1  0.147392  0.793739  0.143826  1
  H  H11  1  0.335098  0.687208  0.346585  1
  H  H12  1  0.664902  0.312792  0.653415  1
  H  H13  1  0.852608  0.206261  0.856174  1
  O  O14  1  0.791254  0.157907  0.084902  1
  O  O15  1  0.348020  0.219838  0.110598  1
  O  O16  1  0.446624  0.715724  0.091773  1
  O  O17  1  0.781798  0.502964  0.153546  1
  O  O18  1  0.703898  0.998182  0.341667  1
  O  O19  1  0.035482  0.880655  0.165374  1
  O  O20  1  0.161815  0.266358  0.395716  1
  O  O21  1  0.482109  0.626197  0.342262  1
  O  O22  1  0.712849  0.338761  0.414025  1
  O  O23  1  0.057247  0.790376  0.407331  1
  O  O24  1  0.942753  0.209624  0.592669  1
  O  O25  1  0.287151  0.661239  0.585975  1
  O  O26  1  0.517891  0.373803  0.657738  1
  O  O27  1  0.838185  0.733642  0.604284  1
  O  O28  1  0.964518  0.119345  0.834626  1
  O  O29  1  0.296102  0.001818  0.658333  1
  O  O30  1  0.218202  0.497036  0.846454  1
  O  O31  1  0.553376  0.284276  0.908227  1
  O  O32  1  0.651980  0.780162  0.889402  1
  O  O33  1  0.208746  0.842093  0.915098  1
