# generated using pymatgen
data_Hf3N2O3
_symmetry_space_group_name_H-M   'P 1'
_cell_length_a   5.67983666
_cell_length_b   5.67983666
_cell_length_c   10.73597704
_cell_angle_alpha   90.00000000
_cell_angle_beta   90.00000000
_cell_angle_gamma   139.21000888
_symmetry_Int_Tables_number   1
_chemical_formula_structural   Hf3N2O3
_chemical_formula_sum   'Hf6 N4 O6'
_cell_volume   226.26541919
_cell_formula_units_Z   2
loop_
 _symmetry_equiv_pos_site_id
 _symmetry_equiv_pos_as_xyz
  1  'x, y, z'
loop_
 _atom_site_type_symbol
 _atom_site_label
 _atom_site_symmetry_multiplicity
 _atom_site_fract_x
 _atom_site_fract_y
 _atom_site_fract_z
 _atom_site_occupancy
  Hf  Hf0  1  0.137393  0.862607  0.939847  1
  Hf  Hf1  1  0.134889  0.865111  0.553270  1
  Hf  Hf2  1  0.185858  0.814142  0.249109  1
  Hf  Hf3  1  0.814142  0.185858  0.749109  1
  Hf  Hf4  1  0.865111  0.134889  0.053270  1
  Hf  Hf5  1  0.862607  0.137393  0.439847  1
  N  N6  1  0.046742  0.953258  0.384949  1
  N  N7  1  0.704607  0.295393  0.575591  1
  N  N8  1  0.295393  0.704607  0.075591  1
  N  N9  1  0.953258  0.046742  0.884949  1
  O  O10  1  0.044979  0.955021  0.116953  1
  O  O11  1  0.691584  0.308416  0.919245  1
  O  O12  1  0.755076  0.244924  0.261035  1
  O  O13  1  0.244924  0.755076  0.761035  1
  O  O14  1  0.308416  0.691584  0.419245  1
  O  O15  1  0.955021  0.044979  0.616953  1
