# generated using pymatgen
data_Li3CrCo3O8
_symmetry_space_group_name_H-M   'P 1'
_cell_length_a   5.71030737
_cell_length_b   5.71030737
_cell_length_c   5.80360752
_cell_angle_alpha   61.11179669
_cell_angle_beta   118.88820331
_cell_angle_gamma   119.72745594
_symmetry_Int_Tables_number   1
_chemical_formula_structural   Li3CrCo3O8
_chemical_formula_sum   'Li3 Cr1 Co3 O8'
_cell_volume   136.30596941
_cell_formula_units_Z   1
loop_
 _symmetry_equiv_pos_site_id
 _symmetry_equiv_pos_as_xyz
  1  'x, y, z'
loop_
 _atom_site_type_symbol
 _atom_site_label
 _atom_site_symmetry_multiplicity
 _atom_site_fract_x
 _atom_site_fract_y
 _atom_site_fract_z
 _atom_site_occupancy
  Li  Li0  1  0.500000  0.000000  0.500000  1
  Li  Li1  1  0.000000  0.500000  0.500000  1
  Li  Li2  1  0.500000  0.500000  0.500000  1
  Cr  Cr3  1  0.000000  0.000000  0.000000  1
  Co  Co4  1  0.500000  1.000000  0.000000  1
  Co  Co5  1  0.000000  0.500000  0.000000  1
  Co  Co6  1  0.500000  0.500000  0.000000  1
  O  O7  1  0.268587  0.731413  0.793467  1
  O  O8  1  0.749406  0.724142  0.786143  1
  O  O9  1  0.244497  0.755503  0.222875  1
  O  O10  1  0.724142  0.749406  0.213857  1
  O  O11  1  0.275858  0.250594  0.786143  1
  O  O12  1  0.755503  0.244497  0.777125  1
  O  O13  1  0.250594  0.275858  0.213857  1
  O  O14  1  0.731413  0.268587  0.206533  1
