# generated using pymatgen
data_Li2VF6
_symmetry_space_group_name_H-M   'P 1'
_cell_length_a   5.81696192
_cell_length_b   5.81696192
_cell_length_c   4.74410776
_cell_angle_alpha   74.72703353
_cell_angle_beta   105.27296647
_cell_angle_gamma   124.83823147
_symmetry_Int_Tables_number   1
_chemical_formula_structural   Li2VF6
_chemical_formula_sum   'Li2 V1 F6'
_cell_volume   125.80215794
_cell_formula_units_Z   1
loop_
 _symmetry_equiv_pos_site_id
 _symmetry_equiv_pos_as_xyz
  1  'x, y, z'
loop_
 _atom_site_type_symbol
 _atom_site_label
 _atom_site_symmetry_multiplicity
 _atom_site_fract_x
 _atom_site_fract_y
 _atom_site_fract_z
 _atom_site_occupancy
  Li  Li0  1  0.650653  0.349347  0.643889  1
  Li  Li1  1  0.349347  0.650653  0.356111  1
  V  V2  1  0.000000  0.000000  0.000000  1
  F  F3  1  0.310497  0.174051  0.807404  1
  F  F4  1  0.833507  0.166493  0.685554  1
  F  F5  1  0.174051  0.310497  0.192596  1
  F  F6  1  0.825949  0.689503  0.807404  1
  F  F7  1  0.166493  0.833507  0.314446  1
  F  F8  1  0.689503  0.825949  0.192596  1
