# generated using pymatgen
data_Fe4O7F
_symmetry_space_group_name_H-M   'P 1'
_cell_length_a   6.00323204
_cell_length_b   4.64710120
_cell_length_c   9.26615347
_cell_angle_alpha   90.00000000
_cell_angle_beta   90.39791830
_cell_angle_gamma   90.00000000
_symmetry_Int_Tables_number   1
_chemical_formula_structural   Fe4O7F
_chemical_formula_sum   'Fe8 O14 F2'
_cell_volume   258.49745729
_cell_formula_units_Z   2
loop_
 _symmetry_equiv_pos_site_id
 _symmetry_equiv_pos_as_xyz
  1  'x, y, z'
loop_
 _atom_site_type_symbol
 _atom_site_label
 _atom_site_symmetry_multiplicity
 _atom_site_fract_x
 _atom_site_fract_y
 _atom_site_fract_z
 _atom_site_occupancy
  Fe  Fe0  1  0.377127  0.003275  0.128671  1
  Fe  Fe1  1  0.874181  0.025533  0.117763  1
  Fe  Fe2  1  0.382126  0.982348  0.620720  1
  Fe  Fe3  1  0.868422  0.987626  0.618222  1
  Fe  Fe4  1  0.617874  0.482348  0.379280  1
  Fe  Fe5  1  0.131578  0.487626  0.381778  1
  Fe  Fe6  1  0.622873  0.503275  0.871329  1
  Fe  Fe7  1  0.125819  0.525533  0.882237  1
  O  O8  1  0.627095  0.784578  0.522861  1
  O  O9  1  0.125650  0.802063  0.530529  1
  O  O10  1  0.625916  0.823077  0.029754  1
  O  O11  1  0.124586  0.825995  0.032727  1
  O  O12  1  0.377146  0.679542  0.280382  1
  O  O13  1  0.371961  0.695954  0.778303  1
  O  O14  1  0.875726  0.694602  0.778669  1
  O  O15  1  0.372905  0.284578  0.477139  1
  O  O16  1  0.874350  0.302063  0.469471  1
  O  O17  1  0.374084  0.323077  0.970246  1
  O  O18  1  0.875414  0.325995  0.967273  1
  O  O19  1  0.628039  0.195954  0.221697  1
  O  O20  1  0.124274  0.194602  0.221331  1
  O  O21  1  0.622854  0.179542  0.719618  1
  F  F22  1  0.877791  0.695406  0.275516  1
  F  F23  1  0.122209  0.195406  0.724484  1
