# generated using pymatgen
data_Sm3Ir
_symmetry_space_group_name_H-M   'P 1'
_cell_length_a   6.48669446
_cell_length_b   7.32171530
_cell_length_c   9.70591695
_cell_angle_alpha   90.00000000
_cell_angle_beta   90.00000000
_cell_angle_gamma   90.00000000
_symmetry_Int_Tables_number   1
_chemical_formula_structural   Sm3Ir
_chemical_formula_sum   'Sm12 Ir4'
_cell_volume   460.97019975
_cell_formula_units_Z   4
loop_
 _symmetry_equiv_pos_site_id
 _symmetry_equiv_pos_as_xyz
  1  'x, y, z'
loop_
 _atom_site_type_symbol
 _atom_site_label
 _atom_site_symmetry_multiplicity
 _atom_site_fract_x
 _atom_site_fract_y
 _atom_site_fract_z
 _atom_site_occupancy
  Sm  Sm0  1  0.140818  0.035865  0.250000  1
  Sm  Sm1  1  0.640818  0.464135  0.750000  1
  Sm  Sm2  1  0.359182  0.535865  0.250000  1
  Sm  Sm3  1  0.859182  0.964135  0.750000  1
  Sm  Sm4  1  0.672199  0.175979  0.064964  1
  Sm  Sm5  1  0.172199  0.324021  0.935036  1
  Sm  Sm6  1  0.827801  0.675979  0.435036  1
  Sm  Sm7  1  0.327801  0.824021  0.564964  1
  Sm  Sm8  1  0.327801  0.824021  0.935036  1
  Sm  Sm9  1  0.827801  0.675979  0.064964  1
  Sm  Sm10  1  0.172199  0.324021  0.564964  1
  Sm  Sm11  1  0.672199  0.175979  0.435036  1
  Ir  Ir12  1  0.943032  0.381345  0.250000  1
  Ir  Ir13  1  0.443032  0.118655  0.750000  1
  Ir  Ir14  1  0.556968  0.881345  0.250000  1
  Ir  Ir15  1  0.056968  0.618655  0.750000  1
