# generated using pymatgen
data_Fe4OF7
_symmetry_space_group_name_H-M   'P 1'
_cell_length_a   5.84111588
_cell_length_b   5.84111588
_cell_length_c   9.30339329
_cell_angle_alpha   87.90472237
_cell_angle_beta   92.09527763
_cell_angle_gamma   107.54395236
_symmetry_Int_Tables_number   1
_chemical_formula_structural   Fe4OF7
_chemical_formula_sum   'Fe8 O2 F14'
_cell_volume   302.34362272
_cell_formula_units_Z   2
loop_
 _symmetry_equiv_pos_site_id
 _symmetry_equiv_pos_as_xyz
  1  'x, y, z'
loop_
 _atom_site_type_symbol
 _atom_site_label
 _atom_site_symmetry_multiplicity
 _atom_site_fract_x
 _atom_site_fract_y
 _atom_site_fract_z
 _atom_site_occupancy
  Fe  Fe0  1  0.118225  0.881775  0.629125  1
  Fe  Fe1  1  0.881775  0.118225  0.370875  1
  Fe  Fe2  1  0.731076  0.268924  0.753760  1
  Fe  Fe3  1  0.000000  0.000000  0.000000  1
  Fe  Fe4  1  0.500000  0.500000  0.500000  1
  Fe  Fe5  1  0.614467  0.385533  0.140975  1
  Fe  Fe6  1  0.385533  0.614467  0.859025  1
  Fe  Fe7  1  0.268924  0.731076  0.246240  1
  O  O8  1  0.476201  0.523799  0.287961  1
  O  O9  1  0.523799  0.476201  0.712039  1
  F  F10  1  0.197675  0.197675  0.500000  1
  F  F11  1  0.053387  0.559321  0.755460  1
  F  F12  1  0.802325  0.802325  0.500000  1
  F  F13  1  0.231197  0.768803  0.025546  1
  F  F14  1  0.960956  0.039044  0.774553  1
  F  F15  1  0.726529  0.273471  0.524238  1
  F  F16  1  0.768803  0.231197  0.974454  1
  F  F17  1  0.039044  0.960956  0.225447  1
  F  F18  1  0.273471  0.726529  0.475762  1
  F  F19  1  0.695378  0.695378  0.000000  1
  F  F20  1  0.440679  0.946613  0.755460  1
  F  F21  1  0.946613  0.440679  0.244540  1
  F  F22  1  0.304622  0.304622  0.000000  1
  F  F23  1  0.559321  0.053387  0.244540  1
