# generated using pymatgen
data_Hf2N2O
_symmetry_space_group_name_H-M   'P 1'
_cell_length_a   8.68941084
_cell_length_b   8.73010606
_cell_length_c   8.74878841
_cell_angle_alpha   109.44859853
_cell_angle_beta   109.33947963
_cell_angle_gamma   109.31668846
_symmetry_Int_Tables_number   1
_chemical_formula_structural   Hf2N2O
_chemical_formula_sum   'Hf16 N16 O8'
_cell_volume   512.83777945
_cell_formula_units_Z   8
loop_
 _symmetry_equiv_pos_site_id
 _symmetry_equiv_pos_as_xyz
  1  'x, y, z'
loop_
 _atom_site_type_symbol
 _atom_site_label
 _atom_site_symmetry_multiplicity
 _atom_site_fract_x
 _atom_site_fract_y
 _atom_site_fract_z
 _atom_site_occupancy
  Hf  Hf0  1  0.990028  0.001275  0.491169  1
  Hf  Hf1  1  0.251880  0.706991  0.464857  1
  Hf  Hf2  1  0.291878  0.040773  0.250623  1
  Hf  Hf3  1  0.776181  0.527226  0.249188  1
  Hf  Hf4  1  0.741717  0.787987  0.032998  1
  Hf  Hf5  1  0.032181  0.259371  0.285751  1
  Hf  Hf6  1  0.469826  0.747919  0.214888  1
  Hf  Hf7  1  0.489556  0.491285  0.489440  1
  Hf  Hf8  1  0.501025  0.999881  0.011079  1
  Hf  Hf9  1  0.005400  0.491886  0.995769  1
  Hf  Hf10  1  0.966960  0.741542  0.713847  1
  Hf  Hf11  1  0.542623  0.253123  0.785511  1
  Hf  Hf12  1  0.256354  0.214172  0.972837  1
  Hf  Hf13  1  0.713470  0.968511  0.749630  1
  Hf  Hf14  1  0.211296  0.465350  0.750659  1
  Hf  Hf15  1  0.747828  0.285782  0.535194  1
  N  N16  1  0.733853  0.762860  0.272369  1
  N  N17  1  0.988472  0.463603  0.230737  1
  N  N18  1  0.533290  0.274606  0.040243  1
  N  N19  1  0.543274  0.032305  0.271921  1
  N  N20  1  0.511738  0.743529  0.469552  1
  N  N21  1  0.225088  0.954917  0.964514  1
  N  N22  1  0.260141  0.272085  0.228565  1
  N  N23  1  0.730377  0.492750  0.456697  1
  N  N24  1  0.485460  0.263024  0.538155  1
  N  N25  1  0.774136  0.227681  0.768690  1
  N  N26  1  0.774493  0.042309  0.030857  1
  N  N27  1  0.467567  0.725826  0.951255  1
  N  N28  1  0.238325  0.464374  0.011536  1
  N  N29  1  0.011989  0.545877  0.774807  1
  N  N30  1  0.273439  0.515993  0.548543  1
  N  N31  1  0.954467  0.222197  0.487747  1
  O  O32  1  0.960024  0.006012  0.728991  1
  O  O33  1  0.451299  0.967092  0.724095  1
  O  O34  1  0.059112  0.785377  0.524892  1
  O  O35  1  0.039503  0.985420  0.267548  1
  O  O36  1  0.221669  0.773507  0.235334  1
  O  O37  1  0.749571  0.731177  0.777697  1
  O  O38  1  0.757885  0.536114  0.977644  1
  O  O39  1  0.266628  0.228292  0.724167  1
