# generated using pymatgen
data_Li4TiCo3O8
_symmetry_space_group_name_H-M   'P 1'
_cell_length_a   5.77736679
_cell_length_b   5.77736679
_cell_length_c   5.88197252
_cell_angle_alpha   60.62519475
_cell_angle_beta   119.37480525
_cell_angle_gamma   119.41992786
_symmetry_Int_Tables_number   1
_chemical_formula_structural   Li4TiCo3O8
_chemical_formula_sum   'Li4 Ti1 Co3 O8'
_cell_volume   140.73793783
_cell_formula_units_Z   1
loop_
 _symmetry_equiv_pos_site_id
 _symmetry_equiv_pos_as_xyz
  1  'x, y, z'
loop_
 _atom_site_type_symbol
 _atom_site_label
 _atom_site_symmetry_multiplicity
 _atom_site_fract_x
 _atom_site_fract_y
 _atom_site_fract_z
 _atom_site_occupancy
  Li  Li0  1  0.500000  0.500000  0.500000  1
  Li  Li1  1  1.000000  0.500000  0.500000  1
  Li  Li2  1  0.500000  0.000000  0.500000  1
  Li  Li3  1  0.000000  0.000000  0.500000  1
  Ti  Ti4  1  0.000000  0.000000  0.000000  1
  Co  Co5  1  0.500000  0.000000  0.000000  1
  Co  Co6  1  1.000000  0.500000  0.000000  1
  Co  Co7  1  0.500000  0.500000  0.000000  1
  O  O8  1  0.253487  0.746513  0.783413  1
  O  O9  1  0.771326  0.752076  0.768719  1
  O  O10  1  0.247924  0.228674  0.768719  1
  O  O11  1  0.746513  0.253487  0.216587  1
  O  O12  1  0.756097  0.243903  0.776499  1
  O  O13  1  0.228674  0.247924  0.231281  1
  O  O14  1  0.752076  0.771326  0.231281  1
  O  O15  1  0.243903  0.756097  0.223501  1
