# generated using pymatgen
data_Na2BSbSO7
_symmetry_space_group_name_H-M   'P 1'
_cell_length_a   5.57077091
_cell_length_b   6.90616480
_cell_length_c   9.50845879
_cell_angle_alpha   90.00000000
_cell_angle_beta   92.27868991
_cell_angle_gamma   90.00000000
_symmetry_Int_Tables_number   1
_chemical_formula_structural   Na2BSbSO7
_chemical_formula_sum   'Na4 B2 Sb2 S2 O14'
_cell_volume   365.52645281
_cell_formula_units_Z   2
loop_
 _symmetry_equiv_pos_site_id
 _symmetry_equiv_pos_as_xyz
  1  'x, y, z'
loop_
 _atom_site_type_symbol
 _atom_site_label
 _atom_site_symmetry_multiplicity
 _atom_site_fract_x
 _atom_site_fract_y
 _atom_site_fract_z
 _atom_site_occupancy
  Na  Na0  1  0.244122  0.497724  0.197003  1
  Na  Na1  1  0.244122  0.002276  0.197003  1
  Na  Na2  1  0.755878  0.502276  0.802997  1
  Na  Na3  1  0.755878  0.997724  0.802997  1
  B  B4  1  0.741265  0.750000  0.087319  1
  B  B5  1  0.258735  0.250000  0.912681  1
  Sb  Sb6  1  0.772628  0.750000  0.355136  1
  Sb  Sb7  1  0.227372  0.250000  0.644864  1
  S  S8  1  0.723187  0.250000  0.395347  1
  S  S9  1  0.276813  0.750000  0.604653  1
  O  O10  1  0.268671  0.250000  0.049587  1
  O  O11  1  0.959164  0.750000  0.177035  1
  O  O12  1  0.541918  0.750000  0.181644  1
  O  O13  1  0.850070  0.077321  0.334556  1
  O  O14  1  0.850070  0.422679  0.334556  1
  O  O15  1  0.244018  0.750000  0.447697  1
  O  O16  1  0.467059  0.250000  0.353011  1
  O  O17  1  0.532941  0.750000  0.646989  1
  O  O18  1  0.755982  0.250000  0.552303  1
  O  O19  1  0.149930  0.577321  0.665444  1
  O  O20  1  0.149930  0.922679  0.665444  1
  O  O21  1  0.458082  0.250000  0.818356  1
  O  O22  1  0.040836  0.250000  0.822965  1
  O  O23  1  0.731329  0.750000  0.950413  1
