# generated using pymatgen
data_Li3Fe2(CuO4)2
_symmetry_space_group_name_H-M   'P 1'
_cell_length_a   5.58295438
_cell_length_b   5.69707344
_cell_length_c   6.23165935
_cell_angle_alpha   116.93651809
_cell_angle_beta   115.79939386
_cell_angle_gamma   89.91930471
_symmetry_Int_Tables_number   1
_chemical_formula_structural   Li3Fe2(CuO4)2
_chemical_formula_sum   'Li3 Fe2 Cu2 O8'
_cell_volume   154.28674368
_cell_formula_units_Z   1
loop_
 _symmetry_equiv_pos_site_id
 _symmetry_equiv_pos_as_xyz
  1  'x, y, z'
loop_
 _atom_site_type_symbol
 _atom_site_label
 _atom_site_symmetry_multiplicity
 _atom_site_fract_x
 _atom_site_fract_y
 _atom_site_fract_z
 _atom_site_occupancy
  Li  Li0  1  0.000000  0.000000  0.500000  1
  Li  Li1  1  0.500000  0.500000  0.000000  1
  Li  Li2  1  0.000000  0.500000  0.500000  1
  Fe  Fe3  1  0.500000  0.500000  0.500000  1
  Fe  Fe4  1  0.500000  0.000000  0.500000  1
  Cu  Cu5  1  0.000000  0.000000  0.000000  1
  Cu  Cu6  1  0.500000  0.000000  0.000000  1
  O  O7  1  0.286320  0.282438  0.548155  1
  O  O8  1  0.260811  0.734534  0.491500  1
  O  O9  1  0.721772  0.186305  0.943783  1
  O  O10  1  0.728140  0.762991  0.955345  1
  O  O11  1  0.271860  0.237009  0.044655  1
  O  O12  1  0.278228  0.813695  0.056217  1
  O  O13  1  0.739189  0.265466  0.508500  1
  O  O14  1  0.713680  0.717562  0.451845  1
