# generated using pymatgen
data_Li5Ni5(SnO6)2
_symmetry_space_group_name_H-M   'P 1'
_cell_length_a   5.21174054
_cell_length_b   5.21174054
_cell_length_c   9.94206968
_cell_angle_alpha   84.82528492
_cell_angle_beta   95.17471508
_cell_angle_gamma   59.90124408
_symmetry_Int_Tables_number   1
_chemical_formula_structural   Li5Ni5(SnO6)2
_chemical_formula_sum   'Li5 Ni5 Sn2 O12'
_cell_volume   229.79194671
_cell_formula_units_Z   1
loop_
 _symmetry_equiv_pos_site_id
 _symmetry_equiv_pos_as_xyz
  1  'x, y, z'
loop_
 _atom_site_type_symbol
 _atom_site_label
 _atom_site_symmetry_multiplicity
 _atom_site_fract_x
 _atom_site_fract_y
 _atom_site_fract_z
 _atom_site_occupancy
  Li  Li0  1  0.815295  0.320253  0.748153  1
  Li  Li1  1  0.676846  0.173529  0.255323  1
  Li  Li2  1  0.320253  0.815295  0.251847  1
  Li  Li3  1  0.173529  0.676846  0.744677  1
  Li  Li4  1  0.086407  0.086407  0.500000  1
  Ni  Ni5  1  0.915673  0.915673  0.000000  1
  Ni  Ni6  1  0.000085  0.496402  0.253340  1
  Ni  Ni7  1  0.496402  0.000085  0.746660  1
  Ni  Ni8  1  0.584443  0.584443  0.000000  1
  Ni  Ni9  1  0.418912  0.418912  0.500000  1
  Sn  Sn10  1  0.752358  0.752358  0.500000  1
  Sn  Sn11  1  0.250179  0.250179  0.000000  1
  O  O12  1  0.036034  0.776765  0.374428  1
  O  O13  1  0.776765  0.036034  0.625572  1
  O  O14  1  0.870829  0.628304  0.880510  1
  O  O15  1  0.628304  0.870829  0.119490  1
  O  O16  1  0.698107  0.470950  0.380224  1
  O  O17  1  0.470950  0.698107  0.619776  1
  O  O18  1  0.542424  0.280348  0.879840  1
  O  O19  1  0.280348  0.542424  0.120160  1
  O  O20  1  0.380347  0.147274  0.382518  1
  O  O21  1  0.147274  0.380347  0.617482  1
  O  O22  1  0.218108  0.960129  0.877671  1
  O  O23  1  0.960129  0.218108  0.122329  1
