# generated using pymatgen
data_CaU2Si2H12O17
_symmetry_space_group_name_H-M   'P 1'
_cell_length_a   6.72066682
_cell_length_b   7.05082406
_cell_length_c   16.07511657
_cell_angle_alpha   90.00000000
_cell_angle_beta   97.72545084
_cell_angle_gamma   90.00000000
_symmetry_Int_Tables_number   1
_chemical_formula_structural   CaU2Si2H12O17
_chemical_formula_sum   'Ca2 U4 Si4 H24 O34'
_cell_volume   754.82545835
_cell_formula_units_Z   2
loop_
 _symmetry_equiv_pos_site_id
 _symmetry_equiv_pos_as_xyz
  1  'x, y, z'
loop_
 _atom_site_type_symbol
 _atom_site_label
 _atom_site_symmetry_multiplicity
 _atom_site_fract_x
 _atom_site_fract_y
 _atom_site_fract_z
 _atom_site_occupancy
  Ca  Ca0  1  0.230271  0.178555  0.232738  1
  Ca  Ca1  1  0.769729  0.678555  0.767262  1
  U  U2  1  0.361488  0.288879  0.993484  1
  U  U3  1  0.638512  0.788879  0.006516  1
  U  U4  1  0.635618  0.723456  0.504762  1
  U  U5  1  0.364382  0.223456  0.495238  1
  Si  Si6  1  0.158739  0.788357  0.963339  1
  Si  Si7  1  0.841261  0.288357  0.036661  1
  Si  Si8  1  0.841491  0.226099  0.532420  1
  Si  Si9  1  0.158509  0.726099  0.467580  1
  H  H10  1  0.151491  0.858612  0.825271  1
  H  H11  1  0.848509  0.358612  0.174729  1
  H  H12  1  0.030474  0.861758  0.342726  1
  H  H13  1  0.969526  0.361758  0.657274  1
  H  H14  1  0.077478  0.836600  0.125417  1
  H  H15  1  0.922522  0.336600  0.874583  1
  H  H16  1  0.207612  0.744844  0.204118  1
  H  H17  1  0.792388  0.244844  0.795882  1
  H  H18  1  0.542021  0.028454  0.736387  1
  H  H19  1  0.457979  0.528454  0.263613  1
  H  H20  1  0.270338  0.577886  0.310427  1
  H  H21  1  0.729662  0.077886  0.689573  1
  H  H22  1  0.033415  0.661119  0.627184  1
  H  H23  1  0.966585  0.161119  0.372816  1
  H  H24  1  0.187590  0.600475  0.708457  1
  H  H25  1  0.812410  0.100475  0.291543  1
  H  H26  1  0.585034  0.942008  0.206646  1
  H  H27  1  0.414966  0.442008  0.793354  1
  H  H28  1  0.570432  0.921964  0.303950  1
  H  H29  1  0.429568  0.421964  0.696050  1
  H  H30  1  0.702347  0.621826  0.195497  1
  H  H31  1  0.297653  0.121826  0.804503  1
  H  H32  1  0.811580  0.572125  0.285365  1
  H  H33  1  0.188420  0.072125  0.714635  1
  O  O34  1  0.359127  0.298274  0.877484  1
  O  O35  1  0.640873  0.798274  0.122516  1
  O  O36  1  0.644215  0.699634  0.619840  1
  O  O37  1  0.355785  0.199634  0.380160  1
  O  O38  1  0.368833  0.271723  0.108685  1
  O  O39  1  0.631167  0.771723  0.891315  1
  O  O40  1  0.620318  0.750317  0.389784  1
  O  O41  1  0.379682  0.250317  0.610216  1
  O  O42  1  0.316918  0.966034  0.981853  1
  O  O43  1  0.683082  0.466034  0.018147  1
  O  O44  1  0.687927  0.044220  0.520010  1
  O  O45  1  0.312073  0.544220  0.479990  1
  O  O46  1  0.314888  0.611937  0.989402  1
  O  O47  1  0.685112  0.111937  0.010598  1
  O  O48  1  0.683316  0.398257  0.501632  1
  O  O49  1  0.316684  0.898257  0.498368  1
  O  O50  1  0.973327  0.790520  0.018664  1
  O  O51  1  0.026673  0.290520  0.981336  1
  O  O52  1  0.026334  0.214658  0.476947  1
  O  O53  1  0.973666  0.714658  0.523053  1
  O  O54  1  0.067959  0.786500  0.861463  1
  O  O55  1  0.932041  0.286500  0.138537  1
  O  O56  1  0.921899  0.236122  0.634857  1
  O  O57  1  0.078101  0.736122  0.365143  1
  O  O58  1  0.147281  0.865790  0.182312  1
  O  O59  1  0.852719  0.365790  0.817688  1
  O  O60  1  0.309212  0.523463  0.258491  1
  O  O61  1  0.690788  0.023463  0.741509  1
  O  O62  1  0.957116  0.110978  0.314060  1
  O  O63  1  0.042884  0.610978  0.685940  1
  O  O64  1  0.562750  0.015309  0.257360  1
  O  O65  1  0.437250  0.515309  0.742640  1
  O  O66  1  0.724441  0.517507  0.237485  1
  O  O67  1  0.275559  0.017507  0.762515  1
