# generated using pymatgen
data_Mn(SbO3)4
_symmetry_space_group_name_H-M   'P 1'
_cell_length_a   5.07611536
_cell_length_b   5.50707679
_cell_length_c   7.55360781
_cell_angle_alpha   95.16603738
_cell_angle_beta   90.59625433
_cell_angle_gamma   90.88521148
_symmetry_Int_Tables_number   1
_chemical_formula_structural   Mn(SbO3)4
_chemical_formula_sum   'Mn1 Sb4 O12'
_cell_volume   210.26017123
_cell_formula_units_Z   1
loop_
 _symmetry_equiv_pos_site_id
 _symmetry_equiv_pos_as_xyz
  1  'x, y, z'
loop_
 _atom_site_type_symbol
 _atom_site_label
 _atom_site_symmetry_multiplicity
 _atom_site_fract_x
 _atom_site_fract_y
 _atom_site_fract_z
 _atom_site_occupancy
  Mn  Mn0  1  0.001406  0.604319  0.708518  1
  Sb  Sb1  1  0.999044  0.987305  0.028784  1
  Sb  Sb2  1  0.497853  0.463520  0.494795  1
  Sb  Sb3  1  0.991216  0.997984  0.498137  1
  Sb  Sb4  1  0.506529  0.464007  0.019046  1
  O  O5  1  0.287247  0.764847  0.593894  1
  O  O6  1  0.153451  0.976258  0.269543  1
  O  O7  1  0.312703  0.158162  0.940901  1
  O  O8  1  0.173098  0.308899  0.599597  1
  O  O9  1  0.823625  0.294332  0.082431  1
  O  O10  1  0.354220  0.483887  0.261101  1
  O  O11  1  0.662287  0.463522  0.753684  1
  O  O12  1  0.173540  0.651282  0.933547  1
  O  O13  1  0.838498  0.646003  0.476300  1
  O  O14  1  0.683261  0.785682  0.077971  1
  O  O15  1  0.886407  0.927927  0.755881  1
  O  O16  1  0.655613  0.140665  0.446569  1
