# generated using pymatgen
data_Li2NiSn(PO4)2
_symmetry_space_group_name_H-M   'P 1'
_cell_length_a   4.83134602
_cell_length_b   6.37191175
_cell_length_c   10.85358063
_cell_angle_alpha   90.00000000
_cell_angle_beta   90.88066815
_cell_angle_gamma   90.00000000
_symmetry_Int_Tables_number   1
_chemical_formula_structural   Li2NiSn(PO4)2
_chemical_formula_sum   'Li4 Ni2 Sn2 P4 O16'
_cell_volume   334.08703944
_cell_formula_units_Z   2
loop_
 _symmetry_equiv_pos_site_id
 _symmetry_equiv_pos_as_xyz
  1  'x, y, z'
loop_
 _atom_site_type_symbol
 _atom_site_label
 _atom_site_symmetry_multiplicity
 _atom_site_fract_x
 _atom_site_fract_y
 _atom_site_fract_z
 _atom_site_occupancy
  Li  Li0  1  0.000000  0.000000  0.500000  1
  Li  Li1  1  0.000000  0.500000  0.500000  1
  Li  Li2  1  0.500000  0.000000  0.000000  1
  Li  Li3  1  0.500000  0.500000  0.000000  1
  Ni  Ni4  1  0.530941  0.250000  0.714459  1
  Ni  Ni5  1  0.469059  0.750000  0.285541  1
  Sn  Sn6  1  0.015963  0.750000  0.774926  1
  Sn  Sn7  1  0.984037  0.250000  0.225074  1
  P  P8  1  0.572203  0.750000  0.573106  1
  P  P9  1  0.132788  0.250000  0.892865  1
  P  P10  1  0.867212  0.750000  0.107135  1
  P  P11  1  0.427797  0.250000  0.426894  1
  O  O12  1  0.293054  0.250000  0.556851  1
  O  O13  1  0.253577  0.750000  0.569576  1
  O  O14  1  0.694361  0.947508  0.643514  1
  O  O15  1  0.694361  0.552492  0.643514  1
  O  O16  1  0.278980  0.441391  0.829083  1
  O  O17  1  0.278980  0.058609  0.829083  1
  O  O18  1  0.816102  0.250000  0.879534  1
  O  O19  1  0.758129  0.750000  0.971484  1
  O  O20  1  0.241871  0.250000  0.028516  1
  O  O21  1  0.183898  0.750000  0.120466  1
  O  O22  1  0.721020  0.941391  0.170917  1
  O  O23  1  0.721020  0.558609  0.170917  1
  O  O24  1  0.305639  0.447508  0.356486  1
  O  O25  1  0.305639  0.052492  0.356486  1
  O  O26  1  0.746423  0.250000  0.430424  1
  O  O27  1  0.706946  0.750000  0.443149  1
