# generated using pymatgen
data_Li5CoO4
_symmetry_space_group_name_H-M   'P 1'
_cell_length_a   6.45574983
_cell_length_b   6.45574983
_cell_length_c   4.72322770
_cell_angle_alpha   90.00000000
_cell_angle_beta   90.00000000
_cell_angle_gamma   93.98616502
_symmetry_Int_Tables_number   1
_chemical_formula_structural   Li5CoO4
_chemical_formula_sum   'Li10 Co2 O8'
_cell_volume   196.37236831
_cell_formula_units_Z   2
loop_
 _symmetry_equiv_pos_site_id
 _symmetry_equiv_pos_as_xyz
  1  'x, y, z'
loop_
 _atom_site_type_symbol
 _atom_site_label
 _atom_site_symmetry_multiplicity
 _atom_site_fract_x
 _atom_site_fract_y
 _atom_site_fract_z
 _atom_site_occupancy
  Li  Li0  1  0.049312  0.541176  0.526236  1
  Li  Li1  1  0.719811  0.715547  0.441462  1
  Li  Li2  1  0.784453  0.780189  0.941462  1
  Li  Li3  1  0.458824  0.950688  0.473764  1
  Li  Li4  1  0.017826  0.982174  0.500000  1
  Li  Li5  1  0.549312  0.041176  0.973764  1
  Li  Li6  1  0.219811  0.215547  0.058538  1
  Li  Li7  1  0.284453  0.280189  0.558538  1
  Li  Li8  1  0.958824  0.450688  0.026236  1
  Li  Li9  1  0.517826  0.482174  0.000000  1
  Co  Co10  1  0.243378  0.756622  0.000000  1
  Co  Co11  1  0.743378  0.256622  0.500000  1
  O  O12  1  0.761992  0.499677  0.724216  1
  O  O13  1  0.000323  0.738008  0.224216  1
  O  O14  1  0.513693  0.765935  0.160405  1
  O  O15  1  0.734065  0.986307  0.660405  1
  O  O16  1  0.261992  0.999677  0.775784  1
  O  O17  1  0.013693  0.265935  0.339595  1
  O  O18  1  0.500323  0.238008  0.275784  1
  O  O19  1  0.234065  0.486307  0.839595  1
