# generated using pymatgen
data_Sr2CaI6
_symmetry_space_group_name_H-M   'P 1'
_cell_length_a   8.15302303
_cell_length_b   9.19257278
_cell_length_c   22.28518146
_cell_angle_alpha   90.00000000
_cell_angle_beta   90.00000000
_cell_angle_gamma   90.00000000
_symmetry_Int_Tables_number   1
_chemical_formula_structural   Sr2CaI6
_chemical_formula_sum   'Sr8 Ca4 I24'
_cell_volume   1670.21323511
_cell_formula_units_Z   4
loop_
 _symmetry_equiv_pos_site_id
 _symmetry_equiv_pos_as_xyz
  1  'x, y, z'
loop_
 _atom_site_type_symbol
 _atom_site_label
 _atom_site_symmetry_multiplicity
 _atom_site_fract_x
 _atom_site_fract_y
 _atom_site_fract_z
 _atom_site_occupancy
  Sr  Sr0  1  0.734878  0.646386  0.162007  1
  Sr  Sr1  1  0.234878  0.353614  0.162007  1
  Sr  Sr2  1  0.234878  0.853614  0.337993  1
  Sr  Sr3  1  0.734878  0.146386  0.337993  1
  Sr  Sr4  1  0.265122  0.853614  0.662007  1
  Sr  Sr5  1  0.765122  0.146386  0.662007  1
  Sr  Sr6  1  0.765122  0.646386  0.837993  1
  Sr  Sr7  1  0.265122  0.353614  0.837993  1
  Ca  Ca8  1  0.250000  0.861190  0.000000  1
  Ca  Ca9  1  0.750000  0.138810  0.000000  1
  Ca  Ca10  1  0.750000  0.638810  0.500000  1
  Ca  Ca11  1  0.250000  0.361190  0.500000  1
  I  I12  1  0.062278  0.095307  0.080699  1
  I  I13  1  0.562278  0.904693  0.080699  1
  I  I14  1  0.072892  0.619999  0.079959  1
  I  I15  1  0.572892  0.380001  0.079959  1
  I  I16  1  0.398018  0.617621  0.242810  1
  I  I17  1  0.898018  0.382379  0.242810  1
  I  I18  1  0.898018  0.882379  0.257190  1
  I  I19  1  0.398018  0.117621  0.257190  1
  I  I20  1  0.572892  0.880001  0.420041  1
  I  I21  1  0.072892  0.119999  0.420041  1
  I  I22  1  0.062278  0.595307  0.419301  1
  I  I23  1  0.562278  0.404693  0.419301  1
  I  I24  1  0.437722  0.595307  0.580699  1
  I  I25  1  0.937722  0.404693  0.580699  1
  I  I26  1  0.927108  0.880001  0.579959  1
  I  I27  1  0.427108  0.119999  0.579959  1
  I  I28  1  0.601982  0.882379  0.742810  1
  I  I29  1  0.101982  0.117621  0.742810  1
  I  I30  1  0.101982  0.617621  0.757190  1
  I  I31  1  0.601982  0.382379  0.757190  1
  I  I32  1  0.427108  0.619999  0.920041  1
  I  I33  1  0.927108  0.380001  0.920041  1
  I  I34  1  0.937722  0.904693  0.919301  1
  I  I35  1  0.437722  0.095307  0.919301  1
