# generated using pymatgen
data_Li3NbOF6
_symmetry_space_group_name_H-M   'P 1'
_cell_length_a   5.29868496
_cell_length_b   5.36050407
_cell_length_c   16.57990984
_cell_angle_alpha   90.00000000
_cell_angle_beta   90.00000000
_cell_angle_gamma   90.00000000
_symmetry_Int_Tables_number   1
_chemical_formula_structural   Li3NbOF6
_chemical_formula_sum   'Li12 Nb4 O4 F24'
_cell_volume   470.92949676
_cell_formula_units_Z   4
loop_
 _symmetry_equiv_pos_site_id
 _symmetry_equiv_pos_as_xyz
  1  'x, y, z'
loop_
 _atom_site_type_symbol
 _atom_site_label
 _atom_site_symmetry_multiplicity
 _atom_site_fract_x
 _atom_site_fract_y
 _atom_site_fract_z
 _atom_site_occupancy
  Li  Li0  1  0.254311  0.533491  0.753492  1
  Li  Li1  1  0.760754  0.503686  0.871731  1
  Li  Li2  1  0.280695  0.516573  0.491506  1
  Li  Li3  1  0.219305  0.483427  0.991506  1
  Li  Li4  1  0.739246  0.496314  0.371731  1
  Li  Li5  1  0.245689  0.466509  0.253492  1
  Li  Li6  1  0.745689  0.033491  0.746508  1
  Li  Li7  1  0.239246  0.003686  0.628269  1
  Li  Li8  1  0.719305  0.016573  0.008494  1
  Li  Li9  1  0.780695  0.983427  0.508494  1
  Li  Li10  1  0.260754  0.996314  0.128269  1
  Li  Li11  1  0.754311  0.966509  0.246508  1
  Nb  Nb12  1  0.742618  0.497927  0.125401  1
  Nb  Nb13  1  0.757382  0.502073  0.625401  1
  Nb  Nb14  1  0.257382  0.997927  0.374599  1
  Nb  Nb15  1  0.242618  0.002073  0.874599  1
  O  O16  1  0.418042  0.711558  0.358803  1
  O  O17  1  0.081958  0.288442  0.858803  1
  O  O18  1  0.581958  0.211558  0.141197  1
  O  O19  1  0.918042  0.788442  0.641197  1
  F  F20  1  0.484852  0.704185  0.193536  1
  F  F21  1  0.429196  0.651033  0.887291  1
  F  F22  1  0.498639  0.672214  0.047982  1
  F  F23  1  0.397519  0.631363  0.626900  1
  F  F24  1  0.661785  0.618241  0.508466  1
  F  F25  1  0.876899  0.530990  0.242715  1
  F  F26  1  0.623101  0.469010  0.742715  1
  F  F27  1  0.838215  0.381759  0.008466  1
  F  F28  1  0.102481  0.368637  0.126900  1
  F  F29  1  0.001361  0.327786  0.547982  1
  F  F30  1  0.070804  0.348967  0.387291  1
  F  F31  1  0.015148  0.295815  0.693536  1
  F  F32  1  0.515148  0.204185  0.306464  1
  F  F33  1  0.570804  0.151033  0.612709  1
  F  F34  1  0.501361  0.172214  0.452018  1
  F  F35  1  0.602481  0.131363  0.873100  1
  F  F36  1  0.338215  0.118241  0.991534  1
  F  F37  1  0.123101  0.030990  0.257285  1
  F  F38  1  0.376899  0.969010  0.757285  1
  F  F39  1  0.161785  0.881759  0.491534  1
  F  F40  1  0.897519  0.868637  0.373100  1
  F  F41  1  0.998639  0.827786  0.952018  1
  F  F42  1  0.929196  0.848967  0.112709  1
  F  F43  1  0.984852  0.795815  0.806464  1
