# generated using pymatgen
data_Na2FePCO7
_symmetry_space_group_name_H-M   'P 1'
_cell_length_a   6.53242969
_cell_length_b   8.95342817
_cell_length_c   10.48296209
_cell_angle_alpha   90.44921337
_cell_angle_beta   90.19840264
_cell_angle_gamma   90.71431033
_symmetry_Int_Tables_number   1
_chemical_formula_structural   Na2FePCO7
_chemical_formula_sum   'Na8 Fe4 P4 C4 O28'
_cell_volume   613.05333574
_cell_formula_units_Z   4
loop_
 _symmetry_equiv_pos_site_id
 _symmetry_equiv_pos_as_xyz
  1  'x, y, z'
loop_
 _atom_site_type_symbol
 _atom_site_label
 _atom_site_symmetry_multiplicity
 _atom_site_fract_x
 _atom_site_fract_y
 _atom_site_fract_z
 _atom_site_occupancy
  Na  Na0  1  0.740605  0.918309  0.381210  1
  Na  Na1  1  0.737821  0.918649  0.882286  1
  Na  Na2  1  0.986131  0.736205  0.126665  1
  Na  Na3  1  0.515029  0.736121  0.627465  1
  Na  Na4  1  0.011262  0.263144  0.373784  1
  Na  Na5  1  0.011569  0.263430  0.875736  1
  Na  Na6  1  0.277707  0.080784  0.118606  1
  Na  Na7  1  0.259593  0.081670  0.618308  1
  Fe  Fe8  1  0.246871  0.654643  0.391897  1
  Fe  Fe9  1  0.253554  0.654623  0.892048  1
  Fe  Fe10  1  0.735078  0.345359  0.107718  1
  Fe  Fe11  1  0.738108  0.345228  0.607796  1
  P  P12  1  0.749567  0.575194  0.354824  1
  P  P13  1  0.751818  0.575093  0.854606  1
  P  P14  1  0.245019  0.424716  0.145023  1
  P  P15  1  0.246661  0.424568  0.645014  1
  C  C16  1  0.248811  0.935252  0.365139  1
  C  C17  1  0.243980  0.935621  0.864821  1
  C  C18  1  0.761584  0.065024  0.134945  1
  C  C19  1  0.754063  0.064907  0.635102  1
  O  O20  1  0.767575  0.924796  0.148781  1
  O  O21  1  0.740720  0.924933  0.649024  1
  O  O22  1  0.272607  0.872768  0.477375  1
  O  O23  1  0.236286  0.872361  0.977853  1
  O  O24  1  0.243388  0.841876  0.268126  1
  O  O25  1  0.266152  0.842453  0.768674  1
  O  O26  1  0.938184  0.680416  0.376692  1
  O  O27  1  0.561210  0.670454  0.390282  1
  O  O28  1  0.937896  0.677524  0.889337  1
  O  O29  1  0.560753  0.673326  0.877567  1
  O  O30  1  0.242859  0.568663  0.064797  1
  O  O31  1  0.257016  0.568382  0.564702  1
  O  O32  1  0.748884  0.529526  0.211005  1
  O  O33  1  0.752031  0.529787  0.710839  1
  O  O34  1  0.235400  0.469663  0.288815  1
  O  O35  1  0.235336  0.469810  0.788749  1
  O  O36  1  0.761243  0.432021  0.435631  1
  O  O37  1  0.754081  0.431528  0.935391  1
  O  O38  1  0.434005  0.326969  0.118036  1
  O  O39  1  0.057605  0.321674  0.113602  1
  O  O40  1  0.435276  0.324478  0.620398  1
  O  O41  1  0.058610  0.324143  0.611318  1
  O  O42  1  0.754242  0.158543  0.231880  1
  O  O43  1  0.759300  0.158777  0.732000  1
  O  O44  1  0.755694  0.127928  0.021820  1
  O  O45  1  0.758684  0.127816  0.521862  1
  O  O46  1  0.232622  0.075427  0.352048  1
  O  O47  1  0.232438  0.075415  0.850408  1
