# generated using pymatgen
data_Li6MnV3(PO4)6
_symmetry_space_group_name_H-M   'P 1'
_cell_length_a   6.37594482
_cell_length_b   8.59515661
_cell_length_c   8.66849025
_cell_angle_alpha   94.34737958
_cell_angle_beta   106.01070748
_cell_angle_gamma   105.95748225
_symmetry_Int_Tables_number   1
_chemical_formula_structural   Li6MnV3(PO4)6
_chemical_formula_sum   'Li6 Mn1 V3 P6 O24'
_cell_volume   433.08020040
_cell_formula_units_Z   1
loop_
 _symmetry_equiv_pos_site_id
 _symmetry_equiv_pos_as_xyz
  1  'x, y, z'
loop_
 _atom_site_type_symbol
 _atom_site_label
 _atom_site_symmetry_multiplicity
 _atom_site_fract_x
 _atom_site_fract_y
 _atom_site_fract_z
 _atom_site_occupancy
  Li  Li0  1  0.251569  0.995047  0.004337  1
  Li  Li1  1  0.751453  0.715280  0.290175  1
  Li  Li2  1  0.500850  0.499373  0.500434  1
  Li  Li3  1  0.998237  0.497479  0.499834  1
  Li  Li4  1  0.247336  0.287741  0.709892  1
  Li  Li5  1  0.747558  0.008234  0.997231  1
  Mn  Mn6  1  0.634073  0.059790  0.373812  1
  V  V7  1  0.358805  0.941873  0.621423  1
  V  V8  1  0.862822  0.621220  0.943262  1
  V  V9  1  0.139179  0.381025  0.056549  1
  P  P10  1  0.250616  0.714190  0.287355  1
  P  P11  1  0.863293  0.859591  0.663990  1
  P  P12  1  0.364692  0.661233  0.861707  1
  P  P13  1  0.634094  0.339460  0.132407  1
  P  P14  1  0.135989  0.138362  0.339653  1
  P  P15  1  0.748842  0.285003  0.714091  1
  O  O16  1  0.088372  0.986234  0.658257  1
  O  O17  1  0.672098  0.945153  0.615161  1
  O  O18  1  0.034522  0.742517  0.172091  1
  O  O19  1  0.472944  0.827794  0.262595  1
  O  O20  1  0.393401  0.844945  0.841598  1
  O  O21  1  0.231291  0.735561  0.461805  1
  O  O22  1  0.906185  0.838918  0.848384  1
  O  O23  1  0.794557  0.702042  0.544886  1
  O  O24  1  0.177525  0.602493  0.951249  1
  O  O25  1  0.594319  0.661211  0.986013  1
  O  O26  1  0.266779  0.536953  0.262256  1
  O  O27  1  0.294579  0.543044  0.704302  1
  O  O28  1  0.703226  0.452101  0.293517  1
  O  O29  1  0.732311  0.462230  0.737764  1
  O  O30  1  0.406527  0.346481  0.010591  1
  O  O31  1  0.825071  0.402547  0.047499  1
  O  O32  1  0.204010  0.296999  0.457455  1
  O  O33  1  0.112473  0.160537  0.158246  1
  O  O34  1  0.771104  0.262481  0.539228  1
  O  O35  1  0.602378  0.153795  0.142019  1
  O  O36  1  0.530764  0.172128  0.740957  1
  O  O37  1  0.965451  0.257706  0.830501  1
  O  O38  1  0.325528  0.048777  0.401162  1
  O  O39  1  0.905176  0.012453  0.336312  1
