# generated using pymatgen
data_K3TbSi3(HO5)2
_symmetry_space_group_name_H-M   'P 1'
_cell_length_a   5.96841123
_cell_length_b   13.31601312
_cell_length_c   13.77292307
_cell_angle_alpha   90.00000000
_cell_angle_beta   90.00000000
_cell_angle_gamma   90.00000000
_symmetry_Int_Tables_number   1
_chemical_formula_structural   K3TbSi3(HO5)2
_chemical_formula_sum   'K12 Tb4 Si12 H8 O40'
_cell_volume   1094.60915198
_cell_formula_units_Z   4
loop_
 _symmetry_equiv_pos_site_id
 _symmetry_equiv_pos_as_xyz
  1  'x, y, z'
loop_
 _atom_site_type_symbol
 _atom_site_label
 _atom_site_symmetry_multiplicity
 _atom_site_fract_x
 _atom_site_fract_y
 _atom_site_fract_z
 _atom_site_occupancy
  K  K0  1  0.423815  0.128036  0.750000  1
  K  K1  1  0.085668  0.137581  0.516107  1
  K  K2  1  0.085668  0.137581  0.983893  1
  K  K3  1  0.585668  0.362419  0.483893  1
  K  K4  1  0.585668  0.362419  0.016107  1
  K  K5  1  0.923815  0.371964  0.250000  1
  K  K6  1  0.076185  0.628036  0.750000  1
  K  K7  1  0.414332  0.637581  0.516107  1
  K  K8  1  0.414332  0.637581  0.983893  1
  K  K9  1  0.914332  0.862419  0.016107  1
  K  K10  1  0.914332  0.862419  0.483893  1
  K  K11  1  0.576185  0.871964  0.250000  1
  Tb  Tb12  1  0.086349  0.040665  0.250000  1
  Tb  Tb13  1  0.586349  0.459335  0.750000  1
  Tb  Tb14  1  0.413651  0.540665  0.250000  1
  Tb  Tb15  1  0.913651  0.959335  0.750000  1
  Si  Si16  1  0.587303  0.097938  0.104038  1
  Si  Si17  1  0.587303  0.097938  0.395962  1
  Si  Si18  1  0.919232  0.248045  0.750000  1
  Si  Si19  1  0.419232  0.251955  0.250000  1
  Si  Si20  1  0.087303  0.402062  0.604038  1
  Si  Si21  1  0.087303  0.402062  0.895962  1
  Si  Si22  1  0.912697  0.597938  0.104038  1
  Si  Si23  1  0.912697  0.597938  0.395962  1
  Si  Si24  1  0.580768  0.748045  0.750000  1
  Si  Si25  1  0.080768  0.751955  0.250000  1
  Si  Si26  1  0.412697  0.902062  0.604038  1
  Si  Si27  1  0.412697  0.902062  0.895962  1
  H  H28  1  0.610173  0.070693  0.559585  1
  H  H29  1  0.610173  0.070693  0.940415  1
  H  H30  1  0.110173  0.429307  0.059585  1
  H  H31  1  0.110173  0.429307  0.440415  1
  H  H32  1  0.889827  0.570693  0.940415  1
  H  H33  1  0.889827  0.570693  0.559585  1
  H  H34  1  0.389827  0.929307  0.059585  1
  H  H35  1  0.389827  0.929307  0.440415  1
  O  O36  1  0.369005  0.029044  0.130593  1
  O  O37  1  0.369005  0.029044  0.369407  1
  O  O38  1  0.823299  0.044182  0.130235  1
  O  O39  1  0.823299  0.044182  0.369765  1
  O  O40  1  0.934412  0.127344  0.750000  1
  O  O41  1  0.585090  0.130008  0.514570  1
  O  O42  1  0.585090  0.130008  0.985430  1
  O  O43  1  0.170329  0.205183  0.250000  1
  O  O44  1  0.565913  0.211705  0.153551  1
  O  O45  1  0.565913  0.211705  0.346449  1
  O  O46  1  0.065913  0.288295  0.653551  1
  O  O47  1  0.065913  0.288295  0.846449  1
  O  O48  1  0.670329  0.294817  0.750000  1
  O  O49  1  0.085090  0.369992  0.485430  1
  O  O50  1  0.085090  0.369992  0.014570  1
  O  O51  1  0.434412  0.372656  0.250000  1
  O  O52  1  0.323299  0.455818  0.630235  1
  O  O53  1  0.323299  0.455818  0.869765  1
  O  O54  1  0.869005  0.470956  0.630593  1
  O  O55  1  0.869005  0.470956  0.869407  1
  O  O56  1  0.130995  0.529044  0.130593  1
  O  O57  1  0.130995  0.529044  0.369407  1
  O  O58  1  0.676701  0.544182  0.130235  1
  O  O59  1  0.676701  0.544182  0.369765  1
  O  O60  1  0.565588  0.627344  0.750000  1
  O  O61  1  0.914910  0.630008  0.985430  1
  O  O62  1  0.914910  0.630008  0.514570  1
  O  O63  1  0.329671  0.705183  0.250000  1
  O  O64  1  0.934087  0.711705  0.153551  1
  O  O65  1  0.934087  0.711705  0.346449  1
  O  O66  1  0.434087  0.788295  0.653551  1
  O  O67  1  0.434087  0.788295  0.846449  1
  O  O68  1  0.829671  0.794817  0.750000  1
  O  O69  1  0.414910  0.869992  0.014570  1
  O  O70  1  0.414910  0.869992  0.485430  1
  O  O71  1  0.065588  0.872656  0.250000  1
  O  O72  1  0.176701  0.955818  0.630235  1
  O  O73  1  0.176701  0.955818  0.869765  1
  O  O74  1  0.630995  0.970956  0.630593  1
  O  O75  1  0.630995  0.970956  0.869407  1
