# generated using pymatgen
data_LiV3Fe2CuO12
_symmetry_space_group_name_H-M   'P 1'
_cell_length_a   6.71519904
_cell_length_b   8.23908645
_cell_length_c   9.96514469
_cell_angle_alpha   107.05740490
_cell_angle_beta   103.49641166
_cell_angle_gamma   102.46599622
_symmetry_Int_Tables_number   1
_chemical_formula_structural   LiV3Fe2CuO12
_chemical_formula_sum   'Li2 V6 Fe4 Cu2 O24'
_cell_volume   487.97366110
_cell_formula_units_Z   2
loop_
 _symmetry_equiv_pos_site_id
 _symmetry_equiv_pos_as_xyz
  1  'x, y, z'
loop_
 _atom_site_type_symbol
 _atom_site_label
 _atom_site_symmetry_multiplicity
 _atom_site_fract_x
 _atom_site_fract_y
 _atom_site_fract_z
 _atom_site_occupancy
  Li  Li0  1  0.056989  0.011385  0.020168  1
  Li  Li1  1  0.600890  0.957173  0.922841  1
  V  V2  1  0.221245  0.163263  0.764069  1
  V  V3  1  0.409440  0.228430  0.375290  1
  V  V4  1  0.882045  0.392302  0.160617  1
  V  V5  1  0.117077  0.603067  0.835482  1
  V  V6  1  0.586686  0.770654  0.623187  1
  V  V7  1  0.774722  0.837539  0.233702  1
  Fe  Fe8  1  0.956032  0.296027  0.485968  1
  Fe  Fe9  1  0.621191  0.552776  0.893564  1
  Fe  Fe10  1  0.377940  0.444877  0.106402  1
  Fe  Fe11  1  0.044580  0.704174  0.512456  1
  Cu  Cu12  1  0.720839  0.214897  0.705221  1
  Cu  Cu13  1  0.267980  0.780085  0.284591  1
  O  O14  1  0.817043  0.056286  0.321843  1
  O  O15  1  0.223081  0.198899  0.946846  1
  O  O16  1  0.998402  0.216059  0.664308  1
  O  O17  1  0.303106  0.006097  0.261129  1
  O  O18  1  0.479331  0.278304  0.763467  1
  O  O19  1  0.660718  0.271144  0.509141  1
  O  O20  1  0.834485  0.174225  0.068705  1
  O  O21  1  0.874302  0.492725  0.852205  1
  O  O22  1  0.233952  0.285811  0.468656  1
  O  O23  1  0.917819  0.437888  0.351987  1
  O  O24  1  0.330959  0.529767  0.921938  1
  O  O25  1  0.432478  0.348227  0.258719  1
  O  O26  1  0.558790  0.662630  0.747613  1
  O  O27  1  0.668787  0.467060  0.076742  1
  O  O28  1  0.079016  0.558202  0.643081  1
  O  O29  1  0.769230  0.718496  0.535865  1
  O  O30  1  0.123931  0.510125  0.147718  1
  O  O31  1  0.176285  0.821435  0.922992  1
  O  O32  1  0.338004  0.725892  0.489012  1
  O  O33  1  0.518659  0.722886  0.234999  1
  O  O34  1  0.676606  0.993932  0.741999  1
  O  O35  1  0.994464  0.779130  0.331892  1
  O  O36  1  0.765951  0.806361  0.048490  1
  O  O37  1  0.185943  0.943867  0.679197  1
