# generated using pymatgen
data_Li2Mn5O10
_symmetry_space_group_name_H-M   'P 1'
_cell_length_a   5.06791431
_cell_length_b   5.19232753
_cell_length_c   7.64108921
_cell_angle_alpha   73.65478280
_cell_angle_beta   72.38529323
_cell_angle_gamma   80.13096332
_symmetry_Int_Tables_number   1
_chemical_formula_structural   Li2Mn5O10
_chemical_formula_sum   'Li2 Mn5 O10'
_cell_volume   183.07739517
_cell_formula_units_Z   1
loop_
 _symmetry_equiv_pos_site_id
 _symmetry_equiv_pos_as_xyz
  1  'x, y, z'
loop_
 _atom_site_type_symbol
 _atom_site_label
 _atom_site_symmetry_multiplicity
 _atom_site_fract_x
 _atom_site_fract_y
 _atom_site_fract_z
 _atom_site_occupancy
  Li  Li0  1  0.238061  0.493008  0.570104  1
  Li  Li1  1  0.761939  0.506992  0.429896  1
  Mn  Mn2  1  0.110251  0.998290  0.309189  1
  Mn  Mn3  1  0.000000  0.500000  0.000000  1
  Mn  Mn4  1  0.689816  0.009605  0.110254  1
  Mn  Mn5  1  0.310184  0.990395  0.889746  1
  Mn  Mn6  1  0.889749  0.001710  0.690811  1
  O  O7  1  0.041604  0.792097  0.138294  1
  O  O8  1  0.090176  0.225656  0.470457  1
  O  O9  1  0.341782  0.205032  0.062145  1
  O  O10  1  0.206144  0.767022  0.767706  1
  O  O11  1  0.459118  0.797279  0.323027  1
  O  O12  1  0.540882  0.202721  0.676973  1
  O  O13  1  0.793856  0.232978  0.232294  1
  O  O14  1  0.658218  0.794968  0.937855  1
  O  O15  1  0.909824  0.774344  0.529543  1
  O  O16  1  0.958396  0.207903  0.861706  1
