# generated using pymatgen
data_Li2CrFeO4
_symmetry_space_group_name_H-M   'P 1'
_cell_length_a   9.91031245
_cell_length_b   9.91031245
_cell_length_c   5.15944727
_cell_angle_alpha   84.62453154
_cell_angle_beta   95.37546846
_cell_angle_gamma   162.74688786
_symmetry_Int_Tables_number   1
_chemical_formula_structural   Li2CrFeO4
_chemical_formula_sum   'Li4 Cr2 Fe2 O8'
_cell_volume   149.61702090
_cell_formula_units_Z   2
loop_
 _symmetry_equiv_pos_site_id
 _symmetry_equiv_pos_as_xyz
  1  'x, y, z'
loop_
 _atom_site_type_symbol
 _atom_site_label
 _atom_site_symmetry_multiplicity
 _atom_site_fract_x
 _atom_site_fract_y
 _atom_site_fract_z
 _atom_site_occupancy
  Li  Li0  1  0.000000  0.000000  0.000000  1
  Li  Li1  1  0.251120  0.748880  0.755615  1
  Li  Li2  1  0.500000  0.500000  0.500000  1
  Li  Li3  1  0.748880  0.251120  0.244385  1
  Cr  Cr4  1  0.125828  0.874172  0.374047  1
  Cr  Cr5  1  0.874172  0.125828  0.625953  1
  Fe  Fe6  1  0.625707  0.374293  0.873856  1
  Fe  Fe7  1  0.374293  0.625707  0.126144  1
  O  O8  1  0.068490  0.931510  0.684754  1
  O  O9  1  0.818625  0.181375  0.937966  1
  O  O10  1  0.432127  0.567873  0.812639  1
  O  O11  1  0.319835  0.680165  0.441681  1
  O  O12  1  0.680165  0.319835  0.558319  1
  O  O13  1  0.181375  0.818625  0.062034  1
  O  O14  1  0.931510  0.068490  0.315246  1
  O  O15  1  0.567873  0.432127  0.187361  1
