# generated using pymatgen
data_Mn4CrO8
_symmetry_space_group_name_H-M   'P 1'
_cell_length_a   5.99791004
_cell_length_b   5.99791004
_cell_length_c   6.16614248
_cell_angle_alpha   61.11778910
_cell_angle_beta   118.88221090
_cell_angle_gamma   121.78950952
_symmetry_Int_Tables_number   1
_chemical_formula_structural   Mn4CrO8
_chemical_formula_sum   'Mn4 Cr1 O8'
_cell_volume   157.11947014
_cell_formula_units_Z   1
loop_
 _symmetry_equiv_pos_site_id
 _symmetry_equiv_pos_as_xyz
  1  'x, y, z'
loop_
 _atom_site_type_symbol
 _atom_site_label
 _atom_site_symmetry_multiplicity
 _atom_site_fract_x
 _atom_site_fract_y
 _atom_site_fract_z
 _atom_site_occupancy
  Mn  Mn0  1  0.500000  0.500000  0.500000  1
  Mn  Mn1  1  0.000000  0.000000  0.000000  1
  Mn  Mn2  1  0.000000  0.500000  0.000000  1
  Mn  Mn3  1  0.500000  0.000000  0.000000  1
  Cr  Cr4  1  0.500000  0.500000  0.000000  1
  O  O5  1  0.732411  0.267589  0.190805  1
  O  O6  1  0.721849  0.776756  0.194906  1
  O  O7  1  0.223244  0.278151  0.194906  1
  O  O8  1  0.256838  0.743162  0.214002  1
  O  O9  1  0.743162  0.256838  0.785998  1
  O  O10  1  0.776756  0.721849  0.805094  1
  O  O11  1  0.278151  0.223244  0.805094  1
  O  O12  1  0.267589  0.732411  0.809195  1
