# generated using pymatgen
data_LiVCO3F2
_symmetry_space_group_name_H-M   'P 1'
_cell_length_a   5.71465114
_cell_length_b   6.66772172
_cell_length_c   9.00547998
_cell_angle_alpha   90.00000000
_cell_angle_beta   90.00000000
_cell_angle_gamma   90.00000000
_symmetry_Int_Tables_number   1
_chemical_formula_structural   LiVCO3F2
_chemical_formula_sum   'Li4 V4 C4 O12 F8'
_cell_volume   343.14213929
_cell_formula_units_Z   4
loop_
 _symmetry_equiv_pos_site_id
 _symmetry_equiv_pos_as_xyz
  1  'x, y, z'
loop_
 _atom_site_type_symbol
 _atom_site_label
 _atom_site_symmetry_multiplicity
 _atom_site_fract_x
 _atom_site_fract_y
 _atom_site_fract_z
 _atom_site_occupancy
  Li  Li0  1  0.718360  0.250000  0.273084  1
  Li  Li1  1  0.218360  0.250000  0.226916  1
  Li  Li2  1  0.281640  0.750000  0.726916  1
  Li  Li3  1  0.781640  0.750000  0.773084  1
  V  V4  1  0.024403  0.250000  0.610637  1
  V  V5  1  0.524403  0.250000  0.889363  1
  V  V6  1  0.475597  0.750000  0.110637  1
  V  V7  1  0.975597  0.750000  0.389363  1
  C  C8  1  0.462234  0.250000  0.549515  1
  C  C9  1  0.962234  0.250000  0.950485  1
  C  C10  1  0.037766  0.750000  0.049515  1
  C  C11  1  0.537766  0.750000  0.450485  1
  O  O12  1  0.803622  0.250000  0.052201  1
  O  O13  1  0.303622  0.250000  0.447799  1
  O  O14  1  0.680091  0.250000  0.521015  1
  O  O15  1  0.180091  0.250000  0.978985  1
  O  O16  1  0.870305  0.250000  0.816275  1
  O  O17  1  0.370305  0.250000  0.683725  1
  O  O18  1  0.819909  0.750000  0.021015  1
  O  O19  1  0.129695  0.750000  0.183725  1
  O  O20  1  0.629695  0.750000  0.316275  1
  O  O21  1  0.319909  0.750000  0.478985  1
  O  O22  1  0.696378  0.750000  0.552201  1
  O  O23  1  0.196378  0.750000  0.947799  1
  F  F24  1  0.455120  0.036182  0.156571  1
  F  F25  1  0.955120  0.036182  0.343429  1
  F  F26  1  0.455120  0.463818  0.156571  1
  F  F27  1  0.955120  0.463818  0.343429  1
  F  F28  1  0.544880  0.536182  0.843429  1
  F  F29  1  0.044880  0.536182  0.656571  1
  F  F30  1  0.044880  0.963818  0.656571  1
  F  F31  1  0.544880  0.963818  0.843429  1
