# generated using pymatgen
data_Mn2V3Ni(PO4)6
_symmetry_space_group_name_H-M   'P 1'
_cell_length_a   8.59442858
_cell_length_b   8.59442858
_cell_length_c   8.59442858
_cell_angle_alpha   60.21837187
_cell_angle_beta   60.21837187
_cell_angle_gamma   60.21837187
_symmetry_Int_Tables_number   1
_chemical_formula_structural   Mn2V3Ni(PO4)6
_chemical_formula_sum   'Mn2 V3 Ni1 P6 O24'
_cell_volume   451.10533226
_cell_formula_units_Z   1
loop_
 _symmetry_equiv_pos_site_id
 _symmetry_equiv_pos_as_xyz
  1  'x, y, z'
loop_
 _atom_site_type_symbol
 _atom_site_label
 _atom_site_symmetry_multiplicity
 _atom_site_fract_x
 _atom_site_fract_y
 _atom_site_fract_z
 _atom_site_occupancy
  Mn  Mn0  1  0.003681  0.003681  0.003681  1
  Mn  Mn1  1  0.500687  0.500687  0.500687  1
  V  V2  1  0.644797  0.644797  0.644797  1
  V  V3  1  0.857134  0.857134  0.857134  1
  V  V4  1  0.354529  0.354529  0.354529  1
  Ni  Ni5  1  0.143302  0.143302  0.143302  1
  P  P6  1  0.956994  0.248156  0.540759  1
  P  P7  1  0.540759  0.956994  0.248156  1
  P  P8  1  0.248156  0.540759  0.956994  1
  P  P9  1  0.748626  0.459238  0.041551  1
  P  P10  1  0.459238  0.041551  0.748626  1
  P  P11  1  0.041551  0.748626  0.459238  1
  O  O12  1  0.504522  0.121544  0.305497  1
  O  O13  1  0.305497  0.504522  0.121544  1
  O  O14  1  0.121544  0.305497  0.504522  1
  O  O15  1  0.940673  0.085103  0.739002  1
  O  O16  1  0.983477  0.195775  0.386013  1
  O  O17  1  0.762469  0.415228  0.568734  1
  O  O18  1  0.739002  0.940673  0.085103  1
  O  O19  1  0.568734  0.762469  0.415228  1
  O  O20  1  0.806765  0.622450  0.003314  1
  O  O21  1  0.415228  0.568734  0.762469  1
  O  O22  1  0.907580  0.268134  0.052113  1
  O  O23  1  0.622450  0.003314  0.806765  1
  O  O24  1  0.386013  0.983477  0.195775  1
  O  O25  1  0.085103  0.739002  0.940673  1
  O  O26  1  0.580302  0.447297  0.234724  1
  O  O27  1  0.195775  0.386013  0.983477  1
  O  O28  1  0.447297  0.234724  0.580302  1
  O  O29  1  0.268134  0.052113  0.907580  1
  O  O30  1  0.234724  0.580302  0.447297  1
  O  O31  1  0.003314  0.806765  0.622450  1
  O  O32  1  0.052113  0.907580  0.268134  1
  O  O33  1  0.882888  0.679717  0.507236  1
  O  O34  1  0.679717  0.507236  0.882888  1
  O  O35  1  0.507236  0.882888  0.679717  1
