# generated using pymatgen
data_BaYF5
_symmetry_space_group_name_H-M   'P 1'
_cell_length_a   5.45959975
_cell_length_b   5.62668206
_cell_length_c   15.50201871
_cell_angle_alpha   90.00000000
_cell_angle_beta   90.00000000
_cell_angle_gamma   90.00000000
_symmetry_Int_Tables_number   1
_chemical_formula_structural   BaYF5
_chemical_formula_sum   'Ba4 Y4 F20'
_cell_volume   476.21320913
_cell_formula_units_Z   4
loop_
 _symmetry_equiv_pos_site_id
 _symmetry_equiv_pos_as_xyz
  1  'x, y, z'
loop_
 _atom_site_type_symbol
 _atom_site_label
 _atom_site_symmetry_multiplicity
 _atom_site_fract_x
 _atom_site_fract_y
 _atom_site_fract_z
 _atom_site_occupancy
  Ba  Ba0  1  0.504117  0.441441  0.104212  1
  Ba  Ba1  1  0.495883  0.941441  0.395788  1
  Ba  Ba2  1  0.995883  0.558559  0.604212  1
  Ba  Ba3  1  0.004117  0.058559  0.895788  1
  Y  Y4  1  0.018635  0.939989  0.173128  1
  Y  Y5  1  0.981365  0.439989  0.326872  1
  Y  Y6  1  0.481365  0.060011  0.673128  1
  Y  Y7  1  0.518635  0.560011  0.826872  1
  F  F8  1  0.968583  0.592732  0.112749  1
  F  F9  1  0.867630  0.108333  0.057040  1
  F  F10  1  0.361225  0.927760  0.099729  1
  F  F11  1  0.758479  0.212351  0.233417  1
  F  F12  1  0.240995  0.234730  0.236306  1
  F  F13  1  0.759005  0.734730  0.263694  1
  F  F14  1  0.241521  0.712351  0.266583  1
  F  F15  1  0.638775  0.427760  0.400271  1
  F  F16  1  0.132370  0.608333  0.442960  1
  F  F17  1  0.031417  0.092732  0.387251  1
  F  F18  1  0.531417  0.407268  0.612749  1
  F  F19  1  0.632370  0.891667  0.557040  1
  F  F20  1  0.138775  0.072240  0.599729  1
  F  F21  1  0.741521  0.787649  0.733417  1
  F  F22  1  0.259005  0.765270  0.736306  1
  F  F23  1  0.740995  0.265270  0.763694  1
  F  F24  1  0.258479  0.287649  0.766583  1
  F  F25  1  0.861225  0.572240  0.900271  1
  F  F26  1  0.367630  0.391667  0.942960  1
  F  F27  1  0.468583  0.907268  0.887251  1
