# generated using pymatgen
data_Li2MoP4O13
_symmetry_space_group_name_H-M   'P 1'
_cell_length_a   5.19870676
_cell_length_b   8.09278335
_cell_length_c   13.84983004
_cell_angle_alpha   79.95992813
_cell_angle_beta   81.89324484
_cell_angle_gamma   80.10647626
_symmetry_Int_Tables_number   1
_chemical_formula_structural   Li2MoP4O13
_chemical_formula_sum   'Li4 Mo2 P8 O26'
_cell_volume   561.51724888
_cell_formula_units_Z   2
loop_
 _symmetry_equiv_pos_site_id
 _symmetry_equiv_pos_as_xyz
  1  'x, y, z'
loop_
 _atom_site_type_symbol
 _atom_site_label
 _atom_site_symmetry_multiplicity
 _atom_site_fract_x
 _atom_site_fract_y
 _atom_site_fract_z
 _atom_site_occupancy
  Li  Li0  1  0.056536  0.326028  0.002008  1
  Li  Li1  1  0.345843  0.360122  0.480953  1
  Li  Li2  1  0.654157  0.639878  0.519047  1
  Li  Li3  1  0.943464  0.673972  0.997992  1
  Mo  Mo4  1  0.568990  0.942918  0.740393  1
  Mo  Mo5  1  0.431010  0.057082  0.259607  1
  P  P6  1  0.144870  0.781254  0.637059  1
  P  P7  1  0.658650  0.427195  0.181613  1
  P  P8  1  0.991586  0.099681  0.852629  1
  P  P9  1  0.712538  0.331873  0.700243  1
  P  P10  1  0.287462  0.668127  0.299757  1
  P  P11  1  0.855130  0.218746  0.362941  1
  P  P12  1  0.008414  0.900319  0.147371  1
  P  P13  1  0.341350  0.572805  0.818387  1
  O  O14  1  0.722721  0.306130  0.447341  1
  O  O15  1  0.535113  0.697221  0.812144  1
  O  O16  1  0.289330  0.031256  0.842239  1
  O  O17  1  0.810646  0.473420  0.083396  1
  O  O18  1  0.140357  0.641516  0.738958  1
  O  O19  1  0.859643  0.358484  0.261042  1
  O  O20  1  0.902330  0.177314  0.943838  1
  O  O21  1  0.962048  0.251874  0.756068  1
  O  O22  1  0.500684  0.600777  0.212903  1
  O  O23  1  0.594143  0.188832  0.671080  1
  O  O24  1  0.499316  0.399223  0.787097  1
  O  O25  1  0.718176  0.074400  0.344366  1
  O  O26  1  0.782049  0.468739  0.620011  1
  O  O27  1  0.710670  0.968744  0.157761  1
  O  O28  1  0.217951  0.531261  0.379989  1
  O  O29  1  0.841029  0.961506  0.833969  1
  O  O30  1  0.281824  0.925600  0.655634  1
  O  O31  1  0.464887  0.302779  0.187856  1
  O  O32  1  0.158971  0.038494  0.166031  1
  O  O33  1  0.189354  0.526580  0.916604  1
  O  O34  1  0.097670  0.822686  0.056162  1
  O  O35  1  0.277279  0.693870  0.552659  1
  O  O36  1  0.847778  0.849193  0.632902  1
  O  O37  1  0.405857  0.811168  0.328920  1
  O  O38  1  0.037952  0.748126  0.243932  1
  O  O39  1  0.152222  0.150807  0.367098  1
