# generated using pymatgen
data_TiV4FeO12
_symmetry_space_group_name_H-M   'P 1'
_cell_length_a   6.87941667
_cell_length_b   6.87941667
_cell_length_c   5.73963856
_cell_angle_alpha   75.32725173
_cell_angle_beta   104.67274827
_cell_angle_gamma   95.46666625
_symmetry_Int_Tables_number   1
_chemical_formula_structural   TiV4FeO12
_chemical_formula_sum   'Ti1 V4 Fe1 O12'
_cell_volume   254.06767851
_cell_formula_units_Z   1
loop_
 _symmetry_equiv_pos_site_id
 _symmetry_equiv_pos_as_xyz
  1  'x, y, z'
loop_
 _atom_site_type_symbol
 _atom_site_label
 _atom_site_symmetry_multiplicity
 _atom_site_fract_x
 _atom_site_fract_y
 _atom_site_fract_z
 _atom_site_occupancy
  Ti  Ti0  1  0.094110  0.094110  0.500000  1
  V  V1  1  0.387810  0.794198  0.999081  1
  V  V2  1  0.190736  0.611561  0.499927  1
  V  V3  1  0.794198  0.387810  0.000919  1
  V  V4  1  0.611561  0.190736  0.500073  1
  Fe  Fe5  1  0.913065  0.913065  0.000000  1
  O  O6  1  0.187851  0.964888  0.867835  1
  O  O7  1  0.616014  0.914010  0.014405  1
  O  O8  1  0.036711  0.824855  0.384541  1
  O  O9  1  0.355717  0.625884  0.805321  1
  O  O10  1  0.914010  0.616014  0.985595  1
  O  O11  1  0.368728  0.663458  0.297807  1
  O  O12  1  0.625884  0.355717  0.194679  1
  O  O13  1  0.092604  0.357801  0.528955  1
  O  O14  1  0.663458  0.368728  0.702193  1
  O  O15  1  0.964888  0.187851  0.132165  1
  O  O16  1  0.357801  0.092604  0.471045  1
  O  O17  1  0.824855  0.036711  0.615459  1
