# generated using pymatgen
data_Li2Mn7O12
_symmetry_space_group_name_H-M   'P 1'
_cell_length_a   5.22886435
_cell_length_b   9.01122726
_cell_length_c   10.00842374
_cell_angle_alpha   90.00000000
_cell_angle_beta   101.77945984
_cell_angle_gamma   90.00000000
_symmetry_Int_Tables_number   1
_chemical_formula_structural   Li2Mn7O12
_chemical_formula_sum   'Li4 Mn14 O24'
_cell_volume   461.65055164
_cell_formula_units_Z   2
loop_
 _symmetry_equiv_pos_site_id
 _symmetry_equiv_pos_as_xyz
  1  'x, y, z'
loop_
 _atom_site_type_symbol
 _atom_site_label
 _atom_site_symmetry_multiplicity
 _atom_site_fract_x
 _atom_site_fract_y
 _atom_site_fract_z
 _atom_site_occupancy
  Li  Li0  1  0.492668  0.911111  0.730793  1
  Li  Li1  1  0.747254  0.580791  0.500988  1
  Li  Li2  1  0.507332  0.411111  0.269207  1
  Li  Li3  1  0.252746  0.080791  0.499012  1
  Mn  Mn4  1  0.238705  0.916230  0.985963  1
  Mn  Mn5  1  0.757303  0.923426  0.496526  1
  Mn  Mn6  1  0.241310  0.744416  0.488791  1
  Mn  Mn7  1  0.998264  0.741139  0.737047  1
  Mn  Mn8  1  0.756826  0.747706  0.006634  1
  Mn  Mn9  1  0.256255  0.583058  0.010488  1
  Mn  Mn10  1  0.505403  0.756778  0.257242  1
  Mn  Mn11  1  0.242697  0.423426  0.503474  1
  Mn  Mn12  1  0.761295  0.416230  0.014037  1
  Mn  Mn13  1  0.243174  0.247706  0.993366  1
  Mn  Mn14  1  0.001736  0.241139  0.262953  1
  Mn  Mn15  1  0.758690  0.244416  0.511209  1
  Mn  Mn16  1  0.494597  0.256778  0.742758  1
  Mn  Mn17  1  0.743745  0.083058  0.989512  1
  O  O18  1  0.119590  0.897345  0.600917  1
  O  O19  1  0.876822  0.884180  0.881564  1
  O  O20  1  0.841330  0.770823  0.377890  1
  O  O21  1  0.607758  0.917513  0.085139  1
  O  O22  1  0.166276  0.742752  0.121214  1
  O  O23  1  0.402418  0.895034  0.388294  1
  O  O24  1  0.124792  0.596025  0.601173  1
  O  O25  1  0.662792  0.770531  0.617326  1
  O  O26  1  0.888324  0.581241  0.914161  1
  O  O27  1  0.336206  0.762197  0.869367  1
  O  O28  1  0.609295  0.607392  0.123002  1
  O  O29  1  0.370299  0.581358  0.394911  1
  O  O30  1  0.123178  0.384180  0.118436  1
  O  O31  1  0.880410  0.397345  0.399083  1
  O  O32  1  0.158670  0.270823  0.622110  1
  O  O33  1  0.597582  0.395034  0.611706  1
  O  O34  1  0.833724  0.242752  0.878786  1
  O  O35  1  0.392242  0.417513  0.914861  1
  O  O36  1  0.111676  0.081241  0.085839  1
  O  O37  1  0.337208  0.270531  0.382674  1
  O  O38  1  0.875208  0.096025  0.398827  1
  O  O39  1  0.663794  0.262197  0.130633  1
  O  O40  1  0.629701  0.081358  0.605089  1
  O  O41  1  0.390705  0.107392  0.876998  1
