# generated using pymatgen
data_Li3Sn2(PO3)7
_symmetry_space_group_name_H-M   'P 1'
_cell_length_a   6.76164259
_cell_length_b   7.50299840
_cell_length_c   20.47271169
_cell_angle_alpha   91.85200829
_cell_angle_beta   93.29062842
_cell_angle_gamma   115.38250693
_symmetry_Int_Tables_number   1
_chemical_formula_structural   Li3Sn2(PO3)7
_chemical_formula_sum   'Li6 Sn4 P14 O42'
_cell_volume   934.95587902
_cell_formula_units_Z   2
loop_
 _symmetry_equiv_pos_site_id
 _symmetry_equiv_pos_as_xyz
  1  'x, y, z'
loop_
 _atom_site_type_symbol
 _atom_site_label
 _atom_site_symmetry_multiplicity
 _atom_site_fract_x
 _atom_site_fract_y
 _atom_site_fract_z
 _atom_site_occupancy
  Li  Li0  1  0.229999  0.809868  0.750711  1
  Li  Li1  1  0.444891  0.255723  0.565890  1
  Li  Li2  1  0.754305  0.853492  0.913249  1
  Li  Li3  1  0.245695  0.146508  0.086751  1
  Li  Li4  1  0.555109  0.744277  0.434110  1
  Li  Li5  1  0.770001  0.190132  0.249289  1
  Sn  Sn6  1  0.596952  0.804233  0.621291  1
  Sn  Sn7  1  0.372803  0.153836  0.880825  1
  Sn  Sn8  1  0.627197  0.846164  0.119175  1
  Sn  Sn9  1  0.403048  0.195767  0.378709  1
  P  P10  1  0.270577  0.702021  0.939374  1
  P  P11  1  0.176057  0.773667  0.484941  1
  P  P12  1  0.072449  0.711671  0.066771  1
  P  P13  1  0.049797  0.427316  0.395920  1
  P  P14  1  0.049170  0.116196  0.723065  1
  P  P15  1  0.350323  0.824306  0.261442  1
  P  P16  1  0.470577  0.462916  0.756280  1
  P  P17  1  0.529423  0.537084  0.243720  1
  P  P18  1  0.649677  0.175694  0.738558  1
  P  P19  1  0.950830  0.883804  0.276935  1
  P  P20  1  0.950203  0.572684  0.604080  1
  P  P21  1  0.927551  0.288329  0.933229  1
  P  P22  1  0.823943  0.226333  0.515059  1
  P  P23  1  0.729423  0.297979  0.060626  1
  O  O24  1  0.131783  0.760261  0.991640  1
  O  O25  1  0.011434  0.711217  0.542290  1
  O  O26  1  0.210815  0.762549  0.874798  1
  O  O27  1  0.118327  0.665593  0.660519  1
  O  O28  1  0.173128  0.464078  0.943364  1
  O  O29  1  0.954042  0.111189  0.906494  1
  O  O30  1  0.026664  0.624481  0.422881  1
  O  O31  1  0.217382  0.981268  0.471950  1
  O  O32  1  0.094477  0.774852  0.249381  1
  O  O33  1  0.509338  0.782340  0.963249  1
  O  O34  1  0.102370  0.006566  0.776345  1
  O  O35  1  0.269154  0.306274  0.706089  1
  O  O36  1  0.366436  0.724096  0.500500  1
  O  O37  1  0.226394  0.642081  0.100889  1
  O  O38  1  0.289173  0.475930  0.388301  1
  O  O39  1  0.406613  0.425689  0.825829  1
  O  O40  1  0.440165  0.912282  0.330118  1
  O  O41  1  0.476808  0.946603  0.207368  1
  O  O42  1  0.053623  0.996736  0.341113  1
  O  O43  1  0.536755  0.665595  0.733453  1
  O  O44  1  0.332898  0.603675  0.254208  1
  O  O45  1  0.667102  0.396325  0.745792  1
  O  O46  1  0.463245  0.334405  0.266547  1
  O  O47  1  0.946377  0.003264  0.658887  1
  O  O48  1  0.523192  0.053397  0.792632  1
  O  O49  1  0.559835  0.087718  0.669882  1
  O  O50  1  0.593387  0.574311  0.174171  1
  O  O51  1  0.710827  0.524070  0.611699  1
  O  O52  1  0.773606  0.357919  0.899111  1
  O  O53  1  0.633564  0.275904  0.499500  1
  O  O54  1  0.730846  0.693726  0.293911  1
  O  O55  1  0.897630  0.993434  0.223655  1
  O  O56  1  0.490662  0.217660  0.036751  1
  O  O57  1  0.905523  0.225148  0.750619  1
  O  O58  1  0.782618  0.018732  0.528050  1
  O  O59  1  0.973336  0.375519  0.577119  1
  O  O60  1  0.045958  0.888811  0.093506  1
  O  O61  1  0.826872  0.535922  0.056636  1
  O  O62  1  0.881673  0.334407  0.339481  1
  O  O63  1  0.789185  0.237451  0.125202  1
  O  O64  1  0.988566  0.288783  0.457710  1
  O  O65  1  0.868217  0.239739  0.008360  1
