# generated using pymatgen
data_Li3MnAsCO7
_symmetry_space_group_name_H-M   'P 1'
_cell_length_a   5.03340424
_cell_length_b   6.80668582
_cell_length_c   8.71613102
_cell_angle_alpha   90.00000000
_cell_angle_beta   92.11967702
_cell_angle_gamma   90.00000000
_symmetry_Int_Tables_number   1
_chemical_formula_structural   Li3MnAsCO7
_chemical_formula_sum   'Li6 Mn2 As2 C2 O14'
_cell_volume   298.41730086
_cell_formula_units_Z   2
loop_
 _symmetry_equiv_pos_site_id
 _symmetry_equiv_pos_as_xyz
  1  'x, y, z'
loop_
 _atom_site_type_symbol
 _atom_site_label
 _atom_site_symmetry_multiplicity
 _atom_site_fract_x
 _atom_site_fract_y
 _atom_site_fract_z
 _atom_site_occupancy
  Li  Li0  1  0.259986  0.750000  0.077386  1
  Li  Li1  1  0.778322  0.970901  0.261866  1
  Li  Li2  1  0.778322  0.529099  0.261866  1
  Li  Li3  1  0.221678  0.470901  0.738134  1
  Li  Li4  1  0.221678  0.029099  0.738134  1
  Li  Li5  1  0.740014  0.250000  0.922614  1
  Mn  Mn6  1  0.228826  0.250000  0.338646  1
  Mn  Mn7  1  0.771174  0.750000  0.661354  1
  As  As8  1  0.291909  0.750000  0.409931  1
  As  As9  1  0.708091  0.250000  0.590069  1
  C  C10  1  0.278400  0.250000  0.031279  1
  C  C11  1  0.721600  0.750000  0.968721  1
  O  O12  1  0.666037  0.750000  0.113716  1
  O  O13  1  0.035103  0.250000  0.074708  1
  O  O14  1  0.474892  0.250000  0.132699  1
  O  O15  1  0.180499  0.943864  0.298549  1
  O  O16  1  0.180499  0.556136  0.298549  1
  O  O17  1  0.636655  0.750000  0.423325  1
  O  O18  1  0.804635  0.250000  0.402467  1
  O  O19  1  0.195365  0.750000  0.597533  1
  O  O20  1  0.363345  0.250000  0.576675  1
  O  O21  1  0.819501  0.443864  0.701451  1
  O  O22  1  0.819501  0.056136  0.701451  1
  O  O23  1  0.525108  0.750000  0.867301  1
  O  O24  1  0.964897  0.750000  0.925292  1
  O  O25  1  0.333963  0.250000  0.886284  1
