# generated using pymatgen
data_Ni2(SO4)3
_symmetry_space_group_name_H-M   'P 1'
_cell_length_a   7.72415846
_cell_length_b   7.72415846
_cell_length_c   8.70512505
_cell_angle_alpha   69.38766919
_cell_angle_beta   110.61233081
_cell_angle_gamma   113.30770186
_symmetry_Int_Tables_number   1
_chemical_formula_structural   Ni2(SO4)3
_chemical_formula_sum   'Ni4 S6 O24'
_cell_volume   432.56161474
_cell_formula_units_Z   2
loop_
 _symmetry_equiv_pos_site_id
 _symmetry_equiv_pos_as_xyz
  1  'x, y, z'
loop_
 _atom_site_type_symbol
 _atom_site_label
 _atom_site_symmetry_multiplicity
 _atom_site_fract_x
 _atom_site_fract_y
 _atom_site_fract_z
 _atom_site_occupancy
  Ni  Ni0  1  0.124351  0.376314  0.981681  1
  Ni  Ni1  1  0.623686  0.875649  0.481681  1
  Ni  Ni2  1  0.376314  0.124351  0.518319  1
  Ni  Ni3  1  0.875649  0.623686  0.018319  1
  S  S4  1  0.458378  0.750440  0.820266  1
  S  S5  1  0.249560  0.541622  0.320266  1
  S  S6  1  0.050813  0.050813  0.750000  1
  S  S7  1  0.949187  0.949187  0.250000  1
  S  S8  1  0.750440  0.458378  0.679734  1
  S  S9  1  0.541622  0.249560  0.179734  1
  O  O10  1  0.040290  0.867420  0.884335  1
  O  O11  1  0.132580  0.959710  0.384335  1
  O  O12  1  0.496462  0.872497  0.931909  1
  O  O13  1  0.259692  0.608196  0.812137  1
  O  O14  1  0.463075  0.870742  0.640589  1
  O  O15  1  0.127503  0.503538  0.431909  1
  O  O16  1  0.092408  0.213089  0.822723  1
  O  O17  1  0.606540  0.651123  0.880283  1
  O  O18  1  0.391804  0.740308  0.312137  1
  O  O19  1  0.129258  0.536925  0.140589  1
  O  O20  1  0.786911  0.907592  0.322723  1
  O  O21  1  0.651123  0.606540  0.619717  1
  O  O22  1  0.348877  0.393460  0.380283  1
  O  O23  1  0.213089  0.092408  0.677277  1
  O  O24  1  0.870742  0.463075  0.859411  1
  O  O25  1  0.608196  0.259692  0.687863  1
  O  O26  1  0.393460  0.348877  0.119717  1
  O  O27  1  0.907592  0.786911  0.177277  1
  O  O28  1  0.872497  0.496462  0.568091  1
  O  O29  1  0.536925  0.129258  0.359411  1
  O  O30  1  0.740308  0.391804  0.187863  1
  O  O31  1  0.503538  0.127503  0.068091  1
  O  O32  1  0.867420  0.040290  0.615665  1
  O  O33  1  0.959710  0.132580  0.115665  1
