# generated using pymatgen
data_LiFeSiO4
_symmetry_space_group_name_H-M   'P 1'
_cell_length_a   4.96037012
_cell_length_b   4.96037012
_cell_length_c   6.23251739
_cell_angle_alpha   90.00000000
_cell_angle_beta   90.00000000
_cell_angle_gamma   112.79300138
_symmetry_Int_Tables_number   1
_chemical_formula_structural   LiFeSiO4
_chemical_formula_sum   'Li2 Fe2 Si2 O8'
_cell_volume   141.37753848
_cell_formula_units_Z   2
loop_
 _symmetry_equiv_pos_site_id
 _symmetry_equiv_pos_as_xyz
  1  'x, y, z'
loop_
 _atom_site_type_symbol
 _atom_site_label
 _atom_site_symmetry_multiplicity
 _atom_site_fract_x
 _atom_site_fract_y
 _atom_site_fract_z
 _atom_site_occupancy
  Li  Li0  1  0.829847  0.170153  0.250000  1
  Li  Li1  1  0.170153  0.829847  0.750000  1
  Fe  Fe2  1  0.500000  0.500000  1.000000  1
  Fe  Fe3  1  0.500000  0.500000  0.500000  1
  Si  Si4  1  0.846751  0.153249  0.750000  1
  Si  Si5  1  0.153249  0.846751  0.250000  1
  O  O6  1  0.213319  0.266624  0.750000  1
  O  O7  1  0.266624  0.213319  0.250000  1
  O  O8  1  0.734910  0.265090  0.535838  1
  O  O9  1  0.265090  0.734910  0.035838  1
  O  O10  1  0.734910  0.265090  0.964162  1
  O  O11  1  0.265090  0.734910  0.464162  1
  O  O12  1  0.733376  0.786681  0.750000  1
  O  O13  1  0.786681  0.733376  0.250000  1
