# generated using pymatgen
data_Li2VPO5
_symmetry_space_group_name_H-M   'P 1'
_cell_length_a   7.23706128
_cell_length_b   7.28010149
_cell_length_c   7.90983396
_cell_angle_alpha   91.46371691
_cell_angle_beta   89.69364543
_cell_angle_gamma   116.36222082
_symmetry_Int_Tables_number   1
_chemical_formula_structural   Li2VPO5
_chemical_formula_sum   'Li8 V4 P4 O20'
_cell_volume   373.27241612
_cell_formula_units_Z   4
loop_
 _symmetry_equiv_pos_site_id
 _symmetry_equiv_pos_as_xyz
  1  'x, y, z'
loop_
 _atom_site_type_symbol
 _atom_site_label
 _atom_site_symmetry_multiplicity
 _atom_site_fract_x
 _atom_site_fract_y
 _atom_site_fract_z
 _atom_site_occupancy
  Li  Li0  1  0.158586  0.689253  0.556749  1
  Li  Li1  1  0.726618  0.851367  0.939174  1
  Li  Li2  1  0.370794  0.538245  0.718678  1
  Li  Li3  1  0.170618  0.428658  0.049722  1
  Li  Li4  1  0.800763  0.559663  0.962002  1
  Li  Li5  1  0.293745  0.170956  0.064010  1
  Li  Li6  1  0.843663  0.351215  0.439571  1
  Li  Li7  1  0.501846  0.009263  0.477816  1
  V  V8  1  0.504449  0.734760  0.246750  1
  V  V9  1  0.011321  0.770452  0.252416  1
  V  V10  1  0.983317  0.226120  0.744682  1
  V  V11  1  0.494555  0.241351  0.749992  1
  P  P12  1  0.246006  0.778541  0.893777  1
  P  P13  1  0.757908  0.727316  0.604008  1
  P  P14  1  0.241703  0.268471  0.397439  1
  P  P15  1  0.753245  0.225353  0.108993  1
  O  O16  1  0.141704  0.870901  0.013730  1
  O  O17  1  0.339813  0.917010  0.739394  1
  O  O18  1  0.268102  0.773154  0.334825  1
  O  O19  1  0.412820  0.734425  0.984648  1
  O  O20  1  0.583978  0.748264  0.506471  1
  O  O21  1  0.085084  0.565123  0.819716  1
  O  O22  1  0.899525  0.927964  0.699256  1
  O  O23  1  0.746367  0.722681  0.147569  1
  O  O24  1  0.133055  0.364522  0.518318  1
  O  O25  1  0.653227  0.571967  0.750138  1
  O  O26  1  0.336173  0.413865  0.244798  1
  O  O27  1  0.883084  0.648814  0.489345  1
  O  O28  1  0.258465  0.285281  0.843216  1
  O  O29  1  0.086104  0.064358  0.316969  1
  O  O30  1  0.915374  0.439022  0.179290  1
  O  O31  1  0.409558  0.239964  0.497321  1
  O  O32  1  0.589190  0.259760  0.005726  1
  O  O33  1  0.733252  0.223079  0.658457  1
  O  O34  1  0.657623  0.078771  0.256950  1
  O  O35  1  0.870585  0.143023  0.989193  1
