# generated using pymatgen
data_Li2VSi3O8
_symmetry_space_group_name_H-M   'P 1'
_cell_length_a   8.05009594
_cell_length_b   8.05009594
_cell_length_c   8.05009594
_cell_angle_alpha   90.00000000
_cell_angle_beta   90.00000000
_cell_angle_gamma   90.00000000
_symmetry_Int_Tables_number   1
_chemical_formula_structural   Li2VSi3O8
_chemical_formula_sum   'Li8 V4 Si12 O32'
_cell_volume   521.67877733
_cell_formula_units_Z   4
loop_
 _symmetry_equiv_pos_site_id
 _symmetry_equiv_pos_as_xyz
  1  'x, y, z'
loop_
 _atom_site_type_symbol
 _atom_site_label
 _atom_site_symmetry_multiplicity
 _atom_site_fract_x
 _atom_site_fract_y
 _atom_site_fract_z
 _atom_site_occupancy
  Li  Li0  1  0.008795  0.008795  0.008795  1
  Li  Li1  1  0.241205  0.241205  0.241205  1
  Li  Li2  1  0.258795  0.758795  0.741205  1
  Li  Li3  1  0.491205  0.991205  0.508795  1
  Li  Li4  1  0.508795  0.491205  0.991205  1
  Li  Li5  1  0.741205  0.258795  0.758795  1
  Li  Li6  1  0.758795  0.741205  0.258795  1
  Li  Li7  1  0.991205  0.508795  0.491205  1
  V  V8  1  0.125000  0.875000  0.375000  1
  V  V9  1  0.375000  0.125000  0.875000  1
  V  V10  1  0.625000  0.625000  0.625000  1
  V  V11  1  0.875000  0.375000  0.125000  1
  Si  Si12  1  0.110109  0.139891  0.625000  1
  Si  Si13  1  0.125000  0.389891  0.860109  1
  Si  Si14  1  0.139891  0.625000  0.110109  1
  Si  Si15  1  0.360109  0.375000  0.610109  1
  Si  Si16  1  0.375000  0.610109  0.360109  1
  Si  Si17  1  0.389891  0.860109  0.125000  1
  Si  Si18  1  0.610109  0.360109  0.375000  1
  Si  Si19  1  0.625000  0.110109  0.139891  1
  Si  Si20  1  0.639891  0.875000  0.889891  1
  Si  Si21  1  0.860109  0.125000  0.389891  1
  Si  Si22  1  0.875000  0.889891  0.639891  1
  Si  Si23  1  0.889891  0.639891  0.875000  1
  O  O24  1  0.080157  0.138006  0.401587  1
  O  O25  1  0.098413  0.919843  0.638006  1
  O  O26  1  0.120905  0.620905  0.879095  1
  O  O27  1  0.111994  0.169843  0.848413  1
  O  O28  1  0.138006  0.401587  0.080157  1
  O  O29  1  0.129095  0.370905  0.629095  1
  O  O30  1  0.151587  0.611994  0.330157  1
  O  O31  1  0.169843  0.848413  0.111994  1
  O  O32  1  0.330157  0.151587  0.611994  1
  O  O33  1  0.348413  0.388006  0.830157  1
  O  O34  1  0.370905  0.629095  0.129095  1
  O  O35  1  0.361994  0.598413  0.580157  1
  O  O36  1  0.388006  0.830157  0.348413  1
  O  O37  1  0.379095  0.379095  0.379095  1
  O  O38  1  0.401587  0.080157  0.138006  1
  O  O39  1  0.419843  0.861994  0.901587  1
  O  O40  1  0.580157  0.361994  0.598413  1
  O  O41  1  0.598413  0.580157  0.361994  1
  O  O42  1  0.620905  0.879095  0.120905  1
  O  O43  1  0.611994  0.330157  0.151587  1
  O  O44  1  0.638006  0.098413  0.919843  1
  O  O45  1  0.629095  0.129095  0.370905  1
  O  O46  1  0.651587  0.888006  0.669843  1
  O  O47  1  0.669843  0.651587  0.888006  1
  O  O48  1  0.830157  0.348413  0.388006  1
  O  O49  1  0.848413  0.111994  0.169843  1
  O  O50  1  0.870905  0.870905  0.870905  1
  O  O51  1  0.861994  0.901587  0.419843  1
  O  O52  1  0.888006  0.669843  0.651587  1
  O  O53  1  0.879095  0.120905  0.620905  1
  O  O54  1  0.901587  0.419843  0.861994  1
  O  O55  1  0.919843  0.638006  0.098413  1
