# generated using pymatgen
data_TiOF
_symmetry_space_group_name_H-M   'P 1'
_cell_length_a   5.09870472
_cell_length_b   4.98775975
_cell_length_c   5.21102773
_cell_angle_alpha   90.00000000
_cell_angle_beta   102.20097016
_cell_angle_gamma   90.00000000
_symmetry_Int_Tables_number   1
_chemical_formula_structural   TiOF
_chemical_formula_sum   'Ti4 O4 F4'
_cell_volume   129.52887081
_cell_formula_units_Z   4
loop_
 _symmetry_equiv_pos_site_id
 _symmetry_equiv_pos_as_xyz
  1  'x, y, z'
loop_
 _atom_site_type_symbol
 _atom_site_label
 _atom_site_symmetry_multiplicity
 _atom_site_fract_x
 _atom_site_fract_y
 _atom_site_fract_z
 _atom_site_occupancy
  Ti  Ti0  1  0.314238  0.538420  0.706557  1
  Ti  Ti1  1  0.314238  0.961580  0.206557  1
  Ti  Ti2  1  0.685762  0.038420  0.793443  1
  Ti  Ti3  1  0.685762  0.461580  0.293443  1
  O  O4  1  0.444471  0.253927  0.988646  1
  O  O5  1  0.444471  0.246073  0.488646  1
  O  O6  1  0.555529  0.753927  0.511354  1
  O  O7  1  0.555529  0.746073  0.011354  1
  F  F8  1  0.055517  0.819774  0.850527  1
  F  F9  1  0.055517  0.680226  0.350527  1
  F  F10  1  0.944483  0.319774  0.649473  1
  F  F11  1  0.944483  0.180226  0.149473  1
