# generated using pymatgen
data_Li7VGeO8
_symmetry_space_group_name_H-M   'P 1'
_cell_length_a   5.37244599
_cell_length_b   6.38425063
_cell_length_c   10.84705996
_cell_angle_alpha   90.34653731
_cell_angle_beta   90.14504763
_cell_angle_gamma   90.71225965
_symmetry_Int_Tables_number   1
_chemical_formula_structural   Li7VGeO8
_chemical_formula_sum   'Li14 V2 Ge2 O16'
_cell_volume   372.00694666
_cell_formula_units_Z   2
loop_
 _symmetry_equiv_pos_site_id
 _symmetry_equiv_pos_as_xyz
  1  'x, y, z'
loop_
 _atom_site_type_symbol
 _atom_site_label
 _atom_site_symmetry_multiplicity
 _atom_site_fract_x
 _atom_site_fract_y
 _atom_site_fract_z
 _atom_site_occupancy
  Li  Li0  1  0.678692  0.764172  0.083406  1
  Li  Li1  1  0.319182  0.515168  0.173503  1
  Li  Li2  1  0.317491  0.017117  0.173709  1
  Li  Li3  1  0.818177  0.017768  0.343502  1
  Li  Li4  1  0.818740  0.518430  0.343347  1
  Li  Li5  1  0.184531  0.270713  0.432033  1
  Li  Li6  1  0.834242  0.745074  0.583932  1
  Li  Li7  1  0.201329  0.509792  0.661979  1
  Li  Li8  1  0.116414  0.048847  0.652683  1
  Li  Li9  1  0.972718  0.381223  0.827396  1
  Li  Li10  1  0.831584  0.010600  0.846281  1
  Li  Li11  1  0.454774  0.908859  0.708999  1
  Li  Li12  1  0.625180  0.547659  0.842481  1
  Li  Li13  1  0.355915  0.238339  0.932894  1
  V  V14  1  0.831213  0.266171  0.093669  1
  V  V15  1  0.332522  0.771860  0.423835  1
  Ge  Ge16  1  0.674352  0.264451  0.591532  1
  Ge  Ge17  1  0.167826  0.758271  0.927384  1
  O  O18  1  0.307628  0.766998  0.073438  1
  O  O19  1  0.158306  0.264926  0.095260  1
  O  O20  1  0.716253  0.484397  0.168954  1
  O  O21  1  0.715336  0.046618  0.167407  1
  O  O22  1  0.219114  0.989683  0.348852  1
  O  O23  1  0.213441  0.550751  0.350355  1
  O  O24  1  0.658337  0.767187  0.420795  1
  O  O25  1  0.810415  0.268777  0.444359  1
  O  O26  1  0.229072  0.778367  0.579823  1
  O  O27  1  0.344489  0.261058  0.594306  1
  O  O28  1  0.803565  0.478625  0.680861  1
  O  O29  1  0.767301  0.026627  0.669576  1
  O  O30  1  0.229088  0.992623  0.837629  1
  O  O31  1  0.275573  0.531335  0.843697  1
  O  O32  1  0.837072  0.745124  0.925465  1
  O  O33  1  0.728230  0.264692  0.937280  1
