# generated using pymatgen
data_Li2Fe3NiO8
_symmetry_space_group_name_H-M   'P 1'
_cell_length_a   5.87331900
_cell_length_b   5.87331900
_cell_length_c   5.87331900
_cell_angle_alpha   58.63970435
_cell_angle_beta   58.63970435
_cell_angle_gamma   58.63970435
_symmetry_Int_Tables_number   1
_chemical_formula_structural   Li2Fe3NiO8
_chemical_formula_sum   'Li2 Fe3 Ni1 O8'
_cell_volume   138.80901842
_cell_formula_units_Z   1
loop_
 _symmetry_equiv_pos_site_id
 _symmetry_equiv_pos_as_xyz
  1  'x, y, z'
loop_
 _atom_site_type_symbol
 _atom_site_label
 _atom_site_symmetry_multiplicity
 _atom_site_fract_x
 _atom_site_fract_y
 _atom_site_fract_z
 _atom_site_occupancy
  Li  Li0  1  0.878310  0.878310  0.878310  1
  Li  Li1  1  0.121690  0.121690  0.121690  1
  Fe  Fe2  1  0.500000  0.500000  1.000000  1
  Fe  Fe3  1  1.000000  0.500000  0.500000  1
  Fe  Fe4  1  0.500000  0.000000  0.500000  1
  Ni  Ni5  1  0.500000  0.500000  0.500000  1
  O  O6  1  0.738115  0.738115  0.738115  1
  O  O7  1  0.747911  0.290557  0.747911  1
  O  O8  1  0.290557  0.747911  0.747911  1
  O  O9  1  0.747911  0.747911  0.290557  1
  O  O10  1  0.252089  0.252089  0.709443  1
  O  O11  1  0.709443  0.252089  0.252089  1
  O  O12  1  0.252089  0.709443  0.252089  1
  O  O13  1  0.261885  0.261885  0.261885  1
