# generated using pymatgen
data_Ni(PO3)3
_symmetry_space_group_name_H-M   'P 1'
_cell_length_a   6.38122177
_cell_length_b   9.67741176
_cell_length_c   10.65837274
_cell_angle_alpha   90.00000000
_cell_angle_beta   90.00000000
_cell_angle_gamma   90.00000000
_symmetry_Int_Tables_number   1
_chemical_formula_structural   Ni(PO3)3
_chemical_formula_sum   'Ni4 P12 O36'
_cell_volume   658.19406565
_cell_formula_units_Z   4
loop_
 _symmetry_equiv_pos_site_id
 _symmetry_equiv_pos_as_xyz
  1  'x, y, z'
loop_
 _atom_site_type_symbol
 _atom_site_label
 _atom_site_symmetry_multiplicity
 _atom_site_fract_x
 _atom_site_fract_y
 _atom_site_fract_z
 _atom_site_occupancy
  Ni  Ni0  1  0.000000  0.000000  0.000000  1
  Ni  Ni1  1  0.500000  0.000000  0.500000  1
  Ni  Ni2  1  0.000000  0.500000  0.500000  1
  Ni  Ni3  1  0.500000  0.500000  0.000000  1
  P  P4  1  0.750000  0.919418  0.750000  1
  P  P5  1  0.365134  0.784764  0.867318  1
  P  P6  1  0.134866  0.784764  0.632682  1
  P  P7  1  0.865134  0.715236  0.132682  1
  P  P8  1  0.634866  0.715236  0.367318  1
  P  P9  1  0.250000  0.580582  0.250000  1
  P  P10  1  0.750000  0.419418  0.750000  1
  P  P11  1  0.365134  0.284764  0.632682  1
  P  P12  1  0.134866  0.284764  0.867318  1
  P  P13  1  0.634866  0.215236  0.132682  1
  P  P14  1  0.865134  0.215236  0.367318  1
  P  P15  1  0.250000  0.080582  0.250000  1
  O  O16  1  0.148820  0.987238  0.154991  1
  O  O17  1  0.351180  0.987238  0.345009  1
  O  O18  1  0.236966  0.917574  0.596315  1
  O  O19  1  0.263034  0.917574  0.903685  1
  O  O20  1  0.616388  0.818001  0.473123  1
  O  O21  1  0.883612  0.818001  0.026877  1
  O  O22  1  0.593781  0.810949  0.810508  1
  O  O23  1  0.906219  0.810949  0.689492  1
  O  O24  1  0.750000  0.789341  0.250000  1
  O  O25  1  0.250000  0.710659  0.750000  1
  O  O26  1  0.093781  0.689051  0.189492  1
  O  O27  1  0.406219  0.689051  0.310508  1
  O  O28  1  0.116388  0.681999  0.526877  1
  O  O29  1  0.383612  0.681999  0.973123  1
  O  O30  1  0.763034  0.582426  0.096315  1
  O  O31  1  0.736966  0.582426  0.403685  1
  O  O32  1  0.851180  0.512762  0.654991  1
  O  O33  1  0.648820  0.512762  0.845009  1
  O  O34  1  0.351180  0.487238  0.154991  1
  O  O35  1  0.148820  0.487238  0.345009  1
  O  O36  1  0.263034  0.417574  0.596315  1
  O  O37  1  0.236966  0.417574  0.903685  1
  O  O38  1  0.616388  0.318001  0.026877  1
  O  O39  1  0.883612  0.318001  0.473123  1
  O  O40  1  0.593781  0.310949  0.689492  1
  O  O41  1  0.906219  0.310949  0.810508  1
  O  O42  1  0.750000  0.289341  0.250000  1
  O  O43  1  0.250000  0.210659  0.750000  1
  O  O44  1  0.406219  0.189051  0.189492  1
  O  O45  1  0.093781  0.189051  0.310508  1
  O  O46  1  0.383612  0.181999  0.526877  1
  O  O47  1  0.116388  0.181999  0.973123  1
  O  O48  1  0.736966  0.082426  0.096315  1
  O  O49  1  0.763034  0.082426  0.403685  1
  O  O50  1  0.648820  0.012762  0.654991  1
  O  O51  1  0.851180  0.012762  0.845009  1
