# generated using pymatgen
data_NaMnPCO7
_symmetry_space_group_name_H-M   'P 1'
_cell_length_a   6.25284197
_cell_length_b   9.09052436
_cell_length_c   10.47371026
_cell_angle_alpha   91.97385443
_cell_angle_beta   90.23365187
_cell_angle_gamma   91.34054967
_symmetry_Int_Tables_number   1
_chemical_formula_structural   NaMnPCO7
_chemical_formula_sum   'Na4 Mn4 P4 C4 O28'
_cell_volume   594.81937688
_cell_formula_units_Z   4
loop_
 _symmetry_equiv_pos_site_id
 _symmetry_equiv_pos_as_xyz
  1  'x, y, z'
loop_
 _atom_site_type_symbol
 _atom_site_label
 _atom_site_symmetry_multiplicity
 _atom_site_fract_x
 _atom_site_fract_y
 _atom_site_fract_z
 _atom_site_occupancy
  Na  Na0  1  0.467291  0.240716  0.376229  1
  Na  Na1  1  0.028638  0.241412  0.876891  1
  Na  Na2  1  0.974238  0.759697  0.119577  1
  Na  Na3  1  0.974976  0.760715  0.621665  1
  Mn  Mn4  1  0.748283  0.342151  0.108782  1
  Mn  Mn5  1  0.751674  0.342043  0.609031  1
  Mn  Mn6  1  0.260469  0.657831  0.391576  1
  Mn  Mn7  1  0.264563  0.658298  0.891514  1
  P  P8  1  0.251063  0.433063  0.141464  1
  P  P9  1  0.251070  0.432651  0.641583  1
  P  P10  1  0.753288  0.567484  0.358905  1
  P  P11  1  0.756246  0.567403  0.858911  1
  C  C12  1  0.745685  0.076485  0.134459  1
  C  C13  1  0.740156  0.076183  0.634694  1
  C  C14  1  0.244369  0.922503  0.365232  1
  C  C15  1  0.258208  0.923665  0.865251  1
  O  O16  1  0.231958  0.056059  0.349940  1
  O  O17  1  0.253527  0.057284  0.850081  1
  O  O18  1  0.750468  0.140952  0.023717  1
  O  O19  1  0.733969  0.141022  0.524028  1
  O  O20  1  0.740641  0.176856  0.229317  1
  O  O21  1  0.745611  0.176758  0.729710  1
  O  O22  1  0.056342  0.330098  0.104107  1
  O  O23  1  0.442667  0.332037  0.113248  1
  O  O24  1  0.056423  0.325761  0.615373  1
  O  O25  1  0.442768  0.335777  0.602800  1
  O  O26  1  0.250788  0.474158  0.287285  1
  O  O27  1  0.745503  0.425041  0.434268  1
  O  O28  1  0.253206  0.474482  0.787307  1
  O  O29  1  0.757908  0.425048  0.934265  1
  O  O30  1  0.250029  0.575097  0.065652  1
  O  O31  1  0.762319  0.526569  0.213121  1
  O  O32  1  0.241774  0.574152  0.565439  1
  O  O33  1  0.763190  0.526557  0.713112  1
  O  O34  1  0.563430  0.669044  0.389698  1
  O  O35  1  0.949455  0.669425  0.394886  1
  O  O36  1  0.566868  0.667700  0.891903  1
  O  O37  1  0.952770  0.671002  0.892826  1
  O  O38  1  0.249802  0.821852  0.270489  1
  O  O39  1  0.260261  0.822625  0.770484  1
  O  O40  1  0.253889  0.858745  0.476236  1
  O  O41  1  0.260601  0.859206  0.976225  1
  O  O42  1  0.746045  0.942138  0.149408  1
  O  O43  1  0.743374  0.942260  0.649311  1
