# generated using pymatgen
data_Li2VF6
_symmetry_space_group_name_H-M   'P 1'
_cell_length_a   5.22915243
_cell_length_b   8.74252181
_cell_length_c   5.23077662
_cell_angle_alpha   90.00000000
_cell_angle_beta   110.99678681
_cell_angle_gamma   90.00000000
_symmetry_Int_Tables_number   1
_chemical_formula_structural   Li2VF6
_chemical_formula_sum   'Li4 V2 F12'
_cell_volume   223.25196283
_cell_formula_units_Z   2
loop_
 _symmetry_equiv_pos_site_id
 _symmetry_equiv_pos_as_xyz
  1  'x, y, z'
loop_
 _atom_site_type_symbol
 _atom_site_label
 _atom_site_symmetry_multiplicity
 _atom_site_fract_x
 _atom_site_fract_y
 _atom_site_fract_z
 _atom_site_occupancy
  Li  Li0  1  0.550971  0.669144  0.621115  1
  Li  Li1  1  0.979920  0.339440  0.740154  1
  Li  Li2  1  0.020080  0.839440  0.259846  1
  Li  Li3  1  0.449029  0.169144  0.378885  1
  V  V4  1  0.007307  0.997494  0.744444  1
  V  V5  1  0.992693  0.497494  0.255556  1
  F  F6  1  0.758357  0.156868  0.751708  1
  F  F7  1  0.792671  0.510230  0.870395  1
  F  F8  1  0.811446  0.843732  0.844817  1
  F  F9  1  0.758634  0.354458  0.332134  1
  F  F10  1  0.783325  0.980386  0.375635  1
  F  F11  1  0.790329  0.653678  0.331163  1
  F  F12  1  0.188554  0.343732  0.155183  1
  F  F13  1  0.207329  0.010230  0.129605  1
  F  F14  1  0.241643  0.656868  0.248292  1
  F  F15  1  0.209671  0.153678  0.668837  1
  F  F16  1  0.216675  0.480386  0.624365  1
  F  F17  1  0.241366  0.854458  0.667866  1
