# generated using pymatgen
data_Li3MnSiBO7
_symmetry_space_group_name_H-M   'P 1'
_cell_length_a   5.07535045
_cell_length_b   6.28164267
_cell_length_c   8.32577083
_cell_angle_alpha   90.00000000
_cell_angle_beta   95.65138265
_cell_angle_gamma   90.00000000
_symmetry_Int_Tables_number   1
_chemical_formula_structural   Li3MnSiBO7
_chemical_formula_sum   'Li6 Mn2 Si2 B2 O14'
_cell_volume   264.14821230
_cell_formula_units_Z   2
loop_
 _symmetry_equiv_pos_site_id
 _symmetry_equiv_pos_as_xyz
  1  'x, y, z'
loop_
 _atom_site_type_symbol
 _atom_site_label
 _atom_site_symmetry_multiplicity
 _atom_site_fract_x
 _atom_site_fract_y
 _atom_site_fract_z
 _atom_site_occupancy
  Li  Li0  1  0.248353  0.750000  0.104066  1
  Li  Li1  1  0.752105  0.001123  0.247176  1
  Li  Li2  1  0.752105  0.498877  0.247176  1
  Li  Li3  1  0.247895  0.501123  0.752824  1
  Li  Li4  1  0.247895  0.998877  0.752824  1
  Li  Li5  1  0.751647  0.250000  0.895934  1
  Mn  Mn6  1  0.203234  0.250000  0.318717  1
  Mn  Mn7  1  0.796766  0.750000  0.681283  1
  Si  Si8  1  0.274584  0.750000  0.428626  1
  Si  Si9  1  0.725416  0.250000  0.571374  1
  B  B10  1  0.284086  0.250000  0.038596  1
  B  B11  1  0.715914  0.750000  0.961404  1
  O  O12  1  0.647857  0.750000  0.113103  1
  O  O13  1  0.029018  0.250000  0.088784  1
  O  O14  1  0.475376  0.250000  0.173154  1
  O  O15  1  0.181833  0.945489  0.303630  1
  O  O16  1  0.181833  0.554511  0.303630  1
  O  O17  1  0.597524  0.750000  0.474833  1
  O  O18  1  0.864381  0.250000  0.403695  1
  O  O19  1  0.135619  0.750000  0.596305  1
  O  O20  1  0.402476  0.250000  0.525167  1
  O  O21  1  0.818167  0.445489  0.696370  1
  O  O22  1  0.818167  0.054511  0.696370  1
  O  O23  1  0.524624  0.750000  0.826846  1
  O  O24  1  0.970982  0.750000  0.911216  1
  O  O25  1  0.352143  0.250000  0.886897  1
