# generated using pymatgen
data_BaYF5
_symmetry_space_group_name_H-M   'P 1'
_cell_length_a   7.44469806
_cell_length_b   8.66691520
_cell_length_c   11.37676387
_cell_angle_alpha   78.54620115
_cell_angle_beta   87.10929192
_cell_angle_gamma   75.68848786
_symmetry_Int_Tables_number   1
_chemical_formula_structural   BaYF5
_chemical_formula_sum   'Ba6 Y6 F30'
_cell_volume   697.11163199
_cell_formula_units_Z   6
loop_
 _symmetry_equiv_pos_site_id
 _symmetry_equiv_pos_as_xyz
  1  'x, y, z'
loop_
 _atom_site_type_symbol
 _atom_site_label
 _atom_site_symmetry_multiplicity
 _atom_site_fract_x
 _atom_site_fract_y
 _atom_site_fract_z
 _atom_site_occupancy
  Ba  Ba0  1  0.268405  0.380254  0.927472  1
  Ba  Ba1  1  0.258153  0.719529  0.597431  1
  Ba  Ba2  1  0.343757  0.036222  0.264760  1
  Ba  Ba3  1  0.656243  0.963778  0.735240  1
  Ba  Ba4  1  0.741847  0.280471  0.402569  1
  Ba  Ba5  1  0.731595  0.619746  0.072528  1
  Y  Y6  1  0.205851  0.277965  0.568166  1
  Y  Y7  1  0.217391  0.548767  0.258582  1
  Y  Y8  1  0.795055  0.167305  0.013344  1
  Y  Y9  1  0.204945  0.832695  0.986656  1
  Y  Y10  1  0.782609  0.451233  0.741418  1
  Y  Y11  1  0.794149  0.722035  0.431834  1
  F  F12  1  0.134813  0.124537  0.446192  1
  F  F13  1  0.090986  0.410372  0.149060  1
  F  F14  1  0.516378  0.132534  0.058094  1
  F  F15  1  0.423534  0.312776  0.277851  1
  F  F16  1  0.987209  0.266778  0.875108  1
  F  F17  1  0.990150  0.543638  0.606356  1
  F  F18  1  0.100146  0.055919  0.071648  1
  F  F19  1  0.081693  0.749069  0.365572  1
  F  F20  1  0.281772  0.056663  0.711065  1
  F  F21  1  0.335705  0.477601  0.449650  1
  F  F22  1  0.347796  0.770854  0.178282  1
  F  F23  1  0.316778  0.394563  0.700317  1
  F  F24  1  0.650879  0.430272  0.939599  1
  F  F25  1  0.781825  0.288655  0.164853  1
  F  F26  1  0.505223  0.159278  0.539814  1
  F  F27  1  0.494777  0.840722  0.460186  1
  F  F28  1  0.218175  0.711345  0.835147  1
  F  F29  1  0.349121  0.569728  0.060401  1
  F  F30  1  0.683222  0.605437  0.299683  1
  F  F31  1  0.652204  0.229146  0.821718  1
  F  F32  1  0.664295  0.522399  0.550350  1
  F  F33  1  0.718228  0.943337  0.288935  1
  F  F34  1  0.918307  0.250931  0.634428  1
  F  F35  1  0.899854  0.944081  0.928352  1
  F  F36  1  0.009850  0.456362  0.393644  1
  F  F37  1  0.012791  0.733222  0.124892  1
  F  F38  1  0.576466  0.687224  0.722149  1
  F  F39  1  0.483622  0.867466  0.941906  1
  F  F40  1  0.909014  0.589628  0.850940  1
  F  F41  1  0.865187  0.875463  0.553808  1
