# generated using pymatgen
data_Co3OF5
_symmetry_space_group_name_H-M   'P 1'
_cell_length_a   4.72923675
_cell_length_b   4.72923675
_cell_length_c   9.42155649
_cell_angle_alpha   89.20949544
_cell_angle_beta   90.79050456
_cell_angle_gamma   88.53834888
_symmetry_Int_Tables_number   1
_chemical_formula_structural   Co3OF5
_chemical_formula_sum   'Co6 O2 F10'
_cell_volume   210.60980659
_cell_formula_units_Z   2
loop_
 _symmetry_equiv_pos_site_id
 _symmetry_equiv_pos_as_xyz
  1  'x, y, z'
loop_
 _atom_site_type_symbol
 _atom_site_label
 _atom_site_symmetry_multiplicity
 _atom_site_fract_x
 _atom_site_fract_y
 _atom_site_fract_z
 _atom_site_occupancy
  Co  Co0  1  0.024197  0.975803  0.337016  1
  Co  Co1  1  0.975803  0.024197  0.662984  1
  Co  Co2  1  0.000000  0.000000  0.000000  1
  Co  Co3  1  0.500000  0.500000  0.500000  1
  Co  Co4  1  0.497271  0.502729  0.174647  1
  Co  Co5  1  0.502729  0.497271  0.825353  1
  O  O6  1  0.674022  0.325978  0.646945  1
  O  O7  1  0.325978  0.674022  0.353055  1
  F  F8  1  0.798456  0.798456  0.500000  1
  F  F9  1  0.813311  0.794642  0.168929  1
  F  F10  1  0.794642  0.813311  0.831071  1
  F  F11  1  0.712037  0.287963  0.340251  1
  F  F12  1  0.693683  0.306317  0.002331  1
  F  F13  1  0.306317  0.693683  0.997669  1
  F  F14  1  0.287963  0.712037  0.659749  1
  F  F15  1  0.201544  0.201544  0.500000  1
  F  F16  1  0.205358  0.186689  0.168929  1
  F  F17  1  0.186689  0.205358  0.831071  1
