# generated using pymatgen
data_Li3MnV4O8
_symmetry_space_group_name_H-M   'P 1'
_cell_length_a   6.03086852
_cell_length_b   6.03086852
_cell_length_c   6.10974101
_cell_angle_alpha   59.78347592
_cell_angle_beta   120.21652408
_cell_angle_gamma   119.75163940
_symmetry_Int_Tables_number   1
_chemical_formula_structural   Li3MnV4O8
_chemical_formula_sum   'Li3 Mn1 V4 O8'
_cell_volume   156.90671566
_cell_formula_units_Z   1
loop_
 _symmetry_equiv_pos_site_id
 _symmetry_equiv_pos_as_xyz
  1  'x, y, z'
loop_
 _atom_site_type_symbol
 _atom_site_label
 _atom_site_symmetry_multiplicity
 _atom_site_fract_x
 _atom_site_fract_y
 _atom_site_fract_z
 _atom_site_occupancy
  Li  Li0  1  1.000000  0.500000  0.000000  1
  Li  Li1  1  0.500000  0.000000  0.000000  1
  Li  Li2  1  1.000000  0.000000  0.500000  1
  Mn  Mn3  1  0.500000  0.500000  0.000000  1
  V  V4  1  0.500000  0.500000  0.500000  1
  V  V5  1  0.000000  0.000000  0.000000  1
  V  V6  1  0.500000  1.000000  0.500000  1
  V  V7  1  1.000000  0.500000  0.500000  1
  O  O8  1  0.750993  0.249007  0.278814  1
  O  O9  1  0.243844  0.261804  0.731236  1
  O  O10  1  0.738196  0.756156  0.731236  1
  O  O11  1  0.249007  0.750993  0.721186  1
  O  O12  1  0.258483  0.741517  0.262277  1
  O  O13  1  0.756156  0.738196  0.268764  1
  O  O14  1  0.261804  0.243844  0.268764  1
  O  O15  1  0.741517  0.258483  0.737723  1
