# generated using pymatgen
data_LiFeF4
_symmetry_space_group_name_H-M   'P 1'
_cell_length_a   7.49990713
_cell_length_b   7.61970100
_cell_length_c   10.34364900
_cell_angle_alpha   90.00000000
_cell_angle_beta   90.00000000
_cell_angle_gamma   90.00000000
_symmetry_Int_Tables_number   1
_chemical_formula_structural   LiFeF4
_chemical_formula_sum   'Li8 Fe8 F32'
_cell_volume   591.10902512
_cell_formula_units_Z   8
loop_
 _symmetry_equiv_pos_site_id
 _symmetry_equiv_pos_as_xyz
  1  'x, y, z'
loop_
 _atom_site_type_symbol
 _atom_site_label
 _atom_site_symmetry_multiplicity
 _atom_site_fract_x
 _atom_site_fract_y
 _atom_site_fract_z
 _atom_site_occupancy
  Li  Li0  1  0.000000  0.253787  0.770127  1
  Li  Li1  1  0.000000  0.825784  0.775454  1
  Li  Li2  1  0.000000  0.022553  0.265124  1
  Li  Li3  1  0.000000  0.565993  0.280703  1
  Li  Li4  1  0.500000  0.065993  0.719297  1
  Li  Li5  1  0.500000  0.325784  0.224546  1
  Li  Li6  1  0.500000  0.522553  0.734876  1
  Li  Li7  1  0.500000  0.753788  0.229873  1
  Fe  Fe8  1  0.246539  0.495965  0.003791  1
  Fe  Fe9  1  0.249846  0.742800  0.504894  1
  Fe  Fe10  1  0.250154  0.242800  0.495106  1
  Fe  Fe11  1  0.253461  0.995965  0.996209  1
  Fe  Fe12  1  0.746539  0.995965  0.996209  1
  Fe  Fe13  1  0.749846  0.242800  0.495106  1
  Fe  Fe14  1  0.750154  0.742800  0.504894  1
  Fe  Fe15  1  0.753461  0.495965  0.003791  1
  F  F16  1  0.000000  0.208123  0.570390  1
  F  F17  1  0.000000  0.787232  0.581628  1
  F  F18  1  0.000000  0.035063  0.067317  1
  F  F19  1  0.000000  0.473705  0.087627  1
  F  F20  1  0.167163  0.438994  0.839876  1
  F  F21  1  0.176083  0.198748  0.324082  1
  F  F22  1  0.162983  0.771430  0.335881  1
  F  F23  1  0.169248  0.026557  0.822569  1
  F  F24  1  0.189802  0.492149  0.475352  1
  F  F25  1  0.190516  0.744513  0.969509  1
  F  F26  1  0.309484  0.244512  0.030491  1
  F  F27  1  0.310198  0.992149  0.524648  1
  F  F28  1  0.330752  0.526557  0.177431  1
  F  F29  1  0.337017  0.271430  0.664119  1
  F  F30  1  0.323917  0.698748  0.675918  1
  F  F31  1  0.332837  0.938994  0.160124  1
  F  F32  1  0.500000  0.287232  0.418372  1
  F  F33  1  0.500000  0.535063  0.932683  1
  F  F34  1  0.500000  0.973705  0.912373  1
  F  F35  1  0.500000  0.708123  0.429610  1
  F  F36  1  0.667163  0.938994  0.160124  1
  F  F37  1  0.676083  0.698748  0.675918  1
  F  F38  1  0.662983  0.271430  0.664119  1
  F  F39  1  0.669248  0.526557  0.177431  1
  F  F40  1  0.689802  0.992149  0.524648  1
  F  F41  1  0.690516  0.244512  0.030491  1
  F  F42  1  0.809484  0.744513  0.969509  1
  F  F43  1  0.810198  0.492149  0.475352  1
  F  F44  1  0.830752  0.026557  0.822569  1
  F  F45  1  0.837017  0.771430  0.335881  1
  F  F46  1  0.823917  0.198748  0.324082  1
  F  F47  1  0.832837  0.438994  0.839876  1
