# generated using pymatgen
data_Co2OF3
_symmetry_space_group_name_H-M   'P 1'
_cell_length_a   5.60036570
_cell_length_b   5.60036570
_cell_length_c   5.60036570
_cell_angle_alpha   113.62482212
_cell_angle_beta   109.00578541
_cell_angle_gamma   105.87802793
_symmetry_Int_Tables_number   1
_chemical_formula_structural   Co2OF3
_chemical_formula_sum   'Co4 O2 F6'
_cell_volume   134.58563838
_cell_formula_units_Z   2
loop_
 _symmetry_equiv_pos_site_id
 _symmetry_equiv_pos_as_xyz
  1  'x, y, z'
loop_
 _atom_site_type_symbol
 _atom_site_label
 _atom_site_symmetry_multiplicity
 _atom_site_fract_x
 _atom_site_fract_y
 _atom_site_fract_z
 _atom_site_occupancy
  Co  Co0  1  0.500000  0.000000  0.000000  1
  Co  Co1  1  0.500000  0.500000  0.500000  1
  Co  Co2  1  0.036855  0.750000  0.286855  1
  Co  Co3  1  0.963145  0.250000  0.713145  1
  O  O4  1  0.669542  0.250000  0.419542  1
  O  O5  1  0.330458  0.750000  0.580458  1
  F  F6  1  0.796844  0.796844  0.500000  1
  F  F7  1  0.796844  0.296844  0.000000  1
  F  F8  1  0.717370  0.750000  0.967370  1
  F  F9  1  0.282630  0.250000  0.032630  1
  F  F10  1  0.203156  0.703156  0.000000  1
  F  F11  1  0.203156  0.203156  0.500000  1
