# generated using pymatgen
data_Li2TiV2O6
_symmetry_space_group_name_H-M   'P 1'
_cell_length_a   6.72891479
_cell_length_b   6.72891479
_cell_length_c   6.04988306
_cell_angle_alpha   76.62300172
_cell_angle_beta   103.37699828
_cell_angle_gamma   154.33056063
_symmetry_Int_Tables_number   1
_chemical_formula_structural   Li2TiV2O6
_chemical_formula_sum   'Li2 Ti1 V2 O6'
_cell_volume   115.27091631
_cell_formula_units_Z   1
loop_
 _symmetry_equiv_pos_site_id
 _symmetry_equiv_pos_as_xyz
  1  'x, y, z'
loop_
 _atom_site_type_symbol
 _atom_site_label
 _atom_site_symmetry_multiplicity
 _atom_site_fract_x
 _atom_site_fract_y
 _atom_site_fract_z
 _atom_site_occupancy
  Li  Li0  1  0.661609  0.338391  0.317938  1
  Li  Li1  1  0.338391  0.661609  0.682062  1
  Ti  Ti2  1  0.000000  1.000000  0.500000  1
  V  V3  1  0.337668  0.662332  0.155602  1
  V  V4  1  0.662332  0.337668  0.844398  1
  O  O5  1  0.843874  0.156126  0.402104  1
  O  O6  1  0.501331  0.498669  0.715191  1
  O  O7  1  0.177711  0.822289  0.078564  1
  O  O8  1  0.498669  0.501331  0.284809  1
  O  O9  1  0.156126  0.843874  0.597896  1
  O  O10  1  0.822289  0.177711  0.921436  1
