# generated using pymatgen
data_Lu2P4O13
_symmetry_space_group_name_H-M   'P 1'
_cell_length_a   6.83676605
_cell_length_b   6.83676605
_cell_length_c   12.85326253
_cell_angle_alpha   75.81959491
_cell_angle_beta   104.18040509
_cell_angle_gamma   121.24016817
_symmetry_Int_Tables_number   1
_chemical_formula_structural   Lu2P4O13
_chemical_formula_sum   'Lu4 P8 O26'
_cell_volume   492.94978517
_cell_formula_units_Z   2
loop_
 _symmetry_equiv_pos_site_id
 _symmetry_equiv_pos_as_xyz
  1  'x, y, z'
loop_
 _atom_site_type_symbol
 _atom_site_label
 _atom_site_symmetry_multiplicity
 _atom_site_fract_x
 _atom_site_fract_y
 _atom_site_fract_z
 _atom_site_occupancy
  Lu  Lu0  1  0.300296  0.694667  0.947837  1
  Lu  Lu1  1  0.305333  0.699704  0.447837  1
  Lu  Lu2  1  0.694667  0.300296  0.552163  1
  Lu  Lu3  1  0.699704  0.305333  0.052163  1
  P  P4  1  0.861646  0.836997  0.867361  1
  P  P5  1  0.226581  0.760111  0.659876  1
  P  P6  1  0.836997  0.861646  0.632639  1
  P  P7  1  0.760111  0.226581  0.840124  1
  P  P8  1  0.239889  0.773419  0.159876  1
  P  P9  1  0.163003  0.138354  0.367361  1
  P  P10  1  0.773419  0.239889  0.340124  1
  P  P11  1  0.138354  0.163003  0.132639  1
  O  O12  1  0.683295  0.670467  0.942673  1
  O  O13  1  0.104542  0.877246  0.897156  1
  O  O14  1  0.092695  0.899893  0.652854  1
  O  O15  1  0.122754  0.895458  0.397156  1
  O  O16  1  0.427036  0.925109  0.594299  1
  O  O17  1  0.100107  0.907305  0.152854  1
  O  O18  1  0.295104  0.693498  0.778140  1
  O  O19  1  0.925109  0.427036  0.905701  1
  O  O20  1  0.329533  0.316705  0.442673  1
  O  O21  1  0.072524  0.560474  0.593037  1
  O  O22  1  0.693498  0.295104  0.721860  1
  O  O23  1  0.439526  0.927476  0.093037  1
  O  O24  1  0.751774  0.751774  0.750000  1
  O  O25  1  0.560474  0.072524  0.906963  1
  O  O26  1  0.306502  0.704896  0.278140  1
  O  O27  1  0.927476  0.439526  0.406963  1
  O  O28  1  0.670467  0.683295  0.557327  1
  O  O29  1  0.074891  0.572964  0.094299  1
  O  O30  1  0.704896  0.306502  0.221860  1
  O  O31  1  0.899893  0.092695  0.847146  1
  O  O32  1  0.572964  0.074891  0.405701  1
  O  O33  1  0.877246  0.104542  0.602844  1
  O  O34  1  0.907305  0.100107  0.347146  1
  O  O35  1  0.248226  0.248226  0.250000  1
  O  O36  1  0.895458  0.122754  0.102844  1
  O  O37  1  0.316705  0.329533  0.057327  1
