# generated using pymatgen
data_Dy2WO6
_symmetry_space_group_name_H-M   'P 1'
_cell_length_a   7.70792865
_cell_length_b   5.39953479
_cell_length_c   11.48583220
_cell_angle_alpha   90.00000000
_cell_angle_beta   104.52972361
_cell_angle_gamma   90.00000000
_symmetry_Int_Tables_number   1
_chemical_formula_structural   Dy2WO6
_chemical_formula_sum   'Dy8 W4 O24'
_cell_volume   462.74289434
_cell_formula_units_Z   4
loop_
 _symmetry_equiv_pos_site_id
 _symmetry_equiv_pos_as_xyz
  1  'x, y, z'
loop_
 _atom_site_type_symbol
 _atom_site_label
 _atom_site_symmetry_multiplicity
 _atom_site_fract_x
 _atom_site_fract_y
 _atom_site_fract_z
 _atom_site_occupancy
  Dy  Dy0  1  0.000000  0.737949  0.750000  1
  Dy  Dy1  1  0.000000  0.262051  0.250000  1
  Dy  Dy2  1  0.203260  0.188208  0.577867  1
  Dy  Dy3  1  0.203260  0.811792  0.077867  1
  Dy  Dy4  1  0.500000  0.683701  0.750000  1
  Dy  Dy5  1  0.500000  0.316299  0.250000  1
  Dy  Dy6  1  0.796740  0.188208  0.922133  1
  Dy  Dy7  1  0.796740  0.811792  0.422133  1
  W  W8  1  0.278488  0.254221  0.886315  1
  W  W9  1  0.278488  0.745779  0.386315  1
  W  W10  1  0.721512  0.254221  0.613685  1
  W  W11  1  0.721512  0.745779  0.113685  1
  O  O12  1  0.061553  0.038750  0.895873  1
  O  O13  1  0.148869  0.526142  0.930846  1
  O  O14  1  0.061553  0.961250  0.395873  1
  O  O15  1  0.213373  0.463439  0.728267  1
  O  O16  1  0.148869  0.473858  0.430846  1
  O  O17  1  0.290520  0.985239  0.771048  1
  O  O18  1  0.213373  0.536561  0.228267  1
  O  O19  1  0.365955  0.852243  0.548199  1
  O  O20  1  0.510579  0.363626  0.887628  1
  O  O21  1  0.290520  0.014761  0.271048  1
  O  O22  1  0.489421  0.363626  0.612372  1
  O  O23  1  0.634045  0.852243  0.951801  1
  O  O24  1  0.365955  0.147757  0.048199  1
  O  O25  1  0.510579  0.636374  0.387628  1
  O  O26  1  0.709480  0.985239  0.728952  1
  O  O27  1  0.489421  0.636374  0.112372  1
  O  O28  1  0.634045  0.147757  0.451801  1
  O  O29  1  0.786627  0.463439  0.771733  1
  O  O30  1  0.709480  0.014761  0.228952  1
  O  O31  1  0.851131  0.526142  0.569154  1
  O  O32  1  0.786627  0.536561  0.271733  1
  O  O33  1  0.938447  0.038750  0.604127  1
  O  O34  1  0.851131  0.473858  0.069154  1
  O  O35  1  0.938447  0.961250  0.104127  1
