# generated using pymatgen
data_Li4Cu2C4SO16
_symmetry_space_group_name_H-M   'P 1'
_cell_length_a   9.50113298
_cell_length_b   9.39611492
_cell_length_c   9.21782408
_cell_angle_alpha   61.37623906
_cell_angle_beta   60.23651990
_cell_angle_gamma   58.38724104
_symmetry_Int_Tables_number   1
_chemical_formula_structural   Li4Cu2C4SO16
_chemical_formula_sum   'Li8 Cu4 C8 S2 O32'
_cell_volume   581.08355214
_cell_formula_units_Z   2
loop_
 _symmetry_equiv_pos_site_id
 _symmetry_equiv_pos_as_xyz
  1  'x, y, z'
loop_
 _atom_site_type_symbol
 _atom_site_label
 _atom_site_symmetry_multiplicity
 _atom_site_fract_x
 _atom_site_fract_y
 _atom_site_fract_z
 _atom_site_occupancy
  Li  Li0  1  0.712046  0.287954  0.287954  1
  Li  Li1  1  0.714085  0.285915  0.714085  1
  Li  Li2  1  0.285915  0.714085  0.285915  1
  Li  Li3  1  0.287954  0.712046  0.712046  1
  Li  Li4  1  0.962046  0.537954  0.537954  1
  Li  Li5  1  0.964085  0.535915  0.964085  1
  Li  Li6  1  0.535915  0.964085  0.535915  1
  Li  Li7  1  0.537954  0.962046  0.962046  1
  Cu  Cu8  1  0.125000  0.125000  0.625000  1
  Cu  Cu9  1  0.125000  0.125000  0.125000  1
  Cu  Cu10  1  0.625000  0.125000  0.125000  1
  Cu  Cu11  1  0.125000  0.625000  0.125000  1
  C  C12  1  0.900048  0.284953  0.909125  1
  C  C13  1  0.284953  0.900048  0.905873  1
  C  C14  1  0.905873  0.909125  0.284953  1
  C  C15  1  0.909125  0.905873  0.900048  1
  C  C16  1  0.340875  0.344127  0.349952  1
  C  C17  1  0.344127  0.340875  0.965047  1
  C  C18  1  0.965047  0.349952  0.344127  1
  C  C19  1  0.349952  0.965047  0.340875  1
  S  S20  1  0.500000  0.500000  0.500000  1
  S  S21  1  0.750000  0.750000  0.750000  1
  O  O22  1  0.911624  0.290808  0.759941  1
  O  O23  1  0.763630  0.273668  0.043391  1
  O  O24  1  0.290808  0.911624  0.037628  1
  O  O25  1  0.273668  0.763630  0.919310  1
  O  O26  1  0.919310  0.043391  0.273668  1
  O  O27  1  0.956103  0.225034  0.489392  1
  O  O28  1  0.225034  0.956103  0.329471  1
  O  O29  1  0.760608  0.920529  0.293897  1
  O  O30  1  0.037628  0.759941  0.290808  1
  O  O31  1  0.329471  0.489392  0.225034  1
  O  O32  1  0.561090  0.557633  0.305053  1
  O  O33  1  0.673776  0.944947  0.692367  1
  O  O34  1  0.043391  0.919310  0.763630  1
  O  O35  1  0.759941  0.037628  0.911624  1
  O  O36  1  0.557633  0.561090  0.576224  1
  O  O37  1  0.305053  0.576224  0.561090  1
  O  O38  1  0.944947  0.673776  0.688910  1
  O  O39  1  0.692367  0.688910  0.673776  1
  O  O40  1  0.490059  0.212372  0.338376  1
  O  O41  1  0.206609  0.330690  0.486370  1
  O  O42  1  0.576224  0.305053  0.557633  1
  O  O43  1  0.688910  0.692367  0.944947  1
  O  O44  1  0.920529  0.760608  0.024966  1
  O  O45  1  0.212372  0.490059  0.959192  1
  O  O46  1  0.489392  0.329471  0.956103  1
  O  O47  1  0.024966  0.293897  0.920529  1
  O  O48  1  0.293897  0.024966  0.760608  1
  O  O49  1  0.330690  0.206609  0.976332  1
  O  O50  1  0.976332  0.486370  0.330690  1
  O  O51  1  0.959192  0.338376  0.212372  1
  O  O52  1  0.486370  0.976332  0.206609  1
  O  O53  1  0.338376  0.959192  0.490059  1
