# generated using pymatgen
data_Li8Mn(O2F)2
_symmetry_space_group_name_H-M   'P 1'
_cell_length_a   5.52805410
_cell_length_b   5.59141797
_cell_length_c   6.11415187
_cell_angle_alpha   91.06096710
_cell_angle_beta   114.61718724
_cell_angle_gamma   119.47257799
_symmetry_Int_Tables_number   1
_chemical_formula_structural   Li8Mn(O2F)2
_chemical_formula_sum   'Li8 Mn1 O4 F2'
_cell_volume   143.49028210
_cell_formula_units_Z   1
loop_
 _symmetry_equiv_pos_site_id
 _symmetry_equiv_pos_as_xyz
  1  'x, y, z'
loop_
 _atom_site_type_symbol
 _atom_site_label
 _atom_site_symmetry_multiplicity
 _atom_site_fract_x
 _atom_site_fract_y
 _atom_site_fract_z
 _atom_site_occupancy
  Li  Li0  1  0.236612  0.471574  0.352971  1
  Li  Li1  1  0.096527  0.209833  0.641228  1
  Li  Li2  1  0.411046  0.902437  0.638244  1
  Li  Li3  1  0.733957  0.315104  0.022644  1
  Li  Li4  1  0.266043  0.684896  0.977356  1
  Li  Li5  1  0.588954  0.097563  0.361756  1
  Li  Li6  1  0.903473  0.790167  0.358772  1
  Li  Li7  1  0.763388  0.528426  0.647029  1
  Mn  Mn8  1  0.000000  0.000000  0.000000  1
  O  O9  1  0.859047  0.093666  0.247771  1
  O  O10  1  0.164395  0.755946  0.242459  1
  O  O11  1  0.835605  0.244054  0.757541  1
  O  O12  1  0.140953  0.906334  0.752229  1
  F  F13  1  0.471787  0.578830  0.717344  1
  F  F14  1  0.528213  0.421170  0.282656  1
