# generated using pymatgen
data_NaLi2V3O9
_symmetry_space_group_name_H-M   'P 1'
_cell_length_a   10.17544606
_cell_length_b   10.17544606
_cell_length_c   10.06577067
_cell_angle_alpha   73.19435312
_cell_angle_beta   106.80564688
_cell_angle_gamma   127.26466677
_symmetry_Int_Tables_number   1
_chemical_formula_structural   NaLi2V3O9
_chemical_formula_sum   'Na4 Li8 V12 O36'
_cell_volume   785.06375727
_cell_formula_units_Z   4
loop_
 _symmetry_equiv_pos_site_id
 _symmetry_equiv_pos_as_xyz
  1  'x, y, z'
loop_
 _atom_site_type_symbol
 _atom_site_label
 _atom_site_symmetry_multiplicity
 _atom_site_fract_x
 _atom_site_fract_y
 _atom_site_fract_z
 _atom_site_occupancy
  Na  Na0  1  0.462232  0.793461  0.833439  1
  Na  Na1  1  0.205305  0.205305  0.000000  1
  Na  Na2  1  0.793461  0.462232  0.166561  1
  Na  Na3  1  0.127877  0.127877  0.500000  1
  Li  Li4  1  0.499130  0.168378  0.663998  1
  Li  Li5  1  0.853180  0.516237  0.665401  1
  Li  Li6  1  0.837213  0.168655  0.835697  1
  Li  Li7  1  0.833902  0.833902  0.000000  1
  Li  Li8  1  0.168655  0.837213  0.164303  1
  Li  Li9  1  0.516237  0.853180  0.334599  1
  Li  Li10  1  0.168378  0.499130  0.336002  1
  Li  Li11  1  0.505056  0.505056  0.500000  1
  V  V12  1  0.104277  0.911786  0.805112  1
  V  V13  1  0.560659  0.085518  0.026265  1
  V  V14  1  0.085518  0.560659  0.973735  1
  V  V15  1  0.419913  0.229464  0.308917  1
  V  V16  1  0.249474  0.773283  0.523263  1
  V  V17  1  0.773283  0.249474  0.476737  1
  V  V18  1  0.229464  0.419913  0.691083  1
  V  V19  1  0.751344  0.894741  0.636694  1
  V  V20  1  0.586320  0.441733  0.855741  1
  V  V21  1  0.911786  0.104277  0.194888  1
  V  V22  1  0.441733  0.586320  0.144259  1
  V  V23  1  0.894741  0.751344  0.363306  1
  O  O24  1  0.570122  0.276841  0.998431  1
  O  O25  1  0.382137  0.921620  0.083866  1
  O  O26  1  0.283235  0.077308  0.750076  1
  O  O27  1  0.628378  0.429666  0.710005  1
  O  O28  1  0.092294  0.719929  0.826826  1
  O  O29  1  0.921620  0.382137  0.916134  1
  O  O30  1  0.580223  0.057335  0.877653  1
  O  O31  1  0.276841  0.570122  0.001569  1
  O  O32  1  0.938844  0.084416  0.043049  1
  O  O33  1  0.055279  0.756287  0.502032  1
  O  O34  1  0.759662  0.288058  0.621343  1
  O  O35  1  0.408634  0.951310  0.583179  1
  O  O36  1  0.239447  0.610769  0.665380  1
  O  O37  1  0.725236  0.914274  0.786285  1
  O  O38  1  0.255510  0.051522  0.252136  1
  O  O39  1  0.051522  0.255510  0.747864  1
  O  O40  1  0.914274  0.725236  0.213715  1
  O  O41  1  0.394757  0.431590  0.828911  1
  O  O42  1  0.610769  0.239447  0.334620  1
  O  O43  1  0.084416  0.938844  0.956951  1
  O  O44  1  0.951310  0.408634  0.416821  1
  O  O45  1  0.745751  0.617130  0.919446  1
  O  O46  1  0.288058  0.759662  0.378657  1
  O  O47  1  0.756287  0.055279  0.497968  1
  O  O48  1  0.588442  0.714806  0.581208  1
  O  O49  1  0.246731  0.393016  0.539061  1
  O  O50  1  0.943185  0.905757  0.662885  1
  O  O51  1  0.057335  0.580223  0.122347  1
  O  O52  1  0.719929  0.092294  0.173174  1
  O  O53  1  0.429666  0.628378  0.289995  1
  O  O54  1  0.077308  0.283235  0.249924  1
  O  O55  1  0.905757  0.943185  0.337115  1
  O  O56  1  0.393016  0.246731  0.460939  1
  O  O57  1  0.714806  0.588442  0.418792  1
  O  O58  1  0.617130  0.745751  0.080554  1
  O  O59  1  0.431590  0.394757  0.171089  1
