# generated using pymatgen
data_K2MnPCO7
_symmetry_space_group_name_H-M   'P 1'
_cell_length_a   5.41649512
_cell_length_b   7.30571622
_cell_length_c   9.50103909
_cell_angle_alpha   90.00000000
_cell_angle_beta   90.26757578
_cell_angle_gamma   90.00000000
_symmetry_Int_Tables_number   1
_chemical_formula_structural   K2MnPCO7
_chemical_formula_sum   'K4 Mn2 P2 C2 O14'
_cell_volume   375.96509288
_cell_formula_units_Z   2
loop_
 _symmetry_equiv_pos_site_id
 _symmetry_equiv_pos_as_xyz
  1  'x, y, z'
loop_
 _atom_site_type_symbol
 _atom_site_label
 _atom_site_symmetry_multiplicity
 _atom_site_fract_x
 _atom_site_fract_y
 _atom_site_fract_z
 _atom_site_occupancy
  K  K0  1  0.244589  0.474049  0.249278  1
  K  K1  1  0.244589  0.025951  0.249278  1
  K  K2  1  0.755411  0.525951  0.750722  1
  K  K3  1  0.755411  0.974049  0.750722  1
  Mn  Mn4  1  0.773414  0.750000  0.358294  1
  Mn  Mn5  1  0.226586  0.250000  0.641706  1
  P  P6  1  0.719509  0.250000  0.426600  1
  P  P7  1  0.280491  0.750000  0.573400  1
  C  C8  1  0.728543  0.750000  0.101320  1
  C  C9  1  0.271457  0.250000  0.898680  1
  O  O10  1  0.289304  0.250000  0.029106  1
  O  O11  1  0.940570  0.750000  0.170846  1
  O  O12  1  0.540151  0.750000  0.189623  1
  O  O13  1  0.759250  0.074102  0.340422  1
  O  O14  1  0.759250  0.425898  0.340422  1
  O  O15  1  0.110207  0.750000  0.438948  1
  O  O16  1  0.441617  0.250000  0.479322  1
  O  O17  1  0.558383  0.750000  0.520678  1
  O  O18  1  0.889793  0.250000  0.561052  1
  O  O19  1  0.240750  0.574102  0.659578  1
  O  O20  1  0.240750  0.925898  0.659578  1
  O  O21  1  0.459849  0.250000  0.810377  1
  O  O22  1  0.059430  0.250000  0.829154  1
  O  O23  1  0.710696  0.750000  0.970894  1
