# generated using pymatgen
data_Li2Fe3CoO8
_symmetry_space_group_name_H-M   'P 1'
_cell_length_a   8.40411993
_cell_length_b   8.40411993
_cell_length_c   8.31411224
_cell_angle_alpha   90.00000000
_cell_angle_beta   90.00000000
_cell_angle_gamma   90.00000000
_symmetry_Int_Tables_number   1
_chemical_formula_structural   Li2Fe3CoO8
_chemical_formula_sum   'Li8 Fe12 Co4 O32'
_cell_volume   587.21936053
_cell_formula_units_Z   4
loop_
 _symmetry_equiv_pos_site_id
 _symmetry_equiv_pos_as_xyz
  1  'x, y, z'
loop_
 _atom_site_type_symbol
 _atom_site_label
 _atom_site_symmetry_multiplicity
 _atom_site_fract_x
 _atom_site_fract_y
 _atom_site_fract_z
 _atom_site_occupancy
  Li  Li0  1  0.746694  0.497463  0.873270  1
  Li  Li1  1  0.502537  0.253306  0.626730  1
  Li  Li2  1  0.002537  0.246694  0.123270  1
  Li  Li3  1  0.246694  0.002537  0.876730  1
  Li  Li4  1  0.753306  0.997463  0.376730  1
  Li  Li5  1  0.997463  0.753306  0.623270  1
  Li  Li6  1  0.497463  0.746694  0.126730  1
  Li  Li7  1  0.253306  0.502537  0.373270  1
  Fe  Fe8  1  0.124675  0.372747  0.752994  1
  Fe  Fe9  1  0.872747  0.375325  0.502994  1
  Fe  Fe10  1  0.622691  0.377309  0.250000  1
  Fe  Fe11  1  0.122691  0.122691  0.500000  1
  Fe  Fe12  1  0.372747  0.124675  0.247006  1
  Fe  Fe13  1  0.624675  0.127253  0.997006  1
  Fe  Fe14  1  0.375325  0.872747  0.497006  1
  Fe  Fe15  1  0.627253  0.875325  0.747006  1
  Fe  Fe16  1  0.877309  0.877309  0.000000  1
  Fe  Fe17  1  0.377309  0.622691  0.750000  1
  Fe  Fe18  1  0.127253  0.624675  0.002994  1
  Fe  Fe19  1  0.875325  0.627253  0.252994  1
  Co  Co20  1  0.374586  0.374586  0.000000  1
  Co  Co21  1  0.874586  0.125414  0.750000  1
  Co  Co22  1  0.125414  0.874586  0.250000  1
  Co  Co23  1  0.625414  0.625414  0.500000  1
  O  O24  1  0.366124  0.380472  0.772317  1
  O  O25  1  0.147406  0.384189  0.991076  1
  O  O26  1  0.864723  0.387508  0.263171  1
  O  O27  1  0.884189  0.352594  0.741076  1
  O  O28  1  0.631794  0.396160  0.491194  1
  O  O29  1  0.112492  0.364723  0.513171  1
  O  O30  1  0.380472  0.366124  0.227683  1
  O  O31  1  0.603840  0.368206  0.008806  1
  O  O32  1  0.103840  0.131794  0.741194  1
  O  O33  1  0.880472  0.133876  0.522317  1
  O  O34  1  0.612492  0.135277  0.236829  1
  O  O35  1  0.131794  0.103840  0.258806  1
  O  O36  1  0.384189  0.147406  0.008924  1
  O  O37  1  0.364723  0.112492  0.486829  1
  O  O38  1  0.647406  0.115811  0.758924  1
  O  O39  1  0.866124  0.119528  0.977683  1
  O  O40  1  0.133876  0.880472  0.477683  1
  O  O41  1  0.352594  0.884189  0.258924  1
  O  O42  1  0.635277  0.887508  0.986829  1
  O  O43  1  0.615811  0.852594  0.508924  1
  O  O44  1  0.868206  0.896160  0.758806  1
  O  O45  1  0.387508  0.864723  0.736829  1
  O  O46  1  0.119528  0.866124  0.022317  1
  O  O47  1  0.896160  0.868206  0.241194  1
  O  O48  1  0.396160  0.631794  0.508806  1
  O  O49  1  0.619528  0.633876  0.727683  1
  O  O50  1  0.887508  0.635277  0.013171  1
  O  O51  1  0.368206  0.603840  0.991194  1
  O  O52  1  0.115811  0.647406  0.241076  1
  O  O53  1  0.135277  0.612492  0.763171  1
  O  O54  1  0.852594  0.615811  0.491076  1
  O  O55  1  0.633876  0.619528  0.272317  1
