# generated using pymatgen
data_KRb2YF6
_symmetry_space_group_name_H-M   'P 1'
_cell_length_a   6.58136475
_cell_length_b   6.75063193
_cell_length_c   11.42318814
_cell_angle_alpha   90.00000000
_cell_angle_beta   124.91392905
_cell_angle_gamma   90.00000000
_symmetry_Int_Tables_number   1
_chemical_formula_structural   KRb2YF6
_chemical_formula_sum   'K2 Rb4 Y2 F12'
_cell_volume   416.16766083
_cell_formula_units_Z   2
loop_
 _symmetry_equiv_pos_site_id
 _symmetry_equiv_pos_as_xyz
  1  'x, y, z'
loop_
 _atom_site_type_symbol
 _atom_site_label
 _atom_site_symmetry_multiplicity
 _atom_site_fract_x
 _atom_site_fract_y
 _atom_site_fract_z
 _atom_site_occupancy
  K  K0  1  0.500000  0.500000  0.000000  1
  K  K1  1  0.500000  0.000000  0.500000  1
  Rb  Rb2  1  0.737337  0.456221  0.748138  1
  Rb  Rb3  1  0.737337  0.043779  0.248138  1
  Rb  Rb4  1  0.262663  0.956221  0.751862  1
  Rb  Rb5  1  0.262663  0.543779  0.251862  1
  Y  Y6  1  0.000000  0.500000  0.500000  1
  Y  Y7  1  0.000000  0.000000  0.000000  1
  F  F8  1  0.769387  0.767111  0.446169  1
  F  F9  1  0.230613  0.267111  0.053831  1
  F  F10  1  0.230613  0.232889  0.553831  1
  F  F11  1  0.769387  0.732889  0.946169  1
  F  F12  1  0.312076  0.681855  0.541115  1
  F  F13  1  0.687924  0.181855  0.958885  1
  F  F14  1  0.687924  0.318145  0.458885  1
  F  F15  1  0.312076  0.818145  0.041115  1
  F  F16  1  0.135307  0.961187  0.224933  1
  F  F17  1  0.864693  0.461187  0.275067  1
  F  F18  1  0.864693  0.038813  0.775067  1
  F  F19  1  0.135307  0.538813  0.724933  1
