# generated using pymatgen
data_RbB2P2HO9
_symmetry_space_group_name_H-M   'P 1'
_cell_length_a   6.86357258
_cell_length_b   12.30746778
_cell_length_c   8.94739355
_cell_angle_alpha   90.00000000
_cell_angle_beta   97.60954987
_cell_angle_gamma   90.00000000
_symmetry_Int_Tables_number   1
_chemical_formula_structural   RbB2P2HO9
_chemical_formula_sum   'Rb4 B8 P8 H4 O36'
_cell_volume   749.15885299
_cell_formula_units_Z   4
loop_
 _symmetry_equiv_pos_site_id
 _symmetry_equiv_pos_as_xyz
  1  'x, y, z'
loop_
 _atom_site_type_symbol
 _atom_site_label
 _atom_site_symmetry_multiplicity
 _atom_site_fract_x
 _atom_site_fract_y
 _atom_site_fract_z
 _atom_site_occupancy
  Rb  Rb0  1  0.272471  0.379546  0.810332  1
  Rb  Rb1  1  0.272471  0.120454  0.310332  1
  Rb  Rb2  1  0.727529  0.879546  0.689668  1
  Rb  Rb3  1  0.727529  0.620454  0.189668  1
  B  B4  1  0.068141  0.637865  0.639584  1
  B  B5  1  0.068141  0.862135  0.139584  1
  B  B6  1  0.383618  0.635578  0.530820  1
  B  B7  1  0.383618  0.864422  0.030820  1
  B  B8  1  0.616382  0.135578  0.969180  1
  B  B9  1  0.616382  0.364422  0.469180  1
  B  B10  1  0.931859  0.137865  0.860416  1
  B  B11  1  0.931859  0.362135  0.360416  1
  P  P12  1  0.127409  0.708065  0.942525  1
  P  P13  1  0.127409  0.791935  0.442525  1
  P  P14  1  0.289760  0.038175  0.822847  1
  P  P15  1  0.289760  0.461825  0.322847  1
  P  P16  1  0.710240  0.538175  0.677153  1
  P  P17  1  0.710240  0.961825  0.177153  1
  P  P18  1  0.872591  0.208065  0.557475  1
  P  P19  1  0.872591  0.291935  0.057475  1
  H  H20  1  0.222227  0.980127  0.588558  1
  H  H21  1  0.222227  0.519873  0.088558  1
  H  H22  1  0.777773  0.480127  0.911442  1
  H  H23  1  0.777773  0.019873  0.411442  1
  O  O24  1  0.009355  0.204750  0.995487  1
  O  O25  1  0.009355  0.295250  0.495487  1
  O  O26  1  0.071712  0.045864  0.847509  1
  O  O27  1  0.062249  0.715314  0.769537  1
  O  O28  1  0.071712  0.454136  0.347509  1
  O  O29  1  0.104925  0.904851  0.503115  1
  O  O30  1  0.062249  0.784686  0.269537  1
  O  O31  1  0.104925  0.595149  0.003115  1
  O  O32  1  0.257371  0.593202  0.629888  1
  O  O33  1  0.344010  0.749590  0.985119  1
  O  O34  1  0.311206  0.040897  0.651716  1
  O  O35  1  0.376261  0.928350  0.883297  1
  O  O36  1  0.257371  0.906798  0.129888  1
  O  O37  1  0.404311  0.136239  0.899943  1
  O  O38  1  0.344010  0.750410  0.485119  1
  O  O39  1  0.311206  0.459103  0.151716  1
  O  O40  1  0.376261  0.571650  0.383297  1
  O  O41  1  0.404311  0.363761  0.399943  1
  O  O42  1  0.595689  0.636239  0.600057  1
  O  O43  1  0.623739  0.428350  0.616703  1
  O  O44  1  0.688794  0.540897  0.848284  1
  O  O45  1  0.655990  0.249590  0.514881  1
  O  O46  1  0.595689  0.863761  0.100057  1
  O  O47  1  0.742629  0.093202  0.870112  1
  O  O48  1  0.623739  0.071650  0.116703  1
  O  O49  1  0.688794  0.959103  0.348284  1
  O  O50  1  0.655990  0.250410  0.014881  1
  O  O51  1  0.742629  0.406798  0.370112  1
  O  O52  1  0.895075  0.404851  0.996885  1
  O  O53  1  0.937751  0.215314  0.730463  1
  O  O54  1  0.895075  0.095149  0.496885  1
  O  O55  1  0.928288  0.545864  0.652491  1
  O  O56  1  0.937751  0.284686  0.230463  1
  O  O57  1  0.928288  0.954136  0.152491  1
  O  O58  1  0.990645  0.704750  0.504513  1
  O  O59  1  0.990645  0.795250  0.004513  1
