# generated using pymatgen
data_Ce2Dy2O7
_symmetry_space_group_name_H-M   'P 1'
_cell_length_a   3.84547243
_cell_length_b   3.84547243
_cell_length_c   10.87889733
_cell_angle_alpha   90.00000000
_cell_angle_beta   90.00000000
_cell_angle_gamma   90.00000000
_symmetry_Int_Tables_number   1
_chemical_formula_structural   Ce2Dy2O7
_chemical_formula_sum   'Ce2 Dy2 O7'
_cell_volume   160.87341517
_cell_formula_units_Z   1
loop_
 _symmetry_equiv_pos_site_id
 _symmetry_equiv_pos_as_xyz
  1  'x, y, z'
loop_
 _atom_site_type_symbol
 _atom_site_label
 _atom_site_symmetry_multiplicity
 _atom_site_fract_x
 _atom_site_fract_y
 _atom_site_fract_z
 _atom_site_occupancy
  Ce  Ce0  1  0.500000  0.000000  0.374160  1
  Ce  Ce1  1  0.000000  0.500000  0.625840  1
  Dy  Dy2  1  0.500000  0.000000  0.859898  1
  Dy  Dy3  1  0.000000  0.500000  0.140102  1
  O  O4  1  0.000000  0.000000  0.000000  1
  O  O5  1  0.000000  0.000000  0.259050  1
  O  O6  1  0.500000  0.500000  0.233575  1
  O  O7  1  0.000000  0.000000  0.500000  1
  O  O8  1  0.500000  0.500000  0.500000  1
  O  O9  1  0.000000  0.000000  0.740950  1
  O  O10  1  0.500000  0.500000  0.766425  1
