# generated using pymatgen
data_Co2O3F
_symmetry_space_group_name_H-M   'P 1'
_cell_length_a   5.26402579
_cell_length_b   5.26402579
_cell_length_c   6.71370655
_cell_angle_alpha   73.99472164
_cell_angle_beta   106.00527836
_cell_angle_gamma   105.92671233
_symmetry_Int_Tables_number   1
_chemical_formula_structural   Co2O3F
_chemical_formula_sum   'Co6 O9 F3'
_cell_volume   167.88444088
_cell_formula_units_Z   3
loop_
 _symmetry_equiv_pos_site_id
 _symmetry_equiv_pos_as_xyz
  1  'x, y, z'
loop_
 _atom_site_type_symbol
 _atom_site_label
 _atom_site_symmetry_multiplicity
 _atom_site_fract_x
 _atom_site_fract_y
 _atom_site_fract_z
 _atom_site_occupancy
  Co  Co0  1  0.332738  0.666935  0.834630  1
  Co  Co1  1  0.310922  0.641890  0.334071  1
  Co  Co2  1  0.641890  0.310922  0.665929  1
  Co  Co3  1  0.666935  0.332738  0.165370  1
  Co  Co4  1  0.013714  0.013714  0.500000  1
  Co  Co5  1  0.026783  0.026783  0.000000  1
  O  O6  1  0.421976  0.552610  0.630880  1
  O  O7  1  0.108393  0.903652  0.295255  1
  O  O8  1  0.772941  0.240819  0.962328  1
  O  O9  1  0.552610  0.421976  0.369120  1
  O  O10  1  0.240819  0.772941  0.037672  1
  O  O11  1  0.903652  0.108393  0.704745  1
  O  O12  1  0.025532  0.357492  0.332718  1
  O  O13  1  0.357492  0.025532  0.667282  1
  O  O14  1  0.317020  0.317020  0.000000  1
  F  F15  1  0.635396  0.945470  0.344348  1
  F  F16  1  0.945470  0.635396  0.655652  1
  F  F17  1  0.725716  0.725716  0.000000  1
