# generated using pymatgen
data_Fe6O5F7
_symmetry_space_group_name_H-M   'P 1'
_cell_length_a   5.68737912
_cell_length_b   5.69441483
_cell_length_c   7.35642229
_cell_angle_alpha   72.35136358
_cell_angle_beta   72.32930938
_cell_angle_gamma   73.28287577
_symmetry_Int_Tables_number   1
_chemical_formula_structural   Fe6O5F7
_chemical_formula_sum   'Fe6 O5 F7'
_cell_volume   211.24155994
_cell_formula_units_Z   1
loop_
 _symmetry_equiv_pos_site_id
 _symmetry_equiv_pos_as_xyz
  1  'x, y, z'
loop_
 _atom_site_type_symbol
 _atom_site_label
 _atom_site_symmetry_multiplicity
 _atom_site_fract_x
 _atom_site_fract_y
 _atom_site_fract_z
 _atom_site_occupancy
  Fe  Fe0  1  0.305692  0.322251  0.161360  1
  Fe  Fe1  1  0.679027  0.642119  0.332343  1
  Fe  Fe2  1  0.375928  0.330124  0.690113  1
  Fe  Fe3  1  0.667863  0.690574  0.826654  1
  Fe  Fe4  1  0.983163  0.028620  0.496714  1
  Fe  Fe5  1  0.988362  0.002699  0.992763  1
  O  O6  1  0.768333  0.772888  0.037820  1
  O  O7  1  0.214321  0.217694  0.958915  1
  O  O8  1  0.576825  0.573386  0.631622  1
  O  O9  1  0.649912  0.031198  0.665554  1
  O  O10  1  0.954774  0.358586  0.342215  1
  F  F11  1  0.360913  0.946362  0.345797  1
  F  F12  1  0.041494  0.642605  0.662269  1
  F  F13  1  0.109524  0.098265  0.695838  1
  F  F14  1  0.427596  0.427867  0.375625  1
  F  F15  1  0.902502  0.899623  0.295551  1
  F  F16  1  0.300583  0.704722  0.993874  1
  F  F17  1  0.693187  0.310416  0.994975  1
