# generated using pymatgen
data_Li2NbV3O8
_symmetry_space_group_name_H-M   'P 1'
_cell_length_a   8.59080031
_cell_length_b   8.59080031
_cell_length_c   8.59080031
_cell_angle_alpha   90.00000000
_cell_angle_beta   90.00000000
_cell_angle_gamma   90.00000000
_symmetry_Int_Tables_number   1
_chemical_formula_structural   Li2NbV3O8
_chemical_formula_sum   'Li8 Nb4 V12 O32'
_cell_volume   634.01695547
_cell_formula_units_Z   4
loop_
 _symmetry_equiv_pos_site_id
 _symmetry_equiv_pos_as_xyz
  1  'x, y, z'
loop_
 _atom_site_type_symbol
 _atom_site_label
 _atom_site_symmetry_multiplicity
 _atom_site_fract_x
 _atom_site_fract_y
 _atom_site_fract_z
 _atom_site_occupancy
  Li  Li0  1  0.999884  0.999884  0.999884  1
  Li  Li1  1  0.250116  0.250116  0.250116  1
  Li  Li2  1  0.249884  0.749884  0.750116  1
  Li  Li3  1  0.500116  0.000116  0.499884  1
  Li  Li4  1  0.499884  0.500116  0.000116  1
  Li  Li5  1  0.750116  0.249884  0.749884  1
  Li  Li6  1  0.749884  0.750116  0.249884  1
  Li  Li7  1  0.000116  0.499884  0.500116  1
  Nb  Nb8  1  0.125000  0.875000  0.375000  1
  Nb  Nb9  1  0.375000  0.125000  0.875000  1
  Nb  Nb10  1  0.625000  0.625000  0.625000  1
  Nb  Nb11  1  0.875000  0.375000  0.125000  1
  V  V12  1  0.120235  0.129765  0.625000  1
  V  V13  1  0.125000  0.379765  0.870235  1
  V  V14  1  0.129765  0.625000  0.120235  1
  V  V15  1  0.370235  0.375000  0.620235  1
  V  V16  1  0.375000  0.620235  0.370235  1
  V  V17  1  0.379765  0.870235  0.125000  1
  V  V18  1  0.620235  0.370235  0.375000  1
  V  V19  1  0.625000  0.120235  0.129765  1
  V  V20  1  0.629765  0.875000  0.879765  1
  V  V21  1  0.870235  0.125000  0.379765  1
  V  V22  1  0.875000  0.879765  0.629765  1
  V  V23  1  0.879765  0.629765  0.875000  1
  O  O24  1  0.110412  0.110677  0.380939  1
  O  O25  1  0.119061  0.889588  0.610677  1
  O  O26  1  0.113821  0.613821  0.886179  1
  O  O27  1  0.139323  0.139588  0.869061  1
  O  O28  1  0.110677  0.380939  0.110412  1
  O  O29  1  0.136179  0.363821  0.636179  1
  O  O30  1  0.130939  0.639323  0.360412  1
  O  O31  1  0.139588  0.869061  0.139323  1
  O  O32  1  0.360412  0.130939  0.639323  1
  O  O33  1  0.369061  0.360677  0.860412  1
  O  O34  1  0.363821  0.636179  0.136179  1
  O  O35  1  0.389323  0.619061  0.610412  1
  O  O36  1  0.360677  0.860412  0.369061  1
  O  O37  1  0.386179  0.386179  0.386179  1
  O  O38  1  0.380939  0.110412  0.110677  1
  O  O39  1  0.389588  0.889323  0.880939  1
  O  O40  1  0.610412  0.389323  0.619061  1
  O  O41  1  0.619061  0.610412  0.389323  1
  O  O42  1  0.613821  0.886179  0.113821  1
  O  O43  1  0.639323  0.360412  0.130939  1
  O  O44  1  0.610677  0.119061  0.889588  1
  O  O45  1  0.636179  0.136179  0.363821  1
  O  O46  1  0.630939  0.860677  0.639588  1
  O  O47  1  0.639588  0.630939  0.860677  1
  O  O48  1  0.860412  0.369061  0.360677  1
  O  O49  1  0.869061  0.139323  0.139588  1
  O  O50  1  0.863821  0.863821  0.863821  1
  O  O51  1  0.889323  0.880939  0.389588  1
  O  O52  1  0.860677  0.639588  0.630939  1
  O  O53  1  0.886179  0.113821  0.613821  1
  O  O54  1  0.880939  0.389588  0.889323  1
  O  O55  1  0.889588  0.610677  0.119061  1
