# generated using pymatgen
data_Li3Fe(BO3)2
_symmetry_space_group_name_H-M   'P 1'
_cell_length_a   8.17763698
_cell_length_b   6.37590664
_cell_length_c   9.82683750
_cell_angle_alpha   90.00000000
_cell_angle_beta   116.81693662
_cell_angle_gamma   90.00000000
_symmetry_Int_Tables_number   1
_chemical_formula_structural   Li3Fe(BO3)2
_chemical_formula_sum   'Li12 Fe4 B8 O24'
_cell_volume   457.26573832
_cell_formula_units_Z   4
loop_
 _symmetry_equiv_pos_site_id
 _symmetry_equiv_pos_as_xyz
  1  'x, y, z'
loop_
 _atom_site_type_symbol
 _atom_site_label
 _atom_site_symmetry_multiplicity
 _atom_site_fract_x
 _atom_site_fract_y
 _atom_site_fract_z
 _atom_site_occupancy
  Li  Li0  1  0.575930  0.753386  0.482249  1
  Li  Li1  1  0.729687  0.449735  0.677556  1
  Li  Li2  1  0.424070  0.253386  0.017751  1
  Li  Li3  1  0.837065  0.222750  0.534280  1
  Li  Li4  1  0.729687  0.050265  0.177556  1
  Li  Li5  1  0.162935  0.722750  0.965720  1
  Li  Li6  1  0.837065  0.277250  0.034280  1
  Li  Li7  1  0.270313  0.949735  0.822444  1
  Li  Li8  1  0.162935  0.777250  0.465720  1
  Li  Li9  1  0.575930  0.746614  0.982249  1
  Li  Li10  1  0.270313  0.550265  0.322444  1
  Li  Li11  1  0.424070  0.246614  0.517751  1
  Fe  Fe12  1  0.817243  0.958483  0.819903  1
  Fe  Fe13  1  0.817243  0.541517  0.319903  1
  Fe  Fe14  1  0.182757  0.458483  0.680097  1
  Fe  Fe15  1  0.182757  0.041517  0.180097  1
  B  B16  1  0.461542  0.841758  0.186526  1
  B  B17  1  0.538458  0.341758  0.313474  1
  B  B18  1  0.073719  0.332555  0.884186  1
  B  B19  1  0.926281  0.832555  0.615814  1
  B  B20  1  0.073719  0.167445  0.384186  1
  B  B21  1  0.926281  0.667445  0.115814  1
  B  B22  1  0.461542  0.658242  0.686526  1
  B  B23  1  0.538458  0.158242  0.813474  1
  O  O24  1  0.362849  0.281071  0.282514  1
  O  O25  1  0.376893  0.805963  0.279194  1
  O  O26  1  0.352164  0.953128  0.053696  1
  O  O27  1  0.647836  0.453128  0.446304  1
  O  O28  1  0.623107  0.305963  0.220806  1
  O  O29  1  0.008617  0.195393  0.959766  1
  O  O30  1  0.770761  0.947873  0.547854  1
  O  O31  1  0.637151  0.781071  0.217486  1
  O  O32  1  0.977682  0.352045  0.726061  1
  O  O33  1  0.022318  0.852045  0.773939  1
  O  O34  1  0.229239  0.447873  0.952146  1
  O  O35  1  0.991383  0.695393  0.540234  1
  O  O36  1  0.008617  0.304607  0.459766  1
  O  O37  1  0.770761  0.552127  0.047854  1
  O  O38  1  0.977682  0.147955  0.226061  1
  O  O39  1  0.022318  0.647955  0.273939  1
  O  O40  1  0.362849  0.218929  0.782514  1
  O  O41  1  0.229239  0.052127  0.452146  1
  O  O42  1  0.991383  0.804607  0.040234  1
  O  O43  1  0.376893  0.694037  0.779194  1
  O  O44  1  0.352164  0.546872  0.553696  1
  O  O45  1  0.647836  0.046872  0.946304  1
  O  O46  1  0.623107  0.194037  0.720806  1
  O  O47  1  0.637151  0.718929  0.717486  1
