# generated using pymatgen
data_LiMn2P2HO9
_symmetry_space_group_name_H-M   'P 1'
_cell_length_a   6.16328418
_cell_length_b   6.83976662
_cell_length_c   8.93149721
_cell_angle_alpha   90.00000000
_cell_angle_beta   107.28798335
_cell_angle_gamma   90.00000000
_symmetry_Int_Tables_number   1
_chemical_formula_structural   LiMn2P2HO9
_chemical_formula_sum   'Li2 Mn4 P4 H2 O18'
_cell_volume   359.50147918
_cell_formula_units_Z   2
loop_
 _symmetry_equiv_pos_site_id
 _symmetry_equiv_pos_as_xyz
  1  'x, y, z'
loop_
 _atom_site_type_symbol
 _atom_site_label
 _atom_site_symmetry_multiplicity
 _atom_site_fract_x
 _atom_site_fract_y
 _atom_site_fract_z
 _atom_site_occupancy
  Li  Li0  1  0.010932  0.250000  0.854175  1
  Li  Li1  1  0.989068  0.750000  0.145825  1
  Mn  Mn2  1  0.472056  0.250000  0.293460  1
  Mn  Mn3  1  0.527944  0.750000  0.706540  1
  Mn  Mn4  1  0.500000  0.500000  0.000000  1
  Mn  Mn5  1  0.500000  0.000000  0.000000  1
  P  P6  1  0.905189  0.250000  0.195808  1
  P  P7  1  0.558366  0.750000  0.337236  1
  P  P8  1  0.441634  0.250000  0.662764  1
  P  P9  1  0.094811  0.750000  0.804192  1
  H  H10  1  0.928016  0.750000  0.487103  1
  H  H11  1  0.071984  0.250000  0.512897  1
  O  O12  1  0.836344  0.437723  0.093404  1
  O  O13  1  0.836344  0.062277  0.093404  1
  O  O14  1  0.831044  0.750000  0.377353  1
  O  O15  1  0.797756  0.250000  0.333066  1
  O  O16  1  0.840776  0.750000  0.722270  1
  O  O17  1  0.413418  0.250000  0.059988  1
  O  O18  1  0.472059  0.931282  0.235136  1
  O  O19  1  0.472059  0.568718  0.235136  1
  O  O20  1  0.528382  0.250000  0.519881  1
  O  O21  1  0.471618  0.750000  0.480119  1
  O  O22  1  0.527941  0.431282  0.764864  1
  O  O23  1  0.527941  0.068718  0.764864  1
  O  O24  1  0.586582  0.750000  0.940012  1
  O  O25  1  0.159224  0.250000  0.277730  1
  O  O26  1  0.202244  0.750000  0.666934  1
  O  O27  1  0.168956  0.250000  0.622647  1
  O  O28  1  0.163656  0.937723  0.906596  1
  O  O29  1  0.163656  0.562277  0.906596  1
