# generated using pymatgen
data_ZrPbO3
_symmetry_space_group_name_H-M   'P 1'
_cell_length_a   5.88932536
_cell_length_b   5.92741979
_cell_length_c   8.35430859
_cell_angle_alpha   90.00000000
_cell_angle_beta   90.00000000
_cell_angle_gamma   90.00000000
_symmetry_Int_Tables_number   1
_chemical_formula_structural   ZrPbO3
_chemical_formula_sum   'Zr4 Pb4 O12'
_cell_volume   291.63641255
_cell_formula_units_Z   4
loop_
 _symmetry_equiv_pos_site_id
 _symmetry_equiv_pos_as_xyz
  1  'x, y, z'
loop_
 _atom_site_type_symbol
 _atom_site_label
 _atom_site_symmetry_multiplicity
 _atom_site_fract_x
 _atom_site_fract_y
 _atom_site_fract_z
 _atom_site_occupancy
  Zr  Zr0  1  0.000000  0.000000  0.000000  1
  Zr  Zr1  1  0.000000  0.000000  0.500000  1
  Zr  Zr2  1  0.500000  0.500000  0.000000  1
  Zr  Zr3  1  0.500000  0.500000  0.500000  1
  Pb  Pb4  1  0.006927  0.523862  0.250000  1
  Pb  Pb5  1  0.493073  0.023862  0.250000  1
  Pb  Pb6  1  0.506927  0.976138  0.750000  1
  Pb  Pb7  1  0.993073  0.476138  0.750000  1
  O  O8  1  0.077229  0.015782  0.750000  1
  O  O9  1  0.211509  0.287512  0.040192  1
  O  O10  1  0.211509  0.287512  0.459808  1
  O  O11  1  0.288491  0.787512  0.040192  1
  O  O12  1  0.288491  0.787512  0.459808  1
  O  O13  1  0.422771  0.515782  0.750000  1
  O  O14  1  0.577229  0.484218  0.250000  1
  O  O15  1  0.711509  0.212488  0.540192  1
  O  O16  1  0.711509  0.212488  0.959808  1
  O  O17  1  0.788491  0.712488  0.540192  1
  O  O18  1  0.788491  0.712488  0.959808  1
  O  O19  1  0.922771  0.984218  0.250000  1
