# generated using pymatgen
data_Li4Cr2P4H3O16
_symmetry_space_group_name_H-M   'P 1'
_cell_length_a   4.95004812
_cell_length_b   7.69340358
_cell_length_c   8.36833731
_cell_angle_alpha   89.31421578
_cell_angle_beta   88.15120981
_cell_angle_gamma   76.14074180
_symmetry_Int_Tables_number   1
_chemical_formula_structural   Li4Cr2P4H3O16
_chemical_formula_sum   'Li4 Cr2 P4 H3 O16'
_cell_volume   309.24703632
_cell_formula_units_Z   1
loop_
 _symmetry_equiv_pos_site_id
 _symmetry_equiv_pos_as_xyz
  1  'x, y, z'
loop_
 _atom_site_type_symbol
 _atom_site_label
 _atom_site_symmetry_multiplicity
 _atom_site_fract_x
 _atom_site_fract_y
 _atom_site_fract_z
 _atom_site_occupancy
  Li  Li0  1  0.115138  0.321228  0.355277  1
  Li  Li1  1  0.397112  0.152132  0.877344  1
  Li  Li2  1  0.584819  0.843524  0.117223  1
  Li  Li3  1  0.886347  0.680542  0.647694  1
  Cr  Cr4  1  0.000382  0.502509  0.997647  1
  Cr  Cr5  1  0.498066  0.998392  0.500621  1
  P  P6  1  0.104200  0.743605  0.323974  1
  P  P7  1  0.375070  0.763318  0.847209  1
  P  P8  1  0.624607  0.242899  0.154461  1
  P  P9  1  0.890661  0.255862  0.675944  1
  H  H10  1  0.955801  0.020926  0.014324  1
  H  H11  1  0.451962  0.529476  0.398829  1
  H  H12  1  0.546922  0.479262  0.615288  1
  O  O13  1  0.117406  0.174285  0.551811  1
  O  O14  1  0.976353  0.690529  0.171077  1
  O  O15  1  0.156009  0.647612  0.827449  1
  O  O16  1  0.249104  0.552238  0.411383  1
  O  O17  1  0.383785  0.341812  0.050170  1
  O  O18  1  0.516376  0.193922  0.317564  1
  O  O19  1  0.253014  0.938508  0.939857  1
  O  O20  1  0.326255  0.845239  0.294743  1
  O  O21  1  0.670457  0.153206  0.706239  1
  O  O22  1  0.754429  0.059201  0.062192  1
  O  O23  1  0.482891  0.801556  0.678848  1
  O  O24  1  0.620899  0.653535  0.946392  1
  O  O25  1  0.746205  0.445818  0.586232  1
  O  O26  1  0.849046  0.350917  0.171985  1
  O  O27  1  0.015814  0.310082  0.829429  1
  O  O28  1  0.879753  0.825962  0.448696  1
