# generated using pymatgen
data_Li7Fe8(BO3)8
_symmetry_space_group_name_H-M   'P 1'
_cell_length_a   5.22932736
_cell_length_b   9.06649645
_cell_length_c   11.47295513
_cell_angle_alpha   113.00665274
_cell_angle_beta   101.97875022
_cell_angle_gamma   89.64142114
_symmetry_Int_Tables_number   1
_chemical_formula_structural   Li7Fe8(BO3)8
_chemical_formula_sum   'Li7 Fe8 B8 O24'
_cell_volume   488.08756463
_cell_formula_units_Z   1
loop_
 _symmetry_equiv_pos_site_id
 _symmetry_equiv_pos_as_xyz
  1  'x, y, z'
loop_
 _atom_site_type_symbol
 _atom_site_label
 _atom_site_symmetry_multiplicity
 _atom_site_fract_x
 _atom_site_fract_y
 _atom_site_fract_z
 _atom_site_occupancy
  Li  Li0  1  0.169127  0.846435  0.664854  1
  Li  Li1  1  0.351794  0.711061  0.408745  1
  Li  Li2  1  0.614961  0.951025  0.913071  1
  Li  Li3  1  0.918692  0.576482  0.169162  1
  Li  Li4  1  0.114577  0.448064  0.909233  1
  Li  Li5  1  0.670463  0.332590  0.662656  1
  Li  Li6  1  0.426987  0.073993  0.170071  1
  Fe  Fe7  1  0.406749  0.723359  0.130290  1
  Fe  Fe8  1  0.105578  0.779279  0.886777  1
  Fe  Fe9  1  0.841020  0.875174  0.379659  1
  Fe  Fe10  1  0.655690  0.647498  0.627747  1
  Fe  Fe11  1  0.347430  0.348329  0.378792  1
  Fe  Fe12  1  0.146377  0.155616  0.626586  1
  Fe  Fe13  1  0.902106  0.229358  0.137589  1
  Fe  Fe14  1  0.593816  0.271818  0.881518  1
  B  B15  1  0.653790  0.979992  0.631754  1
  B  B16  1  0.897299  0.893981  0.123039  1
  B  B17  1  0.148002  0.489414  0.632470  1
  B  B18  1  0.398377  0.394295  0.126088  1
  B  B19  1  0.856811  0.529706  0.381282  1
  B  B20  1  0.599228  0.600336  0.869741  1
  B  B21  1  0.346896  0.015195  0.375395  1
  B  B22  1  0.098536  0.104325  0.876799  1
  O  O23  1  0.145681  0.885027  0.093136  1
  O  O24  1  0.443903  0.860828  0.340422  1
  O  O25  1  0.235626  0.967992  0.860162  1
  O  O26  1  0.509426  0.842967  0.622639  1
  O  O27  1  0.897246  0.960992  0.601853  1
  O  O28  1  0.804345  0.780765  0.160750  1
  O  O29  1  0.242894  0.515524  0.114495  1
  O  O30  1  0.040729  0.639252  0.659307  1
  O  O31  1  0.693000  0.716468  0.829959  1
  O  O32  1  0.623224  0.550940  0.431114  1
  O  O33  1  0.973385  0.654894  0.366417  1
  O  O34  1  0.365910  0.621016  0.912432  1
  O  O35  1  0.646052  0.388560  0.096688  1
  O  O36  1  0.395956  0.473082  0.600402  1
  O  O37  1  0.307863  0.280778  0.164304  1
  O  O38  1  0.960342  0.382922  0.346026  1
  O  O39  1  0.737740  0.468814  0.861329  1
  O  O40  1  0.200102  0.226020  0.849275  1
  O  O41  1  0.128149  0.039465  0.428039  1
  O  O42  1  0.469689  0.132801  0.356170  1
  O  O43  1  0.016627  0.366870  0.640905  1
  O  O44  1  0.742338  0.012229  0.107783  1
  O  O45  1  0.547447  0.127135  0.667370  1
  O  O46  1  0.863819  0.116961  0.916218  1
