# generated using pymatgen
data_Li4Fe2Co3Te3O16
_symmetry_space_group_name_H-M   'P 1'
_cell_length_a   6.18392063
_cell_length_b   6.19817685
_cell_length_c   9.72331077
_cell_angle_alpha   89.45008917
_cell_angle_beta   91.24133280
_cell_angle_gamma   119.88415072
_symmetry_Int_Tables_number   1
_chemical_formula_structural   Li4Fe2Co3Te3O16
_chemical_formula_sum   'Li4 Fe2 Co3 Te3 O16'
_cell_volume   323.05474381
_cell_formula_units_Z   1
loop_
 _symmetry_equiv_pos_site_id
 _symmetry_equiv_pos_as_xyz
  1  'x, y, z'
loop_
 _atom_site_type_symbol
 _atom_site_label
 _atom_site_symmetry_multiplicity
 _atom_site_fract_x
 _atom_site_fract_y
 _atom_site_fract_z
 _atom_site_occupancy
  Li  Li0  1  0.324625  0.664415  0.879088  1
  Li  Li1  1  0.968586  0.984973  0.987425  1
  Li  Li2  1  0.979559  0.982125  0.507839  1
  Li  Li3  1  0.649425  0.335052  0.402239  1
  Fe  Fe4  1  0.365734  0.685655  0.509488  1
  Fe  Fe5  1  0.704006  0.332460  0.970846  1
  Co  Co6  1  0.662189  0.840771  0.212396  1
  Co  Co7  1  0.838995  0.663166  0.715672  1
  Co  Co8  1  0.838775  0.175193  0.711796  1
  Te  Te9  1  0.164503  0.829626  0.216502  1
  Te  Te10  1  0.174460  0.340805  0.218823  1
  Te  Te11  1  0.346792  0.174077  0.714302  1
  O  O12  1  0.194675  0.865815  0.598707  1
  O  O13  1  0.029307  0.538695  0.343262  1
  O  O14  1  0.317461  0.682862  0.100966  1
  O  O15  1  0.005950  0.977266  0.321514  1
  O  O16  1  0.026696  0.011966  0.804916  1
  O  O17  1  0.190605  0.328855  0.595552  1
  O  O18  1  0.462000  0.963262  0.334365  1
  O  O19  1  0.478975  0.525677  0.342313  1
  O  O20  1  0.309296  0.130082  0.102256  1
  O  O21  1  0.674219  0.839882  0.598549  1
  O  O22  1  0.499638  0.457027  0.844724  1
  O  O23  1  0.501947  0.034859  0.837616  1
  O  O24  1  0.649121  0.328962  0.606015  1
  O  O25  1  0.857791  0.679528  0.103590  1
  O  O26  1  0.966898  0.480193  0.839744  1
  O  O27  1  0.817773  0.147048  0.087336  1
