# generated using pymatgen
data_Li4Cu2Si3O10
_symmetry_space_group_name_H-M   'P 1'
_cell_length_a   5.38706554
_cell_length_b   5.38706554
_cell_length_c   16.24747025
_cell_angle_alpha   82.87111300
_cell_angle_beta   97.12888700
_cell_angle_gamma   118.57258736
_symmetry_Int_Tables_number   1
_chemical_formula_structural   Li4Cu2Si3O10
_chemical_formula_sum   'Li8 Cu4 Si6 O20'
_cell_volume   409.74826352
_cell_formula_units_Z   2
loop_
 _symmetry_equiv_pos_site_id
 _symmetry_equiv_pos_as_xyz
  1  'x, y, z'
loop_
 _atom_site_type_symbol
 _atom_site_label
 _atom_site_symmetry_multiplicity
 _atom_site_fract_x
 _atom_site_fract_y
 _atom_site_fract_z
 _atom_site_occupancy
  Li  Li0  1  0.835285  0.317553  0.053126  1
  Li  Li1  1  0.584142  0.212478  0.234400  1
  Li  Li2  1  0.682447  0.164715  0.553126  1
  Li  Li3  1  0.787522  0.415858  0.734400  1
  Li  Li4  1  0.212478  0.584142  0.265600  1
  Li  Li5  1  0.317553  0.835285  0.446874  1
  Li  Li6  1  0.415858  0.787522  0.765600  1
  Li  Li7  1  0.164715  0.682447  0.946874  1
  Cu  Cu8  1  0.200585  0.020250  0.082042  1
  Cu  Cu9  1  0.979750  0.799415  0.582042  1
  Cu  Cu10  1  0.020250  0.200585  0.417958  1
  Cu  Cu11  1  0.799415  0.979750  0.917958  1
  Si  Si12  1  0.656053  0.529127  0.403112  1
  Si  Si13  1  0.891031  0.891031  0.250000  1
  Si  Si14  1  0.529127  0.656053  0.096888  1
  Si  Si15  1  0.470873  0.343947  0.903112  1
  Si  Si16  1  0.108969  0.108969  0.750000  1
  Si  Si17  1  0.343947  0.470873  0.596888  1
  O  O18  1  0.932776  0.162288  0.295027  1
  O  O19  1  0.837712  0.067224  0.795027  1
  O  O20  1  0.607118  0.215363  0.434251  1
  O  O21  1  0.567564  0.368023  0.113440  1
  O  O22  1  0.802100  0.597401  0.311716  1
  O  O23  1  0.778400  0.909618  0.040771  1
  O  O24  1  0.909618  0.778400  0.459229  1
  O  O25  1  0.784637  0.392882  0.934251  1
  O  O26  1  0.631977  0.432436  0.613440  1
  O  O27  1  0.597401  0.802100  0.188284  1
  O  O28  1  0.402599  0.197900  0.811716  1
  O  O29  1  0.368023  0.567564  0.386560  1
  O  O30  1  0.215363  0.607118  0.065749  1
  O  O31  1  0.090382  0.221600  0.540771  1
  O  O32  1  0.221600  0.090382  0.959229  1
  O  O33  1  0.197900  0.402599  0.688284  1
  O  O34  1  0.432436  0.631977  0.886560  1
  O  O35  1  0.392882  0.784637  0.565749  1
  O  O36  1  0.162288  0.932776  0.204973  1
  O  O37  1  0.067224  0.837712  0.704973  1
