# generated using pymatgen
data_La5MnRe3O16
_symmetry_space_group_name_H-M   'P 1'
_cell_length_a   5.70229508
_cell_length_b   5.70628396
_cell_length_c   10.26972854
_cell_angle_alpha   93.70126922
_cell_angle_beta   93.58034339
_cell_angle_gamma   90.50236530
_symmetry_Int_Tables_number   1
_chemical_formula_structural   La5MnRe3O16
_chemical_formula_sum   'La5 Mn1 Re3 O16'
_cell_volume   332.79047301
_cell_formula_units_Z   1
loop_
 _symmetry_equiv_pos_site_id
 _symmetry_equiv_pos_as_xyz
  1  'x, y, z'
loop_
 _atom_site_type_symbol
 _atom_site_label
 _atom_site_symmetry_multiplicity
 _atom_site_fract_x
 _atom_site_fract_y
 _atom_site_fract_z
 _atom_site_occupancy
  La  La0  1  0.513636  0.027044  0.200799  1
  La  La1  1  0.486364  0.972956  0.799201  1
  La  La2  1  0.032748  0.505738  0.208697  1
  La  La3  1  0.967252  0.494262  0.791303  1
  La  La4  1  0.000000  0.000000  0.500000  1
  Mn  Mn5  1  0.500000  0.500000  0.000000  1
  Re  Re6  1  0.445927  0.445538  0.605476  1
  Re  Re7  1  0.554073  0.554462  0.394524  1
  Re  Re8  1  0.000000  0.000000  0.000000  1
  O  O9  1  0.310255  0.305682  0.434063  1
  O  O10  1  0.689745  0.694318  0.565937  1
  O  O11  1  0.224907  0.220073  0.675524  1
  O  O12  1  0.775093  0.779927  0.324476  1
  O  O13  1  0.546720  0.547142  0.798652  1
  O  O14  1  0.453280  0.452858  0.201348  1
  O  O15  1  0.926228  0.924272  0.816927  1
  O  O16  1  0.073772  0.075728  0.183073  1
  O  O17  1  0.703981  0.228751  0.634876  1
  O  O18  1  0.296019  0.771249  0.365124  1
  O  O19  1  0.222040  0.697212  0.634525  1
  O  O20  1  0.777960  0.302788  0.365475  1
  O  O21  1  0.301167  0.817630  0.996342  1
  O  O22  1  0.698833  0.182370  0.003658  1
  O  O23  1  0.825398  0.712504  0.036329  1
  O  O24  1  0.174602  0.287496  0.963671  1
