# generated using pymatgen
data_Bi2PO6
_symmetry_space_group_name_H-M   'P 1'
_cell_length_a   7.85953921
_cell_length_b   7.85953921
_cell_length_c   5.76117803
_cell_angle_alpha   90.00000000
_cell_angle_beta   90.00000000
_cell_angle_gamma   137.24471084
_symmetry_Int_Tables_number   1
_chemical_formula_structural   Bi2PO6
_chemical_formula_sum   'Bi4 P2 O12'
_cell_volume   241.59678080
_cell_formula_units_Z   2
loop_
 _symmetry_equiv_pos_site_id
 _symmetry_equiv_pos_as_xyz
  1  'x, y, z'
loop_
 _atom_site_type_symbol
 _atom_site_label
 _atom_site_symmetry_multiplicity
 _atom_site_fract_x
 _atom_site_fract_y
 _atom_site_fract_z
 _atom_site_occupancy
  Bi  Bi0  1  0.334493  0.665507  0.500000  1
  Bi  Bi1  1  0.165507  0.834493  0.000000  1
  Bi  Bi2  1  0.665507  0.334493  0.500000  1
  Bi  Bi3  1  0.834493  0.165507  0.000000  1
  P  P4  1  0.500000  0.500000  0.000000  1
  P  P5  1  0.000000  0.000000  0.500000  1
  O  O6  1  0.716229  0.583144  0.851146  1
  O  O7  1  0.283771  0.416856  0.851146  1
  O  O8  1  0.916856  0.783771  0.351146  1
  O  O9  1  0.583144  0.716229  0.148854  1
  O  O10  1  0.216229  0.083144  0.648854  1
  O  O11  1  0.500000  0.000000  0.261628  1
  O  O12  1  0.500000  0.000000  0.761628  1
  O  O13  1  0.783771  0.916856  0.648854  1
  O  O14  1  0.416856  0.283771  0.148854  1
  O  O15  1  0.083144  0.216229  0.351146  1
  O  O16  1  1.000000  0.500000  0.238372  1
  O  O17  1  1.000000  0.500000  0.738372  1
