# generated using pymatgen
data_Li2Ti3BiO8
_symmetry_space_group_name_H-M   'P 1'
_cell_length_a   6.68617055
_cell_length_b   6.68617055
_cell_length_c   6.68617055
_cell_angle_alpha   53.40991176
_cell_angle_beta   53.40991176
_cell_angle_gamma   53.40991176
_symmetry_Int_Tables_number   1
_chemical_formula_structural   Li2Ti3BiO8
_chemical_formula_sum   'Li2 Ti3 Bi1 O8'
_cell_volume   178.75515866
_cell_formula_units_Z   1
loop_
 _symmetry_equiv_pos_site_id
 _symmetry_equiv_pos_as_xyz
  1  'x, y, z'
loop_
 _atom_site_type_symbol
 _atom_site_label
 _atom_site_symmetry_multiplicity
 _atom_site_fract_x
 _atom_site_fract_y
 _atom_site_fract_z
 _atom_site_occupancy
  Li  Li0  1  0.094143  0.094143  0.094143  1
  Li  Li1  1  0.905857  0.905857  0.905857  1
  Ti  Ti2  1  0.500000  0.500000  0.000000  1
  Ti  Ti3  1  0.000000  0.500000  0.500000  1
  Ti  Ti4  1  0.500000  0.000000  0.500000  1
  Bi  Bi5  1  0.500000  0.500000  0.500000  1
  O  O6  1  0.709990  0.244130  0.244130  1
  O  O7  1  0.244130  0.244130  0.709990  1
  O  O8  1  0.726545  0.726545  0.726545  1
  O  O9  1  0.244130  0.709990  0.244130  1
  O  O10  1  0.755870  0.290010  0.755870  1
  O  O11  1  0.273455  0.273455  0.273455  1
  O  O12  1  0.755870  0.755870  0.290010  1
  O  O13  1  0.290010  0.755870  0.755870  1
