# generated using pymatgen
data_NbFe3Ni2(PO4)6
_symmetry_space_group_name_H-M   'P 1'
_cell_length_a   8.52372727
_cell_length_b   8.52372727
_cell_length_c   8.52372727
_cell_angle_alpha   61.01512805
_cell_angle_beta   61.01512805
_cell_angle_gamma   61.01512805
_symmetry_Int_Tables_number   1
_chemical_formula_structural   NbFe3Ni2(PO4)6
_chemical_formula_sum   'Nb1 Fe3 Ni2 P6 O24'
_cell_volume   447.91048581
_cell_formula_units_Z   1
loop_
 _symmetry_equiv_pos_site_id
 _symmetry_equiv_pos_as_xyz
  1  'x, y, z'
loop_
 _atom_site_type_symbol
 _atom_site_label
 _atom_site_symmetry_multiplicity
 _atom_site_fract_x
 _atom_site_fract_y
 _atom_site_fract_z
 _atom_site_occupancy
  Nb  Nb0  1  0.142750  0.142750  0.142750  1
  Fe  Fe1  1  0.853595  0.853595  0.853595  1
  Fe  Fe2  1  0.643862  0.643862  0.643862  1
  Fe  Fe3  1  0.356171  0.356171  0.356171  1
  Ni  Ni4  1  0.994021  0.994021  0.994021  1
  Ni  Ni5  1  0.499147  0.499147  0.499147  1
  P  P6  1  0.951613  0.253055  0.553034  1
  P  P7  1  0.553034  0.951613  0.253055  1
  P  P8  1  0.253055  0.553034  0.951613  1
  P  P9  1  0.743690  0.459511  0.046121  1
  P  P10  1  0.459511  0.046121  0.743690  1
  P  P11  1  0.046121  0.743690  0.459511  1
  O  O12  1  0.888724  0.682409  0.494613  1
  O  O13  1  0.682409  0.494613  0.888724  1
  O  O14  1  0.938394  0.090608  0.744790  1
  O  O15  1  0.494613  0.888724  0.682409  1
  O  O16  1  0.005830  0.180424  0.387990  1
  O  O17  1  0.756190  0.407888  0.556114  1
  O  O18  1  0.744790  0.938394  0.090608  1
  O  O19  1  0.556114  0.756190  0.407888  1
  O  O20  1  0.819611  0.609385  0.003576  1
  O  O21  1  0.407888  0.556114  0.756190  1
  O  O22  1  0.906998  0.257550  0.062734  1
  O  O23  1  0.609385  0.003576  0.819611  1
  O  O24  1  0.387990  0.005830  0.180424  1
  O  O25  1  0.090608  0.744790  0.938394  1
  O  O26  1  0.589810  0.441303  0.244406  1
  O  O27  1  0.180424  0.387990  0.005830  1
  O  O28  1  0.441303  0.244406  0.589810  1
  O  O29  1  0.257550  0.062734  0.906998  1
  O  O30  1  0.244406  0.589810  0.441303  1
  O  O31  1  0.003576  0.819611  0.609385  1
  O  O32  1  0.504895  0.109859  0.319330  1
  O  O33  1  0.062734  0.906998  0.257550  1
  O  O34  1  0.319330  0.504895  0.109859  1
  O  O35  1  0.109859  0.319330  0.504895  1
