# generated using pymatgen
data_Li2VO3F
_symmetry_space_group_name_H-M   'P 1'
_cell_length_a   5.15012269
_cell_length_b   7.72886124
_cell_length_c   7.74323744
_cell_angle_alpha   98.40839658
_cell_angle_beta   102.65171613
_cell_angle_gamma   103.37868922
_symmetry_Int_Tables_number   1
_chemical_formula_structural   Li2VO3F
_chemical_formula_sum   'Li8 V4 O12 F4'
_cell_volume   286.20753196
_cell_formula_units_Z   4
loop_
 _symmetry_equiv_pos_site_id
 _symmetry_equiv_pos_as_xyz
  1  'x, y, z'
loop_
 _atom_site_type_symbol
 _atom_site_label
 _atom_site_symmetry_multiplicity
 _atom_site_fract_x
 _atom_site_fract_y
 _atom_site_fract_z
 _atom_site_occupancy
  Li  Li0  1  0.513721  0.371129  0.118355  1
  Li  Li1  1  0.494139  0.731675  0.259162  1
  Li  Li2  1  0.542597  0.121676  0.383798  1
  Li  Li3  1  0.502003  0.503572  0.497001  1
  Li  Li4  1  0.004474  0.372599  0.614675  1
  Li  Li5  1  0.452670  0.873120  0.607324  1
  Li  Li6  1  0.510288  0.264130  0.749773  1
  Li  Li7  1  0.496314  0.630914  0.881852  1
  V  V8  1  0.026312  0.895048  0.165280  1
  V  V9  1  0.000948  0.282191  0.230350  1
  V  V10  1  0.000995  0.721547  0.760277  1
  V  V11  1  0.964912  0.095945  0.842849  1
  O  O12  1  0.801100  0.251325  0.005263  1
  O  O13  1  0.207990  0.115363  0.120092  1
  O  O14  1  0.802764  0.001180  0.250072  1
  O  O15  1  0.264416  0.472896  0.251445  1
  O  O16  1  0.780934  0.347774  0.351941  1
  O  O17  1  0.261358  0.880252  0.348535  1
  O  O18  1  0.751628  0.133230  0.654781  1
  O  O19  1  0.226535  0.642365  0.656283  1
  O  O20  1  0.748328  0.521459  0.739720  1
  O  O21  1  0.192777  0.995320  0.753293  1
  O  O22  1  0.768577  0.885768  0.872879  1
  O  O23  1  0.183393  0.756983  0.991415  1
  F  F24  1  0.731564  0.658112  0.118622  1
  F  F25  1  0.723321  0.747092  0.524601  1
  F  F26  1  0.266830  0.265802  0.492157  1
  F  F27  1  0.263057  0.348157  0.871336  1
