# generated using pymatgen
data_Li5Cu(PO4)2
_symmetry_space_group_name_H-M   'P 1'
_cell_length_a   5.35645344
_cell_length_b   6.20241798
_cell_length_c   9.95536436
_cell_angle_alpha   90.00000000
_cell_angle_beta   90.17216080
_cell_angle_gamma   90.00000000
_symmetry_Int_Tables_number   1
_chemical_formula_structural   Li5Cu(PO4)2
_chemical_formula_sum   'Li10 Cu2 P4 O16'
_cell_volume   330.74521020
_cell_formula_units_Z   2
loop_
 _symmetry_equiv_pos_site_id
 _symmetry_equiv_pos_as_xyz
  1  'x, y, z'
loop_
 _atom_site_type_symbol
 _atom_site_label
 _atom_site_symmetry_multiplicity
 _atom_site_fract_x
 _atom_site_fract_y
 _atom_site_fract_z
 _atom_site_occupancy
  Li  Li0  1  0.155075  0.000402  0.254566  1
  Li  Li1  1  0.155075  0.999598  0.754566  1
  Li  Li2  1  0.327199  0.751798  0.004694  1
  Li  Li3  1  0.672523  0.747106  0.755309  1
  Li  Li4  1  0.674382  0.747667  0.254399  1
  Li  Li5  1  0.844856  0.499206  0.003954  1
  Li  Li6  1  0.844856  0.500794  0.503954  1
  Li  Li7  1  0.672523  0.252894  0.255309  1
  Li  Li8  1  0.674382  0.252333  0.754399  1
  Li  Li9  1  0.327199  0.248202  0.504694  1
  Cu  Cu10  1  0.334769  0.758126  0.501522  1
  Cu  Cu11  1  0.334769  0.241874  0.001522  1
  P  P12  1  0.824793  0.995709  0.000850  1
  P  P13  1  0.824793  0.004291  0.500850  1
  P  P14  1  0.171486  0.498697  0.750365  1
  P  P15  1  0.171486  0.501303  0.250365  1
  O  O16  1  0.820056  0.000020  0.344507  1
  O  O17  1  0.099063  0.015131  0.553862  1
  O  O18  1  0.820056  0.999980  0.844507  1
  O  O19  1  0.099063  0.984869  0.053862  1
  O  O20  1  0.703486  0.792809  0.556941  1
  O  O21  1  0.681585  0.792893  0.052174  1
  O  O22  1  0.310884  0.702974  0.803004  1
  O  O23  1  0.313650  0.709901  0.295830  1
  O  O24  1  0.168918  0.504866  0.093927  1
  O  O25  1  0.897274  0.501645  0.302796  1
  O  O26  1  0.168918  0.495134  0.593927  1
  O  O27  1  0.897274  0.498355  0.802796  1
  O  O28  1  0.310884  0.297026  0.303004  1
  O  O29  1  0.313650  0.290099  0.795830  1
  O  O30  1  0.681585  0.207107  0.552174  1
  O  O31  1  0.703486  0.207191  0.056941  1
