# generated using pymatgen
data_Li8Mn7Fe(BO3)8
_symmetry_space_group_name_H-M   'P 1'
_cell_length_a   5.24830852
_cell_length_b   9.06044535
_cell_length_c   11.35103932
_cell_angle_alpha   108.14850175
_cell_angle_beta   89.70975216
_cell_angle_gamma   91.22068923
_symmetry_Int_Tables_number   1
_chemical_formula_structural   Li8Mn7Fe(BO3)8
_chemical_formula_sum   'Li8 Mn7 Fe1 B8 O24'
_cell_volume   512.79565950
_cell_formula_units_Z   1
loop_
 _symmetry_equiv_pos_site_id
 _symmetry_equiv_pos_as_xyz
  1  'x, y, z'
loop_
 _atom_site_type_symbol
 _atom_site_label
 _atom_site_symmetry_multiplicity
 _atom_site_fract_x
 _atom_site_fract_y
 _atom_site_fract_z
 _atom_site_occupancy
  Li  Li0  1  0.850251  0.382130  0.163513  1
  Li  Li1  1  0.150459  0.117740  0.335460  1
  Li  Li2  1  0.349754  0.882607  0.164133  1
  Li  Li3  1  0.649986  0.617472  0.335615  1
  Li  Li4  1  0.348889  0.381641  0.664628  1
  Li  Li5  1  0.649260  0.117477  0.835773  1
  Li  Li6  1  0.849698  0.882600  0.664261  1
  Li  Li7  1  0.151195  0.616805  0.836277  1
  Mn  Mn8  1  0.332320  0.197575  0.115040  1
  Mn  Mn9  1  0.832954  0.697370  0.117402  1
  Mn  Mn10  1  0.666733  0.302437  0.382300  1
  Mn  Mn11  1  0.834396  0.197003  0.616799  1
  Mn  Mn12  1  0.167034  0.802621  0.382695  1
  Mn  Mn13  1  0.333129  0.697724  0.617325  1
  Mn  Mn14  1  0.667054  0.803369  0.882848  1
  Fe  Fe15  1  0.164146  0.303988  0.881857  1
  B  B16  1  0.830629  0.035160  0.131286  1
  B  B17  1  0.330224  0.534808  0.130224  1
  B  B18  1  0.169276  0.465001  0.368760  1
  B  B19  1  0.330542  0.035686  0.631895  1
  B  B20  1  0.669268  0.964965  0.368687  1
  B  B21  1  0.830887  0.535094  0.631706  1
  B  B22  1  0.671395  0.463437  0.870479  1
  B  B23  1  0.168708  0.966224  0.868178  1
  O  O24  1  0.089681  0.025499  0.148600  1
  O  O25  1  0.713308  0.178704  0.162403  1
  O  O26  1  0.180473  0.398838  0.084724  1
  O  O27  1  0.589163  0.525011  0.148468  1
  O  O28  1  0.819619  0.101131  0.413226  1
  O  O29  1  0.285562  0.321300  0.337591  1
  O  O30  1  0.214165  0.678918  0.162290  1
  O  O31  1  0.680725  0.898722  0.086689  1
  O  O32  1  0.910365  0.474923  0.351102  1
  O  O33  1  0.589689  0.025844  0.649083  1
  O  O34  1  0.319416  0.601322  0.413450  1
  O  O35  1  0.785701  0.821115  0.337421  1
  O  O36  1  0.214072  0.179336  0.663033  1
  O  O37  1  0.680828  0.398801  0.587414  1
  O  O38  1  0.410392  0.974944  0.351251  1
  O  O39  1  0.090049  0.525435  0.649330  1
  O  O40  1  0.317070  0.103151  0.911302  1
  O  O41  1  0.792306  0.320667  0.841018  1
  O  O42  1  0.714333  0.678898  0.662582  1
  O  O43  1  0.180596  0.899305  0.586974  1
  O  O44  1  0.411443  0.468852  0.853119  1
  O  O45  1  0.817659  0.601130  0.912509  1
  O  O46  1  0.285753  0.822249  0.838240  1
  O  O47  1  0.909443  0.974966  0.851038  1
