# generated using pymatgen
data_Cu3As2H2PbO10
_symmetry_space_group_name_H-M   'P 1'
_cell_length_a   5.95821029
_cell_length_b   5.95821029
_cell_length_c   14.19515905
_cell_angle_alpha   76.09777596
_cell_angle_beta   103.90222404
_cell_angle_gamma   119.35213790
_symmetry_Int_Tables_number   1
_chemical_formula_structural   Cu3As2H2PbO10
_chemical_formula_sum   'Cu6 As4 H4 Pb2 O20'
_cell_volume   421.88040276
_cell_formula_units_Z   2
loop_
 _symmetry_equiv_pos_site_id
 _symmetry_equiv_pos_as_xyz
  1  'x, y, z'
loop_
 _atom_site_type_symbol
 _atom_site_label
 _atom_site_symmetry_multiplicity
 _atom_site_fract_x
 _atom_site_fract_y
 _atom_site_fract_z
 _atom_site_occupancy
  Cu  Cu0  1  1.000000  0.500000  0.000000  1
  Cu  Cu1  1  0.500000  0.500000  0.500000  1
  Cu  Cu2  1  0.000000  0.000000  0.000000  1
  Cu  Cu3  1  0.500000  0.500000  0.000000  1
  Cu  Cu4  1  0.500000  1.000000  0.500000  1
  Cu  Cu5  1  0.000000  0.000000  0.500000  1
  As  As6  1  0.490515  0.091294  0.858520  1
  As  As7  1  0.908706  0.509485  0.358520  1
  As  As8  1  0.091294  0.490515  0.641480  1
  As  As9  1  0.509485  0.908706  0.141480  1
  H  H10  1  0.409534  0.147143  0.640638  1
  H  H11  1  0.852857  0.590466  0.140638  1
  H  H12  1  0.147143  0.409534  0.859362  1
  H  H13  1  0.590466  0.852857  0.359362  1
  Pb  Pb14  1  0.739151  0.739151  0.750000  1
  Pb  Pb15  1  0.260849  0.260849  0.250000  1
  O  O16  1  0.360300  0.148140  0.565170  1
  O  O17  1  0.541489  0.233201  0.740214  1
  O  O18  1  0.821128  0.092111  0.123103  1
  O  O19  1  0.647815  0.375988  0.917174  1
  O  O20  1  0.088672  0.332246  0.403654  1
  O  O21  1  0.375988  0.647815  0.582826  1
  O  O22  1  0.907889  0.178872  0.623103  1
  O  O23  1  0.332246  0.088672  0.096346  1
  O  O24  1  0.851860  0.639700  0.065170  1
  O  O25  1  0.766799  0.458511  0.240214  1
  O  O26  1  0.233201  0.541489  0.759786  1
  O  O27  1  0.148140  0.360300  0.934830  1
  O  O28  1  0.667754  0.911328  0.903654  1
  O  O29  1  0.092111  0.821128  0.376897  1
  O  O30  1  0.624012  0.352185  0.417174  1
  O  O31  1  0.911328  0.667754  0.596346  1
  O  O32  1  0.352185  0.624012  0.082826  1
  O  O33  1  0.178872  0.907889  0.876897  1
  O  O34  1  0.458511  0.766799  0.259786  1
  O  O35  1  0.639700  0.851860  0.434830  1
