# generated using pymatgen
data_Li4Ti3Fe2Co3O16
_symmetry_space_group_name_H-M   'P 1'
_cell_length_a   5.76467742
_cell_length_b   5.76467742
_cell_length_c   9.53070013
_cell_angle_alpha   89.81595794
_cell_angle_beta   90.18404206
_cell_angle_gamma   119.24233745
_symmetry_Int_Tables_number   1
_chemical_formula_structural   Li4Ti3Fe2Co3O16
_chemical_formula_sum   'Li4 Ti3 Fe2 Co3 O16'
_cell_volume   276.35529148
_cell_formula_units_Z   1
loop_
 _symmetry_equiv_pos_site_id
 _symmetry_equiv_pos_as_xyz
  1  'x, y, z'
loop_
 _atom_site_type_symbol
 _atom_site_label
 _atom_site_symmetry_multiplicity
 _atom_site_fract_x
 _atom_site_fract_y
 _atom_site_fract_z
 _atom_site_occupancy
  Li  Li0  1  0.334583  0.665417  0.889688  1
  Li  Li1  1  0.014902  0.985098  0.994861  1
  Li  Li2  1  0.009914  0.990086  0.498080  1
  Li  Li3  1  0.668349  0.331651  0.396452  1
  Ti  Ti4  1  0.659002  0.825122  0.215685  1
  Ti  Ti5  1  0.174878  0.340998  0.215685  1
  Ti  Ti6  1  0.831668  0.168332  0.717713  1
  Fe  Fe7  1  0.338001  0.661999  0.493835  1
  Fe  Fe8  1  0.666896  0.333104  0.990177  1
  Co  Co9  1  0.176401  0.823599  0.213224  1
  Co  Co10  1  0.829898  0.651312  0.713155  1
  Co  Co11  1  0.348688  0.170102  0.713155  1
  O  O12  1  0.676321  0.830897  0.601242  1
  O  O13  1  0.486366  0.513634  0.335461  1
  O  O14  1  0.340459  0.659541  0.100509  1
  O  O15  1  0.008729  0.991271  0.310644  1
  O  O16  1  0.008760  0.991240  0.808911  1
  O  O17  1  0.169103  0.323679  0.601242  1
  O  O18  1  0.479901  0.956721  0.338291  1
  O  O19  1  0.043279  0.520099  0.338291  1
  O  O20  1  0.841031  0.158969  0.099473  1
  O  O21  1  0.165879  0.834121  0.610140  1
  O  O22  1  0.962418  0.473628  0.838094  1
  O  O23  1  0.526372  0.037582  0.838094  1
  O  O24  1  0.667914  0.332086  0.604541  1
  O  O25  1  0.838050  0.665907  0.103563  1
  O  O26  1  0.522488  0.477512  0.825912  1
  O  O27  1  0.334093  0.161950  0.103563  1
