# generated using pymatgen
data_CsRbO
_symmetry_space_group_name_H-M   'P 1'
_cell_length_a   5.04008398
_cell_length_b   7.15408265
_cell_length_c   9.95291335
_cell_angle_alpha   90.00000000
_cell_angle_beta   90.00000000
_cell_angle_gamma   90.00000000
_symmetry_Int_Tables_number   1
_chemical_formula_structural   CsRbO
_chemical_formula_sum   'Cs4 Rb4 O4'
_cell_volume   358.87396187
_cell_formula_units_Z   4
loop_
 _symmetry_equiv_pos_site_id
 _symmetry_equiv_pos_as_xyz
  1  'x, y, z'
loop_
 _atom_site_type_symbol
 _atom_site_label
 _atom_site_symmetry_multiplicity
 _atom_site_fract_x
 _atom_site_fract_y
 _atom_site_fract_z
 _atom_site_occupancy
  Cs  Cs0  1  0.750000  0.890460  0.616509  1
  Cs  Cs1  1  0.250000  0.609540  0.116509  1
  Cs  Cs2  1  0.750000  0.390460  0.883491  1
  Cs  Cs3  1  0.250000  0.109540  0.383491  1
  Rb  Rb4  1  0.250000  0.986753  0.874531  1
  Rb  Rb5  1  0.750000  0.513247  0.374531  1
  Rb  Rb6  1  0.250000  0.486753  0.625469  1
  Rb  Rb7  1  0.750000  0.013247  0.125469  1
  O  O8  1  0.250000  0.715364  0.406456  1
  O  O9  1  0.750000  0.784636  0.906456  1
  O  O10  1  0.250000  0.215364  0.093544  1
  O  O11  1  0.750000  0.284636  0.593544  1
