# generated using pymatgen
data_Co6Te5O16
_symmetry_space_group_name_H-M   'P 1'
_cell_length_a   10.42252274
_cell_length_b   11.24260643
_cell_length_c   13.03074350
_cell_angle_alpha   90.00000000
_cell_angle_beta   90.00000000
_cell_angle_gamma   90.00000000
_symmetry_Int_Tables_number   1
_chemical_formula_structural   Co6Te5O16
_chemical_formula_sum   'Co24 Te20 O64'
_cell_volume   1526.89458549
_cell_formula_units_Z   4
loop_
 _symmetry_equiv_pos_site_id
 _symmetry_equiv_pos_as_xyz
  1  'x, y, z'
loop_
 _atom_site_type_symbol
 _atom_site_label
 _atom_site_symmetry_multiplicity
 _atom_site_fract_x
 _atom_site_fract_y
 _atom_site_fract_z
 _atom_site_occupancy
  Co  Co0  1  0.933287  0.247242  0.006267  1
  Co  Co1  1  0.433287  0.752758  0.993733  1
  Co  Co2  1  0.409724  0.249527  0.770123  1
  Co  Co3  1  0.572817  0.985249  0.892963  1
  Co  Co4  1  0.090276  0.249527  0.770123  1
  Co  Co5  1  0.590276  0.250473  0.270123  1
  Co  Co6  1  0.072817  0.014751  0.107037  1
  Co  Co7  1  0.409724  0.749527  0.729877  1
  Co  Co8  1  0.433287  0.252758  0.506267  1
  Co  Co9  1  0.090276  0.749527  0.729877  1
  Co  Co10  1  0.933287  0.747242  0.493733  1
  Co  Co11  1  0.072817  0.514751  0.392963  1
  Co  Co12  1  0.566713  0.747242  0.493733  1
  Co  Co13  1  0.066713  0.252758  0.506267  1
  Co  Co14  1  0.927183  0.485249  0.607037  1
  Co  Co15  1  0.427183  0.014751  0.107037  1
  Co  Co16  1  0.066713  0.752758  0.993733  1
  Co  Co17  1  0.909724  0.750473  0.229877  1
  Co  Co18  1  0.572817  0.485249  0.607037  1
  Co  Co19  1  0.566713  0.247242  0.006267  1
  Co  Co20  1  0.590276  0.750473  0.229877  1
  Co  Co21  1  0.909724  0.250473  0.270123  1
  Co  Co22  1  0.427183  0.514751  0.392963  1
  Co  Co23  1  0.927183  0.985249  0.892963  1
  Te  Te24  1  0.750000  0.221740  0.506494  1
  Te  Te25  1  0.750000  0.534439  0.361549  1
  Te  Te26  1  0.037890  0.990032  0.365274  1
  Te  Te27  1  0.250000  0.778260  0.493506  1
  Te  Te28  1  0.537890  0.009968  0.634726  1
  Te  Te29  1  0.462110  0.990032  0.365274  1
  Te  Te30  1  0.037890  0.490032  0.134726  1
  Te  Te31  1  0.537890  0.509968  0.865274  1
  Te  Te32  1  0.250000  0.800339  0.183928  1
  Te  Te33  1  0.750000  0.034439  0.138451  1
  Te  Te34  1  0.250000  0.278260  0.006494  1
  Te  Te35  1  0.250000  0.300339  0.316072  1
  Te  Te36  1  0.750000  0.699661  0.683928  1
  Te  Te37  1  0.962110  0.509968  0.865274  1
  Te  Te38  1  0.250000  0.465561  0.638451  1
  Te  Te39  1  0.250000  0.965561  0.861549  1
  Te  Te40  1  0.962110  0.009968  0.634726  1
  Te  Te41  1  0.750000  0.721740  0.993506  1
  Te  Te42  1  0.750000  0.199661  0.816072  1
  Te  Te43  1  0.462110  0.490032  0.134726  1
  O  O44  1  0.056065  0.324450  0.349915  1
  O  O45  1  0.888549  0.061055  0.041857  1
  O  O46  1  0.610578  0.814760  0.943392  1
  O  O47  1  0.443935  0.324450  0.349915  1
  O  O48  1  0.481765  0.925476  0.755893  1
  O  O49  1  0.111451  0.438945  0.541857  1
  O  O50  1  0.389422  0.685240  0.443392  1
  O  O51  1  0.045973  0.898349  0.545905  1
  O  O52  1  0.750000  0.779965  0.552891  1
  O  O53  1  0.943935  0.675550  0.650085  1
  O  O54  1  0.888549  0.561055  0.458143  1
  O  O55  1  0.419372  0.638224  0.858558  1
  O  O56  1  0.443935  0.824450  0.150085  1
  O  O57  1  0.518235  0.074524  0.244107  1
  O  O58  1  0.889422  0.814760  0.943392  1
  O  O59  1  0.388549  0.438945  0.541857  1
  O  O60  1  0.250000  0.971300  0.166259  1
  O  O61  1  0.750000  0.280652  0.368092  1
  O  O62  1  0.556065  0.175550  0.849915  1
  O  O63  1  0.750000  0.692015  0.313781  1
  O  O64  1  0.454027  0.398349  0.954095  1
  O  O65  1  0.981765  0.574524  0.255893  1
  O  O66  1  0.389422  0.185240  0.056608  1
  O  O67  1  0.611451  0.061055  0.041857  1
  O  O68  1  0.580628  0.861776  0.358558  1
  O  O69  1  0.045973  0.398349  0.954095  1
  O  O70  1  0.250000  0.307985  0.686219  1
  O  O71  1  0.250000  0.807985  0.813781  1
  O  O72  1  0.250000  0.220035  0.447109  1
  O  O73  1  0.250000  0.219348  0.868092  1
  O  O74  1  0.111451  0.938945  0.958143  1
  O  O75  1  0.388549  0.938945  0.958143  1
  O  O76  1  0.750000  0.780652  0.131908  1
  O  O77  1  0.954027  0.101651  0.454095  1
  O  O78  1  0.545973  0.601651  0.045905  1
  O  O79  1  0.919372  0.361776  0.141442  1
  O  O80  1  0.018235  0.925476  0.755893  1
  O  O81  1  0.419372  0.138224  0.641442  1
  O  O82  1  0.611451  0.561055  0.458143  1
  O  O83  1  0.750000  0.192015  0.186219  1
  O  O84  1  0.056065  0.824450  0.150085  1
  O  O85  1  0.556065  0.675550  0.650085  1
  O  O86  1  0.080628  0.138224  0.641442  1
  O  O87  1  0.981765  0.074524  0.244107  1
  O  O88  1  0.454027  0.898349  0.545905  1
  O  O89  1  0.610578  0.314760  0.556608  1
  O  O90  1  0.750000  0.028700  0.833741  1
  O  O91  1  0.250000  0.471300  0.333741  1
  O  O92  1  0.250000  0.720035  0.052891  1
  O  O93  1  0.889422  0.314760  0.556608  1
  O  O94  1  0.750000  0.528700  0.666259  1
  O  O95  1  0.750000  0.279965  0.947109  1
  O  O96  1  0.110578  0.185240  0.056608  1
  O  O97  1  0.080628  0.638224  0.858558  1
  O  O98  1  0.018235  0.425476  0.744107  1
  O  O99  1  0.545973  0.101651  0.454095  1
  O  O100  1  0.110578  0.685240  0.443392  1
  O  O101  1  0.481765  0.425476  0.744107  1
  O  O102  1  0.250000  0.719348  0.631908  1
  O  O103  1  0.919372  0.861776  0.358558  1
  O  O104  1  0.943935  0.175550  0.849915  1
  O  O105  1  0.518235  0.574524  0.255893  1
  O  O106  1  0.580628  0.361776  0.141442  1
  O  O107  1  0.954027  0.601651  0.045905  1
