# generated using pymatgen
data_LiFeCO3F2
_symmetry_space_group_name_H-M   'P 1'
_cell_length_a   5.93161178
_cell_length_b   6.46656497
_cell_length_c   8.56993479
_cell_angle_alpha   90.00000000
_cell_angle_beta   90.00000000
_cell_angle_gamma   90.00000000
_symmetry_Int_Tables_number   1
_chemical_formula_structural   LiFeCO3F2
_chemical_formula_sum   'Li4 Fe4 C4 O12 F8'
_cell_volume   328.71829953
_cell_formula_units_Z   4
loop_
 _symmetry_equiv_pos_site_id
 _symmetry_equiv_pos_as_xyz
  1  'x, y, z'
loop_
 _atom_site_type_symbol
 _atom_site_label
 _atom_site_symmetry_multiplicity
 _atom_site_fract_x
 _atom_site_fract_y
 _atom_site_fract_z
 _atom_site_occupancy
  Li  Li0  1  0.699237  0.250000  0.271862  1
  Li  Li1  1  0.199237  0.250000  0.228138  1
  Li  Li2  1  0.300763  0.750000  0.728138  1
  Li  Li3  1  0.800763  0.750000  0.771862  1
  Fe  Fe4  1  0.003663  0.250000  0.576683  1
  Fe  Fe5  1  0.503663  0.250000  0.923317  1
  Fe  Fe6  1  0.496337  0.750000  0.076683  1
  Fe  Fe7  1  0.996337  0.750000  0.423317  1
  C  C8  1  0.459239  0.250000  0.560005  1
  C  C9  1  0.959239  0.250000  0.939995  1
  C  C10  1  0.040761  0.750000  0.060005  1
  C  C11  1  0.540761  0.750000  0.439995  1
  O  O12  1  0.803817  0.250000  0.047222  1
  O  O13  1  0.303817  0.250000  0.452778  1
  O  O14  1  0.665171  0.250000  0.518479  1
  O  O15  1  0.165171  0.250000  0.981521  1
  O  O16  1  0.880948  0.250000  0.799441  1
  O  O17  1  0.380948  0.250000  0.700559  1
  O  O18  1  0.834829  0.750000  0.018479  1
  O  O19  1  0.119052  0.750000  0.200559  1
  O  O20  1  0.619052  0.750000  0.299441  1
  O  O21  1  0.334829  0.750000  0.481521  1
  O  O22  1  0.696183  0.750000  0.547222  1
  O  O23  1  0.196183  0.750000  0.952778  1
  F  F24  1  0.456242  0.050476  0.140805  1
  F  F25  1  0.956242  0.050476  0.359195  1
  F  F26  1  0.456242  0.449524  0.140805  1
  F  F27  1  0.956242  0.449524  0.359195  1
  F  F28  1  0.543758  0.550476  0.859195  1
  F  F29  1  0.043758  0.550476  0.640805  1
  F  F30  1  0.043758  0.949524  0.640805  1
  F  F31  1  0.543758  0.949524  0.859195  1
