# generated using pymatgen
data_Al2H12(SeO5)3
_symmetry_space_group_name_H-M   'P 1'
_cell_length_a   8.99765077
_cell_length_b   8.99765077
_cell_length_c   11.09387921
_cell_angle_alpha   90.00000000
_cell_angle_beta   90.00000000
_cell_angle_gamma   120.00000000
_symmetry_Int_Tables_number   1
_chemical_formula_structural   Al2H12(SeO5)3
_chemical_formula_sum   'Al4 H24 Se6 O30'
_cell_volume   777.80786398
_cell_formula_units_Z   2
loop_
 _symmetry_equiv_pos_site_id
 _symmetry_equiv_pos_as_xyz
  1  'x, y, z'
loop_
 _atom_site_type_symbol
 _atom_site_label
 _atom_site_symmetry_multiplicity
 _atom_site_fract_x
 _atom_site_fract_y
 _atom_site_fract_z
 _atom_site_occupancy
  Al  Al0  1  0.666667  0.333333  0.624468  1
  Al  Al1  1  0.333333  0.666667  0.124468  1
  Al  Al2  1  0.666667  0.333333  0.041823  1
  Al  Al3  1  0.333333  0.666667  0.541823  1
  H  H4  1  0.584071  0.410671  0.431454  1
  H  H5  1  0.589329  0.173400  0.431454  1
  H  H6  1  0.826600  0.415929  0.431454  1
  H  H7  1  0.410671  0.584071  0.931454  1
  H  H8  1  0.173400  0.589329  0.931454  1
  H  H9  1  0.415929  0.826600  0.931454  1
  H  H10  1  0.544492  0.962596  0.011726  1
  H  H11  1  0.037404  0.581897  0.011726  1
  H  H12  1  0.418103  0.455508  0.011726  1
  H  H13  1  0.962596  0.544492  0.511726  1
  H  H14  1  0.581897  0.037404  0.511726  1
  H  H15  1  0.455508  0.418103  0.511726  1
  H  H16  1  0.578338  0.800237  0.710370  1
  H  H17  1  0.199763  0.778101  0.710370  1
  H  H18  1  0.221899  0.421662  0.710370  1
  H  H19  1  0.800237  0.578338  0.210370  1
  H  H20  1  0.778101  0.199763  0.210370  1
  H  H21  1  0.421662  0.221899  0.210370  1
  H  H22  1  0.423557  0.487628  0.679055  1
  H  H23  1  0.512372  0.935929  0.679055  1
  H  H24  1  0.064071  0.576443  0.679055  1
  H  H25  1  0.487628  0.423557  0.179055  1
  H  H26  1  0.935929  0.512372  0.179055  1
  H  H27  1  0.576443  0.064071  0.179055  1
  Se  Se28  1  0.736357  0.618602  0.830669  1
  Se  Se29  1  0.381398  0.117754  0.830669  1
  Se  Se30  1  0.882246  0.263643  0.830669  1
  Se  Se31  1  0.618602  0.736357  0.330669  1
  Se  Se32  1  0.117754  0.381398  0.330669  1
  Se  Se33  1  0.263643  0.882246  0.330669  1
  O  O34  1  0.618318  0.482915  0.709171  1
  O  O35  1  0.517085  0.135403  0.709171  1
  O  O36  1  0.864597  0.381682  0.709171  1
  O  O37  1  0.482915  0.618318  0.209171  1
  O  O38  1  0.135403  0.517085  0.209171  1
  O  O39  1  0.381682  0.864597  0.209171  1
  O  O40  1  0.511089  0.347576  0.500225  1
  O  O41  1  0.652424  0.163513  0.500225  1
  O  O42  1  0.836487  0.488911  0.500225  1
  O  O43  1  0.347576  0.511089  0.000225  1
  O  O44  1  0.163513  0.652424  0.000225  1
  O  O45  1  0.488911  0.836487  0.000225  1
  O  O46  1  0.658365  0.753159  0.825055  1
  O  O47  1  0.246841  0.905206  0.825055  1
  O  O48  1  0.094794  0.341635  0.825055  1
  O  O49  1  0.753159  0.658365  0.325055  1
  O  O50  1  0.905206  0.246841  0.325055  1
  O  O51  1  0.341635  0.094794  0.325055  1
  O  O52  1  0.621139  0.483772  0.952096  1
  O  O53  1  0.516228  0.137367  0.952096  1
  O  O54  1  0.862633  0.378861  0.952096  1
  O  O55  1  0.483772  0.621139  0.452096  1
  O  O56  1  0.137367  0.516228  0.452096  1
  O  O57  1  0.378861  0.862633  0.452096  1
  O  O58  1  0.481647  0.316610  0.147743  1
  O  O59  1  0.683390  0.165038  0.147743  1
  O  O60  1  0.834962  0.518353  0.147743  1
  O  O61  1  0.316610  0.481647  0.647743  1
  O  O62  1  0.165038  0.683390  0.647743  1
  O  O63  1  0.518353  0.834962  0.647743  1
