# generated using pymatgen
data_LiMn2(PO4)2
_symmetry_space_group_name_H-M   'P 1'
_cell_length_a   8.66705432
_cell_length_b   5.19433861
_cell_length_c   17.03697874
_cell_angle_alpha   90.00000000
_cell_angle_beta   99.60223094
_cell_angle_gamma   90.00000000
_symmetry_Int_Tables_number   1
_chemical_formula_structural   LiMn2(PO4)2
_chemical_formula_sum   'Li4 Mn8 P8 O32'
_cell_volume   756.25222577
_cell_formula_units_Z   4
loop_
 _symmetry_equiv_pos_site_id
 _symmetry_equiv_pos_as_xyz
  1  'x, y, z'
loop_
 _atom_site_type_symbol
 _atom_site_label
 _atom_site_symmetry_multiplicity
 _atom_site_fract_x
 _atom_site_fract_y
 _atom_site_fract_z
 _atom_site_occupancy
  Li  Li0  1  0.001851  0.326660  0.748697  1
  Li  Li1  1  0.001851  0.673340  0.248697  1
  Li  Li2  1  0.610306  0.834868  0.509023  1
  Li  Li3  1  0.610306  0.165132  0.009023  1
  Mn  Mn4  1  0.373094  0.323030  0.868619  1
  Mn  Mn5  1  0.373094  0.676970  0.368619  1
  Mn  Mn6  1  0.466538  0.196074  0.638790  1
  Mn  Mn7  1  0.466538  0.803926  0.138790  1
  Mn  Mn8  1  0.881209  0.683066  0.885017  1
  Mn  Mn9  1  0.881209  0.316934  0.385017  1
  Mn  Mn10  1  0.976061  0.832284  0.625677  1
  Mn  Mn11  1  0.976061  0.167716  0.125677  1
  P  P12  1  0.175245  0.821021  0.810531  1
  P  P13  1  0.175245  0.178979  0.310531  1
  P  P14  1  0.297631  0.687297  0.562753  1
  P  P15  1  0.297631  0.312703  0.062753  1
  P  P16  1  0.693148  0.178735  0.819859  1
  P  P17  1  0.693148  0.821265  0.319859  1
  P  P18  1  0.786907  0.325508  0.570756  1
  P  P19  1  0.786907  0.674492  0.070756  1
  O  O20  1  0.065941  0.699244  0.738707  1
  O  O21  1  0.094900  0.767302  0.885696  1
  O  O22  1  0.191717  0.115062  0.798221  1
  O  O23  1  0.125456  0.770527  0.548360  1
  O  O24  1  0.065941  0.300756  0.238707  1
  O  O25  1  0.094900  0.232698  0.385696  1
  O  O26  1  0.378939  0.273317  0.989792  1
  O  O27  1  0.296472  0.392192  0.585101  1
  O  O28  1  0.336052  0.691329  0.828339  1
  O  O29  1  0.191717  0.884938  0.298221  1
  O  O30  1  0.125456  0.229473  0.048360  1
  O  O31  1  0.393543  0.833371  0.634484  1
  O  O32  1  0.378939  0.726683  0.489792  1
  O  O33  1  0.296472  0.607808  0.085101  1
  O  O34  1  0.336052  0.308671  0.328339  1
  O  O35  1  0.570003  0.250625  0.746082  1
  O  O36  1  0.613660  0.227977  0.893304  1
  O  O37  1  0.393543  0.166629  0.134484  1
  O  O38  1  0.738536  0.892888  0.810568  1
  O  O39  1  0.622611  0.194535  0.565803  1
  O  O40  1  0.570003  0.749375  0.246082  1
  O  O41  1  0.613660  0.772023  0.393304  1
  O  O42  1  0.839980  0.751223  0.992071  1
  O  O43  1  0.773460  0.620266  0.580341  1
  O  O44  1  0.844221  0.342668  0.824442  1
  O  O45  1  0.738536  0.107112  0.310568  1
  O  O46  1  0.622611  0.805465  0.065803  1
  O  O47  1  0.903421  0.209983  0.641296  1
  O  O48  1  0.839980  0.248777  0.492071  1
  O  O49  1  0.773460  0.379734  0.080341  1
  O  O50  1  0.844221  0.657332  0.324442  1
  O  O51  1  0.903421  0.790017  0.141296  1
