# generated using pymatgen
data_Li3MnBPO7
_symmetry_space_group_name_H-M   'P 1'
_cell_length_a   4.99578552
_cell_length_b   6.68594635
_cell_length_c   8.31563672
_cell_angle_alpha   90.00000000
_cell_angle_beta   95.41218916
_cell_angle_gamma   90.00000000
_symmetry_Int_Tables_number   1
_chemical_formula_structural   Li3MnBPO7
_chemical_formula_sum   'Li6 Mn2 B2 P2 O14'
_cell_volume   276.51693429
_cell_formula_units_Z   2
loop_
 _symmetry_equiv_pos_site_id
 _symmetry_equiv_pos_as_xyz
  1  'x, y, z'
loop_
 _atom_site_type_symbol
 _atom_site_label
 _atom_site_symmetry_multiplicity
 _atom_site_fract_x
 _atom_site_fract_y
 _atom_site_fract_z
 _atom_site_occupancy
  Li  Li0  1  0.241547  0.750000  0.098243  1
  Li  Li1  1  0.750833  0.996810  0.239857  1
  Li  Li2  1  0.750833  0.503190  0.239857  1
  Li  Li3  1  0.249167  0.496810  0.760143  1
  Li  Li4  1  0.249167  0.003190  0.760143  1
  Li  Li5  1  0.758453  0.250000  0.901757  1
  Mn  Mn6  1  0.211399  0.250000  0.327100  1
  Mn  Mn7  1  0.788601  0.750000  0.672900  1
  B  B8  1  0.285679  0.250000  0.043569  1
  B  B9  1  0.714321  0.750000  0.956431  1
  P  P10  1  0.260042  0.750000  0.414159  1
  P  P11  1  0.739958  0.250000  0.585841  1
  O  O12  1  0.643517  0.750000  0.108796  1
  O  O13  1  0.026143  0.250000  0.092507  1
  O  O14  1  0.482495  0.250000  0.177922  1
  O  O15  1  0.171924  0.931037  0.306525  1
  O  O16  1  0.171924  0.568963  0.306525  1
  O  O17  1  0.570298  0.750000  0.457007  1
  O  O18  1  0.866666  0.250000  0.422126  1
  O  O19  1  0.133334  0.750000  0.577874  1
  O  O20  1  0.429702  0.250000  0.542993  1
  O  O21  1  0.828076  0.431037  0.693475  1
  O  O22  1  0.828076  0.068963  0.693475  1
  O  O23  1  0.517505  0.750000  0.822078  1
  O  O24  1  0.973857  0.750000  0.907493  1
  O  O25  1  0.356483  0.250000  0.891204  1
