# generated using pymatgen
data_Li4MnV3(P2O7)4
_symmetry_space_group_name_H-M   'P 1'
_cell_length_a   4.86733313
_cell_length_b   7.05407830
_cell_length_c   16.58686536
_cell_angle_alpha   89.38960764
_cell_angle_beta   89.58795166
_cell_angle_gamma   71.20394243
_symmetry_Int_Tables_number   1
_chemical_formula_structural   Li4MnV3(P2O7)4
_chemical_formula_sum   'Li4 Mn1 V3 P8 O28'
_cell_volume   539.09694312
_cell_formula_units_Z   1
loop_
 _symmetry_equiv_pos_site_id
 _symmetry_equiv_pos_as_xyz
  1  'x, y, z'
loop_
 _atom_site_type_symbol
 _atom_site_label
 _atom_site_symmetry_multiplicity
 _atom_site_fract_x
 _atom_site_fract_y
 _atom_site_fract_z
 _atom_site_occupancy
  Li  Li0  1  0.174104  0.325908  0.931215  1
  Li  Li1  1  0.176428  0.325389  0.430800  1
  Li  Li2  1  0.823479  0.675481  0.180113  1
  Li  Li3  1  0.822471  0.674422  0.680646  1
  Mn  Mn4  1  0.784226  0.731404  0.999781  1
  V  V5  1  0.216176  0.273686  0.249820  1
  V  V6  1  0.213814  0.271009  0.749725  1
  V  V7  1  0.783863  0.728413  0.499843  1
  P  P8  1  0.402202  0.478021  0.088660  1
  P  P9  1  0.399864  0.477289  0.589909  1
  P  P10  1  0.213316  0.914341  0.391876  1
  P  P11  1  0.213364  0.911580  0.892339  1
  P  P12  1  0.790042  0.086728  0.143496  1
  P  P13  1  0.787562  0.085604  0.642282  1
  P  P14  1  0.601241  0.517314  0.840256  1
  P  P15  1  0.600364  0.522746  0.340265  1
  O  O16  1  0.049611  0.153575  0.163095  1
  O  O17  1  0.049832  0.148661  0.662424  1
  O  O18  1  0.132757  0.115637  0.348207  1
  O  O19  1  0.131130  0.111839  0.847553  1
  O  O20  1  0.189455  0.517810  0.017732  1
  O  O21  1  0.186760  0.517944  0.519065  1
  O  O22  1  0.246746  0.493143  0.671537  1
  O  O23  1  0.250196  0.494568  0.170816  1
  O  O24  1  0.396625  0.395845  0.338810  1
  O  O25  1  0.392248  0.394154  0.837352  1
  O  O26  1  0.600532  0.086779  0.218175  1
  O  O27  1  0.600252  0.083466  0.717036  1
  O  O28  1  0.598531  0.247218  0.076630  1
  O  O29  1  0.596349  0.247164  0.576349  1
  O  O30  1  0.405497  0.754019  0.326527  1
  O  O31  1  0.405168  0.750689  0.827789  1
  O  O32  1  0.397458  0.915566  0.466632  1
  O  O33  1  0.395759  0.916047  0.967121  1
  O  O34  1  0.603023  0.604750  0.588600  1
  O  O35  1  0.603888  0.608314  0.087626  1
  O  O36  1  0.752167  0.505843  0.421800  1
  O  O37  1  0.754266  0.494360  0.920931  1
  O  O38  1  0.811734  0.481930  0.768127  1
  O  O39  1  0.814181  0.483773  0.269121  1
  O  O40  1  0.874576  0.885435  0.102043  1
  O  O41  1  0.867409  0.885936  0.598669  1
  O  O42  1  0.949692  0.851489  0.412029  1
  O  O43  1  0.941644  0.854709  0.912758  1
