# generated using pymatgen
data_LiCoSnO4
_symmetry_space_group_name_H-M   'P 1'
_cell_length_a   6.08039826
_cell_length_b   6.08039826
_cell_length_c   8.58302862
_cell_angle_alpha   90.00000000
_cell_angle_beta   90.00000000
_cell_angle_gamma   90.00000000
_symmetry_Int_Tables_number   1
_chemical_formula_structural   LiCoSnO4
_chemical_formula_sum   'Li4 Co4 Sn4 O16'
_cell_volume   317.32523631
_cell_formula_units_Z   4
loop_
 _symmetry_equiv_pos_site_id
 _symmetry_equiv_pos_as_xyz
  1  'x, y, z'
loop_
 _atom_site_type_symbol
 _atom_site_label
 _atom_site_symmetry_multiplicity
 _atom_site_fract_x
 _atom_site_fract_y
 _atom_site_fract_z
 _atom_site_occupancy
  Li  Li0  1  0.000000  0.215495  0.000000  1
  Li  Li1  1  0.000000  0.784505  0.500000  1
  Li  Li2  1  0.215495  0.000000  0.250000  1
  Li  Li3  1  0.784505  0.000000  0.750000  1
  Co  Co4  1  0.245993  0.245993  0.625000  1
  Co  Co5  1  0.245993  0.754007  0.875000  1
  Co  Co6  1  0.754007  0.245993  0.375000  1
  Co  Co7  1  0.754007  0.754007  0.125000  1
  Sn  Sn8  1  0.230715  0.500000  0.250000  1
  Sn  Sn9  1  0.500000  0.230715  0.000000  1
  Sn  Sn10  1  0.500000  0.769285  0.500000  1
  Sn  Sn11  1  0.769285  0.500000  0.750000  1
  O  O12  1  0.996882  0.255791  0.251591  1
  O  O13  1  0.996882  0.744209  0.248409  1
  O  O14  1  0.255791  0.996882  0.998409  1
  O  O15  1  0.255791  0.003118  0.501591  1
  O  O16  1  0.257891  0.482520  0.006884  1
  O  O17  1  0.257891  0.517480  0.493116  1
  O  O18  1  0.482520  0.257891  0.243116  1
  O  O19  1  0.482520  0.742109  0.256884  1
  O  O20  1  0.517480  0.257891  0.756884  1
  O  O21  1  0.517480  0.742109  0.743116  1
  O  O22  1  0.742109  0.517480  0.506884  1
  O  O23  1  0.742109  0.482520  0.993116  1
  O  O24  1  0.744209  0.996882  0.001591  1
  O  O25  1  0.744209  0.003118  0.498409  1
  O  O26  1  0.003118  0.255791  0.748409  1
  O  O27  1  0.003118  0.744209  0.751591  1
