# generated using pymatgen
data_Sn4P2O9
_symmetry_space_group_name_H-M   'P 1'
_cell_length_a   9.48305979
_cell_length_b   7.11077631
_cell_length_c   14.59487097
_cell_angle_alpha   90.00000000
_cell_angle_beta   105.42465025
_cell_angle_gamma   90.00000000
_symmetry_Int_Tables_number   1
_chemical_formula_structural   Sn4P2O9
_chemical_formula_sum   'Sn16 P8 O36'
_cell_volume   948.71172712
_cell_formula_units_Z   4
loop_
 _symmetry_equiv_pos_site_id
 _symmetry_equiv_pos_as_xyz
  1  'x, y, z'
loop_
 _atom_site_type_symbol
 _atom_site_label
 _atom_site_symmetry_multiplicity
 _atom_site_fract_x
 _atom_site_fract_y
 _atom_site_fract_z
 _atom_site_occupancy
  Sn  Sn0  1  0.537304  0.783725  0.852472  1
  Sn  Sn1  1  0.537304  0.716275  0.352472  1
  Sn  Sn2  1  0.822667  0.271207  0.829688  1
  Sn  Sn3  1  0.782620  0.019626  0.612840  1
  Sn  Sn4  1  0.819737  0.501594  0.590880  1
  Sn  Sn5  1  0.822667  0.228793  0.329688  1
  Sn  Sn6  1  0.782620  0.480374  0.112840  1
  Sn  Sn7  1  0.819737  0.998406  0.090880  1
  Sn  Sn8  1  0.180263  0.001594  0.909120  1
  Sn  Sn9  1  0.217380  0.519626  0.887160  1
  Sn  Sn10  1  0.177333  0.771207  0.670312  1
  Sn  Sn11  1  0.180263  0.498406  0.409120  1
  Sn  Sn12  1  0.217380  0.980374  0.387160  1
  Sn  Sn13  1  0.177333  0.728793  0.170312  1
  Sn  Sn14  1  0.462696  0.283725  0.647528  1
  Sn  Sn15  1  0.462696  0.216275  0.147528  1
  P  P16  1  0.531451  0.291665  0.901600  1
  P  P17  1  0.531451  0.208335  0.401600  1
  P  P18  1  0.868770  0.732950  0.815688  1
  P  P19  1  0.868770  0.767050  0.315688  1
  P  P20  1  0.131230  0.232950  0.684312  1
  P  P21  1  0.131230  0.267050  0.184312  1
  P  P22  1  0.468549  0.791665  0.598400  1
  P  P23  1  0.468549  0.708335  0.098400  1
  O  O24  1  0.572454  0.231588  0.806773  1
  O  O25  1  0.533050  0.997368  0.612149  1
  O  O26  1  0.679817  0.288679  0.978627  1
  O  O27  1  0.583326  0.662919  0.576699  1
  O  O28  1  0.752018  0.601904  0.842333  1
  O  O29  1  0.572454  0.268412  0.306773  1
  O  O30  1  0.738442  0.286634  0.674512  1
  O  O31  1  0.533050  0.502632  0.112149  1
  O  O32  1  0.793119  0.923302  0.779224  1
  O  O33  1  0.679817  0.211321  0.478627  1
  O  O34  1  0.583326  0.837081  0.076699  1
  O  O35  1  0.752018  0.898096  0.342333  1
  O  O36  1  0.925016  0.629150  0.737367  1
  O  O37  1  0.003497  0.763361  0.902152  1
  O  O38  1  0.738442  0.213366  0.174512  1
  O  O39  1  0.793119  0.576698  0.279224  1
  O  O40  1  0.996503  0.263361  0.597848  1
  O  O41  1  0.074984  0.129150  0.762633  1
  O  O42  1  0.925016  0.870850  0.237367  1
  O  O43  1  0.003497  0.736639  0.402152  1
  O  O44  1  0.206881  0.423302  0.720776  1
  O  O45  1  0.261558  0.786634  0.825488  1
  O  O46  1  0.996503  0.236639  0.097848  1
  O  O47  1  0.074984  0.370850  0.262633  1
  O  O48  1  0.247982  0.101904  0.657667  1
  O  O49  1  0.416674  0.162919  0.923301  1
  O  O50  1  0.320183  0.788679  0.521373  1
  O  O51  1  0.206881  0.076698  0.220776  1
  O  O52  1  0.466950  0.497368  0.887851  1
  O  O53  1  0.261558  0.713366  0.325488  1
  O  O54  1  0.427546  0.731588  0.693227  1
  O  O55  1  0.247982  0.398096  0.157667  1
  O  O56  1  0.416674  0.337081  0.423301  1
  O  O57  1  0.320183  0.711321  0.021373  1
  O  O58  1  0.466950  0.002632  0.387851  1
  O  O59  1  0.427546  0.768412  0.193227  1
