# generated using pymatgen
data_LaAl12O19
_symmetry_space_group_name_H-M   'P 1'
_cell_length_a   5.64411086
_cell_length_b   5.64411086
_cell_length_c   22.29927292
_cell_angle_alpha   89.99827382
_cell_angle_beta   90.00172618
_cell_angle_gamma   60.07448684
_symmetry_Int_Tables_number   1
_chemical_formula_structural   LaAl12O19
_chemical_formula_sum   'La2 Al24 O38'
_cell_volume   615.65567550
_cell_formula_units_Z   2
loop_
 _symmetry_equiv_pos_site_id
 _symmetry_equiv_pos_as_xyz
  1  'x, y, z'
loop_
 _atom_site_type_symbol
 _atom_site_label
 _atom_site_symmetry_multiplicity
 _atom_site_fract_x
 _atom_site_fract_y
 _atom_site_fract_z
 _atom_site_occupancy
  La  La0  1  0.328476  0.343113  0.748664  1
  La  La1  1  0.656887  0.671524  0.248664  1
  Al  Al2  1  0.665688  0.166939  0.608925  1
  Al  Al3  1  0.662430  0.168551  0.892000  1
  Al  Al4  1  0.331704  0.333802  0.190060  1
  Al  Al5  1  0.333510  0.333021  0.026597  1
  Al  Al6  1  0.331664  0.333812  0.310264  1
  Al  Al7  1  0.333544  0.332980  0.473910  1
  Al  Al8  1  0.998897  0.002274  0.760201  1
  Al  Al9  1  0.999773  0.999865  0.000183  1
  Al  Al10  1  0.997726  0.001103  0.260201  1
  Al  Al11  1  0.000135  0.000227  0.500183  1
  Al  Al12  1  0.167169  0.166937  0.608931  1
  Al  Al13  1  0.168820  0.168521  0.891976  1
  Al  Al14  1  0.168718  0.662372  0.892207  1
  Al  Al15  1  0.167134  0.665531  0.608628  1
  Al  Al16  1  0.833061  0.334312  0.108925  1
  Al  Al17  1  0.831449  0.337570  0.392000  1
  Al  Al18  1  0.831479  0.831180  0.391976  1
  Al  Al19  1  0.666198  0.668296  0.690060  1
  Al  Al20  1  0.666188  0.668336  0.810264  1
  Al  Al21  1  0.666979  0.666490  0.526597  1
  Al  Al22  1  0.667020  0.666456  0.973910  1
  Al  Al23  1  0.833063  0.832831  0.108931  1
  Al  Al24  1  0.334469  0.832866  0.108628  1
  Al  Al25  1  0.337628  0.831282  0.392207  1
  O  O26  1  0.689513  0.154951  0.052489  1
  O  O27  1  0.691510  0.153965  0.446647  1
  O  O28  1  0.495522  0.008572  0.650627  1
  O  O29  1  0.495208  0.009212  0.849841  1
  O  O30  1  0.634813  0.182355  0.250896  1
  O  O31  1  0.154353  0.153896  0.446693  1
  O  O32  1  0.999867  0.999894  0.848738  1
  O  O33  1  0.333255  0.333092  0.557000  1
  O  O34  1  0.999973  0.999711  0.148443  1
  O  O35  1  0.000106  0.000133  0.348738  1
  O  O36  1  0.000289  0.000027  0.648443  1
  O  O37  1  0.333299  0.333076  0.943447  1
  O  O38  1  0.495599  0.496019  0.650556  1
  O  O39  1  0.495152  0.495568  0.849864  1
  O  O40  1  0.182330  0.179311  0.250913  1
  O  O41  1  0.155236  0.154987  0.052438  1
  O  O42  1  0.182384  0.637703  0.250914  1
  O  O43  1  0.845049  0.310487  0.552489  1
  O  O44  1  0.846035  0.308490  0.946647  1
  O  O45  1  0.008077  0.496009  0.650582  1
  O  O46  1  0.008952  0.495569  0.849853  1
  O  O47  1  0.990788  0.504792  0.349841  1
  O  O48  1  0.991428  0.504478  0.150627  1
  O  O49  1  0.155137  0.689204  0.052443  1
  O  O50  1  0.154176  0.691156  0.446686  1
  O  O51  1  0.817645  0.365187  0.750896  1
  O  O52  1  0.504432  0.504848  0.349864  1
  O  O53  1  0.666924  0.666701  0.443447  1
  O  O54  1  0.503981  0.504401  0.150556  1
  O  O55  1  0.820689  0.817670  0.750913  1
  O  O56  1  0.666908  0.666745  0.057000  1
  O  O57  1  0.845013  0.844764  0.552438  1
  O  O58  1  0.846104  0.845647  0.946693  1
  O  O59  1  0.362297  0.817616  0.750914  1
  O  O60  1  0.503991  0.991923  0.150582  1
  O  O61  1  0.504431  0.991048  0.349853  1
  O  O62  1  0.310796  0.844863  0.552443  1
  O  O63  1  0.308844  0.845824  0.946686  1
