# generated using pymatgen
data_Cs3NO4
_symmetry_space_group_name_H-M   'P 1'
_cell_length_a   6.31910527
_cell_length_b   8.91961577
_cell_length_c   12.16956104
_cell_angle_alpha   90.00000000
_cell_angle_beta   90.00000000
_cell_angle_gamma   90.00000000
_symmetry_Int_Tables_number   1
_chemical_formula_structural   Cs3NO4
_chemical_formula_sum   'Cs12 N4 O16'
_cell_volume   685.92502916
_cell_formula_units_Z   4
loop_
 _symmetry_equiv_pos_site_id
 _symmetry_equiv_pos_as_xyz
  1  'x, y, z'
loop_
 _atom_site_type_symbol
 _atom_site_label
 _atom_site_symmetry_multiplicity
 _atom_site_fract_x
 _atom_site_fract_y
 _atom_site_fract_z
 _atom_site_occupancy
  Cs  Cs0  1  0.632313  0.750000  0.072173  1
  Cs  Cs1  1  0.172271  0.991338  0.145700  1
  Cs  Cs2  1  0.172271  0.508662  0.145700  1
  Cs  Cs3  1  0.672271  0.491338  0.354300  1
  Cs  Cs4  1  0.672271  0.008662  0.354300  1
  Cs  Cs5  1  0.132313  0.250000  0.427827  1
  Cs  Cs6  1  0.867687  0.750000  0.572173  1
  Cs  Cs7  1  0.327729  0.991338  0.645700  1
  Cs  Cs8  1  0.327729  0.508662  0.645700  1
  Cs  Cs9  1  0.827729  0.491338  0.854300  1
  Cs  Cs10  1  0.827729  0.008662  0.854300  1
  Cs  Cs11  1  0.367687  0.250000  0.927827  1
  N  N12  1  0.783091  0.250000  0.115437  1
  N  N13  1  0.283091  0.750000  0.384563  1
  N  N14  1  0.716909  0.250000  0.615437  1
  N  N15  1  0.216909  0.750000  0.884563  1
  O  O16  1  0.930525  0.250000  0.028108  1
  O  O17  1  0.657305  0.379585  0.108705  1
  O  O18  1  0.657305  0.120415  0.108705  1
  O  O19  1  0.894709  0.250000  0.215907  1
  O  O20  1  0.394709  0.750000  0.284093  1
  O  O21  1  0.157305  0.879585  0.391295  1
  O  O22  1  0.157305  0.620415  0.391295  1
  O  O23  1  0.430525  0.750000  0.471892  1
  O  O24  1  0.569475  0.250000  0.528108  1
  O  O25  1  0.842695  0.379585  0.608705  1
  O  O26  1  0.842695  0.120415  0.608705  1
  O  O27  1  0.605291  0.250000  0.715907  1
  O  O28  1  0.105291  0.750000  0.784093  1
  O  O29  1  0.342695  0.879585  0.891295  1
  O  O30  1  0.342695  0.620415  0.891295  1
  O  O31  1  0.069475  0.750000  0.971892  1
