# generated using pymatgen
data_NaTi2(PO4)3
_symmetry_space_group_name_H-M   'P 1'
_cell_length_a   8.58597089
_cell_length_b   8.58785091
_cell_length_c   8.97482007
_cell_angle_alpha   61.64191117
_cell_angle_beta   61.75993427
_cell_angle_gamma   60.31661000
_symmetry_Int_Tables_number   1
_chemical_formula_structural   NaTi2(PO4)3
_chemical_formula_sum   'Na2 Ti4 P6 O24'
_cell_volume   480.79731844
_cell_formula_units_Z   2
loop_
 _symmetry_equiv_pos_site_id
 _symmetry_equiv_pos_as_xyz
  1  'x, y, z'
loop_
 _atom_site_type_symbol
 _atom_site_label
 _atom_site_symmetry_multiplicity
 _atom_site_fract_x
 _atom_site_fract_y
 _atom_site_fract_z
 _atom_site_occupancy
  Na  Na0  1  0.750802  0.085013  0.832528  1
  Na  Na1  1  0.249198  0.914987  0.167472  1
  Ti  Ti2  1  0.150403  0.143116  0.568207  1
  Ti  Ti3  1  0.653777  0.635364  0.062348  1
  Ti  Ti4  1  0.346223  0.364636  0.937652  1
  Ti  Ti5  1  0.849597  0.856884  0.431793  1
  P  P6  1  0.965967  0.249514  0.253299  1
  P  P7  1  0.465405  0.031613  0.750710  1
  P  P8  1  0.752809  0.467105  0.749066  1
  P  P9  1  0.247191  0.532895  0.250934  1
  P  P10  1  0.534595  0.968387  0.249290  1
  P  P11  1  0.034033  0.750486  0.746701  1
  O  O12  1  0.514711  0.152045  0.089707  1
  O  O13  1  0.154695  0.239914  0.096916  1
  O  O14  1  0.916509  0.086845  0.276962  1
  O  O15  1  0.991646  0.216945  0.424648  1
  O  O16  1  0.242649  0.507946  0.093325  1
  O  O17  1  0.910225  0.279460  0.722575  1
  O  O18  1  0.632845  0.002454  0.581235  1
  O  O19  1  0.809420  0.442247  0.206560  1
  O  O20  1  0.461110  0.188549  0.794604  1
  O  O21  1  0.277925  0.090728  0.722173  1
  O  O22  1  0.782867  0.633024  0.579812  1
  O  O23  1  0.561717  0.450732  0.794943  1
  O  O24  1  0.438283  0.549268  0.205057  1
  O  O25  1  0.217133  0.366976  0.420188  1
  O  O26  1  0.722075  0.909272  0.277827  1
  O  O27  1  0.538890  0.811451  0.205396  1
  O  O28  1  0.190580  0.557753  0.793440  1
  O  O29  1  0.367155  0.997546  0.418765  1
  O  O30  1  0.089775  0.720540  0.277425  1
  O  O31  1  0.757351  0.492054  0.906675  1
  O  O32  1  0.008354  0.783055  0.575352  1
  O  O33  1  0.083491  0.913155  0.723038  1
  O  O34  1  0.845305  0.760086  0.903084  1
  O  O35  1  0.485289  0.847955  0.910293  1
