# generated using pymatgen
data_LiCoPO4
_symmetry_space_group_name_H-M   'P 1'
_cell_length_a   8.63873566
_cell_length_b   5.12129187
_cell_length_c   15.45884917
_cell_angle_alpha   90.00000000
_cell_angle_beta   93.70617579
_cell_angle_gamma   90.00000000
_symmetry_Int_Tables_number   1
_chemical_formula_structural   LiCoPO4
_chemical_formula_sum   'Li8 Co8 P8 O32'
_cell_volume   682.49215294
_cell_formula_units_Z   8
loop_
 _symmetry_equiv_pos_site_id
 _symmetry_equiv_pos_as_xyz
  1  'x, y, z'
loop_
 _atom_site_type_symbol
 _atom_site_label
 _atom_site_symmetry_multiplicity
 _atom_site_fract_x
 _atom_site_fract_y
 _atom_site_fract_z
 _atom_site_occupancy
  Li  Li0  1  0.796765  0.757474  0.998281  1
  Li  Li1  1  0.376415  0.230555  0.257676  1
  Li  Li2  1  0.623585  0.730555  0.242324  1
  Li  Li3  1  0.203235  0.257474  0.501719  1
  Li  Li4  1  0.796765  0.742526  0.498281  1
  Li  Li5  1  0.376415  0.269445  0.757676  1
  Li  Li6  1  0.623585  0.769445  0.742324  1
  Li  Li7  1  0.203235  0.242526  0.001719  1
  Co  Co8  1  0.431098  0.703284  0.082824  1
  Co  Co9  1  0.909985  0.259039  0.152502  1
  Co  Co10  1  0.090015  0.759039  0.347498  1
  Co  Co11  1  0.568902  0.203284  0.417176  1
  Co  Co12  1  0.431098  0.796716  0.582824  1
  Co  Co13  1  0.909985  0.240961  0.652502  1
  Co  Co14  1  0.090015  0.740961  0.847498  1
  Co  Co15  1  0.568902  0.296716  0.917176  1
  P  P16  1  0.565684  0.207589  0.108470  1
  P  P17  1  0.095072  0.750662  0.132512  1
  P  P18  1  0.904928  0.250662  0.367488  1
  P  P19  1  0.434316  0.707589  0.391530  1
  P  P20  1  0.565684  0.292411  0.608470  1
  P  P21  1  0.095072  0.749338  0.632512  1
  P  P22  1  0.904928  0.249338  0.867488  1
  P  P23  1  0.434316  0.792411  0.891530  1
  O  O24  1  0.454363  0.250293  0.025719  1
  O  O25  1  0.212824  0.615703  0.074806  1
  O  O26  1  0.724619  0.101630  0.086309  1
  O  O27  1  0.484557  0.011875  0.168382  1
  O  O28  1  0.579596  0.478091  0.153642  1
  O  O29  1  0.086732  0.048489  0.111034  1
  O  O30  1  0.932802  0.624353  0.110744  1
  O  O31  1  0.150177  0.701174  0.228532  1
  O  O32  1  0.849823  0.201174  0.271468  1
  O  O33  1  0.067198  0.124353  0.389256  1
  O  O34  1  0.913268  0.548489  0.388966  1
  O  O35  1  0.420404  0.978091  0.346358  1
  O  O36  1  0.515443  0.511875  0.331618  1
  O  O37  1  0.275381  0.601630  0.413691  1
  O  O38  1  0.787176  0.115703  0.425194  1
  O  O39  1  0.545637  0.750293  0.474281  1
  O  O40  1  0.454363  0.249707  0.525719  1
  O  O41  1  0.212824  0.884297  0.574806  1
  O  O42  1  0.724619  0.398370  0.586309  1
  O  O43  1  0.484557  0.488125  0.668382  1
  O  O44  1  0.579596  0.021909  0.653642  1
  O  O45  1  0.086732  0.451511  0.611034  1
  O  O46  1  0.932802  0.875647  0.610744  1
  O  O47  1  0.150177  0.798826  0.728532  1
  O  O48  1  0.849823  0.298826  0.771468  1
  O  O49  1  0.067198  0.375647  0.889256  1
  O  O50  1  0.913268  0.951511  0.888966  1
  O  O51  1  0.420404  0.521909  0.846358  1
  O  O52  1  0.515443  0.988125  0.831618  1
  O  O53  1  0.275381  0.898370  0.913691  1
  O  O54  1  0.787176  0.384297  0.925194  1
  O  O55  1  0.545637  0.749707  0.974281  1
