# generated using pymatgen
data_Li2Co3(SiO4)2
_symmetry_space_group_name_H-M   'P 1'
_cell_length_a   4.96345335
_cell_length_b   8.85425833
_cell_length_c   13.30146640
_cell_angle_alpha   108.29332691
_cell_angle_beta   99.76208528
_cell_angle_gamma   90.74920727
_symmetry_Int_Tables_number   1
_chemical_formula_structural   Li2Co3(SiO4)2
_chemical_formula_sum   'Li6 Co9 Si6 O24'
_cell_volume   545.61466243
_cell_formula_units_Z   3
loop_
 _symmetry_equiv_pos_site_id
 _symmetry_equiv_pos_as_xyz
  1  'x, y, z'
loop_
 _atom_site_type_symbol
 _atom_site_label
 _atom_site_symmetry_multiplicity
 _atom_site_fract_x
 _atom_site_fract_y
 _atom_site_fract_z
 _atom_site_occupancy
  Li  Li0  1  0.443635  0.351962  0.767987  1
  Li  Li1  1  0.384508  0.628353  0.691267  1
  Li  Li2  1  0.270109  0.533616  0.476126  1
  Li  Li3  1  0.483383  0.097550  0.854786  1
  Li  Li4  1  0.725536  0.342434  0.359089  1
  Li  Li5  1  0.608550  0.215463  0.092829  1
  Co  Co6  1  0.002989  0.009668  0.995554  1
  Co  Co7  1  0.272839  0.208426  0.491587  1
  Co  Co8  1  0.213251  0.453674  0.184744  1
  Co  Co9  1  0.287060  0.861312  0.341544  1
  Co  Co10  1  0.918742  0.602335  0.839067  1
  Co  Co11  1  0.605858  0.531328  0.038050  1
  Co  Co12  1  0.683375  0.920886  0.188440  1
  Co  Co13  1  0.933336  0.124829  0.687707  1
  Co  Co14  1  0.856682  0.714004  0.539723  1
  Si  Si15  1  0.028110  0.318485  0.933823  1
  Si  Si16  1  0.483602  0.801675  0.937556  1
  Si  Si17  1  0.187524  0.149231  0.249086  1
  Si  Si18  1  0.386186  0.930653  0.598873  1
  Si  Si19  1  0.826874  0.410058  0.596608  1
  Si  Si20  1  0.768152  0.638475  0.286206  1
  O  O21  1  0.043383  0.547645  0.591175  1
  O  O22  1  0.022590  0.260496  0.601783  1
  O  O23  1  0.172168  0.246112  0.828283  1
  O  O24  1  0.069015  0.916976  0.619440  1
  O  O25  1  0.372976  0.982258  0.962627  1
  O  O26  1  0.052360  0.224946  0.356294  1
  O  O27  1  0.300882  0.657626  0.838896  1
  O  O28  1  0.390212  0.991520  0.492849  1
  O  O29  1  0.387839  0.276574  0.222959  1
  O  O30  1  0.489275  0.748324  0.575687  1
  O  O31  1  0.560882  0.069103  0.705098  1
  O  O32  1  0.385053  0.006488  0.263825  1
  O  O33  1  0.288834  0.391882  0.035312  1
  O  O34  1  0.433752  0.649994  0.279242  1
  O  O35  1  0.784023  0.813757  0.901547  1
  O  O36  1  0.572275  0.364443  0.491818  1
  O  O37  1  0.679982  0.469162  0.703528  1
  O  O38  1  0.820579  0.458951  0.919757  1
  O  O39  1  0.831711  0.191550  0.960817  1
  O  O40  1  0.528921  0.752997  0.050082  1
  O  O41  1  0.909012  0.588827  0.390328  1
  O  O42  1  0.818074  0.497567  0.174724  1
  O  O43  1  0.889942  0.812589  0.286760  1
  O  O44  1  0.923056  0.073691  0.147320  1
