# generated using pymatgen
data_FeCoO4
_symmetry_space_group_name_H-M   'P 1'
_cell_length_a   5.03783866
_cell_length_b   2.91356859
_cell_length_c   5.05554504
_cell_angle_alpha   90.00000000
_cell_angle_beta   109.19872178
_cell_angle_gamma   90.00000000
_symmetry_Int_Tables_number   1
_chemical_formula_structural   FeCoO4
_chemical_formula_sum   'Fe1 Co1 O4'
_cell_volume   70.07868952
_cell_formula_units_Z   1
loop_
 _symmetry_equiv_pos_site_id
 _symmetry_equiv_pos_as_xyz
  1  'x, y, z'
loop_
 _atom_site_type_symbol
 _atom_site_label
 _atom_site_symmetry_multiplicity
 _atom_site_fract_x
 _atom_site_fract_y
 _atom_site_fract_z
 _atom_site_occupancy
  Fe  Fe0  1  0.500000  0.000000  0.500000  1
  Co  Co1  1  0.000000  0.500000  0.500000  1
  O  O2  1  0.253729  0.500000  0.302024  1
  O  O3  1  0.746271  0.500000  0.697976  1
  O  O4  1  0.780483  0.000000  0.302474  1
  O  O5  1  0.219517  0.000000  0.697526  1
