# generated using pymatgen
data_Li2VF4
_symmetry_space_group_name_H-M   'P 1'
_cell_length_a   5.38076796
_cell_length_b   5.38076796
_cell_length_c   5.38076796
_cell_angle_alpha   134.37293337
_cell_angle_beta   134.37293337
_cell_angle_gamma   66.50609645
_symmetry_Int_Tables_number   1
_chemical_formula_structural   Li2VF4
_chemical_formula_sum   'Li2 V1 F4'
_cell_volume   78.34274596
_cell_formula_units_Z   1
loop_
 _symmetry_equiv_pos_site_id
 _symmetry_equiv_pos_as_xyz
  1  'x, y, z'
loop_
 _atom_site_type_symbol
 _atom_site_label
 _atom_site_symmetry_multiplicity
 _atom_site_fract_x
 _atom_site_fract_y
 _atom_site_fract_z
 _atom_site_occupancy
  Li  Li0  1  0.250000  0.750000  0.500000  1
  Li  Li1  1  0.750000  0.250000  0.500000  1
  V  V2  1  0.000000  0.000000  0.000000  1
  F  F3  1  0.234379  0.234379  0.000000  1
  F  F4  1  0.765621  0.765621  0.000000  1
  F  F5  1  0.500000  0.000000  0.500000  1
  F  F6  1  0.000000  0.500000  0.500000  1
