# generated using pymatgen
data_Li2MnCr3O8
_symmetry_space_group_name_H-M   'P 1'
_cell_length_a   8.38360929
_cell_length_b   8.38360929
_cell_length_c   8.34946032
_cell_angle_alpha   90.00000000
_cell_angle_beta   90.00000000
_cell_angle_gamma   90.52022344
_symmetry_Int_Tables_number   1
_chemical_formula_structural   Li2MnCr3O8
_chemical_formula_sum   'Li8 Mn4 Cr12 O32'
_cell_volume   586.81683376
_cell_formula_units_Z   4
loop_
 _symmetry_equiv_pos_site_id
 _symmetry_equiv_pos_as_xyz
  1  'x, y, z'
loop_
 _atom_site_type_symbol
 _atom_site_label
 _atom_site_symmetry_multiplicity
 _atom_site_fract_x
 _atom_site_fract_y
 _atom_site_fract_z
 _atom_site_occupancy
  Li  Li0  1  0.749420  0.499484  0.624731  1
  Li  Li1  1  0.500516  0.250580  0.875269  1
  Li  Li2  1  0.999292  0.750290  0.877413  1
  Li  Li3  1  0.750290  0.999292  0.122587  1
  Li  Li4  1  0.250580  0.500516  0.124731  1
  Li  Li5  1  0.499484  0.749420  0.375269  1
  Li  Li6  1  0.000708  0.249710  0.377413  1
  Li  Li7  1  0.249710  0.000708  0.622587  1
  Mn  Mn8  1  0.874996  0.125004  0.750000  1
  Mn  Mn9  1  0.625169  0.625169  1.000000  1
  Mn  Mn10  1  0.125004  0.874996  0.250000  1
  Mn  Mn11  1  0.374831  0.374831  0.500000  1
  Cr  Cr12  1  0.625492  0.875480  0.749179  1
  Cr  Cr13  1  0.376751  0.623249  0.750000  1
  Cr  Cr14  1  0.124520  0.374508  0.750821  1
  Cr  Cr15  1  0.376649  0.874496  0.001815  1
  Cr  Cr16  1  0.124996  0.124996  0.000000  1
  Cr  Cr17  1  0.874496  0.376649  0.998185  1
  Cr  Cr18  1  0.374508  0.124520  0.249179  1
  Cr  Cr19  1  0.623249  0.376751  0.250000  1
  Cr  Cr20  1  0.875480  0.625492  0.250821  1
  Cr  Cr21  1  0.623351  0.125504  0.501815  1
  Cr  Cr22  1  0.875004  0.875004  0.500000  1
  Cr  Cr23  1  0.125504  0.623351  0.498185  1
  O  O24  1  0.642632  0.108610  0.746903  1
  O  O25  1  0.863413  0.892029  0.741234  1
  O  O26  1  0.136935  0.603721  0.741343  1
  O  O27  1  0.618605  0.641752  0.766543  1
  O  O28  1  0.358248  0.381395  0.733457  1
  O  O29  1  0.396279  0.863065  0.758657  1
  O  O30  1  0.107971  0.136587  0.758766  1
  O  O31  1  0.891390  0.357368  0.753097  1
  O  O32  1  0.614755  0.860050  0.984917  1
  O  O33  1  0.394478  0.634696  0.990595  1
  O  O34  1  0.112684  0.367097  0.978953  1
  O  O35  1  0.136774  0.885476  0.018380  1
  O  O36  1  0.885476  0.136774  0.981620  1
  O  O37  1  0.367097  0.112684  0.021047  1
  O  O38  1  0.634696  0.394478  0.009405  1
  O  O39  1  0.860050  0.614755  0.015083  1
  O  O40  1  0.357368  0.891390  0.246903  1
  O  O41  1  0.136587  0.107971  0.241234  1
  O  O42  1  0.863065  0.396279  0.241343  1
  O  O43  1  0.381395  0.358248  0.266543  1
  O  O44  1  0.641752  0.618605  0.233457  1
  O  O45  1  0.603721  0.136935  0.258657  1
  O  O46  1  0.892029  0.863413  0.258766  1
  O  O47  1  0.108610  0.642632  0.253097  1
  O  O48  1  0.385245  0.139950  0.484917  1
  O  O49  1  0.605522  0.365304  0.490595  1
  O  O50  1  0.887316  0.632903  0.478953  1
  O  O51  1  0.863226  0.114524  0.518380  1
  O  O52  1  0.114524  0.863226  0.481620  1
  O  O53  1  0.632903  0.887316  0.521047  1
  O  O54  1  0.365304  0.605522  0.509405  1
  O  O55  1  0.139950  0.385245  0.515083  1
