# generated using pymatgen
data_Mn3Nb2Cr3O16
_symmetry_space_group_name_H-M   'P 1'
_cell_length_a   5.91273305
_cell_length_b   5.91408778
_cell_length_c   9.30526032
_cell_angle_alpha   90.01796290
_cell_angle_beta   90.47141882
_cell_angle_gamma   119.60387032
_symmetry_Int_Tables_number   1
_chemical_formula_structural   Mn3Nb2Cr3O16
_chemical_formula_sum   'Mn3 Nb2 Cr3 O16'
_cell_volume   282.90117158
_cell_formula_units_Z   1
loop_
 _symmetry_equiv_pos_site_id
 _symmetry_equiv_pos_as_xyz
  1  'x, y, z'
loop_
 _atom_site_type_symbol
 _atom_site_label
 _atom_site_symmetry_multiplicity
 _atom_site_fract_x
 _atom_site_fract_y
 _atom_site_fract_z
 _atom_site_occupancy
  Mn  Mn0  1  0.341854  0.171302  0.211350  1
  Mn  Mn1  1  0.170477  0.338255  0.714387  1
  Mn  Mn2  1  0.170673  0.832579  0.714352  1
  Nb  Nb3  1  0.667204  0.335550  0.500385  1
  Nb  Nb4  1  0.338613  0.669828  0.998983  1
  Cr  Cr5  1  0.836833  0.175663  0.220666  1
  Cr  Cr6  1  0.831939  0.662397  0.211441  1
  Cr  Cr7  1  0.663345  0.831941  0.714232  1
  O  O8  1  0.835172  0.170550  0.598570  1
  O  O9  1  0.952401  0.467957  0.338151  1
  O  O10  1  0.662517  0.322122  0.109044  1
  O  O11  1  0.004749  0.011347  0.302178  1
  O  O12  1  0.011003  0.005739  0.809645  1
  O  O13  1  0.835913  0.664972  0.597802  1
  O  O14  1  0.519117  0.043534  0.333055  1
  O  O15  1  0.515185  0.468774  0.333539  1
  O  O16  1  0.664430  0.836065  0.097318  1
  O  O17  1  0.334532  0.166490  0.600644  1
  O  O18  1  0.469298  0.513839  0.835171  1
  O  O19  1  0.468543  0.954947  0.835221  1
  O  O20  1  0.322768  0.661054  0.609720  1
  O  O21  1  0.170005  0.339342  0.100315  1
  O  O22  1  0.041470  0.521452  0.829909  1
  O  O23  1  0.171954  0.834103  0.099641  1
