# generated using pymatgen
data_Gd2HfO5
_symmetry_space_group_name_H-M   'P 1'
_cell_length_a   6.07581207
_cell_length_b   6.07581207
_cell_length_c   10.97259950
_cell_angle_alpha   90.00000000
_cell_angle_beta   90.00000000
_cell_angle_gamma   140.08259653
_symmetry_Int_Tables_number   1
_chemical_formula_structural   Gd2HfO5
_chemical_formula_sum   'Gd4 Hf2 O10'
_cell_volume   259.91926663
_cell_formula_units_Z   2
loop_
 _symmetry_equiv_pos_site_id
 _symmetry_equiv_pos_as_xyz
  1  'x, y, z'
loop_
 _atom_site_type_symbol
 _atom_site_label
 _atom_site_symmetry_multiplicity
 _atom_site_fract_x
 _atom_site_fract_y
 _atom_site_fract_z
 _atom_site_occupancy
  Gd  Gd0  1  0.861283  0.138717  0.567387  1
  Gd  Gd1  1  0.861283  0.138717  0.932613  1
  Gd  Gd2  1  0.138717  0.861283  0.067387  1
  Gd  Gd3  1  0.138717  0.861283  0.432613  1
  Hf  Hf4  1  0.823342  0.176658  0.250000  1
  Hf  Hf5  1  0.176658  0.823342  0.750000  1
  O  O6  1  0.949898  0.050102  0.119899  1
  O  O7  1  0.949898  0.050102  0.380101  1
  O  O8  1  0.710203  0.289797  0.409261  1
  O  O9  1  0.710203  0.289797  0.090739  1
  O  O10  1  0.730319  0.269681  0.750000  1
  O  O11  1  0.269681  0.730319  0.250000  1
  O  O12  1  0.050102  0.949898  0.619899  1
  O  O13  1  0.050102  0.949898  0.880101  1
  O  O14  1  0.289797  0.710203  0.590739  1
  O  O15  1  0.289797  0.710203  0.909261  1
