# generated using pymatgen
data_Na3Fe2P(CO4)4
_symmetry_space_group_name_H-M   'P 1'
_cell_length_a   9.92958400
_cell_length_b   9.92614210
_cell_length_c   9.84270685
_cell_angle_alpha   60.30074027
_cell_angle_beta   60.26593865
_cell_angle_gamma   59.43332107
_symmetry_Int_Tables_number   1
_chemical_formula_structural   Na3Fe2P(CO4)4
_chemical_formula_sum   'Na6 Fe4 P2 C8 O32'
_cell_volume   685.87922046
_cell_formula_units_Z   2
loop_
 _symmetry_equiv_pos_site_id
 _symmetry_equiv_pos_as_xyz
  1  'x, y, z'
loop_
 _atom_site_type_symbol
 _atom_site_label
 _atom_site_symmetry_multiplicity
 _atom_site_fract_x
 _atom_site_fract_y
 _atom_site_fract_z
 _atom_site_occupancy
  Na  Na0  1  0.331991  0.154185  0.598480  1
  Na  Na1  1  0.915344  0.598480  0.154185  1
  Na  Na2  1  0.095815  0.918009  0.334656  1
  Na  Na3  1  0.651520  0.334656  0.918009  1
  Na  Na4  1  0.909971  0.590029  0.590029  1
  Na  Na5  1  0.659971  0.340029  0.340029  1
  Fe  Fe6  1  0.002124  0.754628  0.750358  1
  Fe  Fe7  1  0.495372  0.247876  0.757109  1
  Fe  Fe8  1  0.492891  0.750358  0.754628  1
  Fe  Fe9  1  0.499642  0.757109  0.247876  1
  P  P10  1  0.124771  0.375229  0.375229  1
  P  P11  1  0.874771  0.125229  0.125229  1
  C  C12  1  0.711180  0.963062  0.965176  1
  C  C13  1  0.360582  0.965176  0.963062  1
  C  C14  1  0.713600  0.960862  0.608217  1
  C  C15  1  0.717322  0.608217  0.960862  1
  C  C16  1  0.286938  0.538820  0.889418  1
  C  C17  1  0.284824  0.889418  0.538820  1
  C  C18  1  0.641783  0.532678  0.536400  1
  C  C19  1  0.289138  0.536400  0.532678  1
  O  O20  1  0.141392  0.566230  0.896502  1
  O  O21  1  0.597733  0.933493  0.106063  1
  O  O22  1  0.362711  0.106063  0.933493  1
  O  O23  1  0.316743  0.389960  0.642903  1
  O  O24  1  0.353498  0.854125  0.108608  1
  O  O25  1  0.064532  0.311662  0.566456  1
  O  O26  1  0.057350  0.566456  0.311662  1
  O  O27  1  0.360829  0.936869  0.847617  1
  O  O28  1  0.854685  0.847617  0.936869  1
  O  O29  1  0.600161  0.107792  0.602598  1
  O  O30  1  0.689448  0.602598  0.107792  1
  O  O31  1  0.057352  0.312496  0.314995  1
  O  O32  1  0.315157  0.314995  0.312496  1
  O  O33  1  0.316507  0.652267  0.887289  1
  O  O34  1  0.143937  0.887289  0.652267  1
  O  O35  1  0.607097  0.599606  0.933257  1
  O  O36  1  0.395875  0.896502  0.566230  1
  O  O37  1  0.682555  0.845337  0.615574  1
  O  O38  1  0.856534  0.615574  0.845337  1
  O  O39  1  0.683544  0.192650  0.185468  1
  O  O40  1  0.938338  0.185468  0.192650  1
  O  O41  1  0.313131  0.889171  0.395315  1
  O  O42  1  0.402383  0.395315  0.889171  1
  O  O43  1  0.142208  0.649839  0.560552  1
  O  O44  1  0.647402  0.560552  0.649839  1
  O  O45  1  0.935005  0.934843  0.192648  1
  O  O46  1  0.937504  0.192648  0.934843  1
  O  O47  1  0.650394  0.642903  0.389960  1
  O  O48  1  0.683770  0.108608  0.854125  1
  O  O49  1  0.634426  0.393466  0.567445  1
  O  O50  1  0.404663  0.567445  0.393466  1
  O  O51  1  0.860040  0.933257  0.599606  1
