# generated using pymatgen
data_K2O
_symmetry_space_group_name_H-M   'P 1'
_cell_length_a   6.47879233
_cell_length_b   6.66309836
_cell_length_c   12.89346811
_cell_angle_alpha   90.00000000
_cell_angle_beta   90.00000000
_cell_angle_gamma   90.00000000
_symmetry_Int_Tables_number   1
_chemical_formula_structural   K2O
_chemical_formula_sum   'K16 O8'
_cell_volume   556.59594003
_cell_formula_units_Z   8
loop_
 _symmetry_equiv_pos_site_id
 _symmetry_equiv_pos_as_xyz
  1  'x, y, z'
loop_
 _atom_site_type_symbol
 _atom_site_label
 _atom_site_symmetry_multiplicity
 _atom_site_fract_x
 _atom_site_fract_y
 _atom_site_fract_z
 _atom_site_occupancy
  K  K0  1  0.999720  0.260630  0.020915  1
  K  K1  1  0.499720  0.239370  0.020915  1
  K  K2  1  0.856466  0.877359  0.205711  1
  K  K3  1  0.356466  0.622641  0.205711  1
  K  K4  1  0.356466  0.122641  0.294289  1
  K  K5  1  0.856466  0.377359  0.294289  1
  K  K6  1  0.999720  0.760630  0.479085  1
  K  K7  1  0.499720  0.739370  0.479085  1
  K  K8  1  0.500280  0.260630  0.520915  1
  K  K9  1  0.000280  0.239370  0.520915  1
  K  K10  1  0.643534  0.877359  0.705711  1
  K  K11  1  0.143534  0.622641  0.705711  1
  K  K12  1  0.643534  0.377359  0.794289  1
  K  K13  1  0.143534  0.122641  0.794289  1
  K  K14  1  0.500280  0.760630  0.979085  1
  K  K15  1  0.000280  0.739370  0.979085  1
  O  O16  1  0.231844  0.969013  0.114978  1
  O  O17  1  0.731844  0.530987  0.114978  1
  O  O18  1  0.731844  0.030987  0.385022  1
  O  O19  1  0.231844  0.469013  0.385022  1
  O  O20  1  0.268156  0.969013  0.614978  1
  O  O21  1  0.768156  0.530987  0.614978  1
  O  O22  1  0.268156  0.469013  0.885022  1
  O  O23  1  0.768156  0.030987  0.885022  1
