# generated using pymatgen
data_LiV2O3F
_symmetry_space_group_name_H-M   'P 1'
_cell_length_a   8.01715567
_cell_length_b   8.01715567
_cell_length_c   6.01793251
_cell_angle_alpha   68.00249067
_cell_angle_beta   111.99750933
_cell_angle_gamma   115.47773438
_symmetry_Int_Tables_number   1
_chemical_formula_structural   LiV2O3F
_chemical_formula_sum   'Li4 V8 O12 F4'
_cell_volume   313.06189521
_cell_formula_units_Z   4
loop_
 _symmetry_equiv_pos_site_id
 _symmetry_equiv_pos_as_xyz
  1  'x, y, z'
loop_
 _atom_site_type_symbol
 _atom_site_label
 _atom_site_symmetry_multiplicity
 _atom_site_fract_x
 _atom_site_fract_y
 _atom_site_fract_z
 _atom_site_occupancy
  Li  Li0  1  0.750594  0.009172  0.103604  1
  Li  Li1  1  0.003582  0.739382  0.391207  1
  Li  Li2  1  0.990828  0.249406  0.603604  1
  Li  Li3  1  0.260618  0.996418  0.891207  1
  V  V4  1  0.775530  0.762747  0.773466  1
  V  V5  1  0.498681  0.008493  0.501750  1
  V  V6  1  0.991507  0.501319  0.001750  1
  V  V7  1  0.624959  0.370170  0.126195  1
  V  V8  1  0.629830  0.375041  0.626195  1
  V  V9  1  0.366385  0.618630  0.368238  1
  V  V10  1  0.381370  0.633615  0.868238  1
  V  V11  1  0.237253  0.224470  0.273466  1
  O  O12  1  0.860658  0.616505  0.653631  1
  O  O13  1  0.620186  0.870241  0.836931  1
  O  O14  1  0.855226  0.612296  0.109811  1
  O  O15  1  0.514641  0.523660  0.738564  1
  O  O16  1  0.283061  0.747923  0.511778  1
  O  O17  1  0.746551  0.274771  0.993769  1
  O  O18  1  0.252077  0.716939  0.011778  1
  O  O19  1  0.725229  0.253449  0.493769  1
  O  O20  1  0.476340  0.485359  0.238564  1
  O  O21  1  0.383495  0.139342  0.153631  1
  O  O22  1  0.129759  0.379814  0.336931  1
  O  O23  1  0.387704  0.144774  0.609811  1
  F  F24  1  0.999815  0.994536  0.259358  1
  F  F25  1  0.620807  0.872150  0.381700  1
  F  F26  1  0.127850  0.379193  0.881700  1
  F  F27  1  0.005464  0.000185  0.759358  1
