# generated using pymatgen
data_Li4Ti3Mn2Ni3O16
_symmetry_space_group_name_H-M   'P 1'
_cell_length_a   5.86273861
_cell_length_b   5.86273861
_cell_length_c   9.43493173
_cell_angle_alpha   88.59472643
_cell_angle_beta   91.40527357
_cell_angle_gamma   120.26508171
_symmetry_Int_Tables_number   1
_chemical_formula_structural   Li4Ti3Mn2Ni3O16
_chemical_formula_sum   'Li4 Ti3 Mn2 Ni3 O16'
_cell_volume   279.98221720
_cell_formula_units_Z   1
loop_
 _symmetry_equiv_pos_site_id
 _symmetry_equiv_pos_as_xyz
  1  'x, y, z'
loop_
 _atom_site_type_symbol
 _atom_site_label
 _atom_site_symmetry_multiplicity
 _atom_site_fract_x
 _atom_site_fract_y
 _atom_site_fract_z
 _atom_site_occupancy
  Li  Li0  1  0.666790  0.333210  0.894280  1
  Li  Li1  1  0.986791  0.013209  0.990298  1
  Li  Li2  1  0.996227  0.003773  0.494889  1
  Li  Li3  1  0.336438  0.663562  0.400024  1
  Ti  Ti4  1  0.339399  0.164206  0.212219  1
  Ti  Ti5  1  0.835794  0.660601  0.212219  1
  Ti  Ti6  1  0.169068  0.830932  0.715315  1
  Mn  Mn7  1  0.670202  0.329798  0.486075  1
  Mn  Mn8  1  0.338487  0.661513  0.981106  1
  Ni  Ni9  1  0.828490  0.171510  0.211358  1
  Ni  Ni10  1  0.167659  0.341182  0.710420  1
  Ni  Ni11  1  0.658818  0.832341  0.710420  1
  O  O12  1  0.343440  0.156584  0.598569  1
  O  O13  1  0.522426  0.477574  0.341894  1
  O  O14  1  0.657284  0.342716  0.100859  1
  O  O15  1  0.003850  0.996150  0.305902  1
  O  O16  1  0.994633  0.005367  0.800813  1
  O  O17  1  0.843416  0.656560  0.598569  1
  O  O18  1  0.512125  0.041456  0.349962  1
  O  O19  1  0.958544  0.487875  0.349962  1
  O  O20  1  0.170451  0.829549  0.103648  1
  O  O21  1  0.834604  0.165396  0.594108  1
  O  O22  1  0.040560  0.531013  0.849441  1
  O  O23  1  0.468987  0.959440  0.849441  1
  O  O24  1  0.334733  0.665267  0.608414  1
  O  O25  1  0.181126  0.337583  0.096571  1
  O  O26  1  0.477040  0.522960  0.844516  1
  O  O27  1  0.662417  0.818874  0.096571  1
