# generated using pymatgen
data_NaInBP2HO9
_symmetry_space_group_name_H-M   'P 1'
_cell_length_a   5.25778283
_cell_length_b   17.06768641
_cell_length_c   9.23949801
_cell_angle_alpha   90.00000000
_cell_angle_beta   121.26626726
_cell_angle_gamma   90.00000000
_symmetry_Int_Tables_number   1
_chemical_formula_structural   NaInBP2HO9
_chemical_formula_sum   'Na4 In4 B4 P8 H4 O36'
_cell_volume   708.71589969
_cell_formula_units_Z   4
loop_
 _symmetry_equiv_pos_site_id
 _symmetry_equiv_pos_as_xyz
  1  'x, y, z'
loop_
 _atom_site_type_symbol
 _atom_site_label
 _atom_site_symmetry_multiplicity
 _atom_site_fract_x
 _atom_site_fract_y
 _atom_site_fract_z
 _atom_site_occupancy
  Na  Na0  1  0.983217  0.661169  0.338725  1
  Na  Na1  1  0.983217  0.838831  0.838725  1
  Na  Na2  1  0.016783  0.338831  0.661275  1
  Na  Na3  1  0.016783  0.161169  0.161275  1
  In  In4  1  0.484312  0.655795  0.806086  1
  In  In5  1  0.484312  0.844205  0.306086  1
  In  In6  1  0.515688  0.344205  0.193914  1
  In  In7  1  0.515688  0.155795  0.693914  1
  B  B8  1  0.341249  0.528600  0.251079  1
  B  B9  1  0.341249  0.971400  0.751079  1
  B  B10  1  0.658751  0.471400  0.748921  1
  B  B11  1  0.658751  0.028600  0.248921  1
  P  P12  1  0.231733  0.669966  0.081661  1
  P  P13  1  0.231733  0.830034  0.581661  1
  P  P14  1  0.768267  0.330034  0.918339  1
  P  P15  1  0.768267  0.169966  0.418339  1
  P  P16  1  0.744384  0.587621  0.572977  1
  P  P17  1  0.744384  0.912379  0.072977  1
  P  P18  1  0.255616  0.412379  0.427023  1
  P  P19  1  0.255616  0.087621  0.927023  1
  H  H20  1  0.546099  0.496672  0.921301  1
  H  H21  1  0.546099  0.003328  0.421301  1
  H  H22  1  0.453901  0.503328  0.078699  1
  H  H23  1  0.453901  0.996672  0.578699  1
  O  O24  1  0.474105  0.651318  0.037659  1
  O  O25  1  0.474105  0.848682  0.537659  1
  O  O26  1  0.525895  0.348682  0.962341  1
  O  O27  1  0.525895  0.151318  0.462341  1
  O  O28  1  0.147368  0.592106  0.141156  1
  O  O29  1  0.147368  0.907894  0.641156  1
  O  O30  1  0.852632  0.407894  0.858844  1
  O  O31  1  0.852632  0.092106  0.358844  1
  O  O32  1  0.590105  0.526861  0.848215  1
  O  O33  1  0.590105  0.973139  0.348215  1
  O  O34  1  0.409895  0.473139  0.151785  1
  O  O35  1  0.409895  0.026861  0.651785  1
  O  O36  1  0.828600  0.511900  0.686847  1
  O  O37  1  0.828600  0.988100  0.186847  1
  O  O38  1  0.171400  0.488100  0.313153  1
  O  O39  1  0.171400  0.011900  0.813153  1
  O  O40  1  0.630308  0.561209  0.386316  1
  O  O41  1  0.630308  0.938791  0.886316  1
  O  O42  1  0.369692  0.438791  0.613684  1
  O  O43  1  0.369692  0.061209  0.113684  1
  O  O44  1  0.355164  0.724867  0.235049  1
  O  O45  1  0.355164  0.775133  0.735049  1
  O  O46  1  0.644836  0.275133  0.764951  1
  O  O47  1  0.644836  0.224867  0.264951  1
  O  O48  1  0.940939  0.699613  0.926539  1
  O  O49  1  0.940939  0.800387  0.426539  1
  O  O50  1  0.059061  0.300387  0.073461  1
  O  O51  1  0.059061  0.199613  0.573461  1
  O  O52  1  0.500216  0.633333  0.579386  1
  O  O53  1  0.500216  0.866667  0.079386  1
  O  O54  1  0.499784  0.366667  0.420614  1
  O  O55  1  0.499784  0.133333  0.920614  1
  O  O56  1  0.025337  0.633393  0.624207  1
  O  O57  1  0.025337  0.866607  0.124207  1
  O  O58  1  0.974663  0.366607  0.375793  1
  O  O59  1  0.974663  0.133393  0.875793  1
