# generated using pymatgen
data_Cr4OF11
_symmetry_space_group_name_H-M   'P 1'
_cell_length_a   5.06381557
_cell_length_b   5.33284885
_cell_length_c   16.90726307
_cell_angle_alpha   88.96521745
_cell_angle_beta   97.95648547
_cell_angle_gamma   117.93200714
_symmetry_Int_Tables_number   1
_chemical_formula_structural   Cr4OF11
_chemical_formula_sum   'Cr8 O2 F22'
_cell_volume   398.92979116
_cell_formula_units_Z   2
loop_
 _symmetry_equiv_pos_site_id
 _symmetry_equiv_pos_as_xyz
  1  'x, y, z'
loop_
 _atom_site_type_symbol
 _atom_site_label
 _atom_site_symmetry_multiplicity
 _atom_site_fract_x
 _atom_site_fract_y
 _atom_site_fract_z
 _atom_site_occupancy
  Cr  Cr0  1  0.255437  0.616030  0.871238  1
  Cr  Cr1  1  0.250946  0.122347  0.374024  1
  Cr  Cr2  1  0.508249  0.738931  0.247158  1
  Cr  Cr3  1  0.491751  0.261069  0.752842  1
  Cr  Cr4  1  0.749054  0.877653  0.625976  1
  Cr  Cr5  1  0.744563  0.383970  0.128762  1
  Cr  Cr6  1  0.000000  0.500000  0.500000  1
  Cr  Cr7  1  0.000000  0.000000  0.000000  1
  O  O8  1  0.313441  0.468150  0.781892  1
  O  O9  1  0.686559  0.531850  0.218108  1
  F  F10  1  0.184311  0.780756  0.965023  1
  F  F11  1  0.256232  0.937391  0.812925  1
  F  F12  1  0.245369  0.811459  0.437184  1
  F  F13  1  0.247625  0.312674  0.937518  1
  F  F14  1  0.318253  0.961841  0.281396  1
  F  F15  1  0.314342  0.658527  0.592806  1
  F  F16  1  0.183721  0.591976  0.156625  1
  F  F17  1  0.185603  0.091401  0.658672  1
  F  F18  1  0.187037  0.280422  0.467916  1
  F  F19  1  0.685176  0.842545  0.907133  1
  F  F20  1  0.256911  0.438204  0.311834  1
  F  F21  1  0.743089  0.561796  0.688166  1
  F  F22  1  0.314824  0.157455  0.092867  1
  F  F23  1  0.814397  0.908599  0.341328  1
  F  F24  1  0.816279  0.408024  0.843375  1
  F  F25  1  0.812963  0.719578  0.532084  1
  F  F26  1  0.685658  0.341473  0.407194  1
  F  F27  1  0.681747  0.038159  0.718604  1
  F  F28  1  0.752375  0.687326  0.062482  1
  F  F29  1  0.754631  0.188541  0.562816  1
  F  F30  1  0.743768  0.062609  0.187075  1
  F  F31  1  0.815689  0.219244  0.034977  1
