# generated using pymatgen
data_Li3Mn(OF)2
_symmetry_space_group_name_H-M   'P 1'
_cell_length_a   5.97612186
_cell_length_b   5.97612186
_cell_length_c   9.39338887
_cell_angle_alpha   70.34339406
_cell_angle_beta   109.65660594
_cell_angle_gamma   93.76747353
_symmetry_Int_Tables_number   1
_chemical_formula_structural   Li3Mn(OF)2
_chemical_formula_sum   'Li12 Mn4 O8 F8'
_cell_volume   297.08965347
_cell_formula_units_Z   4
loop_
 _symmetry_equiv_pos_site_id
 _symmetry_equiv_pos_as_xyz
  1  'x, y, z'
loop_
 _atom_site_type_symbol
 _atom_site_label
 _atom_site_symmetry_multiplicity
 _atom_site_fract_x
 _atom_site_fract_y
 _atom_site_fract_z
 _atom_site_occupancy
  Li  Li0  1  0.547672  0.702952  0.867325  1
  Li  Li1  1  0.297048  0.452328  0.367325  1
  Li  Li2  1  0.197878  0.052708  0.631129  1
  Li  Li3  1  0.543965  0.173170  0.875069  1
  Li  Li4  1  0.196451  0.560108  0.618734  1
  Li  Li5  1  0.070770  0.178210  0.876249  1
  Li  Li6  1  0.947292  0.802122  0.131129  1
  Li  Li7  1  0.826830  0.456035  0.375069  1
  Li  Li8  1  0.439892  0.803549  0.118734  1
  Li  Li9  1  0.821790  0.929230  0.376249  1
  Li  Li10  1  0.681175  0.558812  0.643452  1
  Li  Li11  1  0.441188  0.318825  0.143452  1
  Mn  Mn12  1  0.064399  0.699790  0.884000  1
  Mn  Mn13  1  0.300210  0.935601  0.384000  1
  Mn  Mn14  1  0.674496  0.060086  0.623346  1
  Mn  Mn15  1  0.939914  0.325504  0.123346  1
  O  O16  1  0.805518  0.947971  0.851317  1
  O  O17  1  0.052029  0.194482  0.351317  1
  O  O18  1  0.296681  0.922337  0.875152  1
  O  O19  1  0.838313  0.445936  0.891495  1
  O  O20  1  0.077663  0.703319  0.375152  1
  O  O21  1  0.554064  0.161687  0.391495  1
  O  O22  1  0.448454  0.818512  0.621700  1
  O  O23  1  0.181488  0.551546  0.121700  1
  F  F24  1  0.431586  0.320649  0.628535  1
  F  F25  1  0.679351  0.568414  0.128535  1
  F  F26  1  0.920344  0.310578  0.616562  1
  F  F27  1  0.312601  0.431031  0.869310  1
  F  F28  1  0.689422  0.079656  0.116562  1
  F  F29  1  0.568969  0.687399  0.369310  1
  F  F30  1  0.949367  0.796819  0.626626  1
  F  F31  1  0.203181  0.050633  0.126626  1
