# generated using pymatgen
data_Fe6OF11
_symmetry_space_group_name_H-M   'P 1'
_cell_length_a   10.75082771
_cell_length_b   10.75082771
_cell_length_c   3.18353095
_cell_angle_alpha   90.00000000
_cell_angle_beta   90.00000000
_cell_angle_gamma   142.72600065
_symmetry_Int_Tables_number   1
_chemical_formula_structural   Fe6OF11
_chemical_formula_sum   'Fe6 O1 F11'
_cell_volume   222.84267493
_cell_formula_units_Z   1
loop_
 _symmetry_equiv_pos_site_id
 _symmetry_equiv_pos_as_xyz
  1  'x, y, z'
loop_
 _atom_site_type_symbol
 _atom_site_label
 _atom_site_symmetry_multiplicity
 _atom_site_fract_x
 _atom_site_fract_y
 _atom_site_fract_z
 _atom_site_occupancy
  Fe  Fe0  1  0.002361  0.997639  1.000000  1
  Fe  Fe1  1  0.495675  0.504325  0.500000  1
  Fe  Fe2  1  0.665671  0.334329  0.000000  1
  Fe  Fe3  1  0.834549  0.165451  0.500000  1
  Fe  Fe4  1  0.170644  0.829356  0.500000  1
  Fe  Fe5  1  0.341459  0.658541  1.000000  1
  O  O6  1  0.396407  0.603593  0.500000  1
  F  F7  1  0.704235  0.697747  0.000000  1
  F  F8  1  0.970794  0.628569  1.000000  1
  F  F9  1  0.302253  0.295765  0.000000  1
  F  F10  1  0.598981  0.401019  0.500000  1
  F  F11  1  0.734819  0.265181  0.500000  1
  F  F12  1  0.071102  0.928898  0.500000  1
  F  F13  1  0.371431  0.029206  1.000000  1
  F  F14  1  0.625230  0.958465  0.000000  1
  F  F15  1  0.933682  0.066318  0.500000  1
  F  F16  1  0.275436  0.724564  0.500000  1
  F  F17  1  0.041535  0.374770  0.000000  1
