# generated using pymatgen
data_Li4V3Cu3(SbO8)2
_symmetry_space_group_name_H-M   'P 1'
_cell_length_a   5.92769571
_cell_length_b   5.96750304
_cell_length_c   9.81626391
_cell_angle_alpha   92.65487192
_cell_angle_beta   90.38819006
_cell_angle_gamma   118.76716185
_symmetry_Int_Tables_number   1
_chemical_formula_structural   Li4V3Cu3(SbO8)2
_chemical_formula_sum   'Li4 V3 Cu3 Sb2 O16'
_cell_volume   303.88681005
_cell_formula_units_Z   1
loop_
 _symmetry_equiv_pos_site_id
 _symmetry_equiv_pos_as_xyz
  1  'x, y, z'
loop_
 _atom_site_type_symbol
 _atom_site_label
 _atom_site_symmetry_multiplicity
 _atom_site_fract_x
 _atom_site_fract_y
 _atom_site_fract_z
 _atom_site_occupancy
  Li  Li0  1  0.328888  0.669537  0.910659  1
  Li  Li1  1  0.006795  0.011315  0.992422  1
  Li  Li2  1  0.996650  0.998191  0.479767  1
  Li  Li3  1  0.659012  0.306444  0.400720  1
  V  V4  1  0.176295  0.348528  0.221995  1
  V  V5  1  0.826477  0.175579  0.720066  1
  V  V6  1  0.338723  0.183557  0.710729  1
  Cu  Cu7  1  0.658495  0.829331  0.208195  1
  Cu  Cu8  1  0.168629  0.828373  0.208786  1
  Cu  Cu9  1  0.829126  0.662976  0.708878  1
  Sb  Sb10  1  0.341407  0.668273  0.484888  1
  Sb  Sb11  1  0.670188  0.345599  0.992756  1
  O  O12  1  0.679420  0.841545  0.591275  1
  O  O13  1  0.476468  0.941257  0.346654  1
  O  O14  1  0.320840  0.640756  0.115432  1
  O  O15  1  0.004361  0.011246  0.290654  1
  O  O16  1  0.997466  0.013062  0.798910  1
  O  O17  1  0.200982  0.869042  0.594698  1
  O  O18  1  0.454721  0.468401  0.359722  1
  O  O19  1  0.024457  0.479598  0.361140  1
  O  O20  1  0.838717  0.691720  0.084571  1
  O  O21  1  0.171107  0.341745  0.607678  1
  O  O22  1  0.956281  0.478051  0.845221  1
  O  O23  1  0.481852  0.450514  0.844220  1
  O  O24  1  0.668072  0.315040  0.610060  1
  O  O25  1  0.853270  0.197569  0.088911  1
  O  O26  1  0.527243  0.042130  0.839406  1
  O  O27  1  0.344358  0.190620  0.089425  1
