# generated using pymatgen
data_LiVCrP2(O4F)2
_symmetry_space_group_name_H-M   'P 1'
_cell_length_a   5.16306364
_cell_length_b   7.33087909
_cell_length_c   14.65600207
_cell_angle_alpha   92.04194224
_cell_angle_beta   93.53204720
_cell_angle_gamma   106.09823789
_symmetry_Int_Tables_number   1
_chemical_formula_structural   LiVCrP2(O4F)2
_chemical_formula_sum   'Li3 V3 Cr3 P6 O24 F6'
_cell_volume   531.15786278
_cell_formula_units_Z   3
loop_
 _symmetry_equiv_pos_site_id
 _symmetry_equiv_pos_as_xyz
  1  'x, y, z'
loop_
 _atom_site_type_symbol
 _atom_site_label
 _atom_site_symmetry_multiplicity
 _atom_site_fract_x
 _atom_site_fract_y
 _atom_site_fract_z
 _atom_site_occupancy
  Li  Li0  1  0.069538  0.327430  0.145997  1
  Li  Li1  1  0.401225  0.658175  0.478149  1
  Li  Li2  1  0.932327  0.674120  0.853026  1
  V  V3  1  0.999756  0.000033  0.999770  1
  V  V4  1  0.333423  0.328113  0.334855  1
  V  V5  1  0.666063  0.666651  0.666374  1
  Cr  Cr6  1  0.004656  0.003156  0.500574  1
  Cr  Cr7  1  0.326987  0.329044  0.832068  1
  Cr  Cr8  1  0.671627  0.669875  0.167039  1
  P  P9  1  0.270401  0.945745  0.706683  1
  P  P10  1  0.062141  0.387067  0.626637  1
  P  P11  1  0.400207  0.716669  0.962902  1
  P  P12  1  0.599055  0.282841  0.036982  1
  P  P13  1  0.932701  0.614237  0.371167  1
  P  P14  1  0.729892  0.051385  0.294266  1
  O  O15  1  0.092436  0.776629  0.440016  1
  O  O16  1  0.233024  0.867431  0.954136  1
  O  O17  1  0.251973  0.995615  0.607020  1
  O  O18  1  0.079212  0.336929  0.726430  1
  O  O19  1  0.106602  0.467780  0.381935  1
  O  O20  1  0.239481  0.557600  0.892832  1
  O  O21  1  0.011363  0.163211  0.261913  1
  O  O22  1  0.449560  0.802364  0.713240  1
  O  O23  1  0.343337  0.496522  0.593668  1
  O  O24  1  0.404032  0.655727  0.061035  1
  O  O25  1  0.583789  0.889222  0.225882  1
  O  O26  1  0.690644  0.807485  0.932355  1
  O  O27  1  0.308967  0.192431  0.068019  1
  O  O28  1  0.415656  0.111789  0.773522  1
  O  O29  1  0.594194  0.343303  0.938964  1
  O  O30  1  0.642961  0.526076  0.402131  1
  O  O31  1  0.556769  0.199806  0.289234  1
  O  O32  1  0.989527  0.836734  0.740088  1
  O  O33  1  0.759979  0.442348  0.107165  1
  O  O34  1  0.883761  0.531123  0.620597  1
  O  O35  1  0.928521  0.665922  0.271654  1
  O  O36  1  0.746015  0.993206  0.392650  1
  O  O37  1  0.767325  0.132933  0.046371  1
  O  O38  1  0.917280  0.221340  0.559865  1
  F  F39  1  0.035489  0.154025  0.894549  1
  F  F40  1  0.369893  0.486297  0.224873  1
  F  F41  1  0.298083  0.177132  0.440263  1
  F  F42  1  0.700742  0.821524  0.557180  1
  F  F43  1  0.630148  0.511508  0.775956  1
  F  F44  1  0.962816  0.845903  0.105476  1
