# generated using pymatgen
data_P2WO8
_symmetry_space_group_name_H-M   'P 1'
_cell_length_a   5.24462576
_cell_length_b   7.20665214
_cell_length_c   9.51935014
_cell_angle_alpha   90.00000000
_cell_angle_beta   122.69239451
_cell_angle_gamma   90.00000000
_symmetry_Int_Tables_number   1
_chemical_formula_structural   P2WO8
_chemical_formula_sum   'P4 W2 O16'
_cell_volume   302.79733846
_cell_formula_units_Z   2
loop_
 _symmetry_equiv_pos_site_id
 _symmetry_equiv_pos_as_xyz
  1  'x, y, z'
loop_
 _atom_site_type_symbol
 _atom_site_label
 _atom_site_symmetry_multiplicity
 _atom_site_fract_x
 _atom_site_fract_y
 _atom_site_fract_z
 _atom_site_occupancy
  P  P0  1  0.296754  0.165851  0.791888  1
  P  P1  1  0.703246  0.665851  0.708112  1
  P  P2  1  0.296754  0.334149  0.291888  1
  P  P3  1  0.703246  0.834149  0.208112  1
  W  W4  1  0.000000  0.000000  0.000000  1
  W  W5  1  0.000000  0.500000  0.500000  1
  O  O6  1  0.654324  0.164714  0.920742  1
  O  O7  1  0.169257  0.166051  0.910197  1
  O  O8  1  0.812452  0.512792  0.827757  1
  O  O9  1  0.782875  0.866827  0.788795  1
  O  O10  1  0.217125  0.366827  0.711205  1
  O  O11  1  0.187548  0.012792  0.672243  1
  O  O12  1  0.830743  0.666051  0.589803  1
  O  O13  1  0.345676  0.664714  0.579258  1
  O  O14  1  0.654324  0.335286  0.420742  1
  O  O15  1  0.169257  0.333949  0.410197  1
  O  O16  1  0.812452  0.987208  0.327757  1
  O  O17  1  0.782875  0.633173  0.288795  1
  O  O18  1  0.217125  0.133173  0.211205  1
  O  O19  1  0.187548  0.487208  0.172243  1
  O  O20  1  0.830743  0.833949  0.089803  1
  O  O21  1  0.345676  0.835286  0.079258  1
