# generated using pymatgen
data_FeOF
_symmetry_space_group_name_H-M   'P 1'
_cell_length_a   6.20982199
_cell_length_b   9.47776003
_cell_length_c   9.47954418
_cell_angle_alpha   89.62634906
_cell_angle_beta   89.69574607
_cell_angle_gamma   89.88783777
_symmetry_Int_Tables_number   1
_chemical_formula_structural   FeOF
_chemical_formula_sum   'Fe16 O16 F16'
_cell_volume   557.89973275
_cell_formula_units_Z   16
loop_
 _symmetry_equiv_pos_site_id
 _symmetry_equiv_pos_as_xyz
  1  'x, y, z'
loop_
 _atom_site_type_symbol
 _atom_site_label
 _atom_site_symmetry_multiplicity
 _atom_site_fract_x
 _atom_site_fract_y
 _atom_site_fract_z
 _atom_site_occupancy
  Fe  Fe0  1  0.981837  0.739354  0.759271  1
  Fe  Fe1  1  0.516083  0.759743  0.740487  1
  Fe  Fe2  1  0.000741  0.748623  0.248484  1
  Fe  Fe3  1  0.501437  0.750471  0.250261  1
  Fe  Fe4  1  0.731026  0.016336  0.519709  1
  Fe  Fe5  1  0.268974  0.983664  0.480291  1
  Fe  Fe6  1  0.774156  0.989309  0.989499  1
  Fe  Fe7  1  0.225844  0.010691  0.010501  1
  Fe  Fe8  1  0.018163  0.260646  0.240729  1
  Fe  Fe9  1  0.483917  0.240257  0.259513  1
  Fe  Fe10  1  0.999259  0.251377  0.751516  1
  Fe  Fe11  1  0.498563  0.249529  0.749739  1
  Fe  Fe12  1  0.773892  0.509625  0.509507  1
  Fe  Fe13  1  0.226108  0.490375  0.490493  1
  Fe  Fe14  1  0.766698  0.518408  0.015773  1
  Fe  Fe15  1  0.233302  0.481592  0.984227  1
  O  O16  1  0.256057  0.839265  0.337929  1
  O  O17  1  0.747363  0.846602  0.845976  1
  O  O18  1  0.494827  0.903451  0.596446  1
  O  O19  1  0.999987  0.899169  0.099024  1
  O  O20  1  0.505173  0.096549  0.403554  1
  O  O21  1  0.000013  0.100831  0.900976  1
  O  O22  1  0.252637  0.153398  0.154024  1
  O  O23  1  0.743943  0.160735  0.662071  1
  O  O24  1  0.251719  0.346733  0.347203  1
  O  O25  1  0.259570  0.339643  0.840033  1
  O  O26  1  0.999260  0.400711  0.600831  1
  O  O27  1  0.995870  0.403760  0.096394  1
  O  O28  1  0.000740  0.599289  0.399169  1
  O  O29  1  0.004130  0.596240  0.903606  1
  O  O30  1  0.748281  0.653267  0.652797  1
  O  O31  1  0.740430  0.660357  0.159967  1
  F  F32  1  0.749446  0.852612  0.353778  1
  F  F33  1  0.252369  0.847031  0.847210  1
  F  F34  1  0.004585  0.904535  0.595845  1
  F  F35  1  0.500418  0.905291  0.095074  1
  F  F36  1  0.995415  0.095465  0.404155  1
  F  F37  1  0.499582  0.094709  0.904926  1
  F  F38  1  0.250554  0.147388  0.646222  1
  F  F39  1  0.747631  0.152969  0.152790  1
  F  F40  1  0.747349  0.346705  0.346536  1
  F  F41  1  0.737176  0.355131  0.854435  1
  F  F42  1  0.499392  0.405214  0.594995  1
  F  F43  1  0.504117  0.403122  0.096641  1
  F  F44  1  0.500608  0.594786  0.405005  1
  F  F45  1  0.495883  0.596878  0.903359  1
  F  F46  1  0.252651  0.653295  0.653464  1
  F  F47  1  0.262824  0.644869  0.145565  1
