# generated using pymatgen
data_Li3Cu3(PO4)2
_symmetry_space_group_name_H-M   'P 1'
_cell_length_a   5.10969049
_cell_length_b   5.38556304
_cell_length_c   6.27620056
_cell_angle_alpha   90.17964523
_cell_angle_beta   90.08272643
_cell_angle_gamma   90.02668412
_symmetry_Int_Tables_number   1
_chemical_formula_structural   Li3Cu3(PO4)2
_chemical_formula_sum   'Li3 Cu3 P2 O8'
_cell_volume   172.71095507
_cell_formula_units_Z   1
loop_
 _symmetry_equiv_pos_site_id
 _symmetry_equiv_pos_as_xyz
  1  'x, y, z'
loop_
 _atom_site_type_symbol
 _atom_site_label
 _atom_site_symmetry_multiplicity
 _atom_site_fract_x
 _atom_site_fract_y
 _atom_site_fract_z
 _atom_site_occupancy
  Li  Li0  1  0.994244  0.327315  0.752882  1
  Li  Li1  1  0.492031  0.673357  0.748494  1
  Li  Li2  1  0.491836  0.674707  0.251632  1
  Cu  Cu3  1  0.491364  0.173354  0.000656  1
  Cu  Cu4  1  0.998186  0.827160  0.499448  1
  Cu  Cu5  1  0.996421  0.331175  0.245094  1
  P  P6  1  0.999200  0.819914  0.995153  1
  P  P7  1  0.499080  0.176640  0.505366  1
  O  O8  1  0.907953  0.096151  0.985247  1
  O  O9  1  0.302713  0.803500  0.999997  1
  O  O10  1  0.888421  0.678042  0.796842  1
  O  O11  1  0.384438  0.315790  0.703244  1
  O  O12  1  0.802632  0.187913  0.513872  1
  O  O13  1  0.408619  0.899673  0.501115  1
  O  O14  1  0.404877  0.316781  0.300352  1
  O  O15  1  0.880577  0.698526  0.200608  1
