# generated using pymatgen
data_Li2Mn3(BO3)3
_symmetry_space_group_name_H-M   'P 1'
_cell_length_a   5.26676140
_cell_length_b   8.25261404
_cell_length_c   9.29052862
_cell_angle_alpha   104.26780780
_cell_angle_beta   106.18888474
_cell_angle_gamma   91.39363890
_symmetry_Int_Tables_number   1
_chemical_formula_structural   Li2Mn3(BO3)3
_chemical_formula_sum   'Li4 Mn6 B6 O18'
_cell_volume   373.95256419
_cell_formula_units_Z   2
loop_
 _symmetry_equiv_pos_site_id
 _symmetry_equiv_pos_as_xyz
  1  'x, y, z'
loop_
 _atom_site_type_symbol
 _atom_site_label
 _atom_site_symmetry_multiplicity
 _atom_site_fract_x
 _atom_site_fract_y
 _atom_site_fract_z
 _atom_site_occupancy
  Li  Li0  1  0.681826  0.294374  0.040831  1
  Li  Li1  1  0.337659  0.957424  0.361177  1
  Li  Li2  1  0.662341  0.042576  0.638823  1
  Li  Li3  1  0.318174  0.705626  0.959169  1
  Mn  Mn4  1  0.789989  0.034034  0.215316  1
  Mn  Mn5  1  0.880798  0.633492  0.120494  1
  Mn  Mn6  1  0.550544  0.311156  0.443643  1
  Mn  Mn7  1  0.449456  0.688844  0.556357  1
  Mn  Mn8  1  0.119202  0.366508  0.879506  1
  Mn  Mn9  1  0.210011  0.965966  0.784684  1
  B  B10  1  0.222475  0.144331  0.104020  1
  B  B11  1  0.437425  0.523399  0.222209  1
  B  B12  1  0.106400  0.174251  0.554097  1
  B  B13  1  0.893600  0.825749  0.445903  1
  B  B14  1  0.562575  0.476601  0.777791  1
  B  B15  1  0.777525  0.855669  0.895980  1
  O  O16  1  0.964870  0.161718  0.100190  1
  O  O17  1  0.684458  0.825477  0.016740  1
  O  O18  1  0.250384  0.570220  0.102483  1
  O  O19  1  0.407197  0.104321  0.228324  1
  O  O20  1  0.682249  0.490073  0.209112  1
  O  O21  1  0.367591  0.499802  0.349985  1
  O  O22  1  0.904249  0.203146  0.432906  1
  O  O23  1  0.969595  0.846445  0.316925  1
  O  O24  1  0.359476  0.153185  0.546323  1
  O  O25  1  0.640524  0.846815  0.453677  1
  O  O26  1  0.030405  0.153555  0.683075  1
  O  O27  1  0.095751  0.796854  0.567094  1
  O  O28  1  0.632409  0.500198  0.650015  1
  O  O29  1  0.317751  0.509927  0.790888  1
  O  O30  1  0.592803  0.895679  0.771676  1
  O  O31  1  0.749616  0.429780  0.897517  1
  O  O32  1  0.315542  0.174523  0.983260  1
  O  O33  1  0.035130  0.838282  0.899810  1
