# generated using pymatgen
data_Li4AlCr3O8
_symmetry_space_group_name_H-M   'P 1'
_cell_length_a   5.10998224
_cell_length_b   7.75798227
_cell_length_c   7.76484294
_cell_angle_alpha   81.76656088
_cell_angle_beta   71.03584291
_cell_angle_gamma   83.80274869
_symmetry_Int_Tables_number   1
_chemical_formula_structural   Li4AlCr3O8
_chemical_formula_sum   'Li8 Al2 Cr6 O16'
_cell_volume   287.49342191
_cell_formula_units_Z   2
loop_
 _symmetry_equiv_pos_site_id
 _symmetry_equiv_pos_as_xyz
  1  'x, y, z'
loop_
 _atom_site_type_symbol
 _atom_site_label
 _atom_site_symmetry_multiplicity
 _atom_site_fract_x
 _atom_site_fract_y
 _atom_site_fract_z
 _atom_site_occupancy
  Li  Li0  1  0.000000  0.000000  0.000000  1
  Li  Li1  1  0.999542  0.250640  0.251083  1
  Li  Li2  1  0.999630  0.624770  0.126301  1
  Li  Li3  1  0.000035  0.125864  0.624574  1
  Li  Li4  1  0.000000  0.500000  0.500000  1
  Li  Li5  1  0.999965  0.874136  0.375426  1
  Li  Li6  1  0.000370  0.375230  0.873699  1
  Li  Li7  1  0.000458  0.749360  0.748917  1
  Al  Al8  1  0.499986  0.314521  0.561671  1
  Al  Al9  1  0.500014  0.685479  0.438329  1
  Cr  Cr10  1  0.500243  0.061521  0.314461  1
  Cr  Cr11  1  0.500627  0.437840  0.190600  1
  Cr  Cr12  1  0.500360  0.811617  0.064285  1
  Cr  Cr13  1  0.499640  0.188383  0.935715  1
  Cr  Cr14  1  0.499373  0.562160  0.809400  1
  Cr  Cr15  1  0.499757  0.938479  0.685539  1
  O  O16  1  0.272689  0.030596  0.151800  1
  O  O17  1  0.726963  0.219456  0.098763  1
  O  O18  1  0.272758  0.406098  0.027295  1
  O  O19  1  0.721871  0.104059  0.475973  1
  O  O20  1  0.280051  0.280883  0.408311  1
  O  O21  1  0.279752  0.656266  0.283659  1
  O  O22  1  0.717162  0.471750  0.358513  1
  O  O23  1  0.278306  0.162317  0.767865  1
  O  O24  1  0.282838  0.528250  0.641487  1
  O  O25  1  0.721694  0.837683  0.232135  1
  O  O26  1  0.720248  0.343734  0.716341  1
  O  O27  1  0.278129  0.895941  0.524027  1
  O  O28  1  0.719949  0.719117  0.591689  1
  O  O29  1  0.273037  0.780544  0.901237  1
  O  O30  1  0.727242  0.593902  0.972705  1
  O  O31  1  0.727311  0.969404  0.848200  1
