# generated using pymatgen
data_Li3CoPCO7
_symmetry_space_group_name_H-M   'P 1'
_cell_length_a   4.90606300
_cell_length_b   6.37238142
_cell_length_c   8.56552547
_cell_angle_alpha   90.00000000
_cell_angle_beta   95.31095770
_cell_angle_gamma   90.00000000
_symmetry_Int_Tables_number   1
_chemical_formula_structural   Li3CoPCO7
_chemical_formula_sum   'Li6 Co2 P2 C2 O14'
_cell_volume   266.63702873
_cell_formula_units_Z   2
loop_
 _symmetry_equiv_pos_site_id
 _symmetry_equiv_pos_as_xyz
  1  'x, y, z'
loop_
 _atom_site_type_symbol
 _atom_site_label
 _atom_site_symmetry_multiplicity
 _atom_site_fract_x
 _atom_site_fract_y
 _atom_site_fract_z
 _atom_site_occupancy
  Li  Li0  1  0.773266  0.263248  0.893327  1
  Li  Li1  1  0.236913  0.485618  0.714483  1
  Li  Li2  1  0.776417  0.742776  0.644828  1
  Li  Li3  1  0.223583  0.242776  0.355172  1
  Li  Li4  1  0.763087  0.985618  0.285517  1
  Li  Li5  1  0.226734  0.763248  0.106673  1
  Co  Co6  1  0.255540  0.004208  0.737695  1
  Co  Co7  1  0.744460  0.504208  0.262305  1
  P  P8  1  0.722257  0.247859  0.590724  1
  P  P9  1  0.277743  0.747859  0.409276  1
  C  C10  1  0.703168  0.758736  0.959246  1
  C  C11  1  0.296832  0.258736  0.040754  1
  O  O12  1  0.955163  0.757720  0.932985  1
  O  O13  1  0.367141  0.240821  0.895792  1
  O  O14  1  0.507845  0.773764  0.846362  1
  O  O15  1  0.844940  0.054700  0.685132  1
  O  O16  1  0.821338  0.439314  0.690947  1
  O  O17  1  0.191669  0.751003  0.578088  1
  O  O18  1  0.402130  0.230231  0.582782  1
  O  O19  1  0.597870  0.730231  0.417218  1
  O  O20  1  0.808331  0.251003  0.421912  1
  O  O21  1  0.178662  0.939314  0.309053  1
  O  O22  1  0.155060  0.554700  0.314868  1
  O  O23  1  0.492155  0.273764  0.153638  1
  O  O24  1  0.632859  0.740821  0.104208  1
  O  O25  1  0.044837  0.257720  0.067015  1
