# generated using pymatgen
data_Li2Cu2F7
_symmetry_space_group_name_H-M   'P 1'
_cell_length_a   7.49047531
_cell_length_b   5.06350116
_cell_length_c   12.91262351
_cell_angle_alpha   90.00000000
_cell_angle_beta   97.56873289
_cell_angle_gamma   90.00000000
_symmetry_Int_Tables_number   1
_chemical_formula_structural   Li2Cu2F7
_chemical_formula_sum   'Li8 Cu8 F28'
_cell_volume   485.48346002
_cell_formula_units_Z   4
loop_
 _symmetry_equiv_pos_site_id
 _symmetry_equiv_pos_as_xyz
  1  'x, y, z'
loop_
 _atom_site_type_symbol
 _atom_site_label
 _atom_site_symmetry_multiplicity
 _atom_site_fract_x
 _atom_site_fract_y
 _atom_site_fract_z
 _atom_site_occupancy
  Li  Li0  1  0.858262  0.264777  0.443725  1
  Li  Li1  1  0.777830  0.775095  0.097939  1
  Li  Li2  1  0.709290  0.241160  0.863463  1
  Li  Li3  1  0.604478  0.799190  0.571702  1
  Li  Li4  1  0.395522  0.299190  0.428298  1
  Li  Li5  1  0.290710  0.741160  0.136537  1
  Li  Li6  1  0.222170  0.275095  0.902061  1
  Li  Li7  1  0.141738  0.764777  0.556275  1
  Cu  Cu8  1  0.975271  0.762346  0.893593  1
  Cu  Cu9  1  0.920371  0.253937  0.681574  1
  Cu  Cu10  1  0.584633  0.770302  0.317003  1
  Cu  Cu11  1  0.527289  0.265526  0.108810  1
  Cu  Cu12  1  0.472711  0.765526  0.891190  1
  Cu  Cu13  1  0.415367  0.270302  0.682997  1
  Cu  Cu14  1  0.079629  0.753937  0.318426  1
  Cu  Cu15  1  0.024729  0.262346  0.106407  1
  F  F16  1  0.982295  0.945243  0.186723  1
  F  F17  1  0.943595  0.528270  0.586738  1
  F  F18  1  0.834424  0.621906  0.332835  1
  F  F19  1  0.772673  0.402830  0.119320  1
  F  F20  1  0.927655  0.073957  0.979194  1
  F  F21  1  0.878525  0.974405  0.777973  1
  F  F22  1  0.821059  0.040776  0.569459  1
  F  F23  1  0.610489  0.929848  0.179270  1
  F  F24  1  0.632717  0.095512  0.383818  1
  F  F25  1  0.722100  0.619316  0.913984  1
  F  F26  1  0.679007  0.387376  0.708164  1
  F  F27  1  0.562680  0.595405  0.444702  1
  F  F28  1  0.481579  0.468910  0.232989  1
  F  F29  1  0.430911  0.576403  0.025058  1
  F  F30  1  0.569089  0.076403  0.974942  1
  F  F31  1  0.518421  0.968910  0.767011  1
  F  F32  1  0.437320  0.095405  0.555298  1
  F  F33  1  0.320993  0.887376  0.291836  1
  F  F34  1  0.277900  0.119316  0.086016  1
  F  F35  1  0.367283  0.595512  0.616182  1
  F  F36  1  0.389511  0.429848  0.820730  1
  F  F37  1  0.178941  0.540776  0.430541  1
  F  F38  1  0.121475  0.474405  0.222027  1
  F  F39  1  0.072345  0.573957  0.020806  1
  F  F40  1  0.227327  0.902830  0.880680  1
  F  F41  1  0.165576  0.121906  0.667165  1
  F  F42  1  0.056405  0.028270  0.413262  1
  F  F43  1  0.017705  0.445243  0.813277  1
