# generated using pymatgen
data_Li2TiFe2O5
_symmetry_space_group_name_H-M   'P 1'
_cell_length_a   7.97832290
_cell_length_b   7.97832290
_cell_length_c   5.13225873
_cell_angle_alpha   84.26404720
_cell_angle_beta   95.73595280
_cell_angle_gamma   37.54650294
_symmetry_Int_Tables_number   1
_chemical_formula_structural   Li2TiFe2O5
_chemical_formula_sum   'Li4 Ti2 Fe4 O10'
_cell_volume   189.24100122
_cell_formula_units_Z   2
loop_
 _symmetry_equiv_pos_site_id
 _symmetry_equiv_pos_as_xyz
  1  'x, y, z'
loop_
 _atom_site_type_symbol
 _atom_site_label
 _atom_site_symmetry_multiplicity
 _atom_site_fract_x
 _atom_site_fract_y
 _atom_site_fract_z
 _atom_site_occupancy
  Li  Li0  1  0.749369  0.749369  0.250000  1
  Li  Li1  1  0.552450  0.552450  0.250000  1
  Li  Li2  1  0.250631  0.250631  0.750000  1
  Li  Li3  1  0.447550  0.447550  0.750000  1
  Ti  Ti4  1  0.646554  0.646554  0.750000  1
  Ti  Ti5  1  0.353446  0.353446  0.250000  1
  Fe  Fe6  1  0.152944  0.152944  0.250000  1
  Fe  Fe7  1  0.954079  0.954079  0.250000  1
  Fe  Fe8  1  0.847056  0.847056  0.750000  1
  Fe  Fe9  1  0.045921  0.045921  0.750000  1
  O  O10  1  0.599559  0.105451  0.021071  1
  O  O11  1  0.894549  0.400441  0.521071  1
  O  O12  1  1.000000  0.500000  0.000000  1
  O  O13  1  0.674606  0.209587  0.485570  1
  O  O14  1  0.790413  0.325394  0.985570  1
  O  O15  1  0.400441  0.894549  0.978929  1
  O  O16  1  0.209587  0.674606  0.014430  1
  O  O17  1  0.105451  0.599559  0.478929  1
  O  O18  1  0.500000  0.000000  0.500000  1
  O  O19  1  0.325394  0.790413  0.514430  1
