# generated using pymatgen
data_Li4FeO3
_symmetry_space_group_name_H-M   'P 1'
_cell_length_a   5.67430670
_cell_length_b   5.67430670
_cell_length_c   6.97105783
_cell_angle_alpha   71.48004401
_cell_angle_beta   108.51995599
_cell_angle_gamma   126.05234524
_symmetry_Int_Tables_number   1
_chemical_formula_structural   Li4FeO3
_chemical_formula_sum   'Li8 Fe2 O6'
_cell_volume   169.54853557
_cell_formula_units_Z   2
loop_
 _symmetry_equiv_pos_site_id
 _symmetry_equiv_pos_as_xyz
  1  'x, y, z'
loop_
 _atom_site_type_symbol
 _atom_site_label
 _atom_site_symmetry_multiplicity
 _atom_site_fract_x
 _atom_site_fract_y
 _atom_site_fract_z
 _atom_site_occupancy
  Li  Li0  1  0.035898  0.266972  0.066890  1
  Li  Li1  1  0.733028  0.964102  0.566890  1
  Li  Li2  1  0.123203  0.570615  0.358222  1
  Li  Li3  1  0.482769  0.081383  0.161862  1
  Li  Li4  1  0.429385  0.876797  0.858222  1
  Li  Li5  1  0.918617  0.517231  0.661862  1
  Li  Li6  1  0.285658  0.016859  0.472804  1
  Li  Li7  1  0.983141  0.714342  0.972804  1
  Fe  Fe8  1  0.659632  0.623053  0.250058  1
  Fe  Fe9  1  0.376947  0.340368  0.750058  1
  O  O10  1  0.329369  0.660690  0.139200  1
  O  O11  1  0.339310  0.670631  0.639200  1
  O  O12  1  0.700194  0.296793  0.407892  1
  O  O13  1  0.053317  0.923382  0.193722  1
  O  O14  1  0.703207  0.299806  0.907892  1
  O  O15  1  0.076618  0.946683  0.693722  1
