# generated using pymatgen
data_Na2NiPCO7
_symmetry_space_group_name_H-M   'P 1'
_cell_length_a   5.15825381
_cell_length_b   6.60390807
_cell_length_c   8.97295662
_cell_angle_alpha   88.97478467
_cell_angle_beta   88.27593218
_cell_angle_gamma   89.74424070
_symmetry_Int_Tables_number   1
_chemical_formula_structural   Na2NiPCO7
_chemical_formula_sum   'Na4 Ni2 P2 C2 O14'
_cell_volume   305.47084812
_cell_formula_units_Z   2
loop_
 _symmetry_equiv_pos_site_id
 _symmetry_equiv_pos_as_xyz
  1  'x, y, z'
loop_
 _atom_site_type_symbol
 _atom_site_label
 _atom_site_symmetry_multiplicity
 _atom_site_fract_x
 _atom_site_fract_y
 _atom_site_fract_z
 _atom_site_occupancy
  Na  Na0  1  0.750023  0.015142  0.736504  1
  Na  Na1  1  0.749528  0.481430  0.736533  1
  Na  Na2  1  0.248416  0.980550  0.266729  1
  Na  Na3  1  0.787086  0.726454  0.087026  1
  Ni  Ni4  1  0.224157  0.750647  0.652575  1
  Ni  Ni5  1  0.779616  0.258644  0.342502  1
  P  P6  1  0.279199  0.251928  0.572557  1
  P  P7  1  0.715054  0.752386  0.421028  1
  C  C8  1  0.289837  0.752912  0.929611  1
  C  C9  1  0.711225  0.248656  0.072896  1
  O  O10  1  0.680435  0.243839  0.934443  1
  O  O11  1  0.064187  0.747610  0.866423  1
  O  O12  1  0.491293  0.746214  0.838084  1
  O  O13  1  0.216605  0.063660  0.674675  1
  O  O14  1  0.212638  0.437753  0.670095  1
  O  O15  1  0.858446  0.752051  0.569571  1
  O  O16  1  0.578796  0.250460  0.535326  1
  O  O17  1  0.417704  0.760595  0.460856  1
  O  O18  1  0.130099  0.245882  0.427431  1
  O  O19  1  0.776946  0.566159  0.324480  1
  O  O20  1  0.785232  0.937188  0.317465  1
  O  O21  1  0.522120  0.251935  0.172241  1
  O  O22  1  0.938389  0.254216  0.131959  1
  O  O23  1  0.308903  0.763847  0.069312  1
