# generated using pymatgen
data_LiMn(PO3)3
_symmetry_space_group_name_H-M   'P 1'
_cell_length_a   9.55095754
_cell_length_b   9.60382162
_cell_length_c   9.85807998
_cell_angle_alpha   108.70033300
_cell_angle_beta   104.49234000
_cell_angle_gamma   109.87710396
_symmetry_Int_Tables_number   1
_chemical_formula_structural   LiMn(PO3)3
_chemical_formula_sum   'Li4 Mn4 P12 O36'
_cell_volume   737.06062425
_cell_formula_units_Z   4
loop_
 _symmetry_equiv_pos_site_id
 _symmetry_equiv_pos_as_xyz
  1  'x, y, z'
loop_
 _atom_site_type_symbol
 _atom_site_label
 _atom_site_symmetry_multiplicity
 _atom_site_fract_x
 _atom_site_fract_y
 _atom_site_fract_z
 _atom_site_occupancy
  Li  Li0  1  0.229924  0.772166  0.747316  1
  Li  Li1  1  0.932007  0.687408  0.790347  1
  Li  Li2  1  0.067993  0.312592  0.209653  1
  Li  Li3  1  0.770076  0.227834  0.252684  1
  Mn  Mn4  1  0.671917  0.071530  0.493029  1
  Mn  Mn5  1  0.625794  0.823541  0.702578  1
  Mn  Mn6  1  0.374206  0.176459  0.297422  1
  Mn  Mn7  1  0.328083  0.928470  0.506971  1
  P  P8  1  0.193338  0.082004  0.912508  1
  P  P9  1  0.517082  0.146838  0.892874  1
  P  P10  1  0.012850  0.396798  0.647958  1
  P  P11  1  0.955948  0.213769  0.841548  1
  P  P12  1  0.578742  0.341230  0.711522  1
  P  P13  1  0.324669  0.432808  0.596192  1
  P  P14  1  0.675331  0.567192  0.403808  1
  P  P15  1  0.421258  0.658770  0.288478  1
  P  P16  1  0.044052  0.786231  0.158452  1
  P  P17  1  0.987150  0.603202  0.352042  1
  P  P18  1  0.482918  0.853162  0.107126  1
  P  P19  1  0.806662  0.917996  0.087492  1
  O  O20  1  0.046454  0.730697  0.002261  1
  O  O21  1  0.363402  0.176646  0.901211  1
  O  O22  1  0.102602  0.169315  0.836407  1
  O  O23  1  0.008552  0.366286  0.798051  1
  O  O24  1  0.607010  0.298887  0.856860  1
  O  O25  1  0.376350  0.827945  0.955826  1
  O  O26  1  0.112552  0.902364  0.803621  1
  O  O27  1  0.040250  0.568314  0.682998  1
  O  O28  1  0.168260  0.373317  0.634466  1
  O  O29  1  0.432944  0.387579  0.714614  1
  O  O30  1  0.797632  0.069149  0.703802  1
  O  O31  1  0.779128  0.861744  0.917272  1
  O  O32  1  0.727032  0.478153  0.735587  1
  O  O33  1  0.507734  0.175966  0.559220  1
  O  O34  1  0.401984  0.616526  0.649079  1
  O  O35  1  0.457501  0.985264  0.745955  1
  O  O36  1  0.284525  0.317394  0.431219  1
  O  O37  1  0.135300  0.743409  0.494914  1
  O  O38  1  0.864700  0.256591  0.505086  1
  O  O39  1  0.715475  0.682606  0.568781  1
  O  O40  1  0.542499  0.014736  0.254045  1
  O  O41  1  0.598016  0.383474  0.350921  1
  O  O42  1  0.492266  0.824034  0.440780  1
  O  O43  1  0.272968  0.521847  0.264413  1
  O  O44  1  0.220872  0.138256  0.082728  1
  O  O45  1  0.202368  0.930851  0.296198  1
  O  O46  1  0.567056  0.612421  0.285386  1
  O  O47  1  0.831740  0.626683  0.365534  1
  O  O48  1  0.959750  0.431686  0.317002  1
  O  O49  1  0.887448  0.097636  0.196379  1
  O  O50  1  0.623650  0.172055  0.044174  1
  O  O51  1  0.392990  0.701113  0.143140  1
  O  O52  1  0.991448  0.633714  0.201949  1
  O  O53  1  0.897398  0.830685  0.163593  1
  O  O54  1  0.636598  0.823354  0.098789  1
  O  O55  1  0.953546  0.269303  0.997739  1
