# generated using pymatgen
data_Ba3GeO5
_symmetry_space_group_name_H-M   'P 1'
_cell_length_a   7.48652092
_cell_length_b   7.48652092
_cell_length_c   11.81206961
_cell_angle_alpha   90.00000000
_cell_angle_beta   90.00000000
_cell_angle_gamma   90.00000000
_symmetry_Int_Tables_number   1
_chemical_formula_structural   Ba3GeO5
_chemical_formula_sum   'Ba12 Ge4 O20'
_cell_volume   662.04282418
_cell_formula_units_Z   4
loop_
 _symmetry_equiv_pos_site_id
 _symmetry_equiv_pos_as_xyz
  1  'x, y, z'
loop_
 _atom_site_type_symbol
 _atom_site_label
 _atom_site_symmetry_multiplicity
 _atom_site_fract_x
 _atom_site_fract_y
 _atom_site_fract_z
 _atom_site_occupancy
  Ba  Ba0  1  0.000000  0.500000  0.997063  1
  Ba  Ba1  1  0.000000  0.500000  0.497063  1
  Ba  Ba2  1  0.186748  0.813252  0.750000  1
  Ba  Ba3  1  0.186748  0.186748  0.250000  1
  Ba  Ba4  1  0.313252  0.313252  0.750000  1
  Ba  Ba5  1  0.313252  0.686748  0.250000  1
  Ba  Ba6  1  0.500000  0.000000  0.002937  1
  Ba  Ba7  1  0.500000  0.000000  0.502937  1
  Ba  Ba8  1  0.686748  0.313252  0.250000  1
  Ba  Ba9  1  0.686748  0.686748  0.750000  1
  Ba  Ba10  1  0.813252  0.813252  0.250000  1
  Ba  Ba11  1  0.813252  0.186748  0.750000  1
  Ge  Ge12  1  0.000000  0.000000  0.000000  1
  Ge  Ge13  1  0.000000  0.000000  0.500000  1
  Ge  Ge14  1  0.500000  0.500000  0.000000  1
  Ge  Ge15  1  0.500000  0.500000  0.500000  1
  O  O16  1  0.000000  0.500000  0.219706  1
  O  O17  1  0.000000  0.500000  0.719706  1
  O  O18  1  0.103528  0.843004  0.407086  1
  O  O19  1  0.103528  0.156996  0.907086  1
  O  O20  1  0.156996  0.103528  0.592914  1
  O  O21  1  0.156996  0.896472  0.092914  1
  O  O22  1  0.343004  0.603528  0.907086  1
  O  O23  1  0.343004  0.396472  0.407086  1
  O  O24  1  0.396472  0.343004  0.092914  1
  O  O25  1  0.396472  0.656996  0.592914  1
  O  O26  1  0.500000  0.000000  0.280294  1
  O  O27  1  0.500000  0.000000  0.780294  1
  O  O28  1  0.603528  0.343004  0.592914  1
  O  O29  1  0.603528  0.656996  0.092914  1
  O  O30  1  0.656996  0.603528  0.407086  1
  O  O31  1  0.656996  0.396472  0.907086  1
  O  O32  1  0.843004  0.896472  0.592914  1
  O  O33  1  0.843004  0.103528  0.092914  1
  O  O34  1  0.896472  0.156996  0.407086  1
  O  O35  1  0.896472  0.843004  0.907086  1
