# generated using pymatgen
data_Mn9FeO10
_symmetry_space_group_name_H-M   'P 1'
_cell_length_a   7.16022369
_cell_length_b   7.16022369
_cell_length_c   10.59678241
_cell_angle_alpha   78.19941045
_cell_angle_beta   101.80058955
_cell_angle_gamma   154.37146700
_symmetry_Int_Tables_number   1
_chemical_formula_structural   Mn9FeO10
_chemical_formula_sum   'Mn9 Fe1 O10'
_cell_volume   229.76309084
_cell_formula_units_Z   1
loop_
 _symmetry_equiv_pos_site_id
 _symmetry_equiv_pos_as_xyz
  1  'x, y, z'
loop_
 _atom_site_type_symbol
 _atom_site_label
 _atom_site_symmetry_multiplicity
 _atom_site_fract_x
 _atom_site_fract_y
 _atom_site_fract_z
 _atom_site_occupancy
  Mn  Mn0  1  0.500000  0.500000  0.500000  1
  Mn  Mn1  1  0.899992  0.100008  0.700046  1
  Mn  Mn2  1  0.799779  0.200221  0.398924  1
  Mn  Mn3  1  0.399490  0.600510  0.197714  1
  Mn  Mn4  1  0.301404  0.698596  0.901624  1
  Mn  Mn5  1  0.200221  0.799779  0.601076  1
  Mn  Mn6  1  0.600510  0.399490  0.802286  1
  Mn  Mn7  1  0.698596  0.301404  0.098376  1
  Mn  Mn8  1  0.100008  0.899992  0.299954  1
  Fe  Fe9  1  0.000000  0.000000  0.000000  1
  O  O10  1  0.949956  0.050044  0.349165  1
  O  O11  1  0.050044  0.949956  0.650835  1
  O  O12  1  0.548402  0.451598  0.146006  1
  O  O13  1  0.451598  0.548402  0.853994  1
  O  O14  1  0.349889  0.650111  0.550396  1
  O  O15  1  0.750867  0.249133  0.750476  1
  O  O16  1  0.650111  0.349889  0.449604  1
  O  O17  1  0.850408  0.149592  0.049641  1
  O  O18  1  0.149592  0.850408  0.950359  1
  O  O19  1  0.249133  0.750867  0.249524  1
