# generated using pymatgen
data_Li2Co3NiO8
_symmetry_space_group_name_H-M   'P 1'
_cell_length_a   5.61053773
_cell_length_b   5.61053773
_cell_length_c   5.77609846
_cell_angle_alpha   61.63667030
_cell_angle_beta   118.36332970
_cell_angle_gamma   119.51241649
_symmetry_Int_Tables_number   1
_chemical_formula_structural   Li2Co3NiO8
_chemical_formula_sum   'Li2 Co3 Ni1 O8'
_cell_volume   132.15702902
_cell_formula_units_Z   1
loop_
 _symmetry_equiv_pos_site_id
 _symmetry_equiv_pos_as_xyz
  1  'x, y, z'
loop_
 _atom_site_type_symbol
 _atom_site_label
 _atom_site_symmetry_multiplicity
 _atom_site_fract_x
 _atom_site_fract_y
 _atom_site_fract_z
 _atom_site_occupancy
  Li  Li0  1  0.000000  0.500000  0.500000  1
  Li  Li1  1  0.500000  0.000000  0.500000  1
  Co  Co2  1  0.500000  0.500000  0.000000  1
  Co  Co3  1  1.000000  0.500000  0.000000  1
  Co  Co4  1  0.500000  0.000000  0.000000  1
  Ni  Ni5  1  0.000000  0.000000  0.000000  1
  O  O6  1  0.763479  0.737679  0.796228  1
  O  O7  1  0.262321  0.236521  0.796228  1
  O  O8  1  0.768126  0.231874  0.790592  1
  O  O9  1  0.267784  0.732216  0.790615  1
  O  O10  1  0.732216  0.267784  0.209385  1
  O  O11  1  0.231874  0.768126  0.209408  1
  O  O12  1  0.737679  0.763479  0.203772  1
  O  O13  1  0.236521  0.262321  0.203772  1
