# generated using pymatgen
data_Cr3(FeO6)2
_symmetry_space_group_name_H-M   'P 1'
_cell_length_a   8.76839603
_cell_length_b   9.15171650
_cell_length_c   15.11339625
_cell_angle_alpha   90.00000000
_cell_angle_beta   124.84290143
_cell_angle_gamma   90.00000000
_symmetry_Int_Tables_number   1
_chemical_formula_structural   Cr3(FeO6)2
_chemical_formula_sum   'Cr12 Fe8 O48'
_cell_volume   995.36111638
_cell_formula_units_Z   4
loop_
 _symmetry_equiv_pos_site_id
 _symmetry_equiv_pos_as_xyz
  1  'x, y, z'
loop_
 _atom_site_type_symbol
 _atom_site_label
 _atom_site_symmetry_multiplicity
 _atom_site_fract_x
 _atom_site_fract_y
 _atom_site_fract_z
 _atom_site_occupancy
  Cr  Cr0  1  0.545951  0.752519  0.508774  1
  Cr  Cr1  1  0.257554  0.621822  0.149114  1
  Cr  Cr2  1  0.970981  0.886870  0.857661  1
  Cr  Cr3  1  0.742446  0.121822  0.350886  1
  Cr  Cr4  1  0.029019  0.386870  0.642339  1
  Cr  Cr5  1  0.454049  0.252519  0.991226  1
  Cr  Cr6  1  0.545951  0.747481  0.008774  1
  Cr  Cr7  1  0.970981  0.613130  0.357661  1
  Cr  Cr8  1  0.257554  0.878178  0.649114  1
  Cr  Cr9  1  0.029019  0.113130  0.142339  1
  Cr  Cr10  1  0.742446  0.378178  0.850886  1
  Cr  Cr11  1  0.454049  0.247481  0.491226  1
  Fe  Fe12  1  0.368349  0.973649  0.115713  1
  Fe  Fe13  1  0.631651  0.473649  0.384287  1
  Fe  Fe14  1  0.871674  0.031614  0.619626  1
  Fe  Fe15  1  0.128326  0.531614  0.880374  1
  Fe  Fe16  1  0.871674  0.468386  0.119626  1
  Fe  Fe17  1  0.128326  0.968386  0.380374  1
  Fe  Fe18  1  0.368349  0.526351  0.615713  1
  Fe  Fe19  1  0.631651  0.026351  0.884287  1
  O  O20  1  0.623169  0.124007  0.553805  1
  O  O21  1  0.167100  0.109246  0.099738  1
  O  O22  1  0.462241  0.330400  0.395616  1
  O  O23  1  0.885091  0.427875  0.816950  1
  O  O24  1  0.517460  0.633090  0.417177  1
  O  O25  1  0.287308  0.803422  0.161493  1
  O  O26  1  0.160417  0.576434  0.021249  1
  O  O27  1  0.884507  0.000102  0.753241  1
  O  O28  1  0.985620  0.718687  0.820494  1
  O  O29  1  0.750339  0.835305  0.563962  1
  O  O30  1  0.459854  0.534115  0.228490  1
  O  O31  1  0.540146  0.034115  0.271510  1
  O  O32  1  0.185225  0.939194  0.956227  1
  O  O33  1  0.814775  0.439194  0.543773  1
  O  O34  1  0.249661  0.335305  0.936038  1
  O  O35  1  0.014380  0.218687  0.679506  1
  O  O36  1  0.839583  0.076434  0.478751  1
  O  O37  1  0.115493  0.500102  0.746759  1
  O  O38  1  0.712692  0.303422  0.338507  1
  O  O39  1  0.482540  0.133090  0.082823  1
  O  O40  1  0.537759  0.830400  0.104384  1
  O  O41  1  0.832900  0.609246  0.400262  1
  O  O42  1  0.114909  0.927875  0.683050  1
  O  O43  1  0.376831  0.624007  0.946195  1
  O  O44  1  0.623169  0.375993  0.053805  1
  O  O45  1  0.885091  0.072125  0.316950  1
  O  O46  1  0.167100  0.390754  0.599738  1
  O  O47  1  0.462241  0.169600  0.895616  1
  O  O48  1  0.517460  0.866910  0.917177  1
  O  O49  1  0.287308  0.696578  0.661493  1
  O  O50  1  0.884507  0.499898  0.253241  1
  O  O51  1  0.160417  0.923566  0.521249  1
  O  O52  1  0.985620  0.781313  0.320494  1
  O  O53  1  0.750339  0.664695  0.063962  1
  O  O54  1  0.185225  0.560806  0.456227  1
  O  O55  1  0.814775  0.060806  0.043773  1
  O  O56  1  0.459854  0.965885  0.728490  1
  O  O57  1  0.540146  0.465885  0.771510  1
  O  O58  1  0.249661  0.164695  0.436038  1
  O  O59  1  0.014380  0.281313  0.179506  1
  O  O60  1  0.115493  0.999898  0.246759  1
  O  O61  1  0.839583  0.423566  0.978751  1
  O  O62  1  0.712692  0.196578  0.838507  1
  O  O63  1  0.482540  0.366910  0.582823  1
  O  O64  1  0.114909  0.572125  0.183050  1
  O  O65  1  0.537759  0.669600  0.604384  1
  O  O66  1  0.832900  0.890754  0.900262  1
  O  O67  1  0.376831  0.875993  0.446195  1
