# generated using pymatgen
data_Na3Ni2P2(CO7)2
_symmetry_space_group_name_H-M   'P 1'
_cell_length_a   6.55048399
_cell_length_b   8.92364179
_cell_length_c   10.36336658
_cell_angle_alpha   91.48247996
_cell_angle_beta   90.10100478
_cell_angle_gamma   90.91708496
_symmetry_Int_Tables_number   1
_chemical_formula_structural   Na3Ni2P2(CO7)2
_chemical_formula_sum   'Na6 Ni4 P4 C4 O28'
_cell_volume   605.50024499
_cell_formula_units_Z   2
loop_
 _symmetry_equiv_pos_site_id
 _symmetry_equiv_pos_as_xyz
  1  'x, y, z'
loop_
 _atom_site_type_symbol
 _atom_site_label
 _atom_site_symmetry_multiplicity
 _atom_site_fract_x
 _atom_site_fract_y
 _atom_site_fract_z
 _atom_site_occupancy
  Na  Na0  1  0.968937  0.745113  0.873537  1
  Na  Na1  1  0.990258  0.747463  0.369839  1
  Na  Na2  1  0.514795  0.748434  0.373341  1
  Na  Na3  1  0.031063  0.254887  0.126463  1
  Na  Na4  1  0.485205  0.251566  0.626659  1
  Na  Na5  1  0.009742  0.252537  0.630161  1
  Ni  Ni6  1  0.255471  0.653117  0.137778  1
  Ni  Ni7  1  0.254161  0.656373  0.643502  1
  Ni  Ni8  1  0.744529  0.346883  0.862222  1
  Ni  Ni9  1  0.745839  0.343627  0.356498  1
  P  P10  1  0.751359  0.572645  0.111317  1
  P  P11  1  0.749719  0.577102  0.606649  1
  P  P12  1  0.248641  0.427355  0.888683  1
  P  P13  1  0.250281  0.422898  0.393351  1
  C  C14  1  0.253938  0.924872  0.106213  1
  C  C15  1  0.247554  0.927287  0.607214  1
  C  C16  1  0.746062  0.075128  0.893787  1
  C  C17  1  0.752446  0.072713  0.392786  1
  O  O18  1  0.750249  0.937063  0.911555  1
  O  O19  1  0.756585  0.934396  0.412163  1
  O  O20  1  0.258922  0.866723  0.220418  1
  O  O21  1  0.248739  0.869593  0.720189  1
  O  O22  1  0.252120  0.825988  0.012021  1
  O  O23  1  0.251485  0.825821  0.513200  1
  O  O24  1  0.938323  0.676523  0.146214  1
  O  O25  1  0.565756  0.668299  0.151112  1
  O  O26  1  0.937561  0.677737  0.643060  1
  O  O27  1  0.562958  0.676196  0.634485  1
  O  O28  1  0.240758  0.577017  0.817008  1
  O  O29  1  0.251985  0.571761  0.319798  1
  O  O30  1  0.757277  0.534711  0.964277  1
  O  O31  1  0.754840  0.538409  0.457364  1
  O  O32  1  0.242723  0.465289  0.035723  1
  O  O33  1  0.245160  0.461591  0.542636  1
  O  O34  1  0.759242  0.422983  0.182992  1
  O  O35  1  0.748015  0.428239  0.680202  1
  O  O36  1  0.434244  0.331701  0.848888  1
  O  O37  1  0.061677  0.323477  0.853786  1
  O  O38  1  0.437042  0.323804  0.365515  1
  O  O39  1  0.062439  0.322263  0.356940  1
  O  O40  1  0.747880  0.174012  0.987979  1
  O  O41  1  0.748515  0.174179  0.486800  1
  O  O42  1  0.741078  0.133277  0.779582  1
  O  O43  1  0.751261  0.130407  0.279811  1
  O  O44  1  0.249751  0.062937  0.088445  1
  O  O45  1  0.243415  0.065604  0.587837  1
