# generated using pymatgen
data_LiZr2O4
_symmetry_space_group_name_H-M   'P 1'
_cell_length_a   5.16634182
_cell_length_b   6.10381824
_cell_length_c   10.86671347
_cell_angle_alpha   90.00000000
_cell_angle_beta   90.00000000
_cell_angle_gamma   90.00000000
_symmetry_Int_Tables_number   1
_chemical_formula_structural   LiZr2O4
_chemical_formula_sum   'Li4 Zr8 O16'
_cell_volume   342.67541354
_cell_formula_units_Z   4
loop_
 _symmetry_equiv_pos_site_id
 _symmetry_equiv_pos_as_xyz
  1  'x, y, z'
loop_
 _atom_site_type_symbol
 _atom_site_label
 _atom_site_symmetry_multiplicity
 _atom_site_fract_x
 _atom_site_fract_y
 _atom_site_fract_z
 _atom_site_occupancy
  Li  Li0  1  0.941307  0.750000  0.602349  1
  Li  Li1  1  0.558693  0.750000  0.102349  1
  Li  Li2  1  0.441307  0.250000  0.897651  1
  Li  Li3  1  0.058693  0.250000  0.397651  1
  Zr  Zr4  1  0.000000  0.000000  0.000000  1
  Zr  Zr5  1  0.000000  0.500000  0.000000  1
  Zr  Zr6  1  0.978080  0.250000  0.720734  1
  Zr  Zr7  1  0.521920  0.250000  0.220734  1
  Zr  Zr8  1  0.500000  0.000000  0.500000  1
  Zr  Zr9  1  0.500000  0.500000  0.500000  1
  Zr  Zr10  1  0.478080  0.750000  0.779266  1
  Zr  Zr11  1  0.021920  0.750000  0.279266  1
  O  O12  1  0.784835  0.750000  0.435906  1
  O  O13  1  0.730035  0.987320  0.670812  1
  O  O14  1  0.730035  0.512680  0.670812  1
  O  O15  1  0.703335  0.250000  0.395049  1
  O  O16  1  0.796665  0.250000  0.895049  1
  O  O17  1  0.769965  0.987320  0.170812  1
  O  O18  1  0.769965  0.512680  0.170812  1
  O  O19  1  0.715165  0.750000  0.935906  1
  O  O20  1  0.284835  0.250000  0.064094  1
  O  O21  1  0.230035  0.012680  0.829188  1
  O  O22  1  0.230035  0.487320  0.829188  1
  O  O23  1  0.203335  0.750000  0.104951  1
  O  O24  1  0.296665  0.750000  0.604951  1
  O  O25  1  0.269965  0.012680  0.329188  1
  O  O26  1  0.269965  0.487320  0.329188  1
  O  O27  1  0.215165  0.250000  0.564094  1
