# generated using pymatgen
data_NiH8(CO5)2
_symmetry_space_group_name_H-M   'P 1'
_cell_length_a   6.28013399
_cell_length_b   5.97600260
_cell_length_c   11.93461787
_cell_angle_alpha   90.00000000
_cell_angle_beta   113.69285836
_cell_angle_gamma   90.00000000
_symmetry_Int_Tables_number   1
_chemical_formula_structural   NiH8(CO5)2
_chemical_formula_sum   'Ni2 H16 C4 O20'
_cell_volume   410.15445843
_cell_formula_units_Z   2
loop_
 _symmetry_equiv_pos_site_id
 _symmetry_equiv_pos_as_xyz
  1  'x, y, z'
loop_
 _atom_site_type_symbol
 _atom_site_label
 _atom_site_symmetry_multiplicity
 _atom_site_fract_x
 _atom_site_fract_y
 _atom_site_fract_z
 _atom_site_occupancy
  Ni  Ni0  1  0.000000  0.000000  0.000000  1
  Ni  Ni1  1  0.000000  0.500000  0.500000  1
  H  H2  1  0.786240  0.689308  0.015564  1
  H  H3  1  0.282873  0.683301  0.070552  1
  H  H4  1  0.420723  0.913079  0.117503  1
  H  H5  1  0.828658  0.854736  0.139775  1
  H  H6  1  0.579277  0.413079  0.382497  1
  H  H7  1  0.717127  0.183301  0.429448  1
  H  H8  1  0.171342  0.354736  0.360225  1
  H  H9  1  0.213760  0.189308  0.484436  1
  H  H10  1  0.786240  0.810692  0.515564  1
  H  H11  1  0.828658  0.645264  0.639775  1
  H  H12  1  0.282873  0.816699  0.570552  1
  H  H13  1  0.420723  0.586921  0.617503  1
  H  H14  1  0.171342  0.145264  0.860225  1
  H  H15  1  0.579277  0.086921  0.882497  1
  H  H16  1  0.717127  0.316699  0.929448  1
  H  H17  1  0.213760  0.310692  0.984436  1
  C  C18  1  0.253638  0.345338  0.176209  1
  C  C19  1  0.746362  0.845338  0.323791  1
  C  C20  1  0.253638  0.154662  0.676209  1
  C  C21  1  0.746362  0.654662  0.823791  1
  O  O22  1  0.286063  0.847789  0.045523  1
  O  O23  1  0.323271  0.431854  0.098100  1
  O  O24  1  0.905268  0.787020  0.086138  1
  O  O25  1  0.118990  0.167810  0.150431  1
  O  O26  1  0.688688  0.925374  0.216428  1
  O  O27  1  0.311312  0.425374  0.283572  1
  O  O28  1  0.881010  0.667810  0.349569  1
  O  O29  1  0.676729  0.931854  0.401900  1
  O  O30  1  0.713937  0.347789  0.454477  1
  O  O31  1  0.094732  0.287020  0.413862  1
  O  O32  1  0.905268  0.712980  0.586138  1
  O  O33  1  0.286063  0.652211  0.545523  1
  O  O34  1  0.323271  0.068146  0.598100  1
  O  O35  1  0.118990  0.332190  0.650431  1
  O  O36  1  0.688688  0.574626  0.716428  1
  O  O37  1  0.311312  0.074626  0.783572  1
  O  O38  1  0.881010  0.832190  0.849569  1
  O  O39  1  0.094732  0.212980  0.913862  1
  O  O40  1  0.676729  0.568146  0.901900  1
  O  O41  1  0.713937  0.152211  0.954477  1
