# generated using pymatgen
data_WSCl4
_symmetry_space_group_name_H-M   'P 1'
_cell_length_a   6.70865989
_cell_length_b   7.94664131
_cell_length_c   8.07220072
_cell_angle_alpha   101.24272675
_cell_angle_beta   94.13640244
_cell_angle_gamma   93.26261198
_symmetry_Int_Tables_number   1
_chemical_formula_structural   WSCl4
_chemical_formula_sum   'W2 S2 Cl8'
_cell_volume   419.87248558
_cell_formula_units_Z   2
loop_
 _symmetry_equiv_pos_site_id
 _symmetry_equiv_pos_as_xyz
  1  'x, y, z'
loop_
 _atom_site_type_symbol
 _atom_site_label
 _atom_site_symmetry_multiplicity
 _atom_site_fract_x
 _atom_site_fract_y
 _atom_site_fract_z
 _atom_site_occupancy
  W  W0  1  0.141591  0.212749  0.760078  1
  W  W1  1  0.858409  0.787251  0.239922  1
  S  S2  1  0.320301  0.270933  0.991762  1
  S  S3  1  0.679699  0.729067  0.008238  1
  Cl  Cl4  1  0.829517  0.141712  0.838675  1
  Cl  Cl5  1  0.832578  0.079032  0.329180  1
  Cl  Cl6  1  0.361086  0.253551  0.563547  1
  Cl  Cl7  1  0.018914  0.469489  0.727098  1
  Cl  Cl8  1  0.981086  0.530511  0.272902  1
  Cl  Cl9  1  0.638914  0.746449  0.436453  1
  Cl  Cl10  1  0.167422  0.920968  0.670820  1
  Cl  Cl11  1  0.170483  0.858288  0.161325  1
