# generated using pymatgen
data_LaAlO3
_symmetry_space_group_name_H-M   'P 1'
_cell_length_a   7.35280489
_cell_length_b   7.92599936
_cell_length_c   8.31854353
_cell_angle_alpha   103.82211814
_cell_angle_beta   96.34129929
_cell_angle_gamma   89.67373940
_symmetry_Int_Tables_number   1
_chemical_formula_structural   LaAlO3
_chemical_formula_sum   'La6 Al6 O18'
_cell_volume   467.76447376
_cell_formula_units_Z   6
loop_
 _symmetry_equiv_pos_site_id
 _symmetry_equiv_pos_as_xyz
  1  'x, y, z'
loop_
 _atom_site_type_symbol
 _atom_site_label
 _atom_site_symmetry_multiplicity
 _atom_site_fract_x
 _atom_site_fract_y
 _atom_site_fract_z
 _atom_site_occupancy
  La  La0  1  0.972346  0.245100  0.984657  1
  La  La1  1  0.027654  0.754900  0.015343  1
  La  La2  1  0.269448  0.423261  0.697704  1
  La  La3  1  0.262845  0.917855  0.682199  1
  La  La4  1  0.737155  0.082145  0.317801  1
  La  La5  1  0.730552  0.576739  0.302296  1
  Al  Al6  1  0.553277  0.730989  0.906104  1
  Al  Al7  1  0.768102  0.395193  0.687938  1
  Al  Al8  1  0.765597  0.951031  0.686366  1
  Al  Al9  1  0.234403  0.048969  0.313634  1
  Al  Al10  1  0.231898  0.604807  0.312062  1
  Al  Al11  1  0.446723  0.269011  0.093896  1
  O  O12  1  0.293229  0.220815  0.907588  1
  O  O13  1  0.309421  0.728959  0.896660  1
  O  O14  1  0.979121  0.471900  0.813841  1
  O  O15  1  0.588212  0.516430  0.782247  1
  O  O16  1  0.753190  0.177482  0.705291  1
  O  O17  1  0.582596  0.876418  0.774466  1
  O  O18  1  0.978485  0.932623  0.808331  1
  O  O19  1  0.232215  0.141755  0.527774  1
  O  O20  1  0.227912  0.618643  0.525364  1
  O  O21  1  0.772088  0.381357  0.474636  1
  O  O22  1  0.767785  0.858245  0.472226  1
  O  O23  1  0.021515  0.067377  0.191669  1
  O  O24  1  0.417404  0.123582  0.225534  1
  O  O25  1  0.246810  0.822518  0.294709  1
  O  O26  1  0.411788  0.483570  0.217753  1
  O  O27  1  0.020879  0.528100  0.186159  1
  O  O28  1  0.690579  0.271041  0.103340  1
  O  O29  1  0.706771  0.779185  0.092412  1
