# generated using pymatgen
data_Nb12WO33
_symmetry_space_group_name_H-M   'P 1'
_cell_length_a   3.87321067
_cell_length_b   11.56273676
_cell_length_c   15.35099532
_cell_angle_alpha   83.62922593
_cell_angle_beta   82.78240058
_cell_angle_gamma   80.44797200
_symmetry_Int_Tables_number   1
_chemical_formula_structural   Nb12WO33
_chemical_formula_sum   'Nb12 W1 O33'
_cell_volume   669.72980980
_cell_formula_units_Z   1
loop_
 _symmetry_equiv_pos_site_id
 _symmetry_equiv_pos_as_xyz
  1  'x, y, z'
loop_
 _atom_site_type_symbol
 _atom_site_label
 _atom_site_symmetry_multiplicity
 _atom_site_fract_x
 _atom_site_fract_y
 _atom_site_fract_z
 _atom_site_occupancy
  Nb  Nb0  1  0.248697  0.638787  0.861381  1
  Nb  Nb1  1  0.625908  0.689186  0.045854  1
  Nb  Nb2  1  0.422734  0.545233  0.617983  1
  Nb  Nb3  1  0.364264  0.310818  0.953577  1
  Nb  Nb4  1  0.877544  0.031581  0.232455  1
  Nb  Nb5  1  0.559792  0.454220  0.379999  1
  Nb  Nb6  1  0.137405  0.968677  0.766833  1
  Nb  Nb7  1  0.297223  0.875584  0.526992  1
  Nb  Nb8  1  0.536025  0.216523  0.711946  1
  Nb  Nb9  1  0.699874  0.124980  0.472216  1
  Nb  Nb10  1  0.467436  0.784127  0.287603  1
  Nb  Nb11  1  0.753850  0.361174  0.137354  1
  W  W12  1  0.753812  0.999984  0.999737  1
  O  O13  1  0.776287  0.924019  0.519298  1
  O  O14  1  0.546420  0.745072  0.155383  1
  O  O15  1  0.698415  0.525951  0.081659  1
  O  O16  1  0.824607  0.184479  0.178363  1
  O  O17  1  0.423611  0.130082  0.012044  1
  O  O18  1  0.050889  0.172520  0.728503  1
  O  O19  1  0.352951  0.720376  0.574431  1
  O  O20  1  0.375381  0.838791  0.404086  1
  O  O21  1  0.724003  0.653276  0.895341  1
  O  O22  1  0.088144  0.452405  0.371659  1
  O  O23  1  0.397758  0.980416  0.232906  1
  O  O24  1  0.621991  0.164003  0.594505  1
  O  O25  1  0.327485  0.597819  0.748995  1
  O  O26  1  0.850636  0.306797  0.990932  1
  O  O27  1  0.181080  0.815868  0.820553  1
  O  O28  1  0.302233  0.473637  0.917336  1
  O  O29  1  0.952229  0.827950  0.270542  1
  O  O30  1  0.221064  0.076895  0.479705  1
  O  O31  1  0.567964  0.869676  0.987777  1
  O  O32  1  0.968453  0.971948  0.099858  1
  O  O33  1  0.528039  0.624978  0.325446  1
  O  O34  1  0.647576  0.279166  0.422476  1
  O  O35  1  0.204484  0.934983  0.649821  1
  O  O36  1  0.794710  0.065072  0.349219  1
  O  O37  1  0.608341  0.020032  0.766013  1
  O  O38  1  0.912586  0.549421  0.625790  1
  O  O39  1  0.473129  0.376047  0.675940  1
  O  O40  1  0.453694  0.254028  0.844442  1
  O  O41  1  0.678034  0.402390  0.249882  1
  O  O42  1  0.039288  0.027824  0.899502  1
  O  O43  1  0.276957  0.347049  0.103433  1
  O  O44  1  0.503059  0.496355  0.500271  1
  O  O45  1  0.147796  0.692397  0.008682  1
