# generated using pymatgen
data_Li7Fe7SiO16
_symmetry_space_group_name_H-M   'P 1'
_cell_length_a   5.11247590
_cell_length_b   5.55750661
_cell_length_c   13.08362989
_cell_angle_alpha   89.91953465
_cell_angle_beta   89.92708961
_cell_angle_gamma   89.87543414
_symmetry_Int_Tables_number   1
_chemical_formula_structural   Li7Fe7SiO16
_chemical_formula_sum   'Li7 Fe7 Si1 O16'
_cell_volume   371.73864117
_cell_formula_units_Z   1
loop_
 _symmetry_equiv_pos_site_id
 _symmetry_equiv_pos_as_xyz
  1  'x, y, z'
loop_
 _atom_site_type_symbol
 _atom_site_label
 _atom_site_symmetry_multiplicity
 _atom_site_fract_x
 _atom_site_fract_y
 _atom_site_fract_z
 _atom_site_occupancy
  Li  Li0  1  0.007545  0.918229  0.811827  1
  Li  Li1  1  0.506354  0.585339  0.560223  1
  Li  Li2  1  0.504588  0.584111  0.063861  1
  Li  Li3  1  0.013511  0.424280  0.436134  1
  Li  Li4  1  0.008529  0.419099  0.939106  1
  Li  Li5  1  0.500284  0.065509  0.191885  1
  Li  Li6  1  0.507295  0.081727  0.687167  1
  Fe  Fe7  1  0.002897  0.920663  0.062074  1
  Fe  Fe8  1  0.006497  0.919761  0.563263  1
  Fe  Fe9  1  0.505945  0.583204  0.813096  1
  Fe  Fe10  1  0.006943  0.416392  0.686560  1
  Fe  Fe11  1  0.010122  0.421169  0.190387  1
  Fe  Fe12  1  0.500613  0.077398  0.431426  1
  Fe  Fe13  1  0.502687  0.083714  0.937035  1
  Si  Si14  1  0.501870  0.573658  0.313630  1
  O  O15  1  0.625890  0.929656  0.059091  1
  O  O16  1  0.629114  0.933368  0.553925  1
  O  O17  1  0.574108  0.861998  0.319472  1
  O  O18  1  0.613760  0.911897  0.817444  1
  O  O19  1  0.113593  0.589411  0.566451  1
  O  O20  1  0.110050  0.590561  0.069728  1
  O  O21  1  0.182469  0.537400  0.309256  1
  O  O22  1  0.129949  0.572021  0.807809  1
  O  O23  1  0.629544  0.429858  0.690651  1
  O  O24  1  0.630147  0.448069  0.208841  1
  O  O25  1  0.612487  0.419360  0.415008  1
  O  O26  1  0.612183  0.413287  0.934276  1
  O  O27  1  0.122128  0.104772  0.172871  1
  O  O28  1  0.112349  0.087138  0.684643  1
  O  O29  1  0.137537  0.094209  0.451187  1
  O  O30  1  0.127610  0.072172  0.939621  1
