# generated using pymatgen
data_Li6Cr2O7
_symmetry_space_group_name_H-M   'P 1'
_cell_length_a   7.87024394
_cell_length_b   5.05893361
_cell_length_c   9.10372727
_cell_angle_alpha   90.00000000
_cell_angle_beta   115.86492859
_cell_angle_gamma   90.00000000
_symmetry_Int_Tables_number   1
_chemical_formula_structural   Li6Cr2O7
_chemical_formula_sum   'Li12 Cr4 O14'
_cell_volume   326.15531378
_cell_formula_units_Z   2
loop_
 _symmetry_equiv_pos_site_id
 _symmetry_equiv_pos_as_xyz
  1  'x, y, z'
loop_
 _atom_site_type_symbol
 _atom_site_label
 _atom_site_symmetry_multiplicity
 _atom_site_fract_x
 _atom_site_fract_y
 _atom_site_fract_z
 _atom_site_occupancy
  Li  Li0  1  0.335762  0.200996  0.117360  1
  Li  Li1  1  0.580764  0.809633  0.143879  1
  Li  Li2  1  0.070154  0.808890  0.165582  1
  Li  Li3  1  0.419236  0.809633  0.356121  1
  Li  Li4  1  0.664238  0.200996  0.382640  1
  Li  Li5  1  0.929846  0.808890  0.334418  1
  Li  Li6  1  0.070154  0.191110  0.665582  1
  Li  Li7  1  0.335762  0.799004  0.617360  1
  Li  Li8  1  0.580764  0.190367  0.643879  1
  Li  Li9  1  0.929846  0.191110  0.834418  1
  Li  Li10  1  0.419236  0.190367  0.856121  1
  Li  Li11  1  0.664238  0.799004  0.882640  1
  Cr  Cr12  1  0.780602  0.312630  0.095834  1
  Cr  Cr13  1  0.219398  0.312630  0.404166  1
  Cr  Cr14  1  0.780602  0.687370  0.595834  1
  Cr  Cr15  1  0.219398  0.687370  0.904166  1
  O  O16  1  0.280326  0.803342  0.106246  1
  O  O17  1  0.595055  0.214260  0.142879  1
  O  O18  1  0.810930  0.665600  0.106304  1
  O  O19  1  0.404945  0.214260  0.357121  1
  O  O20  1  0.000000  0.152006  0.250000  1
  O  O21  1  0.719674  0.803342  0.393754  1
  O  O22  1  0.189070  0.665600  0.393696  1
  O  O23  1  0.810930  0.334400  0.606304  1
  O  O24  1  0.280326  0.196658  0.606246  1
  O  O25  1  0.000000  0.847994  0.750000  1
  O  O26  1  0.595055  0.785740  0.642879  1
  O  O27  1  0.189070  0.334400  0.893696  1
  O  O28  1  0.404945  0.785740  0.857121  1
  O  O29  1  0.719674  0.196658  0.893754  1
