# generated using pymatgen
data_Li3FePCO7
_symmetry_space_group_name_H-M   'P 1'
_cell_length_a   5.03354485
_cell_length_b   6.42224910
_cell_length_c   8.93847198
_cell_angle_alpha   90.00000000
_cell_angle_beta   92.37843255
_cell_angle_gamma   90.00000000
_symmetry_Int_Tables_number   1
_chemical_formula_structural   Li3FePCO7
_chemical_formula_sum   'Li6 Fe2 P2 C2 O14'
_cell_volume   288.70218809
_cell_formula_units_Z   2
loop_
 _symmetry_equiv_pos_site_id
 _symmetry_equiv_pos_as_xyz
  1  'x, y, z'
loop_
 _atom_site_type_symbol
 _atom_site_label
 _atom_site_symmetry_multiplicity
 _atom_site_fract_x
 _atom_site_fract_y
 _atom_site_fract_z
 _atom_site_occupancy
  Li  Li0  1  0.992812  0.770675  0.705117  1
  Li  Li1  1  0.992812  0.229325  0.705117  1
  Li  Li2  1  0.362888  0.711070  0.269293  1
  Li  Li3  1  0.362888  0.288930  0.269293  1
  Li  Li4  1  0.697898  0.784951  0.029493  1
  Li  Li5  1  0.697898  0.215049  0.029493  1
  Fe  Fe6  1  0.401711  0.500000  0.624249  1
  Fe  Fe7  1  0.947462  0.000000  0.346250  1
  P  P8  1  0.493481  0.000000  0.544661  1
  P  P9  1  0.871657  0.500000  0.397165  1
  C  C10  1  0.138164  0.000000  0.993836  1
  C  C11  1  0.449451  0.500000  0.919916  1
  O  O12  1  0.218013  0.500000  0.854356  1
  O  O13  1  0.661909  0.500000  0.840066  1
  O  O14  1  0.032747  0.000000  0.860077  1
  O  O15  1  0.366455  0.191968  0.614046  1
  O  O16  1  0.366455  0.808032  0.614046  1
  O  O17  1  0.966133  0.500000  0.563789  1
  O  O18  1  0.802888  0.000000  0.567624  1
  O  O19  1  0.562254  0.500000  0.387590  1
  O  O20  1  0.436100  0.000000  0.368279  1
  O  O21  1  0.979209  0.692461  0.312959  1
  O  O22  1  0.979209  0.307539  0.312959  1
  O  O23  1  0.488311  0.500000  0.067474  1
  O  O24  1  0.965581  0.000000  0.102238  1
  O  O25  1  0.390892  0.000000  0.026007  1
