# generated using pymatgen
data_Gd2(WO4)3
_symmetry_space_group_name_H-M   'P 1'
_cell_length_a   7.00453911
_cell_length_b   7.00453911
_cell_length_c   11.53711603
_cell_angle_alpha   79.15608705
_cell_angle_beta   100.84391295
_cell_angle_gamma   67.77746233
_symmetry_Int_Tables_number   1
_chemical_formula_structural   Gd2(WO4)3
_chemical_formula_sum   'Gd4 W6 O24'
_cell_volume   493.27774158
_cell_formula_units_Z   2
loop_
 _symmetry_equiv_pos_site_id
 _symmetry_equiv_pos_as_xyz
  1  'x, y, z'
loop_
 _atom_site_type_symbol
 _atom_site_label
 _atom_site_symmetry_multiplicity
 _atom_site_fract_x
 _atom_site_fract_y
 _atom_site_fract_z
 _atom_site_occupancy
  Gd  Gd0  1  0.693431  0.052004  0.405285  1
  Gd  Gd1  1  0.947996  0.306569  0.905285  1
  Gd  Gd2  1  0.052004  0.693431  0.094715  1
  Gd  Gd3  1  0.306569  0.947996  0.594715  1
  W  W4  1  0.508541  0.202779  0.047939  1
  W  W5  1  0.797221  0.491459  0.547939  1
  W  W6  1  0.118123  0.118123  0.250000  1
  W  W7  1  0.881877  0.881877  0.750000  1
  W  W8  1  0.202779  0.508541  0.452061  1
  W  W9  1  0.491459  0.797221  0.952061  1
  O  O10  1  0.649188  0.204473  0.197909  1
  O  O11  1  0.405422  0.011751  0.279900  1
  O  O12  1  0.026499  0.052532  0.108301  1
  O  O13  1  0.673168  0.393773  0.438531  1
  O  O14  1  0.221912  0.377923  0.037824  1
  O  O15  1  0.898194  0.675730  0.423698  1
  O  O16  1  0.795527  0.350812  0.697909  1
  O  O17  1  0.675730  0.898194  0.076302  1
  O  O18  1  0.377923  0.221912  0.462176  1
  O  O19  1  0.393773  0.673168  0.061469  1
  O  O20  1  0.052532  0.026499  0.391699  1
  O  O21  1  0.988249  0.594578  0.779900  1
  O  O22  1  0.011751  0.405422  0.220100  1
  O  O23  1  0.947468  0.973501  0.608301  1
  O  O24  1  0.606227  0.326832  0.938531  1
  O  O25  1  0.622077  0.778088  0.537824  1
  O  O26  1  0.324270  0.101806  0.923698  1
  O  O27  1  0.204473  0.649188  0.302091  1
  O  O28  1  0.101806  0.324270  0.576302  1
  O  O29  1  0.778088  0.622077  0.962176  1
  O  O30  1  0.326832  0.606227  0.561469  1
  O  O31  1  0.973501  0.947468  0.891699  1
  O  O32  1  0.594578  0.988249  0.720100  1
  O  O33  1  0.350812  0.795527  0.802091  1
