# generated using pymatgen
data_Li2CrSi3O8
_symmetry_space_group_name_H-M   'P 1'
_cell_length_a   6.55713018
_cell_length_b   8.17447630
_cell_length_c   6.93211212
_cell_angle_alpha   90.00000000
_cell_angle_beta   109.74721152
_cell_angle_gamma   90.00000000
_symmetry_Int_Tables_number   1
_chemical_formula_structural   Li2CrSi3O8
_chemical_formula_sum   'Li4 Cr2 Si6 O16'
_cell_volume   349.71781985
_cell_formula_units_Z   2
loop_
 _symmetry_equiv_pos_site_id
 _symmetry_equiv_pos_as_xyz
  1  'x, y, z'
loop_
 _atom_site_type_symbol
 _atom_site_label
 _atom_site_symmetry_multiplicity
 _atom_site_fract_x
 _atom_site_fract_y
 _atom_site_fract_z
 _atom_site_occupancy
  Li  Li0  1  0.824821  0.672221  0.238169  1
  Li  Li1  1  0.599111  0.177884  0.561362  1
  Li  Li2  1  0.400889  0.677884  0.438638  1
  Li  Li3  1  0.175179  0.172221  0.761831  1
  Cr  Cr4  1  0.017216  0.005470  0.374270  1
  Cr  Cr5  1  0.982784  0.505470  0.625730  1
  Si  Si6  1  0.413058  0.469192  0.046871  1
  Si  Si7  1  0.226872  0.824064  0.056540  1
  Si  Si8  1  0.195009  0.341703  0.327405  1
  Si  Si9  1  0.804991  0.841703  0.672595  1
  Si  Si10  1  0.773128  0.324064  0.943460  1
  Si  Si11  1  0.586942  0.969192  0.953129  1
  O  O12  1  0.002702  0.273656  0.117680  1
  O  O13  1  0.332165  0.968127  0.949481  1
  O  O14  1  0.384824  0.662708  0.094981  1
  O  O15  1  0.756555  0.901581  0.160142  1
  O  O16  1  0.411629  0.367056  0.254023  1
  O  O17  1  0.221895  0.869776  0.278811  1
  O  O18  1  0.132283  0.519214  0.401197  1
  O  O19  1  0.245421  0.192197  0.492504  1
  O  O20  1  0.754579  0.692197  0.507496  1
  O  O21  1  0.867717  0.019214  0.598803  1
  O  O22  1  0.778105  0.369776  0.721189  1
  O  O23  1  0.588371  0.867056  0.745977  1
  O  O24  1  0.243445  0.401581  0.839858  1
  O  O25  1  0.615176  0.162708  0.905019  1
  O  O26  1  0.667835  0.468127  0.050519  1
  O  O27  1  0.997298  0.773656  0.882320  1
