# generated using pymatgen
data_BaYBr5
_symmetry_space_group_name_H-M   'P 1'
_cell_length_a   12.91324324
_cell_length_b   10.79210873
_cell_length_c   18.96767166
_cell_angle_alpha   90.00000000
_cell_angle_beta   128.98065075
_cell_angle_gamma   90.00000000
_symmetry_Int_Tables_number   1
_chemical_formula_structural   BaYBr5
_chemical_formula_sum   'Ba8 Y8 Br40'
_cell_volume   2054.83515554
_cell_formula_units_Z   8
loop_
 _symmetry_equiv_pos_site_id
 _symmetry_equiv_pos_as_xyz
  1  'x, y, z'
loop_
 _atom_site_type_symbol
 _atom_site_label
 _atom_site_symmetry_multiplicity
 _atom_site_fract_x
 _atom_site_fract_y
 _atom_site_fract_z
 _atom_site_occupancy
  Ba  Ba0  1  0.832244  0.717339  0.642492  1
  Ba  Ba1  1  0.291579  0.729886  0.043512  1
  Ba  Ba2  1  0.167756  0.217339  0.857508  1
  Ba  Ba3  1  0.708421  0.229886  0.456488  1
  Ba  Ba4  1  0.291579  0.770114  0.543512  1
  Ba  Ba5  1  0.832244  0.782661  0.142492  1
  Ba  Ba6  1  0.708421  0.270114  0.956488  1
  Ba  Ba7  1  0.167756  0.282661  0.357508  1
  Y  Y8  1  0.707325  0.195085  0.690034  1
  Y  Y9  1  0.285354  0.220380  0.159858  1
  Y  Y10  1  0.714646  0.720381  0.340142  1
  Y  Y11  1  0.292675  0.695085  0.809966  1
  Y  Y12  1  0.707325  0.304915  0.190034  1
  Y  Y13  1  0.285354  0.279620  0.659858  1
  Y  Y14  1  0.714646  0.779620  0.840142  1
  Y  Y15  1  0.292675  0.804915  0.309966  1
  Br  Br16  1  0.912542  0.230218  0.871333  1
  Br  Br17  1  0.508357  0.815130  0.494853  1
  Br  Br18  1  0.946857  0.779575  0.862296  1
  Br  Br19  1  0.786904  0.399174  0.645209  1
  Br  Br20  1  0.400459  0.363378  0.313909  1
  Br  Br21  1  0.389223  0.023588  0.290855  1
  Br  Br22  1  0.867665  0.051925  0.669427  1
  Br  Br23  1  0.230898  0.409702  0.043637  1
  Br  Br24  1  0.225123  0.041945  0.031810  1
  Br  Br25  1  0.440500  0.681942  0.267831  1
  Br  Br26  1  0.132335  0.551925  0.830573  1
  Br  Br27  1  0.559500  0.181942  0.232169  1
  Br  Br28  1  0.774877  0.541945  0.468190  1
  Br  Br29  1  0.769102  0.909702  0.456363  1
  Br  Br30  1  0.213096  0.899174  0.854791  1
  Br  Br31  1  0.053143  0.279575  0.637704  1
  Br  Br32  1  0.610777  0.523588  0.209145  1
  Br  Br33  1  0.599541  0.863378  0.186091  1
  Br  Br34  1  0.087458  0.730218  0.628667  1
  Br  Br35  1  0.491643  0.315130  0.005147  1
  Br  Br36  1  0.508357  0.684870  0.994853  1
  Br  Br37  1  0.912542  0.269782  0.371333  1
  Br  Br38  1  0.400459  0.136622  0.813909  1
  Br  Br39  1  0.389223  0.476412  0.790855  1
  Br  Br40  1  0.946857  0.720425  0.362296  1
  Br  Br41  1  0.786904  0.100826  0.145209  1
  Br  Br42  1  0.230898  0.090298  0.543637  1
  Br  Br43  1  0.225123  0.458055  0.531810  1
  Br  Br44  1  0.440500  0.818058  0.767831  1
  Br  Br45  1  0.867665  0.448075  0.169427  1
  Br  Br46  1  0.559500  0.318058  0.732169  1
  Br  Br47  1  0.774877  0.958055  0.968190  1
  Br  Br48  1  0.769102  0.590298  0.956363  1
  Br  Br49  1  0.132335  0.948075  0.330573  1
  Br  Br50  1  0.610777  0.976412  0.709145  1
  Br  Br51  1  0.599541  0.636622  0.686091  1
  Br  Br52  1  0.213096  0.600826  0.354791  1
  Br  Br53  1  0.053143  0.220425  0.137704  1
  Br  Br54  1  0.491643  0.184870  0.505147  1
  Br  Br55  1  0.087458  0.769782  0.128667  1
