# generated using pymatgen
data_LiV2OF5
_symmetry_space_group_name_H-M   'P 1'
_cell_length_a   5.23161493
_cell_length_b   5.53005155
_cell_length_c   12.87574294
_cell_angle_alpha   93.21149591
_cell_angle_beta   88.95367336
_cell_angle_gamma   117.96172745
_symmetry_Int_Tables_number   1
_chemical_formula_structural   LiV2OF5
_chemical_formula_sum   'Li3 V6 O3 F15'
_cell_volume   328.49277582
_cell_formula_units_Z   3
loop_
 _symmetry_equiv_pos_site_id
 _symmetry_equiv_pos_as_xyz
  1  'x, y, z'
loop_
 _atom_site_type_symbol
 _atom_site_label
 _atom_site_symmetry_multiplicity
 _atom_site_fract_x
 _atom_site_fract_y
 _atom_site_fract_z
 _atom_site_occupancy
  Li  Li0  1  0.595069  0.229047  0.106838  1
  Li  Li1  1  0.605273  0.221410  0.582119  1
  Li  Li2  1  0.292902  0.571457  0.922386  1
  V  V3  1  0.642983  0.317586  0.341958  1
  V  V4  1  0.012376  0.004476  0.494355  1
  V  V5  1  0.695166  0.352426  0.828821  1
  V  V6  1  0.016149  0.020615  0.002538  1
  V  V7  1  0.326194  0.638773  0.166063  1
  V  V8  1  0.317353  0.660256  0.673518  1
  O  O9  1  0.397851  0.194500  0.454473  1
  O  O10  1  0.082250  0.539436  0.791782  1
  O  O11  1  0.278443  0.331443  0.080153  1
  F  F12  1  0.267512  0.172253  0.878549  1
  F  F13  1  0.545928  0.451974  0.697973  1
  F  F14  1  0.709511  0.681578  0.914581  1
  F  F15  1  0.934834  0.651201  0.423558  1
  F  F16  1  0.609261  0.998510  0.758265  1
  F  F17  1  0.902956  0.453961  0.208411  1
  F  F18  1  0.162450  0.899544  0.622855  1
  F  F19  1  0.794768  0.232580  0.966959  1
  F  F20  1  0.232718  0.800437  0.035534  1
  F  F21  1  0.852854  0.111540  0.376173  1
  F  F22  1  0.396015  0.003578  0.232376  1
  F  F23  1  0.027555  0.338453  0.581653  1
  F  F24  1  0.457347  0.534695  0.287911  1
  F  F25  1  0.605979  0.829037  0.557385  1
  F  F26  1  0.740727  0.865816  0.116698  1
