# generated using pymatgen
data_Rb4SnO3
_symmetry_space_group_name_H-M   'P 1'
_cell_length_a   10.52266350
_cell_length_b   10.52266350
_cell_length_c   6.89818819
_cell_angle_alpha   83.33569452
_cell_angle_beta   96.66430548
_cell_angle_gamma   37.79584834
_symmetry_Int_Tables_number   1
_chemical_formula_structural   Rb4SnO3
_chemical_formula_sum   'Rb8 Sn2 O6'
_cell_volume   437.02044601
_cell_formula_units_Z   2
loop_
 _symmetry_equiv_pos_site_id
 _symmetry_equiv_pos_as_xyz
  1  'x, y, z'
loop_
 _atom_site_type_symbol
 _atom_site_label
 _atom_site_symmetry_multiplicity
 _atom_site_fract_x
 _atom_site_fract_y
 _atom_site_fract_z
 _atom_site_occupancy
  Rb  Rb0  1  0.382896  0.312961  0.204896  1
  Rb  Rb1  1  0.550366  0.525667  0.255252  1
  Rb  Rb2  1  0.960773  0.947884  0.237803  1
  Rb  Rb3  1  0.738864  0.754044  0.234469  1
  Rb  Rb4  1  0.687039  0.617104  0.704896  1
  Rb  Rb5  1  0.474333  0.449634  0.755252  1
  Rb  Rb6  1  0.052116  0.039227  0.737803  1
  Rb  Rb7  1  0.245956  0.261136  0.734469  1
  Sn  Sn8  1  0.111941  0.163222  0.254693  1
  Sn  Sn9  1  0.836778  0.888059  0.754693  1
  O  O10  1  0.849047  0.295420  0.035761  1
  O  O11  1  0.951727  0.356183  0.443303  1
  O  O12  1  0.704580  0.150953  0.535761  1
  O  O13  1  0.643817  0.048273  0.943303  1
  O  O14  1  0.286085  0.864691  0.441137  1
  O  O15  1  0.135309  0.713915  0.941137  1
