# generated using pymatgen
data_Li6MnO3F2
_symmetry_space_group_name_H-M   'P 1'
_cell_length_a   5.63561126
_cell_length_b   5.63561126
_cell_length_c   9.74422864
_cell_angle_alpha   86.09744726
_cell_angle_beta   93.90255274
_cell_angle_gamma   126.15890548
_symmetry_Int_Tables_number   1
_chemical_formula_structural   Li6MnO3F2
_chemical_formula_sum   'Li12 Mn2 O6 F4'
_cell_volume   249.13835870
_cell_formula_units_Z   2
loop_
 _symmetry_equiv_pos_site_id
 _symmetry_equiv_pos_as_xyz
  1  'x, y, z'
loop_
 _atom_site_type_symbol
 _atom_site_label
 _atom_site_symmetry_multiplicity
 _atom_site_fract_x
 _atom_site_fract_y
 _atom_site_fract_z
 _atom_site_occupancy
  Li  Li0  1  0.605874  0.275021  0.271953  1
  Li  Li1  1  0.724979  0.394126  0.771953  1
  Li  Li2  1  0.254812  0.799138  0.990185  1
  Li  Li3  1  0.200862  0.745188  0.490185  1
  Li  Li4  1  0.745188  0.200862  0.009815  1
  Li  Li5  1  0.799138  0.254812  0.509815  1
  Li  Li6  1  0.394126  0.724979  0.728047  1
  Li  Li7  1  0.275021  0.605874  0.228047  1
  Li  Li8  1  0.665478  0.686596  0.562553  1
  Li  Li9  1  0.686596  0.665478  0.937447  1
  Li  Li10  1  0.334522  0.313404  0.437447  1
  Li  Li11  1  0.313404  0.334522  0.062553  1
  Mn  Mn12  1  0.847828  0.847828  0.250000  1
  Mn  Mn13  1  0.152172  0.152172  0.750000  1
  O  O14  1  0.425055  0.202225  0.920542  1
  O  O15  1  0.797775  0.574945  0.420542  1
  O  O16  1  0.202225  0.425055  0.579458  1
  O  O17  1  0.574945  0.797775  0.079458  1
  O  O18  1  0.761622  0.761622  0.750000  1
  O  O19  1  0.238378  0.238378  0.250000  1
  F  F20  1  0.465609  0.070835  0.629213  1
  F  F21  1  0.929165  0.534391  0.129213  1
  F  F22  1  0.070835  0.465609  0.870787  1
  F  F23  1  0.534391  0.929165  0.370787  1
