# generated using pymatgen
data_Ba3YI9
_symmetry_space_group_name_H-M   'P 1'
_cell_length_a   8.59639536
_cell_length_b   7.98608823
_cell_length_c   33.67320606
_cell_angle_alpha   90.00000000
_cell_angle_beta   91.91994046
_cell_angle_gamma   90.00000000
_symmetry_Int_Tables_number   1
_chemical_formula_structural   Ba3YI9
_chemical_formula_sum   'Ba12 Y4 I36'
_cell_volume   2310.42076342
_cell_formula_units_Z   4
loop_
 _symmetry_equiv_pos_site_id
 _symmetry_equiv_pos_as_xyz
  1  'x, y, z'
loop_
 _atom_site_type_symbol
 _atom_site_label
 _atom_site_symmetry_multiplicity
 _atom_site_fract_x
 _atom_site_fract_y
 _atom_site_fract_z
 _atom_site_occupancy
  Ba  Ba0  1  0.680996  0.970393  0.066802  1
  Ba  Ba1  1  0.707463  0.002251  0.308256  1
  Ba  Ba2  1  0.680996  0.029607  0.566802  1
  Ba  Ba3  1  0.707463  0.997749  0.808256  1
  Ba  Ba4  1  0.317162  0.985568  0.429367  1
  Ba  Ba5  1  0.285292  0.981779  0.191678  1
  Ba  Ba6  1  0.317162  0.014432  0.929367  1
  Ba  Ba7  1  0.285292  0.018221  0.691678  1
  Ba  Ba8  1  0.216131  0.528982  0.308029  1
  Ba  Ba9  1  0.177875  0.518516  0.069608  1
  Ba  Ba10  1  0.216131  0.471018  0.808029  1
  Ba  Ba11  1  0.177875  0.481484  0.569608  1
  Y  Y12  1  0.800099  0.516873  0.193687  1
  Y  Y13  1  0.825643  0.545039  0.433773  1
  Y  Y14  1  0.800099  0.483127  0.693687  1
  Y  Y15  1  0.825643  0.454961  0.933773  1
  I  I16  1  0.975146  0.794729  0.132532  1
  I  I17  1  0.979319  0.812054  0.246277  1
  I  I18  1  0.987304  0.807093  0.373862  1
  I  I19  1  0.975146  0.205271  0.632532  1
  I  I20  1  0.979319  0.187946  0.746277  1
  I  I21  1  0.887657  0.698077  0.004736  1
  I  I22  1  0.987304  0.192907  0.873862  1
  I  I23  1  0.844578  0.336537  0.109106  1
  I  I24  1  0.887657  0.301923  0.504736  1
  I  I25  1  0.840123  0.400940  0.291442  1
  I  I26  1  0.844578  0.663463  0.609106  1
  I  I27  1  0.840123  0.599060  0.791442  1
  I  I28  1  0.648689  0.173106  0.203494  1
  I  I29  1  0.655012  0.223025  0.401685  1
  I  I30  1  0.648689  0.826894  0.703494  1
  I  I31  1  0.655012  0.776975  0.901685  1
  I  I32  1  0.595055  0.735388  0.487097  1
  I  I33  1  0.515234  0.673657  0.134283  1
  I  I34  1  0.520513  0.687847  0.246679  1
  I  I35  1  0.531877  0.694809  0.372517  1
  I  I36  1  0.595055  0.264612  0.987097  1
  I  I37  1  0.515234  0.326343  0.634283  1
  I  I38  1  0.520513  0.312153  0.746679  1
  I  I39  1  0.531877  0.305191  0.872517  1
  I  I40  1  0.397587  0.763320  0.009734  1
  I  I41  1  0.397587  0.236680  0.509734  1
  I  I42  1  0.342264  0.149128  0.098865  1
  I  I43  1  0.319095  0.107370  0.301602  1
  I  I44  1  0.342264  0.850872  0.598865  1
  I  I45  1  0.319095  0.892630  0.801602  1
  I  I46  1  0.139706  0.395201  0.202028  1
  I  I47  1  0.117638  0.359120  0.402157  1
  I  I48  1  0.139706  0.604799  0.702028  1
  I  I49  1  0.117638  0.640880  0.902157  1
  I  I50  1  0.061808  0.751980  0.488891  1
  I  I51  1  0.061808  0.248020  0.988891  1
