# generated using pymatgen
data_Li4AlCr3O8
_symmetry_space_group_name_H-M   'P 1'
_cell_length_a   5.89424337
_cell_length_b   5.89424337
_cell_length_c   5.89424337
_cell_angle_alpha   59.71074777
_cell_angle_beta   59.71074777
_cell_angle_gamma   59.71074777
_symmetry_Int_Tables_number   1
_chemical_formula_structural   Li4AlCr3O8
_chemical_formula_sum   'Li4 Al1 Cr3 O8'
_cell_volume   143.84888807
_cell_formula_units_Z   1
loop_
 _symmetry_equiv_pos_site_id
 _symmetry_equiv_pos_as_xyz
  1  'x, y, z'
loop_
 _atom_site_type_symbol
 _atom_site_label
 _atom_site_symmetry_multiplicity
 _atom_site_fract_x
 _atom_site_fract_y
 _atom_site_fract_z
 _atom_site_occupancy
  Li  Li0  1  0.500000  0.500000  0.000000  1
  Li  Li1  1  0.500000  0.000000  0.500000  1
  Li  Li2  1  0.000000  0.000000  0.000000  1
  Li  Li3  1  1.000000  0.500000  0.500000  1
  Al  Al4  1  0.500000  0.500000  0.500000  1
  Cr  Cr5  1  0.500000  0.000000  0.000000  1
  Cr  Cr6  1  1.000000  0.000000  0.500000  1
  Cr  Cr7  1  0.000000  0.500000  0.000000  1
  O  O8  1  0.734731  0.251871  0.734731  1
  O  O9  1  0.734731  0.734731  0.251871  1
  O  O10  1  0.757939  0.757939  0.757939  1
  O  O11  1  0.251871  0.734731  0.734731  1
  O  O12  1  0.748129  0.265269  0.265269  1
  O  O13  1  0.265269  0.265269  0.748129  1
  O  O14  1  0.242061  0.242061  0.242061  1
  O  O15  1  0.265269  0.748129  0.265269  1
