# generated using pymatgen
data_LiTi2O4
_symmetry_space_group_name_H-M   'P 1'
_cell_length_a   5.96024098
_cell_length_b   5.96024098
_cell_length_c   5.96024098
_cell_angle_alpha   120.19781963
_cell_angle_beta   119.58270057
_cell_angle_gamma   90.19100315
_symmetry_Int_Tables_number   1
_chemical_formula_structural   LiTi2O4
_chemical_formula_sum   'Li2 Ti4 O8'
_cell_volume   149.96090169
_cell_formula_units_Z   2
loop_
 _symmetry_equiv_pos_site_id
 _symmetry_equiv_pos_as_xyz
  1  'x, y, z'
loop_
 _atom_site_type_symbol
 _atom_site_label
 _atom_site_symmetry_multiplicity
 _atom_site_fract_x
 _atom_site_fract_y
 _atom_site_fract_z
 _atom_site_occupancy
  Li  Li0  1  0.500000  0.500000  0.500000  1
  Li  Li1  1  0.500000  0.000000  1.000000  1
  Ti  Ti2  1  0.500000  1.000000  0.500000  1
  Ti  Ti3  1  0.000000  0.000000  0.000000  1
  Ti  Ti4  1  0.000000  0.500000  1.000000  1
  Ti  Ti5  1  0.000000  0.000000  0.500000  1
  O  O6  1  0.219928  0.237240  0.982688  1
  O  O7  1  0.754552  0.237240  0.517312  1
  O  O8  1  0.239783  0.211602  0.471818  1
  O  O9  1  0.760217  0.232035  0.971818  1
  O  O10  1  0.239783  0.767965  0.028182  1
  O  O11  1  0.760217  0.788398  0.528182  1
  O  O12  1  0.245448  0.762760  0.482688  1
  O  O13  1  0.780072  0.762760  0.017312  1
