# generated using pymatgen
data_Li7V4O11F
_symmetry_space_group_name_H-M   'P 1'
_cell_length_a   5.03463047
_cell_length_b   5.13304416
_cell_length_c   9.84453535
_cell_angle_alpha   84.57742381
_cell_angle_beta   78.90023227
_cell_angle_gamma   60.95146405
_symmetry_Int_Tables_number   1
_chemical_formula_structural   Li7V4O11F
_chemical_formula_sum   'Li7 V4 O11 F1'
_cell_volume   218.24863622
_cell_formula_units_Z   1
loop_
 _symmetry_equiv_pos_site_id
 _symmetry_equiv_pos_as_xyz
  1  'x, y, z'
loop_
 _atom_site_type_symbol
 _atom_site_label
 _atom_site_symmetry_multiplicity
 _atom_site_fract_x
 _atom_site_fract_y
 _atom_site_fract_z
 _atom_site_occupancy
  Li  Li0  1  0.690347  0.149676  0.496316  1
  Li  Li1  1  0.516837  0.486058  0.992673  1
  Li  Li2  1  0.832188  0.851055  0.999283  1
  Li  Li3  1  0.085472  0.828856  0.250256  1
  Li  Li4  1  0.009487  0.491641  0.499534  1
  Li  Li5  1  0.150019  0.164883  0.004133  1
  Li  Li6  1  0.310934  0.853459  0.503491  1
  V  V7  1  0.226158  0.494529  0.754132  1
  V  V8  1  0.421015  0.156252  0.250414  1
  V  V9  1  0.579391  0.862494  0.756851  1
  V  V10  1  0.743991  0.509717  0.250899  1
  O  O11  1  0.757760  0.183277  0.134650  1
  O  O12  1  0.502715  0.167957  0.870338  1
  O  O13  1  0.414114  0.474385  0.362627  1
  O  O14  1  0.327883  0.182909  0.636603  1
  O  O15  1  0.947203  0.793831  0.633545  1
  O  O16  1  0.872677  0.543495  0.871550  1
  O  O17  1  0.108545  0.476676  0.139623  1
  O  O18  1  0.058089  0.183071  0.367088  1
  O  O19  1  0.689448  0.833616  0.363815  1
  O  O20  1  0.474196  0.832265  0.138295  1
  O  O21  1  0.265919  0.780114  0.854274  1
  F  F22  1  0.599211  0.532586  0.619610  1
