# generated using pymatgen
data_Li2VBO4
_symmetry_space_group_name_H-M   'P 1'
_cell_length_a   4.75933315
_cell_length_b   6.23912525
_cell_length_c   10.35917002
_cell_angle_alpha   90.00000000
_cell_angle_beta   90.00000000
_cell_angle_gamma   90.00000000
_symmetry_Int_Tables_number   1
_chemical_formula_structural   Li2VBO4
_chemical_formula_sum   'Li8 V4 B4 O16'
_cell_volume   307.60597803
_cell_formula_units_Z   4
loop_
 _symmetry_equiv_pos_site_id
 _symmetry_equiv_pos_as_xyz
  1  'x, y, z'
loop_
 _atom_site_type_symbol
 _atom_site_label
 _atom_site_symmetry_multiplicity
 _atom_site_fract_x
 _atom_site_fract_y
 _atom_site_fract_z
 _atom_site_occupancy
  Li  Li0  1  0.755000  0.001873  0.156581  1
  Li  Li1  1  0.754626  0.228145  0.927769  1
  Li  Li2  1  0.754626  0.271855  0.427769  1
  Li  Li3  1  0.755000  0.498127  0.656581  1
  Li  Li4  1  0.255000  0.501873  0.343419  1
  Li  Li5  1  0.254626  0.728145  0.572231  1
  Li  Li6  1  0.254626  0.771855  0.072231  1
  Li  Li7  1  0.255000  0.998127  0.843419  1
  V  V8  1  0.251949  0.012732  0.338828  1
  V  V9  1  0.251949  0.487268  0.838828  1
  V  V10  1  0.751949  0.512732  0.161172  1
  V  V11  1  0.751949  0.987268  0.661172  1
  B  B12  1  0.266404  0.245809  0.590200  1
  B  B13  1  0.266404  0.254191  0.090200  1
  B  B14  1  0.766404  0.745809  0.909800  1
  B  B15  1  0.766404  0.754191  0.409800  1
  O  O16  1  0.161879  0.044143  0.656268  1
  O  O17  1  0.163299  0.055976  0.157170  1
  O  O18  1  0.170589  0.248791  0.951991  1
  O  O19  1  0.579378  0.242951  0.596249  1
  O  O20  1  0.579378  0.257049  0.096249  1
  O  O21  1  0.170589  0.251209  0.451991  1
  O  O22  1  0.163299  0.444024  0.657170  1
  O  O23  1  0.161879  0.455857  0.156268  1
  O  O24  1  0.661879  0.544143  0.843732  1
  O  O25  1  0.663299  0.555976  0.342830  1
  O  O26  1  0.670589  0.748791  0.548009  1
  O  O27  1  0.079378  0.742951  0.903751  1
  O  O28  1  0.079378  0.757049  0.403751  1
  O  O29  1  0.670589  0.751209  0.048009  1
  O  O30  1  0.663299  0.944024  0.842830  1
  O  O31  1  0.661879  0.955857  0.343732  1
