# generated using pymatgen
data_LiP3W2O13
_symmetry_space_group_name_H-M   'P 1'
_cell_length_a   6.88793672
_cell_length_b   8.76521801
_cell_length_c   8.94580252
_cell_angle_alpha   90.00000000
_cell_angle_beta   94.40085655
_cell_angle_gamma   90.00000000
_symmetry_Int_Tables_number   1
_chemical_formula_structural   LiP3W2O13
_chemical_formula_sum   'Li2 P6 W4 O26'
_cell_volume   538.50385271
_cell_formula_units_Z   2
loop_
 _symmetry_equiv_pos_site_id
 _symmetry_equiv_pos_as_xyz
  1  'x, y, z'
loop_
 _atom_site_type_symbol
 _atom_site_label
 _atom_site_symmetry_multiplicity
 _atom_site_fract_x
 _atom_site_fract_y
 _atom_site_fract_z
 _atom_site_occupancy
  Li  Li0  1  0.500000  0.142840  0.250000  1
  Li  Li1  1  0.500000  0.857160  0.750000  1
  P  P2  1  0.000000  0.041244  0.250000  1
  P  P3  1  0.000000  0.958756  0.750000  1
  P  P4  1  0.162450  0.568207  0.161775  1
  P  P5  1  0.162450  0.431793  0.661775  1
  P  P6  1  0.837550  0.568207  0.338225  1
  P  P7  1  0.837550  0.431793  0.838225  1
  W  W8  1  0.233581  0.761896  0.481703  1
  W  W9  1  0.233581  0.238104  0.981703  1
  W  W10  1  0.766419  0.761896  0.018297  1
  W  W11  1  0.766419  0.238104  0.518297  1
  O  O12  1  0.000000  0.478580  0.250000  1
  O  O13  1  0.052440  0.671938  0.046660  1
  O  O14  1  0.150459  0.142839  0.177591  1
  O  O15  1  0.000000  0.521420  0.750000  1
  O  O16  1  0.052440  0.328062  0.546660  1
  O  O17  1  0.118653  0.944873  0.368093  1
  O  O18  1  0.285115  0.446926  0.092053  1
  O  O19  1  0.150459  0.857161  0.677591  1
  O  O20  1  0.283591  0.661447  0.280438  1
  O  O21  1  0.118653  0.055127  0.868093  1
  O  O22  1  0.285115  0.553074  0.592053  1
  O  O23  1  0.283591  0.338553  0.780438  1
  O  O24  1  0.476741  0.819277  0.532508  1
  O  O25  1  0.523259  0.819277  0.967492  1
  O  O26  1  0.476741  0.180723  0.032508  1
  O  O27  1  0.523259  0.180723  0.467492  1
  O  O28  1  0.716409  0.661447  0.219562  1
  O  O29  1  0.714885  0.446926  0.407947  1
  O  O30  1  0.881347  0.944873  0.131907  1
  O  O31  1  0.716409  0.338553  0.719562  1
  O  O32  1  0.849541  0.142839  0.322409  1
  O  O33  1  0.714885  0.553074  0.907947  1
  O  O34  1  0.881347  0.055127  0.631907  1
  O  O35  1  0.947560  0.671938  0.453340  1
  O  O36  1  0.849541  0.857161  0.822409  1
  O  O37  1  0.947560  0.328062  0.953340  1
