# generated using pymatgen
data_LiTi(PO3)4
_symmetry_space_group_name_H-M   'P 1'
_cell_length_a   6.91846474
_cell_length_b   8.96115669
_cell_length_c   7.12500517
_cell_angle_alpha   90.00000000
_cell_angle_beta   97.76308683
_cell_angle_gamma   90.00000000
_symmetry_Int_Tables_number   1
_chemical_formula_structural   LiTi(PO3)4
_chemical_formula_sum   'Li2 Ti2 P8 O24'
_cell_volume   437.68368392
_cell_formula_units_Z   2
loop_
 _symmetry_equiv_pos_site_id
 _symmetry_equiv_pos_as_xyz
  1  'x, y, z'
loop_
 _atom_site_type_symbol
 _atom_site_label
 _atom_site_symmetry_multiplicity
 _atom_site_fract_x
 _atom_site_fract_y
 _atom_site_fract_z
 _atom_site_occupancy
  Li  Li0  1  0.823794  0.929242  0.180085  1
  Li  Li1  1  0.176206  0.429242  0.819915  1
  Ti  Ti2  1  0.782407  0.638693  0.727109  1
  Ti  Ti3  1  0.217593  0.138693  0.272891  1
  P  P4  1  0.023981  0.639751  0.444141  1
  P  P5  1  0.907857  0.439839  0.126775  1
  P  P6  1  0.575707  0.289758  0.569896  1
  P  P7  1  0.542432  0.600494  0.085163  1
  P  P8  1  0.457568  0.100494  0.914837  1
  P  P9  1  0.424293  0.789758  0.430104  1
  P  P10  1  0.092143  0.939839  0.873225  1
  P  P11  1  0.976019  0.139751  0.555859  1
  O  O12  1  0.954926  0.061471  0.752954  1
  O  O13  1  0.914054  0.477448  0.920278  1
  O  O14  1  0.978615  0.029004  0.395638  1
  O  O15  1  0.983188  0.287926  0.184100  1
  O  O16  1  0.786576  0.237383  0.530442  1
  O  O17  1  0.843674  0.733942  0.431773  1
  O  O18  1  0.694254  0.468717  0.183979  1
  O  O19  1  0.671731  0.704410  0.989044  1
  O  O20  1  0.445458  0.257955  0.386216  1
  O  O21  1  0.530803  0.179899  0.734475  1
  O  O22  1  0.628523  0.028473  0.024509  1
  O  O23  1  0.592634  0.448886  0.634226  1
  O  O24  1  0.407366  0.948886  0.365774  1
  O  O25  1  0.371477  0.528473  0.975491  1
  O  O26  1  0.469197  0.679899  0.265525  1
  O  O27  1  0.554542  0.757955  0.613784  1
  O  O28  1  0.328269  0.204410  0.010956  1
  O  O29  1  0.305746  0.968717  0.816021  1
  O  O30  1  0.156326  0.233942  0.568227  1
  O  O31  1  0.213424  0.737383  0.469558  1
  O  O32  1  0.016812  0.787926  0.815900  1
  O  O33  1  0.021385  0.529004  0.604362  1
  O  O34  1  0.085946  0.977448  0.079722  1
  O  O35  1  0.045074  0.561471  0.247046  1
