# generated using pymatgen
data_LiV2(PO4)3
_symmetry_space_group_name_H-M   'P 1'
_cell_length_a   9.52581791
_cell_length_b   9.52581791
_cell_length_c   8.01009771
_cell_angle_alpha   74.41193778
_cell_angle_beta   105.58806222
_cell_angle_gamma   142.45831625
_symmetry_Int_Tables_number   1
_chemical_formula_structural   LiV2(PO4)3
_chemical_formula_sum   'Li2 V4 P6 O24'
_cell_volume   424.68299298
_cell_formula_units_Z   2
loop_
 _symmetry_equiv_pos_site_id
 _symmetry_equiv_pos_as_xyz
  1  'x, y, z'
loop_
 _atom_site_type_symbol
 _atom_site_label
 _atom_site_symmetry_multiplicity
 _atom_site_fract_x
 _atom_site_fract_y
 _atom_site_fract_z
 _atom_site_occupancy
  Li  Li0  1  0.500000  0.500000  0.500000  1
  Li  Li1  1  0.500000  0.500000  0.000000  1
  V  V2  1  0.970727  0.702495  0.594052  1
  V  V3  1  0.297505  0.029273  0.094052  1
  V  V4  1  0.702495  0.970727  0.905948  1
  V  V5  1  0.029273  0.297505  0.405948  1
  P  P6  1  0.498527  0.145593  0.724107  1
  P  P7  1  0.854407  0.501473  0.224107  1
  P  P8  1  0.145593  0.498527  0.775893  1
  P  P9  1  0.501473  0.854407  0.275893  1
  P  P10  1  0.949685  0.949685  0.250000  1
  P  P11  1  0.050315  0.050315  0.750000  1
  O  O12  1  0.827942  0.771536  0.408719  1
  O  O13  1  0.171004  0.037958  0.236024  1
  O  O14  1  0.228464  0.172058  0.908719  1
  O  O15  1  0.650921  0.401007  0.663983  1
  O  O16  1  0.962042  0.828996  0.736024  1
  O  O17  1  0.418845  0.074593  0.908009  1
  O  O18  1  0.289933  0.008872  0.583541  1
  O  O19  1  0.598993  0.349079  0.163983  1
  O  O20  1  0.925407  0.581155  0.408009  1
  O  O21  1  0.991128  0.710067  0.083541  1
  O  O22  1  0.092585  0.617216  0.756306  1
  O  O23  1  0.617216  0.092585  0.743694  1
  O  O24  1  0.382784  0.907415  0.256306  1
  O  O25  1  0.907415  0.382784  0.243694  1
  O  O26  1  0.008872  0.289933  0.916459  1
  O  O27  1  0.074593  0.418845  0.591991  1
  O  O28  1  0.401006  0.650921  0.836017  1
  O  O29  1  0.710067  0.991128  0.416459  1
  O  O30  1  0.581155  0.925407  0.091991  1
  O  O31  1  0.037958  0.171004  0.263976  1
  O  O32  1  0.349079  0.598994  0.336017  1
  O  O33  1  0.771536  0.827942  0.091281  1
  O  O34  1  0.828996  0.962042  0.763976  1
  O  O35  1  0.172058  0.228464  0.591281  1
