# generated using pymatgen
data_LiFe2OF5
_symmetry_space_group_name_H-M   'P 1'
_cell_length_a   4.70059949
_cell_length_b   8.82168371
_cell_length_c   8.82321912
_cell_angle_alpha   119.89086647
_cell_angle_beta   89.88190650
_cell_angle_gamma   90.66520698
_symmetry_Int_Tables_number   1
_chemical_formula_structural   LiFe2OF5
_chemical_formula_sum   'Li3 Fe6 O3 F15'
_cell_volume   317.17992648
_cell_formula_units_Z   3
loop_
 _symmetry_equiv_pos_site_id
 _symmetry_equiv_pos_as_xyz
  1  'x, y, z'
loop_
 _atom_site_type_symbol
 _atom_site_label
 _atom_site_symmetry_multiplicity
 _atom_site_fract_x
 _atom_site_fract_y
 _atom_site_fract_z
 _atom_site_occupancy
  Li  Li0  1  0.011602  0.365040  0.992310  1
  Li  Li1  1  0.985250  0.646955  0.645333  1
  Li  Li2  1  0.010784  0.008620  0.357901  1
  Fe  Fe3  1  0.483545  0.679557  0.990394  1
  Fe  Fe4  1  0.470674  0.337410  0.676157  1
  Fe  Fe5  1  0.994405  0.001508  0.000639  1
  Fe  Fe6  1  0.527717  0.996557  0.704737  1
  Fe  Fe7  1  0.472042  0.287766  0.299114  1
  Fe  Fe8  1  0.515542  0.665293  0.335395  1
  O  O9  1  0.276351  0.467634  0.887124  1
  O  O10  1  0.769011  0.896703  0.790849  1
  O  O11  1  0.224023  0.101677  0.209072  1
  F  F12  1  0.240876  0.117828  0.893294  1
  F  F13  1  0.728884  0.224277  0.773880  1
  F  F14  1  0.276474  0.107731  0.577691  1
  F  F15  1  0.726031  0.554573  0.773433  1
  F  F16  1  0.238412  0.782772  0.884766  1
  F  F17  1  0.708780  0.226563  0.450212  1
  F  F18  1  0.265380  0.422638  0.534210  1
  F  F19  1  0.286327  0.775577  0.550602  1
  F  F20  1  0.727793  0.536049  0.420792  1
  F  F21  1  0.736684  0.883436  0.461921  1
  F  F22  1  0.280903  0.450103  0.225976  1
  F  F23  1  0.757903  0.225305  0.110013  1
  F  F24  1  0.288419  0.774086  0.226262  1
  F  F25  1  0.738019  0.582533  0.121569  1
  F  F26  1  0.758172  0.881809  0.106453  1
