# generated using pymatgen
data_Li3VCr3O8
_symmetry_space_group_name_H-M   'P 1'
_cell_length_a   5.19303910
_cell_length_b   7.84168210
_cell_length_c   7.86774995
_cell_angle_alpha   94.37962587
_cell_angle_beta   109.14520712
_cell_angle_gamma   96.07087160
_symmetry_Int_Tables_number   1
_chemical_formula_structural   Li3VCr3O8
_chemical_formula_sum   'Li6 V2 Cr6 O16'
_cell_volume   298.86324206
_cell_formula_units_Z   2
loop_
 _symmetry_equiv_pos_site_id
 _symmetry_equiv_pos_as_xyz
  1  'x, y, z'
loop_
 _atom_site_type_symbol
 _atom_site_label
 _atom_site_symmetry_multiplicity
 _atom_site_fract_x
 _atom_site_fract_y
 _atom_site_fract_z
 _atom_site_occupancy
  Li  Li0  1  0.003289  0.998944  0.002188  1
  Li  Li1  1  0.745788  0.256148  0.752103  1
  Li  Li2  1  0.493338  0.487865  0.497555  1
  Li  Li3  1  0.625041  0.873633  0.629898  1
  Li  Li4  1  0.126934  0.377442  0.122412  1
  Li  Li5  1  0.246825  0.750916  0.243062  1
  V  V6  1  0.056358  0.683672  0.570731  1
  V  V7  1  0.805327  0.940402  0.312768  1
  Cr  Cr8  1  0.197524  0.063387  0.684760  1
  Cr  Cr9  1  0.313687  0.439789  0.815393  1
  Cr  Cr10  1  0.441525  0.811962  0.938349  1
  Cr  Cr11  1  0.940072  0.310591  0.432302  1
  Cr  Cr12  1  0.554102  0.188207  0.062926  1
  Cr  Cr13  1  0.694755  0.563100  0.185830  1
  O  O14  1  0.574140  0.029777  0.847694  1
  O  O15  1  0.689393  0.399581  0.974083  1
  O  O16  1  0.320670  0.285074  0.603577  1
  O  O17  1  0.430668  0.658271  0.717815  1
  O  O18  1  0.930285  0.150184  0.218230  1
  O  O19  1  0.078136  0.531492  0.351699  1
  O  O20  1  0.184596  0.886258  0.474789  1
  O  O21  1  0.171401  0.220011  0.896878  1
  O  O22  1  0.832727  0.794883  0.115151  1
  O  O23  1  0.813544  0.087195  0.521172  1
  O  O24  1  0.924227  0.473726  0.640510  1
  O  O25  1  0.060357  0.847251  0.774189  1
  O  O26  1  0.561566  0.353149  0.273921  1
  O  O27  1  0.679902  0.723426  0.405636  1
  O  O28  1  0.320969  0.597801  0.032430  1
  O  O29  1  0.432851  0.965860  0.151947  1
