# generated using pymatgen
data_SrCaI4
_symmetry_space_group_name_H-M   'P 1'
_cell_length_a   9.83182778
_cell_length_b   10.90240812
_cell_length_c   11.36168096
_cell_angle_alpha   90.00000000
_cell_angle_beta   123.58146770
_cell_angle_gamma   90.00000000
_symmetry_Int_Tables_number   1
_chemical_formula_structural   SrCaI4
_chemical_formula_sum   'Sr4 Ca4 I16'
_cell_volume   1014.60388770
_cell_formula_units_Z   4
loop_
 _symmetry_equiv_pos_site_id
 _symmetry_equiv_pos_as_xyz
  1  'x, y, z'
loop_
 _atom_site_type_symbol
 _atom_site_label
 _atom_site_symmetry_multiplicity
 _atom_site_fract_x
 _atom_site_fract_y
 _atom_site_fract_z
 _atom_site_occupancy
  Sr  Sr0  1  0.007753  0.784112  0.154414  1
  Sr  Sr1  1  0.992247  0.284112  0.345586  1
  Sr  Sr2  1  0.007753  0.715888  0.654414  1
  Sr  Sr3  1  0.992247  0.215888  0.845586  1
  Ca  Ca4  1  0.500497  0.453540  0.212660  1
  Ca  Ca5  1  0.499503  0.953540  0.287340  1
  Ca  Ca6  1  0.500497  0.046460  0.712660  1
  Ca  Ca7  1  0.499503  0.546460  0.787340  1
  I  I8  1  0.250572  0.492334  0.885779  1
  I  I9  1  0.180888  0.940274  0.987423  1
  I  I10  1  0.598711  0.186466  0.195387  1
  I  I11  1  0.178837  0.334870  0.169900  1
  I  I12  1  0.821163  0.834870  0.330100  1
  I  I13  1  0.401289  0.686466  0.304613  1
  I  I14  1  0.819112  0.440274  0.512577  1
  I  I15  1  0.749428  0.992334  0.614221  1
  I  I16  1  0.250572  0.007666  0.385779  1
  I  I17  1  0.180888  0.559726  0.487423  1
  I  I18  1  0.598711  0.313534  0.695387  1
  I  I19  1  0.178837  0.165130  0.669900  1
  I  I20  1  0.821163  0.665130  0.830100  1
  I  I21  1  0.401289  0.813534  0.804613  1
  I  I22  1  0.819112  0.059726  0.012577  1
  I  I23  1  0.749428  0.507666  0.114221  1
