# generated using pymatgen
data_Li3SbS4
_symmetry_space_group_name_H-M   'P 1'
_cell_length_a   6.37415233
_cell_length_b   7.50807792
_cell_length_c   6.46716099
_cell_angle_alpha   90.00000000
_cell_angle_beta   109.21909040
_cell_angle_gamma   90.00000000
_symmetry_Int_Tables_number   1
_chemical_formula_structural   Li3SbS4
_chemical_formula_sum   'Li6 Sb2 S8'
_cell_volume   292.25340231
_cell_formula_units_Z   2
loop_
 _symmetry_equiv_pos_site_id
 _symmetry_equiv_pos_as_xyz
  1  'x, y, z'
loop_
 _atom_site_type_symbol
 _atom_site_label
 _atom_site_symmetry_multiplicity
 _atom_site_fract_x
 _atom_site_fract_y
 _atom_site_fract_z
 _atom_site_occupancy
  Li  Li0  1  0.250000  0.613026  0.000000  1
  Li  Li1  1  0.750000  0.386974  0.000000  1
  Li  Li2  1  0.250000  0.401350  0.500000  1
  Li  Li3  1  0.250000  0.857381  0.500000  1
  Li  Li4  1  0.750000  0.598650  0.500000  1
  Li  Li5  1  0.750000  0.142619  0.500000  1
  Sb  Sb6  1  0.250000  0.137272  0.000000  1
  Sb  Sb7  1  0.750000  0.862728  0.000000  1
  S  S8  1  0.021689  0.364077  0.748944  1
  S  S9  1  0.499866  0.109727  0.764583  1
  S  S10  1  0.521689  0.635923  0.748944  1
  S  S11  1  0.999866  0.890273  0.764583  1
  S  S12  1  0.000134  0.109727  0.235417  1
  S  S13  1  0.478311  0.364077  0.251056  1
  S  S14  1  0.500134  0.890273  0.235417  1
  S  S15  1  0.978311  0.635923  0.251056  1
