# generated using pymatgen
data_Li2V(CO3)2
_symmetry_space_group_name_H-M   'P 1'
_cell_length_a   9.01812537
_cell_length_b   9.01812537
_cell_length_c   9.86215010
_cell_angle_alpha   56.81618850
_cell_angle_beta   123.18381150
_cell_angle_gamma   108.14208934
_symmetry_Int_Tables_number   1
_chemical_formula_structural   Li2V(CO3)2
_chemical_formula_sum   'Li8 V4 C8 O24'
_cell_volume   561.70626641
_cell_formula_units_Z   4
loop_
 _symmetry_equiv_pos_site_id
 _symmetry_equiv_pos_as_xyz
  1  'x, y, z'
loop_
 _atom_site_type_symbol
 _atom_site_label
 _atom_site_symmetry_multiplicity
 _atom_site_fract_x
 _atom_site_fract_y
 _atom_site_fract_z
 _atom_site_occupancy
  Li  Li0  1  0.125701  0.125701  0.500000  1
  Li  Li1  1  0.183474  0.183474  0.000000  1
  Li  Li2  1  0.280789  0.788589  0.501041  1
  Li  Li3  1  0.321906  0.674908  0.073914  1
  Li  Li4  1  0.788589  0.280789  0.498959  1
  Li  Li5  1  0.820581  0.820581  0.500000  1
  Li  Li6  1  0.674908  0.321906  0.926086  1
  Li  Li7  1  0.875302  0.875302  0.000000  1
  V  V8  1  0.033334  0.965597  0.784179  1
  V  V9  1  0.965597  0.033334  0.215821  1
  V  V10  1  0.473040  0.473040  0.000000  1
  V  V11  1  0.529707  0.529707  0.500000  1
  C  C12  1  0.172194  0.764698  0.690507  1
  C  C13  1  0.262269  0.335350  0.232871  1
  C  C14  1  0.335350  0.262269  0.767129  1
  C  C15  1  0.240023  0.831429  0.219034  1
  C  C16  1  0.664904  0.739132  0.193888  1
  C  C17  1  0.764698  0.172194  0.309493  1
  C  C18  1  0.831429  0.240023  0.780966  1
  C  C19  1  0.739132  0.664904  0.806112  1
  O  O20  1  0.072112  0.864682  0.513160  1
  O  O21  1  0.287494  0.666929  0.737403  1
  O  O22  1  0.147640  0.936983  0.198962  1
  O  O23  1  0.152299  0.770155  0.807205  1
  O  O24  1  0.207389  0.166868  0.697941  1
  O  O25  1  0.276077  0.347577  0.102454  1
  O  O26  1  0.166868  0.207389  0.302059  1
  O  O27  1  0.221812  0.841103  0.075908  1
  O  O28  1  0.337039  0.450487  0.291116  1
  O  O29  1  0.548621  0.662180  0.097845  1
  O  O30  1  0.347577  0.276077  0.897546  1
  O  O31  1  0.666929  0.287494  0.262597  1
  O  O32  1  0.346982  0.723894  0.385154  1
  O  O33  1  0.655362  0.726417  0.326809  1
  O  O34  1  0.450487  0.337039  0.708884  1
  O  O35  1  0.723894  0.346982  0.614846  1
  O  O36  1  0.770155  0.152299  0.192795  1
  O  O37  1  0.726417  0.655362  0.673191  1
  O  O38  1  0.936983  0.147640  0.801038  1
  O  O39  1  0.791266  0.834204  0.154608  1
  O  O40  1  0.864682  0.072112  0.486840  1
  O  O41  1  0.841103  0.221812  0.924092  1
  O  O42  1  0.662180  0.548621  0.902155  1
  O  O43  1  0.834204  0.791266  0.845392  1
