# generated using pymatgen
data_Li3CrO4
_symmetry_space_group_name_H-M   'P 1'
_cell_length_a   5.80535110
_cell_length_b   5.78773702
_cell_length_c   12.61937192
_cell_angle_alpha   90.00000000
_cell_angle_beta   102.53146863
_cell_angle_gamma   90.00000000
_symmetry_Int_Tables_number   1
_chemical_formula_structural   Li3CrO4
_chemical_formula_sum   'Li18 Cr6 O24'
_cell_volume   413.90777471
_cell_formula_units_Z   6
loop_
 _symmetry_equiv_pos_site_id
 _symmetry_equiv_pos_as_xyz
  1  'x, y, z'
loop_
 _atom_site_type_symbol
 _atom_site_label
 _atom_site_symmetry_multiplicity
 _atom_site_fract_x
 _atom_site_fract_y
 _atom_site_fract_z
 _atom_site_occupancy
  Li  Li0  1  0.000000  0.498068  0.000000  1
  Li  Li1  1  0.000000  0.977086  0.000000  1
  Li  Li2  1  0.000000  0.216268  0.500000  1
  Li  Li3  1  0.000000  0.712666  0.500000  1
  Li  Li4  1  0.165136  0.734603  0.832087  1
  Li  Li5  1  0.175863  0.222889  0.841674  1
  Li  Li6  1  0.337862  0.959122  0.667758  1
  Li  Li7  1  0.154242  0.962652  0.333663  1
  Li  Li8  1  0.500000  0.470078  0.000000  1
  Li  Li9  1  0.172172  0.466611  0.337776  1
  Li  Li10  1  0.334872  0.723044  0.169506  1
  Li  Li11  1  0.500000  0.212584  0.500000  1
  Li  Li12  1  0.665128  0.723044  0.830494  1
  Li  Li13  1  0.827828  0.466611  0.662224  1
  Li  Li14  1  0.845758  0.962652  0.666337  1
  Li  Li15  1  0.662138  0.959122  0.332242  1
  Li  Li16  1  0.824137  0.222889  0.158326  1
  Li  Li17  1  0.834864  0.734603  0.167913  1
  Cr  Cr18  1  0.305736  0.458705  0.668534  1
  Cr  Cr19  1  0.500000  0.945784  0.000000  1
  Cr  Cr20  1  0.304063  0.222972  0.167680  1
  Cr  Cr21  1  0.500000  0.735630  0.500000  1
  Cr  Cr22  1  0.695937  0.222972  0.832320  1
  Cr  Cr23  1  0.694264  0.458705  0.331466  1
  O  O24  1  0.105121  0.694139  0.671346  1
  O  O25  1  0.268731  0.742233  0.995241  1
  O  O26  1  0.102670  0.234160  0.662093  1
  O  O27  1  0.426913  0.461333  0.819433  1
  O  O28  1  0.102791  0.989863  0.171121  1
  O  O29  1  0.270213  0.940189  0.495347  1
  O  O30  1  0.434805  0.992000  0.846589  1
  O  O31  1  0.102056  0.448818  0.161172  1
  O  O32  1  0.275111  0.470546  0.513085  1
  O  O33  1  0.722553  0.210797  0.986820  1
  O  O34  1  0.564573  0.688662  0.653316  1
  O  O35  1  0.574490  0.221477  0.681235  1
  O  O36  1  0.425510  0.221477  0.318765  1
  O  O37  1  0.435427  0.688662  0.346684  1
  O  O38  1  0.277447  0.210797  0.013180  1
  O  O39  1  0.724889  0.470546  0.486915  1
  O  O40  1  0.897944  0.448818  0.838828  1
  O  O41  1  0.565195  0.992000  0.153411  1
  O  O42  1  0.729787  0.940189  0.504653  1
  O  O43  1  0.897209  0.989863  0.828879  1
  O  O44  1  0.573087  0.461333  0.180567  1
  O  O45  1  0.897330  0.234160  0.337907  1
  O  O46  1  0.731269  0.742233  0.004759  1
  O  O47  1  0.894879  0.694139  0.328654  1
