# generated using pymatgen
data_Li2Fe3CuO8
_symmetry_space_group_name_H-M   'P 1'
_cell_length_a   5.93537738
_cell_length_b   5.93537738
_cell_length_c   9.45908701
_cell_angle_alpha   90.00000000
_cell_angle_beta   90.00000000
_cell_angle_gamma   120.00000000
_symmetry_Int_Tables_number   1
_chemical_formula_structural   Li2Fe3CuO8
_chemical_formula_sum   'Li4 Fe6 Cu2 O16'
_cell_volume   288.58684270
_cell_formula_units_Z   2
loop_
 _symmetry_equiv_pos_site_id
 _symmetry_equiv_pos_as_xyz
  1  'x, y, z'
loop_
 _atom_site_type_symbol
 _atom_site_label
 _atom_site_symmetry_multiplicity
 _atom_site_fract_x
 _atom_site_fract_y
 _atom_site_fract_z
 _atom_site_occupancy
  Li  Li0  1  0.333333  0.666667  0.101703  1
  Li  Li1  1  0.000000  0.000000  0.008409  1
  Li  Li2  1  0.000000  0.000000  0.508409  1
  Li  Li3  1  0.666667  0.333333  0.601703  1
  Fe  Fe4  1  0.172550  0.827450  0.788756  1
  Fe  Fe5  1  0.654899  0.827450  0.788756  1
  Fe  Fe6  1  0.172550  0.345101  0.788756  1
  Fe  Fe7  1  0.827450  0.654899  0.288756  1
  Fe  Fe8  1  0.345101  0.172550  0.288756  1
  Fe  Fe9  1  0.827450  0.172550  0.288756  1
  Cu  Cu10  1  0.333333  0.666667  0.514165  1
  Cu  Cu11  1  0.666667  0.333333  0.014165  1
  O  O12  1  0.170389  0.829611  0.398927  1
  O  O13  1  0.478510  0.957021  0.654495  1
  O  O14  1  0.333333  0.666667  0.898001  1
  O  O15  1  0.000000  0.000000  0.699661  1
  O  O16  1  0.000000  0.000000  0.199661  1
  O  O17  1  0.659221  0.829611  0.398927  1
  O  O18  1  0.042979  0.521490  0.654495  1
  O  O19  1  0.478510  0.521490  0.654495  1
  O  O20  1  0.829611  0.659221  0.898927  1
  O  O21  1  0.170389  0.340779  0.398927  1
  O  O22  1  0.521490  0.478510  0.154495  1
  O  O23  1  0.957021  0.478510  0.154495  1
  O  O24  1  0.666667  0.333333  0.398001  1
  O  O25  1  0.340779  0.170389  0.898927  1
  O  O26  1  0.521490  0.042979  0.154495  1
  O  O27  1  0.829611  0.170389  0.898927  1
