# generated using pymatgen
data_UP3H10ClO8
_symmetry_space_group_name_H-M   'P 1'
_cell_length_a   7.73934713
_cell_length_b   10.29865300
_cell_length_c   14.96049952
_cell_angle_alpha   90.00000000
_cell_angle_beta   90.00000000
_cell_angle_gamma   90.00000000
_symmetry_Int_Tables_number   1
_chemical_formula_structural   UP3H10ClO8
_chemical_formula_sum   'U4 P12 H40 Cl4 O32'
_cell_volume   1192.42437822
_cell_formula_units_Z   4
loop_
 _symmetry_equiv_pos_site_id
 _symmetry_equiv_pos_as_xyz
  1  'x, y, z'
loop_
 _atom_site_type_symbol
 _atom_site_label
 _atom_site_symmetry_multiplicity
 _atom_site_fract_x
 _atom_site_fract_y
 _atom_site_fract_z
 _atom_site_occupancy
  U  U0  1  0.197862  0.434216  0.750000  1
  U  U1  1  0.802138  0.565784  0.250000  1
  U  U2  1  0.197862  0.065784  0.250000  1
  U  U3  1  0.802138  0.934216  0.750000  1
  P  P4  1  0.650733  0.285433  0.750000  1
  P  P5  1  0.349267  0.714567  0.250000  1
  P  P6  1  0.650733  0.214567  0.250000  1
  P  P7  1  0.349267  0.785433  0.750000  1
  P  P8  1  0.118414  0.129804  0.887064  1
  P  P9  1  0.881586  0.870196  0.387064  1
  P  P10  1  0.118414  0.370196  0.112936  1
  P  P11  1  0.881586  0.629804  0.612936  1
  P  P12  1  0.881586  0.870196  0.112936  1
  P  P13  1  0.118414  0.129804  0.612936  1
  P  P14  1  0.881586  0.629804  0.887064  1
  P  P15  1  0.118414  0.370196  0.387064  1
  H  H16  1  0.731323  0.341862  0.674714  1
  H  H17  1  0.268677  0.658138  0.174714  1
  H  H18  1  0.731323  0.158138  0.325286  1
  H  H19  1  0.268677  0.841862  0.825286  1
  H  H20  1  0.268677  0.658138  0.325286  1
  H  H21  1  0.731323  0.341862  0.825286  1
  H  H22  1  0.268677  0.841862  0.674714  1
  H  H23  1  0.731323  0.158138  0.174714  1
  H  H24  1  0.290947  0.085004  0.887763  1
  H  H25  1  0.709053  0.914996  0.387763  1
  H  H26  1  0.290947  0.414996  0.112237  1
  H  H27  1  0.709053  0.585004  0.612237  1
  H  H28  1  0.709053  0.914996  0.112237  1
  H  H29  1  0.290947  0.085004  0.612237  1
  H  H30  1  0.709053  0.585004  0.887763  1
  H  H31  1  0.290947  0.414996  0.387763  1
  H  H32  1  0.069704  0.139054  0.977926  1
  H  H33  1  0.930296  0.860946  0.477926  1
  H  H34  1  0.069704  0.360946  0.022074  1
  H  H35  1  0.930296  0.639054  0.522074  1
  H  H36  1  0.930296  0.860946  0.022074  1
  H  H37  1  0.069704  0.139054  0.522074  1
  H  H38  1  0.930296  0.639054  0.977926  1
  H  H39  1  0.069704  0.360946  0.477926  1
  H  H40  1  0.395145  0.555339  0.917555  1
  H  H41  1  0.604855  0.444661  0.417555  1
  H  H42  1  0.395145  0.944661  0.082445  1
  H  H43  1  0.604855  0.055339  0.582445  1
  H  H44  1  0.604855  0.444661  0.082445  1
  H  H45  1  0.395145  0.555339  0.582445  1
  H  H46  1  0.604855  0.055339  0.917555  1
  H  H47  1  0.395145  0.944661  0.417555  1
  H  H48  1  0.423811  0.400726  0.918252  1
  H  H49  1  0.576189  0.599274  0.418252  1
  H  H50  1  0.423811  0.099274  0.081748  1
  H  H51  1  0.576189  0.900726  0.581748  1
  H  H52  1  0.576189  0.599274  0.081748  1
  H  H53  1  0.423811  0.400726  0.581748  1
  H  H54  1  0.576189  0.900726  0.918252  1
  H  H55  1  0.423811  0.099274  0.418252  1
  Cl  Cl56  1  0.558123  0.250000  0.000000  1
  Cl  Cl57  1  0.441877  0.750000  0.500000  1
  Cl  Cl58  1  0.441877  0.750000  0.000000  1
  Cl  Cl59  1  0.558123  0.250000  0.500000  1
  O  O60  1  0.458814  0.320633  0.750000  1
  O  O61  1  0.541186  0.679367  0.250000  1
  O  O62  1  0.458814  0.179367  0.250000  1
  O  O63  1  0.541186  0.820633  0.750000  1
  O  O64  1  0.692178  0.140249  0.750000  1
  O  O65  1  0.307822  0.859751  0.250000  1
  O  O66  1  0.692178  0.359751  0.250000  1
  O  O67  1  0.307822  0.640249  0.750000  1
  O  O68  1  0.115045  0.265381  0.845577  1
  O  O69  1  0.884955  0.734619  0.345577  1
  O  O70  1  0.115045  0.234619  0.154423  1
  O  O71  1  0.884955  0.765381  0.654423  1
  O  O72  1  0.884955  0.734619  0.154423  1
  O  O73  1  0.115045  0.265381  0.654423  1
  O  O74  1  0.884955  0.765381  0.845577  1
  O  O75  1  0.115045  0.234619  0.345577  1
  O  O76  1  0.007984  0.025051  0.843270  1
  O  O77  1  0.992016  0.974949  0.343270  1
  O  O78  1  0.007984  0.474949  0.156730  1
  O  O79  1  0.992016  0.525051  0.656730  1
  O  O80  1  0.992016  0.974949  0.156730  1
  O  O81  1  0.007984  0.025051  0.656730  1
  O  O82  1  0.992016  0.525051  0.843270  1
  O  O83  1  0.007984  0.474949  0.343270  1
  O  O84  1  0.349307  0.472176  0.895645  1
  O  O85  1  0.650693  0.527824  0.395645  1
  O  O86  1  0.349307  0.027824  0.104355  1
  O  O87  1  0.650693  0.972176  0.604355  1
  O  O88  1  0.650693  0.527824  0.104355  1
  O  O89  1  0.349307  0.472176  0.604355  1
  O  O90  1  0.650693  0.972176  0.895645  1
  O  O91  1  0.349307  0.027824  0.395645  1
