# generated using pymatgen
data_Na5H29(IO12)2
_symmetry_space_group_name_H-M   'P 1'
_cell_length_a   8.87333789
_cell_length_b   8.89224898
_cell_length_c   9.13963154
_cell_angle_alpha   117.89148405
_cell_angle_beta   100.10264482
_cell_angle_gamma   94.21835078
_symmetry_Int_Tables_number   1
_chemical_formula_structural   Na5H29(IO12)2
_chemical_formula_sum   'Na5 H29 I2 O24'
_cell_volume   617.38119546
_cell_formula_units_Z   1
loop_
 _symmetry_equiv_pos_site_id
 _symmetry_equiv_pos_as_xyz
  1  'x, y, z'
loop_
 _atom_site_type_symbol
 _atom_site_label
 _atom_site_symmetry_multiplicity
 _atom_site_fract_x
 _atom_site_fract_y
 _atom_site_fract_z
 _atom_site_occupancy
  Na  Na0  1  0.873573  0.381238  0.113215  1
  Na  Na1  1  0.126427  0.618762  0.886785  1
  Na  Na2  1  0.000000  0.000000  0.000000  1
  Na  Na3  1  0.641066  0.649825  0.354573  1
  Na  Na4  1  0.358934  0.350175  0.645427  1
  H  H5  1  0.552893  0.218056  0.743497  1
  H  H6  1  0.447107  0.781944  0.256503  1
  H  H7  1  0.000000  0.500000  0.000000  1
  H  H8  1  0.186675  0.537500  0.146215  1
  H  H9  1  0.813325  0.462500  0.853785  1
  H  H10  1  0.786491  0.075264  0.747016  1
  H  H11  1  0.213509  0.924736  0.252984  1
  H  H12  1  0.944981  0.202622  0.820225  1
  H  H13  1  0.055019  0.797378  0.179775  1
  H  H14  1  0.902536  0.851247  0.373882  1
  H  H15  1  0.097464  0.148753  0.626118  1
  H  H16  1  0.845587  0.708385  0.180242  1
  H  H17  1  0.154413  0.291615  0.819758  1
  H  H18  1  0.887984  0.180864  0.305849  1
  H  H19  1  0.112016  0.819136  0.694151  1
  H  H20  1  0.993467  0.359267  0.394599  1
  H  H21  1  0.006533  0.640733  0.605401  1
  H  H22  1  0.332738  0.546540  0.446131  1
  H  H23  1  0.667262  0.453460  0.553869  1
  H  H24  1  0.221609  0.368315  0.346976  1
  H  H25  1  0.778391  0.631685  0.653024  1
  H  H26  1  0.445289  0.709152  0.983903  1
  H  H27  1  0.554711  0.290848  0.016097  1
  H  H28  1  0.404273  0.714977  0.812644  1
  H  H29  1  0.595727  0.285023  0.187356  1
  H  H30  1  0.660672  0.874041  0.884929  1
  H  H31  1  0.339328  0.125959  0.115071  1
  H  H32  1  0.697239  0.910782  0.072584  1
  H  H33  1  0.302761  0.089218  0.927416  1
  I  I34  1  0.406078  0.918771  0.590391  1
  I  I35  1  0.593922  0.081229  0.409609  1
  O  O36  1  0.374689  0.708645  0.390642  1
  O  O37  1  0.625311  0.291355  0.609358  1
  O  O38  1  0.206305  0.928245  0.614460  1
  O  O39  1  0.793695  0.071755  0.385540  1
  O  O40  1  0.470740  0.169930  0.780565  1
  O  O41  1  0.529260  0.830070  0.219435  1
  O  O42  1  0.516949  0.156883  0.262819  1
  O  O43  1  0.483051  0.843117  0.737181  1
  O  O44  1  0.626947  0.964637  0.557660  1
  O  O45  1  0.373053  0.035363  0.442340  1
  O  O46  1  0.880528  0.546743  0.964027  1
  O  O47  1  0.119472  0.453257  0.035973  1
  O  O48  1  0.873842  0.136660  0.848751  1
  O  O49  1  0.126158  0.863340  0.151249  1
  O  O50  1  0.885058  0.726596  0.296536  1
  O  O51  1  0.114942  0.273404  0.703464  1
  O  O52  1  0.958464  0.256714  0.283174  1
  O  O53  1  0.041536  0.743286  0.716826  1
  O  O54  1  0.280396  0.452790  0.460747  1
  O  O55  1  0.719604  0.547210  0.539253  1
  O  O56  1  0.383521  0.641922  0.865336  1
  O  O57  1  0.616479  0.358078  0.134664  1
  O  O58  1  0.746320  0.891277  0.978913  1
  O  O59  1  0.253680  0.108723  0.021087  1
