# generated using pymatgen
data_V3(O2F)2
_symmetry_space_group_name_H-M   'P 1'
_cell_length_a   5.57891933
_cell_length_b   5.57891933
_cell_length_c   7.45347002
_cell_angle_alpha   71.03423359
_cell_angle_beta   108.96576641
_cell_angle_gamma   109.77594602
_symmetry_Int_Tables_number   1
_chemical_formula_structural   V3(O2F)2
_chemical_formula_sum   'V6 O8 F4'
_cell_volume   200.33379968
_cell_formula_units_Z   2
loop_
 _symmetry_equiv_pos_site_id
 _symmetry_equiv_pos_as_xyz
  1  'x, y, z'
loop_
 _atom_site_type_symbol
 _atom_site_label
 _atom_site_symmetry_multiplicity
 _atom_site_fract_x
 _atom_site_fract_y
 _atom_site_fract_z
 _atom_site_occupancy
  V  V0  1  0.667356  0.332644  0.170594  1
  V  V1  1  1.000000  1.000000  0.000000  1
  V  V2  1  0.682052  0.317948  0.660994  1
  V  V3  1  1.000000  1.000000  0.500000  1
  V  V4  1  0.332644  0.667356  0.829406  1
  V  V5  1  0.317948  0.682052  0.339006  1
  O  O6  1  0.295302  0.295302  0.000000  1
  O  O7  1  0.971282  0.636783  0.664807  1
  O  O8  1  0.094384  0.905616  0.295086  1
  O  O9  1  0.905616  0.094384  0.704914  1
  O  O10  1  0.028718  0.363217  0.335193  1
  O  O11  1  0.704698  0.704698  0.000000  1
  O  O12  1  0.363217  0.028718  0.664807  1
  O  O13  1  0.636783  0.971282  0.335193  1
  F  F14  1  0.769482  0.230518  0.965266  1
  F  F15  1  0.441362  0.558638  0.635628  1
  F  F16  1  0.230518  0.769482  0.034734  1
  F  F17  1  0.558638  0.441362  0.364372  1
