# generated using pymatgen
data_NaNi4H9(CO5)3
_symmetry_space_group_name_H-M   'P 1'
_cell_length_a   10.44682174
_cell_length_b   10.44682174
_cell_length_c   6.09409719
_cell_angle_alpha   90.00000000
_cell_angle_beta   90.00000000
_cell_angle_gamma   120.00000000
_symmetry_Int_Tables_number   1
_chemical_formula_structural   NaNi4H9(CO5)3
_chemical_formula_sum   'Na2 Ni8 H18 C6 O30'
_cell_volume   575.98129055
_cell_formula_units_Z   2
loop_
 _symmetry_equiv_pos_site_id
 _symmetry_equiv_pos_as_xyz
  1  'x, y, z'
loop_
 _atom_site_type_symbol
 _atom_site_label
 _atom_site_symmetry_multiplicity
 _atom_site_fract_x
 _atom_site_fract_y
 _atom_site_fract_z
 _atom_site_occupancy
  Na  Na0  1  0.000000  0.000000  0.368479  1
  Na  Na1  1  0.000000  0.000000  0.868479  1
  Ni  Ni2  1  0.002450  0.515646  0.253030  1
  Ni  Ni3  1  0.333333  0.666667  0.137424  1
  Ni  Ni4  1  0.513196  0.997550  0.253030  1
  Ni  Ni5  1  0.484354  0.486804  0.253030  1
  Ni  Ni6  1  0.515646  0.513196  0.753030  1
  Ni  Ni7  1  0.486804  0.002450  0.753030  1
  Ni  Ni8  1  0.666667  0.333333  0.637424  1
  Ni  Ni9  1  0.997550  0.484354  0.753030  1
  H  H10  1  0.049452  0.795571  0.166703  1
  H  H11  1  0.201208  0.937877  0.108121  1
  H  H12  1  0.162493  0.716296  0.935055  1
  H  H13  1  0.062123  0.263331  0.108121  1
  H  H14  1  0.204429  0.253881  0.166703  1
  H  H15  1  0.283704  0.446196  0.935055  1
  H  H16  1  0.553804  0.837507  0.935055  1
  H  H17  1  0.263331  0.201208  0.608121  1
  H  H18  1  0.253881  0.049452  0.666703  1
  H  H19  1  0.746119  0.950548  0.166703  1
  H  H20  1  0.736669  0.798792  0.108121  1
  H  H21  1  0.446196  0.162493  0.435055  1
  H  H22  1  0.716296  0.553804  0.435055  1
  H  H23  1  0.795571  0.746119  0.666703  1
  H  H24  1  0.937877  0.736669  0.608121  1
  H  H25  1  0.837507  0.283704  0.435055  1
  H  H26  1  0.798792  0.062123  0.608121  1
  H  H27  1  0.950548  0.204429  0.666703  1
  C  C28  1  0.220780  0.783133  0.508837  1
  C  C29  1  0.216867  0.437646  0.508837  1
  C  C30  1  0.562354  0.779220  0.508837  1
  C  C31  1  0.437646  0.220780  0.008837  1
  C  C32  1  0.783133  0.562354  0.008837  1
  C  C33  1  0.779220  0.216867  0.008837  1
  O  O34  1  0.094582  0.899061  0.121497  1
  O  O35  1  0.085845  0.669987  0.506811  1
  O  O36  1  0.137246  0.618386  0.989876  1
  O  O37  1  0.268604  0.859776  0.685173  1
  O  O38  1  0.300787  0.816495  0.331929  1
  O  O39  1  0.140224  0.408827  0.685173  1
  O  O40  1  0.183505  0.484292  0.331929  1
  O  O41  1  0.100939  0.195521  0.121497  1
  O  O42  1  0.481140  0.862754  0.989876  1
  O  O43  1  0.381614  0.518860  0.989876  1
  O  O44  1  0.584142  0.914155  0.506811  1
  O  O45  1  0.330013  0.415858  0.506811  1
  O  O46  1  0.195521  0.094582  0.621497  1
  O  O47  1  0.515708  0.699213  0.331929  1
  O  O48  1  0.591173  0.731396  0.685173  1
  O  O49  1  0.408827  0.268604  0.185173  1
  O  O50  1  0.484292  0.300787  0.831929  1
  O  O51  1  0.804479  0.905418  0.121497  1
  O  O52  1  0.669987  0.584142  0.006811  1
  O  O53  1  0.415858  0.085845  0.006811  1
  O  O54  1  0.618386  0.481140  0.489876  1
  O  O55  1  0.518860  0.137246  0.489876  1
  O  O56  1  0.899061  0.804479  0.621497  1
  O  O57  1  0.816495  0.515708  0.831929  1
  O  O58  1  0.859776  0.591173  0.185173  1
  O  O59  1  0.699213  0.183505  0.831929  1
  O  O60  1  0.731396  0.140224  0.185173  1
  O  O61  1  0.862754  0.381614  0.489876  1
  O  O62  1  0.914155  0.330013  0.006811  1
  O  O63  1  0.905418  0.100939  0.621497  1
