# generated using pymatgen
data_Na2MnPCO7
_symmetry_space_group_name_H-M   'P 1'
_cell_length_a   8.46700073
_cell_length_b   8.55763566
_cell_length_c   10.17536845
_cell_angle_alpha   107.77455435
_cell_angle_beta   106.65094602
_cell_angle_gamma   105.05855030
_symmetry_Int_Tables_number   1
_chemical_formula_structural   Na2MnPCO7
_chemical_formula_sum   'Na8 Mn4 P4 C4 O28'
_cell_volume   622.01085110
_cell_formula_units_Z   4
loop_
 _symmetry_equiv_pos_site_id
 _symmetry_equiv_pos_as_xyz
  1  'x, y, z'
loop_
 _atom_site_type_symbol
 _atom_site_label
 _atom_site_symmetry_multiplicity
 _atom_site_fract_x
 _atom_site_fract_y
 _atom_site_fract_z
 _atom_site_occupancy
  Na  Na0  1  0.762680  0.755584  0.759705  1
  Na  Na1  1  0.255718  0.239070  0.742081  1
  Na  Na2  1  0.985660  0.504520  0.742536  1
  Na  Na3  1  0.505910  0.012772  0.762284  1
  Na  Na4  1  0.515368  0.008839  0.248921  1
  Na  Na5  1  0.752062  0.751353  0.245103  1
  Na  Na6  1  0.228054  0.247507  0.251580  1
  Na  Na7  1  0.287680  0.549989  0.085358  1
  Mn  Mn8  1  0.811033  0.060139  0.648748  1
  Mn  Mn9  1  0.306264  0.557644  0.645146  1
  Mn  Mn10  1  0.701240  0.441461  0.346855  1
  Mn  Mn11  1  0.192156  0.935673  0.350033  1
  P  P12  1  0.059442  0.808784  0.579474  1
  P  P13  1  0.559816  0.311344  0.576975  1
  P  P14  1  0.441714  0.689935  0.421668  1
  P  P15  1  0.935793  0.183299  0.418649  1
  C  C16  1  0.980084  0.228352  0.928402  1
  C  C17  1  0.471087  0.721505  0.928615  1
  C  C18  1  0.524122  0.279509  0.072297  1
  C  C19  1  0.027155  0.776901  0.072076  1
  O  O20  1  0.957422  0.704412  0.931084  1
  O  O21  1  0.442666  0.203455  0.932091  1
  O  O22  1  0.322328  0.575339  0.850152  1
  O  O23  1  0.830926  0.084492  0.854455  1
  O  O24  1  0.035340  0.288836  0.838425  1
  O  O25  1  0.535210  0.785503  0.847173  1
  O  O26  1  0.162205  0.723181  0.668423  1
  O  O27  1  0.983681  0.918245  0.677293  1
  O  O28  1  0.663848  0.229798  0.669148  1
  O  O29  1  0.474425  0.414644  0.669593  1
  O  O30  1  0.586670  0.833713  0.575998  1
  O  O31  1  0.694363  0.446645  0.544876  1
  O  O32  1  0.196166  0.941772  0.546755  1
  O  O33  1  0.077278  0.330573  0.572769  1
  O  O34  1  0.910162  0.669301  0.427396  1
  O  O35  1  0.311285  0.555157  0.456505  1
  O  O36  1  0.805693  0.043793  0.453371  1
  O  O37  1  0.415275  0.165296  0.423906  1
  O  O38  1  0.340755  0.772141  0.328045  1
  O  O39  1  0.516430  0.583722  0.320899  1
  O  O40  1  0.818422  0.251963  0.325900  1
  O  O41  1  0.023243  0.082906  0.328890  1
  O  O42  1  0.474009  0.226638  0.167370  1
  O  O43  1  0.967665  0.723904  0.160883  1
  O  O44  1  0.669635  0.424423  0.140367  1
  O  O45  1  0.179581  0.919274  0.146840  1
  O  O46  1  0.060601  0.298604  0.067728  1
  O  O47  1  0.533684  0.782198  0.070434  1
