# generated using pymatgen
data_Li2Ni3O3F2
_symmetry_space_group_name_H-M   'P 1'
_cell_length_a   10.70394116
_cell_length_b   10.70394116
_cell_length_c   10.70394116
_cell_angle_alpha   164.13937486
_cell_angle_beta   164.13937486
_cell_angle_gamma   22.50311798
_symmetry_Int_Tables_number   1
_chemical_formula_structural   Li2Ni3O3F2
_chemical_formula_sum   'Li2 Ni3 O3 F2'
_cell_volume   91.58471157
_cell_formula_units_Z   1
loop_
 _symmetry_equiv_pos_site_id
 _symmetry_equiv_pos_as_xyz
  1  'x, y, z'
loop_
 _atom_site_type_symbol
 _atom_site_label
 _atom_site_symmetry_multiplicity
 _atom_site_fract_x
 _atom_site_fract_y
 _atom_site_fract_z
 _atom_site_occupancy
  Li  Li0  1  0.699494  0.699494  0.000000  1
  Li  Li1  1  0.300506  0.300506  0.000000  1
  Ni  Ni2  1  0.899849  0.899849  0.000000  1
  Ni  Ni3  1  0.500000  0.500000  0.000000  1
  Ni  Ni4  1  0.100151  0.100151  0.000000  1
  O  O5  1  0.398474  0.398474  0.000000  1
  O  O6  1  0.000000  0.000000  0.000000  1
  O  O7  1  0.601526  0.601526  0.000000  1
  F  F8  1  0.203192  0.203192  0.000000  1
  F  F9  1  0.796808  0.796808  0.000000  1
