# generated using pymatgen
data_CsH24Rh(SO10)2
_symmetry_space_group_name_H-M   'P 1'
_cell_length_a   12.43859270
_cell_length_b   12.43859270
_cell_length_c   12.43859270
_cell_angle_alpha   90.00000000
_cell_angle_beta   90.00000000
_cell_angle_gamma   90.00000000
_symmetry_Int_Tables_number   1
_chemical_formula_structural   CsH24Rh(SO10)2
_chemical_formula_sum   'Cs4 H96 Rh4 S8 O80'
_cell_volume   1924.48150369
_cell_formula_units_Z   4
loop_
 _symmetry_equiv_pos_site_id
 _symmetry_equiv_pos_as_xyz
  1  'x, y, z'
loop_
 _atom_site_type_symbol
 _atom_site_label
 _atom_site_symmetry_multiplicity
 _atom_site_fract_x
 _atom_site_fract_y
 _atom_site_fract_z
 _atom_site_occupancy
  Cs  Cs0  1  0.000000  0.000000  0.500000  1
  Cs  Cs1  1  0.000000  0.500000  0.000000  1
  Cs  Cs2  1  0.500000  0.000000  0.000000  1
  Cs  Cs3  1  0.500000  0.500000  0.500000  1
  H  H4  1  0.208110  0.621414  0.176060  1
  H  H5  1  0.791890  0.121414  0.323940  1
  H  H6  1  0.291890  0.378586  0.676060  1
  H  H7  1  0.708110  0.878586  0.823940  1
  H  H8  1  0.176060  0.208110  0.621414  1
  H  H9  1  0.323940  0.791890  0.121414  1
  H  H10  1  0.676060  0.291890  0.378586  1
  H  H11  1  0.823940  0.708110  0.878586  1
  H  H12  1  0.621414  0.176060  0.208110  1
  H  H13  1  0.121414  0.323940  0.791890  1
  H  H14  1  0.378586  0.676060  0.291890  1
  H  H15  1  0.878586  0.823940  0.708110  1
  H  H16  1  0.791890  0.378586  0.823940  1
  H  H17  1  0.208110  0.878586  0.676060  1
  H  H18  1  0.708110  0.621414  0.323940  1
  H  H19  1  0.291890  0.121414  0.176060  1
  H  H20  1  0.823940  0.791890  0.378586  1
  H  H21  1  0.676060  0.208110  0.878586  1
  H  H22  1  0.323940  0.708110  0.621414  1
  H  H23  1  0.176060  0.291890  0.121414  1
  H  H24  1  0.378586  0.823940  0.791890  1
  H  H25  1  0.878586  0.676060  0.208110  1
  H  H26  1  0.621414  0.323940  0.708110  1
  H  H27  1  0.121414  0.176060  0.291890  1
  H  H28  1  0.231174  0.503795  0.213739  1
  H  H29  1  0.768826  0.003795  0.286261  1
  H  H30  1  0.268826  0.496205  0.713739  1
  H  H31  1  0.731174  0.996205  0.786261  1
  H  H32  1  0.213739  0.231174  0.503795  1
  H  H33  1  0.286261  0.768826  0.003795  1
  H  H34  1  0.713739  0.268826  0.496205  1
  H  H35  1  0.786261  0.731174  0.996205  1
  H  H36  1  0.503795  0.213739  0.231174  1
  H  H37  1  0.003795  0.286261  0.768826  1
  H  H38  1  0.496205  0.713739  0.268826  1
  H  H39  1  0.996205  0.786261  0.731174  1
  H  H40  1  0.768826  0.496205  0.786261  1
  H  H41  1  0.231174  0.996205  0.713739  1
  H  H42  1  0.731174  0.503795  0.286261  1
  H  H43  1  0.268826  0.003795  0.213739  1
  H  H44  1  0.786261  0.768826  0.496205  1
  H  H45  1  0.713739  0.231174  0.996205  1
  H  H46  1  0.286261  0.731174  0.503795  1
  H  H47  1  0.213739  0.268826  0.003795  1
  H  H48  1  0.496205  0.786261  0.768826  1
  H  H49  1  0.996205  0.713739  0.231174  1
  H  H50  1  0.503795  0.286261  0.731174  1
  H  H51  1  0.003795  0.213739  0.268826  1
  H  H52  1  0.574786  0.695704  0.026760  1
  H  H53  1  0.425214  0.195704  0.473240  1
  H  H54  1  0.925214  0.304296  0.526760  1
  H  H55  1  0.074786  0.804296  0.973240  1
  H  H56  1  0.026760  0.574786  0.695704  1
  H  H57  1  0.473240  0.425214  0.195704  1
  H  H58  1  0.526760  0.925214  0.304296  1
  H  H59  1  0.973240  0.074786  0.804296  1
  H  H60  1  0.695704  0.026760  0.574786  1
  H  H61  1  0.195704  0.473240  0.425214  1
  H  H62  1  0.304296  0.526760  0.925214  1
  H  H63  1  0.804296  0.973240  0.074786  1
  H  H64  1  0.425214  0.304296  0.973240  1
  H  H65  1  0.574786  0.804296  0.526760  1
  H  H66  1  0.074786  0.695704  0.473240  1
  H  H67  1  0.925214  0.195704  0.026760  1
  H  H68  1  0.973240  0.425214  0.304296  1
  H  H69  1  0.526760  0.574786  0.804296  1
  H  H70  1  0.473240  0.074786  0.695704  1
  H  H71  1  0.026760  0.925214  0.195704  1
  H  H72  1  0.304296  0.973240  0.425214  1
  H  H73  1  0.804296  0.526760  0.574786  1
  H  H74  1  0.695704  0.473240  0.074786  1
  H  H75  1  0.195704  0.026760  0.925214  1
  H  H76  1  0.443779  0.708381  0.023293  1
  H  H77  1  0.556221  0.208381  0.476707  1
  H  H78  1  0.056221  0.291619  0.523293  1
  H  H79  1  0.943779  0.791619  0.976707  1
  H  H80  1  0.023293  0.443779  0.708381  1
  H  H81  1  0.476707  0.556221  0.208381  1
  H  H82  1  0.523293  0.056221  0.291619  1
  H  H83  1  0.976707  0.943779  0.791619  1
  H  H84  1  0.708381  0.023293  0.443779  1
  H  H85  1  0.208381  0.476707  0.556221  1
  H  H86  1  0.291619  0.523293  0.056221  1
  H  H87  1  0.791619  0.976707  0.943779  1
  H  H88  1  0.556221  0.291619  0.976707  1
  H  H89  1  0.443779  0.791619  0.523293  1
  H  H90  1  0.943779  0.708381  0.476707  1
  H  H91  1  0.056221  0.208381  0.023293  1
  H  H92  1  0.976707  0.556221  0.291619  1
  H  H93  1  0.523293  0.443779  0.791619  1
  H  H94  1  0.476707  0.943779  0.708381  1
  H  H95  1  0.023293  0.056221  0.208381  1
  H  H96  1  0.291619  0.976707  0.556221  1
  H  H97  1  0.791619  0.523293  0.443779  1
  H  H98  1  0.708381  0.476707  0.943779  1
  H  H99  1  0.208381  0.023293  0.056221  1
  Rh  Rh100  1  0.500000  0.500000  0.000000  1
  Rh  Rh101  1  0.500000  0.000000  0.500000  1
  Rh  Rh102  1  0.000000  0.500000  0.500000  1
  Rh  Rh103  1  0.000000  0.000000  0.000000  1
  S  S104  1  0.181559  0.818441  0.318441  1
  S  S105  1  0.818441  0.318441  0.181559  1
  S  S106  1  0.318441  0.181559  0.818441  1
  S  S107  1  0.681559  0.681559  0.681559  1
  S  S108  1  0.818441  0.181559  0.681559  1
  S  S109  1  0.181559  0.681559  0.818441  1
  S  S110  1  0.681559  0.818441  0.181559  1
  S  S111  1  0.318441  0.318441  0.318441  1
  O  O112  1  0.250808  0.749192  0.249192  1
  O  O113  1  0.749192  0.249192  0.250808  1
  O  O114  1  0.249192  0.250808  0.749192  1
  O  O115  1  0.750808  0.750808  0.750808  1
  O  O116  1  0.749192  0.250808  0.750808  1
  O  O117  1  0.250808  0.750808  0.749192  1
  O  O118  1  0.750808  0.749192  0.250808  1
  O  O119  1  0.249192  0.249192  0.249192  1
  O  O120  1  0.069897  0.822978  0.274156  1
  O  O121  1  0.930103  0.322978  0.225844  1
  O  O122  1  0.430103  0.177022  0.774156  1
  O  O123  1  0.569897  0.677022  0.725844  1
  O  O124  1  0.274156  0.069897  0.822978  1
  O  O125  1  0.225844  0.930103  0.322978  1
  O  O126  1  0.774156  0.430103  0.177022  1
  O  O127  1  0.725844  0.569897  0.677022  1
  O  O128  1  0.822978  0.274156  0.069897  1
  O  O129  1  0.322978  0.225844  0.930103  1
  O  O130  1  0.177022  0.774156  0.430103  1
  O  O131  1  0.677022  0.725844  0.569897  1
  O  O132  1  0.930103  0.177022  0.725844  1
  O  O133  1  0.069897  0.677022  0.774156  1
  O  O134  1  0.569897  0.822978  0.225844  1
  O  O135  1  0.430103  0.322978  0.274156  1
  O  O136  1  0.725844  0.930103  0.177022  1
  O  O137  1  0.774156  0.069897  0.677022  1
  O  O138  1  0.225844  0.569897  0.822978  1
  O  O139  1  0.274156  0.430103  0.322978  1
  O  O140  1  0.177022  0.725844  0.930103  1
  O  O141  1  0.677022  0.774156  0.069897  1
  O  O142  1  0.822978  0.225844  0.569897  1
  O  O143  1  0.322978  0.274156  0.430103  1
  O  O144  1  0.210848  0.546989  0.149448  1
  O  O145  1  0.789152  0.046989  0.350552  1
  O  O146  1  0.289152  0.453011  0.649448  1
  O  O147  1  0.710848  0.953011  0.850552  1
  O  O148  1  0.149448  0.210848  0.546989  1
  O  O149  1  0.350552  0.789152  0.046989  1
  O  O150  1  0.649448  0.289152  0.453011  1
  O  O151  1  0.850552  0.710848  0.953011  1
  O  O152  1  0.546989  0.149448  0.210848  1
  O  O153  1  0.046989  0.350552  0.789152  1
  O  O154  1  0.453011  0.649448  0.289152  1
  O  O155  1  0.953011  0.850552  0.710848  1
  O  O156  1  0.789152  0.453011  0.850552  1
  O  O157  1  0.210848  0.953011  0.649448  1
  O  O158  1  0.710848  0.546989  0.350552  1
  O  O159  1  0.289152  0.046989  0.149448  1
  O  O160  1  0.850552  0.789152  0.453011  1
  O  O161  1  0.649448  0.210848  0.953011  1
  O  O162  1  0.350552  0.710848  0.546989  1
  O  O163  1  0.149448  0.289152  0.046989  1
  O  O164  1  0.453011  0.850552  0.789152  1
  O  O165  1  0.953011  0.649448  0.210848  1
  O  O166  1  0.546989  0.350552  0.710848  1
  O  O167  1  0.046989  0.149448  0.289152  1
  O  O168  1  0.507776  0.664731  0.994560  1
  O  O169  1  0.492224  0.164731  0.505440  1
  O  O170  1  0.992224  0.335269  0.494560  1
  O  O171  1  0.007776  0.835269  0.005440  1
  O  O172  1  0.994560  0.507776  0.664731  1
  O  O173  1  0.505440  0.492224  0.164731  1
  O  O174  1  0.494560  0.992224  0.335269  1
  O  O175  1  0.005440  0.007776  0.835269  1
  O  O176  1  0.664731  0.994560  0.507776  1
  O  O177  1  0.164731  0.505440  0.492224  1
  O  O178  1  0.335269  0.494560  0.992224  1
  O  O179  1  0.835269  0.005440  0.007776  1
  O  O180  1  0.492224  0.335269  0.005440  1
  O  O181  1  0.507776  0.835269  0.494560  1
  O  O182  1  0.007776  0.664731  0.505440  1
  O  O183  1  0.992224  0.164731  0.994560  1
  O  O184  1  0.005440  0.492224  0.335269  1
  O  O185  1  0.494560  0.507776  0.835269  1
  O  O186  1  0.505440  0.007776  0.664731  1
  O  O187  1  0.994560  0.992224  0.164731  1
  O  O188  1  0.335269  0.005440  0.492224  1
  O  O189  1  0.835269  0.494560  0.507776  1
  O  O190  1  0.664731  0.505440  0.007776  1
  O  O191  1  0.164731  0.994560  0.992224  1
