# generated using pymatgen
data_Li2Fe4O3F8
_symmetry_space_group_name_H-M   'P 1'
_cell_length_a   5.08146629
_cell_length_b   6.67797647
_cell_length_c   6.86098602
_cell_angle_alpha   108.63559943
_cell_angle_beta   105.74207674
_cell_angle_gamma   96.67447962
_symmetry_Int_Tables_number   1
_chemical_formula_structural   Li2Fe4O3F8
_chemical_formula_sum   'Li2 Fe4 O3 F8'
_cell_volume   207.01612151
_cell_formula_units_Z   1
loop_
 _symmetry_equiv_pos_site_id
 _symmetry_equiv_pos_as_xyz
  1  'x, y, z'
loop_
 _atom_site_type_symbol
 _atom_site_label
 _atom_site_symmetry_multiplicity
 _atom_site_fract_x
 _atom_site_fract_y
 _atom_site_fract_z
 _atom_site_occupancy
  Li  Li0  1  0.663365  0.179202  0.391064  1
  Li  Li1  1  0.336635  0.820798  0.608936  1
  Fe  Fe2  1  0.909285  0.249762  0.971797  1
  Fe  Fe3  1  0.344591  0.377827  0.759078  1
  Fe  Fe4  1  0.655409  0.622173  0.240922  1
  Fe  Fe5  1  0.090715  0.750238  0.028203  1
  O  O6  1  0.000000  0.000000  0.000000  1
  O  O7  1  0.735672  0.528156  0.949805  1
  O  O8  1  0.264328  0.471844  0.050195  1
  F  F9  1  0.486364  0.116274  0.801255  1
  F  F10  1  0.946216  0.203791  0.661739  1
  F  F11  1  0.372188  0.288701  0.478030  1
  F  F12  1  0.803886  0.357895  0.254585  1
  F  F13  1  0.196114  0.642105  0.745415  1
  F  F14  1  0.627812  0.711299  0.521970  1
  F  F15  1  0.053784  0.796209  0.338261  1
  F  F16  1  0.513636  0.883726  0.198745  1
