# generated using pymatgen
data_Na2FePCO7
_symmetry_space_group_name_H-M   'P 1'
_cell_length_a   6.54783889
_cell_length_b   10.35370931
_cell_length_c   10.39842487
_cell_angle_alpha   60.64408999
_cell_angle_beta   89.47581268
_cell_angle_gamma   89.27039754
_symmetry_Int_Tables_number   1
_chemical_formula_structural   Na2FePCO7
_chemical_formula_sum   'Na8 Fe4 P4 C4 O28'
_cell_volume   614.37958530
_cell_formula_units_Z   4
loop_
 _symmetry_equiv_pos_site_id
 _symmetry_equiv_pos_as_xyz
  1  'x, y, z'
loop_
 _atom_site_type_symbol
 _atom_site_label
 _atom_site_symmetry_multiplicity
 _atom_site_fract_x
 _atom_site_fract_y
 _atom_site_fract_z
 _atom_site_occupancy
  Na  Na0  1  0.258953  0.340729  0.577948  1
  Na  Na1  1  0.261557  0.841953  0.077054  1
  Na  Na2  1  0.012840  0.994613  0.741764  1
  Na  Na3  1  0.485683  0.495232  0.241109  1
  Na  Na4  1  0.989526  0.506525  0.756605  1
  Na  Na5  1  0.989142  0.006373  0.256421  1
  Na  Na6  1  0.723070  0.158572  0.921525  1
  Na  Na7  1  0.741121  0.658864  0.422525  1
  Fe  Fe8  1  0.745766  0.719222  0.934760  1
  Fe  Fe9  1  0.753850  0.218921  0.435010  1
  Fe  Fe10  1  0.264442  0.780552  0.565323  1
  Fe  Fe11  1  0.264293  0.280674  0.065310  1
  P  P12  1  0.248213  0.642209  0.933491  1
  P  P13  1  0.250711  0.142423  0.433343  1
  P  P14  1  0.753216  0.857194  0.566800  1
  P  P15  1  0.754671  0.357312  0.066657  1
  C  C16  1  0.750779  0.333155  0.602758  1
  C  C17  1  0.755631  0.832943  0.103052  1
  C  C18  1  0.238336  0.167328  0.897624  1
  C  C19  1  0.246668  0.667355  0.397475  1
  O  O20  1  0.233804  0.110426  0.813544  1
  O  O21  1  0.258236  0.610711  0.313230  1
  O  O22  1  0.763381  0.913920  0.958213  1
  O  O23  1  0.728229  0.413707  0.458805  1
  O  O24  1  0.756014  0.189467  0.653431  1
  O  O25  1  0.734648  0.690292  0.153184  1
  O  O26  1  0.062248  0.728384  0.949210  1
  O  O27  1  0.438986  0.714590  0.959049  1
  O  O28  1  0.061825  0.217168  0.463074  1
  O  O29  1  0.438496  0.225839  0.445247  1
  O  O30  1  0.754509  0.849956  0.718885  1
  O  O31  1  0.744785  0.349690  0.218869  1
  O  O32  1  0.250612  0.976012  0.554628  1
  O  O33  1  0.248322  0.475977  0.054989  1
  O  O34  1  0.764452  0.523535  0.945086  1
  O  O35  1  0.763174  0.023381  0.445072  1
  O  O36  1  0.246101  0.650453  0.781097  1
  O  O37  1  0.240128  0.151100  0.280991  1
  O  O38  1  0.564919  0.781277  0.545156  1
  O  O39  1  0.940677  0.773815  0.548042  1
  O  O40  1  0.941806  0.273287  0.049927  1
  O  O41  1  0.565709  0.282375  0.042908  1
  O  O42  1  0.243683  0.310724  0.846742  1
  O  O43  1  0.243210  0.810822  0.346810  1
  O  O44  1  0.242313  0.585861  0.542079  1
  O  O45  1  0.244164  0.086041  0.042217  1
  O  O46  1  0.766107  0.390177  0.685728  1
  O  O47  1  0.766074  0.888864  0.187234  1
