# generated using pymatgen
data_Na8V2O7
_symmetry_space_group_name_H-M   'P 1'
_cell_length_a   8.83079357
_cell_length_b   11.26064289
_cell_length_c   10.25497763
_cell_angle_alpha   90.00000000
_cell_angle_beta   107.32209394
_cell_angle_gamma   90.00000000
_symmetry_Int_Tables_number   1
_chemical_formula_structural   Na8V2O7
_chemical_formula_sum   'Na32 V8 O28'
_cell_volume   973.50910875
_cell_formula_units_Z   4
loop_
 _symmetry_equiv_pos_site_id
 _symmetry_equiv_pos_as_xyz
  1  'x, y, z'
loop_
 _atom_site_type_symbol
 _atom_site_label
 _atom_site_symmetry_multiplicity
 _atom_site_fract_x
 _atom_site_fract_y
 _atom_site_fract_z
 _atom_site_occupancy
  Na  Na0  1  0.622526  0.524935  0.427326  1
  Na  Na1  1  0.582520  0.538467  0.142365  1
  Na  Na2  1  0.606054  0.259244  0.033101  1
  Na  Na3  1  0.622526  0.975065  0.927326  1
  Na  Na4  1  0.754139  0.052120  0.213764  1
  Na  Na5  1  0.582520  0.961533  0.642365  1
  Na  Na6  1  0.786513  0.749454  0.070782  1
  Na  Na7  1  0.606054  0.240756  0.533101  1
  Na  Na8  1  0.929819  0.530585  0.353852  1
  Na  Na9  1  0.841680  0.497423  0.020727  1
  Na  Na10  1  0.754139  0.447880  0.713764  1
  Na  Na11  1  0.000489  0.770139  0.372859  1
  Na  Na12  1  0.786513  0.750546  0.570782  1
  Na  Na13  1  0.999511  0.270139  0.127141  1
  Na  Na14  1  0.929819  0.969415  0.853852  1
  Na  Na15  1  0.158320  0.997423  0.479273  1
  Na  Na16  1  0.841680  0.002577  0.520727  1
  Na  Na17  1  0.070181  0.030585  0.146148  1
  Na  Na18  1  0.000489  0.729861  0.872859  1
  Na  Na19  1  0.213487  0.249454  0.429218  1
  Na  Na20  1  0.999511  0.229861  0.627141  1
  Na  Na21  1  0.245861  0.552120  0.286236  1
  Na  Na22  1  0.158320  0.502577  0.979273  1
  Na  Na23  1  0.070181  0.469415  0.646148  1
  Na  Na24  1  0.393946  0.759244  0.466899  1
  Na  Na25  1  0.213487  0.250546  0.929218  1
  Na  Na26  1  0.417480  0.038467  0.357635  1
  Na  Na27  1  0.245861  0.947880  0.786236  1
  Na  Na28  1  0.377474  0.024935  0.072674  1
  Na  Na29  1  0.393946  0.740756  0.966899  1
  Na  Na30  1  0.417480  0.461533  0.857635  1
  Na  Na31  1  0.377474  0.475065  0.572674  1
  V  V32  1  0.591689  0.797723  0.275227  1
  V  V33  1  0.591689  0.702277  0.775227  1
  V  V34  1  0.808062  0.285648  0.347153  1
  V  V35  1  0.808062  0.214352  0.847153  1
  V  V36  1  0.191938  0.785648  0.152847  1
  V  V37  1  0.191938  0.714352  0.652847  1
  V  V38  1  0.408311  0.297723  0.224773  1
  V  V39  1  0.408311  0.202277  0.724773  1
  O  O40  1  0.609733  0.889875  0.437064  1
  O  O41  1  0.603448  0.197616  0.280151  1
  O  O42  1  0.599545  0.889820  0.119864  1
  O  O43  1  0.609733  0.610125  0.937064  1
  O  O44  1  0.750031  0.674086  0.315648  1
  O  O45  1  0.603448  0.302384  0.780151  1
  O  O46  1  0.599545  0.610180  0.619864  1
  O  O47  1  0.818213  0.384174  0.197589  1
  O  O48  1  0.750031  0.825914  0.815648  1
  O  O49  1  0.956041  0.150459  0.395091  1
  O  O50  1  0.831033  0.115080  0.006673  1
  O  O51  1  0.818213  0.115826  0.697589  1
  O  O52  1  0.956041  0.349541  0.895091  1
  O  O53  1  0.168967  0.615080  0.493327  1
  O  O54  1  0.831033  0.384920  0.506673  1
  O  O55  1  0.043959  0.650459  0.104909  1
  O  O56  1  0.181787  0.884174  0.302411  1
  O  O57  1  0.168967  0.884920  0.993327  1
  O  O58  1  0.043959  0.849541  0.604909  1
  O  O59  1  0.249969  0.174086  0.184352  1
  O  O60  1  0.181787  0.615826  0.802411  1
  O  O61  1  0.400455  0.389820  0.380136  1
  O  O62  1  0.396552  0.697616  0.219849  1
  O  O63  1  0.249969  0.325914  0.684352  1
  O  O64  1  0.390267  0.389875  0.062936  1
  O  O65  1  0.400455  0.110180  0.880136  1
  O  O66  1  0.396552  0.802384  0.719849  1
  O  O67  1  0.390267  0.110125  0.562936  1
