# generated using pymatgen
data_LiFe(PO3)4
_symmetry_space_group_name_H-M   'P 1'
_cell_length_a   7.26403609
_cell_length_b   8.46221935
_cell_length_c   7.68813370
_cell_angle_alpha   90.00000000
_cell_angle_beta   92.06361068
_cell_angle_gamma   90.00000000
_symmetry_Int_Tables_number   1
_chemical_formula_structural   LiFe(PO3)4
_chemical_formula_sum   'Li2 Fe2 P8 O24'
_cell_volume   472.28206426
_cell_formula_units_Z   2
loop_
 _symmetry_equiv_pos_site_id
 _symmetry_equiv_pos_as_xyz
  1  'x, y, z'
loop_
 _atom_site_type_symbol
 _atom_site_label
 _atom_site_symmetry_multiplicity
 _atom_site_fract_x
 _atom_site_fract_y
 _atom_site_fract_z
 _atom_site_occupancy
  Li  Li0  1  0.735188  0.696917  0.648126  1
  Li  Li1  1  0.264812  0.196917  0.351874  1
  Fe  Fe2  1  0.744826  0.493984  0.170093  1
  Fe  Fe3  1  0.255174  0.993984  0.829907  1
  P  P4  1  0.918169  0.290221  0.523651  1
  P  P5  1  0.932213  0.879014  0.127072  1
  P  P6  1  0.648554  0.070617  0.694491  1
  P  P7  1  0.626128  0.124801  0.061589  1
  P  P8  1  0.373872  0.624801  0.938411  1
  P  P9  1  0.351446  0.570617  0.305509  1
  P  P10  1  0.067787  0.379014  0.872928  1
  P  P11  1  0.081831  0.790221  0.476349  1
  O  O12  1  0.937826  0.398536  0.699207  1
  O  O13  1  0.949309  0.424742  0.020891  1
  O  O14  1  0.730786  0.911116  0.695465  1
  O  O15  1  0.920051  0.686264  0.488632  1
  O  O16  1  0.836877  0.722351  0.119547  1
  O  O17  1  0.731880  0.189821  0.556653  1
  O  O18  1  0.869851  0.398903  0.375668  1
  O  O19  1  0.783747  0.018164  0.157661  1
  O  O20  1  0.707107  0.161967  0.874580  1
  O  O21  1  0.617418  0.276844  0.160856  1
  O  O22  1  0.440588  0.084062  0.667198  1
  O  O23  1  0.553462  0.535344  0.956535  1
  O  O24  1  0.446538  0.035344  0.043465  1
  O  O25  1  0.559412  0.584062  0.332802  1
  O  O26  1  0.382582  0.776844  0.839144  1
  O  O27  1  0.292893  0.661967  0.125420  1
  O  O28  1  0.216253  0.518164  0.842339  1
  O  O29  1  0.130149  0.898903  0.624332  1
  O  O30  1  0.268120  0.689821  0.443347  1
  O  O31  1  0.163123  0.222351  0.880453  1
  O  O32  1  0.079949  0.186264  0.511368  1
  O  O33  1  0.269214  0.411116  0.304535  1
  O  O34  1  0.050691  0.924742  0.979109  1
  O  O35  1  0.062174  0.898536  0.300793  1
