# generated using pymatgen
data_LiVF4
_symmetry_space_group_name_H-M   'P 1'
_cell_length_a   4.59372798
_cell_length_b   4.95880802
_cell_length_c   11.68200993
_cell_angle_alpha   90.00000000
_cell_angle_beta   90.00000000
_cell_angle_gamma   90.00000000
_symmetry_Int_Tables_number   1
_chemical_formula_structural   LiVF4
_chemical_formula_sum   'Li4 V4 F16'
_cell_volume   266.10935398
_cell_formula_units_Z   4
loop_
 _symmetry_equiv_pos_site_id
 _symmetry_equiv_pos_as_xyz
  1  'x, y, z'
loop_
 _atom_site_type_symbol
 _atom_site_label
 _atom_site_symmetry_multiplicity
 _atom_site_fract_x
 _atom_site_fract_y
 _atom_site_fract_z
 _atom_site_occupancy
  Li  Li0  1  0.500000  0.250000  0.054138  1
  Li  Li1  1  0.500000  0.750000  0.945862  1
  Li  Li2  1  0.000000  0.250000  0.554138  1
  Li  Li3  1  0.000000  0.750000  0.445862  1
  V  V4  1  0.500000  0.250000  0.320895  1
  V  V5  1  0.500000  0.750000  0.679105  1
  V  V6  1  0.000000  0.250000  0.820895  1
  V  V7  1  0.000000  0.750000  0.179105  1
  F  F8  1  0.270967  0.078467  0.192391  1
  F  F9  1  0.270967  0.578467  0.807609  1
  F  F10  1  0.250143  0.584672  0.067819  1
  F  F11  1  0.250143  0.084672  0.932181  1
  F  F12  1  0.249857  0.584672  0.567819  1
  F  F13  1  0.249857  0.084672  0.432181  1
  F  F14  1  0.229033  0.578467  0.307609  1
  F  F15  1  0.229033  0.078467  0.692391  1
  F  F16  1  0.770967  0.421533  0.692391  1
  F  F17  1  0.770967  0.921533  0.307609  1
  F  F18  1  0.750143  0.415328  0.432181  1
  F  F19  1  0.750143  0.915328  0.567819  1
  F  F20  1  0.749857  0.915328  0.067819  1
  F  F21  1  0.749857  0.415328  0.932181  1
  F  F22  1  0.729033  0.421533  0.192391  1
  F  F23  1  0.729033  0.921533  0.807609  1
