# generated using pymatgen
data_MoH12Pd(NO)4
_symmetry_space_group_name_H-M   'P 1'
_cell_length_a   9.53451769
_cell_length_b   9.53451769
_cell_length_c   9.53451769
_cell_angle_alpha   133.33005741
_cell_angle_beta   133.33005741
_cell_angle_gamma   68.13628615
_symmetry_Int_Tables_number   1
_chemical_formula_structural   MoH12Pd(NO)4
_chemical_formula_sum   'Mo2 H24 Pd2 N8 O8'
_cell_volume   450.61373673
_cell_formula_units_Z   2
loop_
 _symmetry_equiv_pos_site_id
 _symmetry_equiv_pos_as_xyz
  1  'x, y, z'
loop_
 _atom_site_type_symbol
 _atom_site_label
 _atom_site_symmetry_multiplicity
 _atom_site_fract_x
 _atom_site_fract_y
 _atom_site_fract_z
 _atom_site_occupancy
  Mo  Mo0  1  0.250000  0.750000  0.500000  1
  Mo  Mo1  1  0.500000  0.500000  0.000000  1
  H  H2  1  0.682467  0.878322  0.195856  1
  H  H3  1  0.628322  0.932467  0.695856  1
  H  H4  1  0.236611  0.932467  0.304144  1
  H  H5  1  0.682467  0.486611  0.804144  1
  H  H6  1  0.067533  0.371678  0.304144  1
  H  H7  1  0.121678  0.317533  0.804144  1
  H  H8  1  0.513389  0.317533  0.195856  1
  H  H9  1  0.067533  0.763389  0.695856  1
  H  H10  1  0.883825  0.942657  0.278259  1
  H  H11  1  0.664398  0.942657  0.058832  1
  H  H12  1  0.692657  0.133825  0.778259  1
  H  H13  1  0.355566  0.133825  0.441168  1
  H  H14  1  0.883825  0.605566  0.941168  1
  H  H15  1  0.664398  0.605566  0.721741  1
  H  H16  1  0.692657  0.914398  0.558832  1
  H  H17  1  0.355566  0.914398  0.221741  1
  H  H18  1  0.866175  0.307343  0.221741  1
  H  H19  1  0.085602  0.307343  0.441168  1
  H  H20  1  0.057343  0.116175  0.721741  1
  H  H21  1  0.394434  0.116175  0.058832  1
  H  H22  1  0.866175  0.644434  0.558832  1
  H  H23  1  0.085602  0.644434  0.778259  1
  H  H24  1  0.057343  0.335602  0.941168  1
  H  H25  1  0.394434  0.335602  0.278259  1
  Pd  Pd26  1  0.750000  0.250000  0.500000  1
  Pd  Pd27  1  0.000000  0.000000  0.000000  1
  N  N28  1  0.746542  0.972977  0.226435  1
  N  N29  1  0.722977  0.996542  0.726435  1
  N  N30  1  0.270107  0.996542  0.273565  1
  N  N31  1  0.746542  0.520107  0.773565  1
  N  N32  1  0.003458  0.277023  0.273565  1
  N  N33  1  0.027023  0.253458  0.773565  1
  N  N34  1  0.479893  0.253458  0.226435  1
  N  N35  1  0.003458  0.729893  0.726435  1
  O  O36  1  0.117427  0.814344  0.303083  1
  O  O37  1  0.511261  0.814344  0.696917  1
  O  O38  1  0.564344  0.367427  0.803083  1
  O  O39  1  0.564344  0.761261  0.196917  1
  O  O40  1  0.632573  0.435656  0.196917  1
  O  O41  1  0.238739  0.435656  0.803083  1
  O  O42  1  0.185656  0.882573  0.696917  1
  O  O43  1  0.185656  0.488739  0.303083  1
