# generated using pymatgen
data_Li2Mn3(BO3)3
_symmetry_space_group_name_H-M   'P 1'
_cell_length_a   5.25880660
_cell_length_b   6.13532198
_cell_length_c   12.86381966
_cell_angle_alpha   94.09848748
_cell_angle_beta   89.24197248
_cell_angle_gamma   115.29590079
_symmetry_Int_Tables_number   1
_chemical_formula_structural   Li2Mn3(BO3)3
_chemical_formula_sum   'Li4 Mn6 B6 O18'
_cell_volume   374.21845484
_cell_formula_units_Z   2
loop_
 _symmetry_equiv_pos_site_id
 _symmetry_equiv_pos_as_xyz
  1  'x, y, z'
loop_
 _atom_site_type_symbol
 _atom_site_label
 _atom_site_symmetry_multiplicity
 _atom_site_fract_x
 _atom_site_fract_y
 _atom_site_fract_z
 _atom_site_occupancy
  Li  Li0  1  0.035029  0.892142  0.078613  1
  Li  Li1  1  0.964971  0.107858  0.921387  1
  Li  Li2  1  0.711881  0.243483  0.405029  1
  Li  Li3  1  0.288119  0.756517  0.594971  1
  Mn  Mn4  1  0.539807  0.952065  0.201671  1
  Mn  Mn5  1  0.129947  0.393832  0.143832  1
  Mn  Mn6  1  0.460193  0.047935  0.798329  1
  Mn  Mn7  1  0.870053  0.606168  0.856168  1
  Mn  Mn8  1  0.210727  0.278299  0.537259  1
  Mn  Mn9  1  0.789273  0.721701  0.462741  1
  B  B10  1  0.106724  0.062594  0.310635  1
  B  B11  1  0.546536  0.245013  0.022543  1
  B  B12  1  0.893276  0.937406  0.689365  1
  B  B13  1  0.453464  0.754987  0.977457  1
  B  B14  1  0.767862  0.382017  0.639203  1
  B  B15  1  0.232138  0.617983  0.360797  1
  O  O16  1  0.378726  0.086138  0.316058  1
  O  O17  1  0.972632  0.038097  0.214583  1
  O  O18  1  0.383951  0.642357  0.266547  1
  O  O19  1  0.684957  0.239706  0.114163  1
  O  O20  1  0.276435  0.222571  0.021963  1
  O  O21  1  0.694933  0.261031  0.929290  1
  O  O22  1  0.027368  0.961903  0.785417  1
  O  O23  1  0.305067  0.738969  0.070710  1
  O  O24  1  0.621274  0.913862  0.683942  1
  O  O25  1  0.723565  0.777429  0.978037  1
  O  O26  1  0.033082  0.924253  0.598320  1
  O  O27  1  0.315043  0.760294  0.885837  1
  O  O28  1  0.616049  0.357643  0.733453  1
  O  O29  1  0.046737  0.440831  0.645714  1
  O  O30  1  0.634074  0.365856  0.544672  1
  O  O31  1  0.966918  0.075747  0.401680  1
  O  O32  1  0.365926  0.634144  0.455328  1
  O  O33  1  0.953263  0.559169  0.354286  1
