# generated using pymatgen
data_Li4Mn3Fe(BO3)4
_symmetry_space_group_name_H-M   'P 1'
_cell_length_a   5.25672394
_cell_length_b   9.09541767
_cell_length_c   10.50100118
_cell_angle_alpha   88.51074722
_cell_angle_beta   88.90221127
_cell_angle_gamma   89.80844646
_symmetry_Int_Tables_number   1
_chemical_formula_structural   Li4Mn3Fe(BO3)4
_chemical_formula_sum   'Li8 Mn6 Fe2 B8 O24'
_cell_volume   501.81116801
_cell_formula_units_Z   2
loop_
 _symmetry_equiv_pos_site_id
 _symmetry_equiv_pos_as_xyz
  1  'x, y, z'
loop_
 _atom_site_type_symbol
 _atom_site_label
 _atom_site_symmetry_multiplicity
 _atom_site_fract_x
 _atom_site_fract_y
 _atom_site_fract_z
 _atom_site_occupancy
  Li  Li0  1  0.146319  0.174845  0.668436  1
  Li  Li1  1  0.186256  0.160815  0.167750  1
  Li  Li2  1  0.322640  0.330578  0.416973  1
  Li  Li3  1  0.336844  0.325641  0.917023  1
  Li  Li4  1  0.647962  0.673876  0.667168  1
  Li  Li5  1  0.688384  0.660241  0.167910  1
  Li  Li6  1  0.819156  0.832522  0.417879  1
  Li  Li7  1  0.835889  0.825687  0.918146  1
  Mn  Mn8  1  0.177414  0.498219  0.132517  1
  Mn  Mn9  1  0.158765  0.839237  0.633768  1
  Mn  Mn10  1  0.331144  0.663965  0.382999  1
  Mn  Mn11  1  0.331609  0.998821  0.883840  1
  Mn  Mn12  1  0.679116  0.000016  0.135337  1
  Mn  Mn13  1  0.829626  0.496260  0.881289  1
  Fe  Fe14  1  0.653976  0.338934  0.630543  1
  Fe  Fe15  1  0.838474  0.164861  0.385219  1
  B  B16  1  0.173780  0.829517  0.126329  1
  B  B17  1  0.159723  0.500020  0.625223  1
  B  B18  1  0.334672  0.998930  0.377278  1
  B  B19  1  0.327887  0.666917  0.875155  1
  B  B20  1  0.673829  0.329397  0.126618  1
  B  B21  1  0.657668  0.003487  0.625058  1
  B  B22  1  0.836553  0.495752  0.376204  1
  B  B23  1  0.827239  0.167065  0.874646  1
  O  O24  1  0.096501  0.480617  0.346437  1
  O  O25  1  0.089041  0.179418  0.860728  1
  O  O26  1  0.173976  0.789163  0.844975  1
  O  O27  1  0.194358  0.875713  0.417473  1
  O  O28  1  0.214445  0.134677  0.362912  1
  O  O29  1  0.215933  0.534995  0.917241  1
  O  O30  1  0.276543  0.363317  0.612305  1
  O  O31  1  0.289877  0.965000  0.096448  1
  O  O32  1  0.301924  0.627007  0.596357  1
  O  O33  1  0.322387  0.710206  0.167388  1
  O  O34  1  0.413655  0.314370  0.111611  1
  O  O35  1  0.404689  0.017354  0.665935  1
  O  O36  1  0.594293  0.987526  0.348027  1
  O  O37  1  0.589422  0.678632  0.860298  1
  O  O38  1  0.673047  0.288223  0.843171  1
  O  O39  1  0.694951  0.372753  0.416951  1
  O  O40  1  0.722658  0.632756  0.362251  1
  O  O41  1  0.717472  0.034915  0.917967  1
  O  O42  1  0.788362  0.465234  0.095585  1
  O  O43  1  0.766943  0.865646  0.610609  1
  O  O44  1  0.802479  0.129799  0.595704  1
  O  O45  1  0.822565  0.211182  0.168356  1
  O  O46  1  0.913641  0.815178  0.111991  1
  O  O47  1  0.905317  0.510111  0.663569  1
