# generated using pymatgen
data_Li4Mn3(BO3)4
_symmetry_space_group_name_H-M   'P 1'
_cell_length_a   5.33982660
_cell_length_b   9.14706346
_cell_length_c   10.89991358
_cell_angle_alpha   90.00000000
_cell_angle_beta   117.30829807
_cell_angle_gamma   90.00000000
_symmetry_Int_Tables_number   1
_chemical_formula_structural   Li4Mn3(BO3)4
_chemical_formula_sum   'Li8 Mn6 B8 O24'
_cell_volume   473.05775031
_cell_formula_units_Z   2
loop_
 _symmetry_equiv_pos_site_id
 _symmetry_equiv_pos_as_xyz
  1  'x, y, z'
loop_
 _atom_site_type_symbol
 _atom_site_label
 _atom_site_symmetry_multiplicity
 _atom_site_fract_x
 _atom_site_fract_y
 _atom_site_fract_z
 _atom_site_occupancy
  Li  Li0  1  0.503934  0.235639  0.657528  1
  Li  Li1  1  0.453264  0.908452  0.633114  1
  Li  Li2  1  0.542459  0.429322  0.873142  1
  Li  Li3  1  0.067008  0.740353  0.380860  1
  Li  Li4  1  0.503934  0.764361  0.157528  1
  Li  Li5  1  0.453264  0.091548  0.133114  1
  Li  Li6  1  0.067008  0.259647  0.880860  1
  Li  Li7  1  0.542459  0.570678  0.373142  1
  Mn  Mn8  1  0.985776  0.573105  0.124881  1
  Mn  Mn9  1  0.948959  0.245787  0.118042  1
  Mn  Mn10  1  0.015427  0.064201  0.378007  1
  Mn  Mn11  1  0.985776  0.426895  0.624881  1
  Mn  Mn12  1  0.948959  0.754213  0.618042  1
  Mn  Mn13  1  0.015427  0.935799  0.878007  1
  B  B14  1  0.448689  0.570996  0.616345  1
  B  B15  1  0.964263  0.907115  0.132731  1
  B  B16  1  0.549708  0.075042  0.882645  1
  B  B17  1  0.027797  0.413972  0.364626  1
  B  B18  1  0.964263  0.092885  0.632731  1
  B  B19  1  0.448689  0.429004  0.116345  1
  B  B20  1  0.027797  0.586028  0.864626  1
  B  B21  1  0.549708  0.924958  0.382645  1
  O  O22  1  0.863642  0.563845  0.931067  1
  O  O23  1  0.320421  0.921338  0.410549  1
  O  O24  1  0.700134  0.202963  0.892837  1
  O  O25  1  0.118135  0.540958  0.321881  1
  O  O26  1  0.092733  0.278007  0.335916  1
  O  O27  1  0.624876  0.943639  0.845443  1
  O  O28  1  0.384096  0.438157  0.658284  1
  O  O29  1  0.300027  0.697875  0.598134  1
  O  O30  1  0.862945  0.778313  0.152349  1
  O  O31  1  0.877334  0.036659  0.174103  1
  O  O32  1  0.160645  0.080526  0.580435  1
  O  O33  1  0.676661  0.427838  0.086864  1
  O  O34  1  0.320421  0.078662  0.910549  1
  O  O35  1  0.863642  0.436155  0.431067  1
  O  O36  1  0.700134  0.797037  0.392837  1
  O  O37  1  0.118135  0.459042  0.821881  1
  O  O38  1  0.092733  0.721993  0.835916  1
  O  O39  1  0.624876  0.056361  0.345443  1
  O  O40  1  0.384096  0.561843  0.158284  1
  O  O41  1  0.862945  0.221687  0.652349  1
  O  O42  1  0.877334  0.963341  0.674103  1
  O  O43  1  0.300027  0.302125  0.098134  1
  O  O44  1  0.676661  0.572162  0.586864  1
  O  O45  1  0.160645  0.919474  0.080435  1
