# generated using pymatgen
data_Li5V5O12
_symmetry_space_group_name_H-M   'P 1'
_cell_length_a   5.09006461
_cell_length_b   5.10248010
_cell_length_c   19.78077112
_cell_angle_alpha   87.32729483
_cell_angle_beta   85.35869434
_cell_angle_gamma   60.52319178
_symmetry_Int_Tables_number   1
_chemical_formula_structural   Li5V5O12
_chemical_formula_sum   'Li10 V10 O24'
_cell_volume   445.76313869
_cell_formula_units_Z   2
loop_
 _symmetry_equiv_pos_site_id
 _symmetry_equiv_pos_as_xyz
  1  'x, y, z'
loop_
 _atom_site_type_symbol
 _atom_site_label
 _atom_site_symmetry_multiplicity
 _atom_site_fract_x
 _atom_site_fract_y
 _atom_site_fract_z
 _atom_site_occupancy
  Li  Li0  1  0.662716  0.177728  0.998529  1
  Li  Li1  1  0.422198  0.181001  0.751657  1
  Li  Li2  1  0.378357  0.499735  0.875496  1
  Li  Li3  1  0.159949  0.172811  0.498304  1
  Li  Li4  1  0.016236  0.500856  0.998338  1
  Li  Li5  1  0.234097  0.496187  0.251378  1
  Li  Li6  1  0.905909  0.183516  0.251316  1
  Li  Li7  1  0.098011  0.829763  0.751470  1
  Li  Li8  1  0.874222  0.500753  0.374846  1
  Li  Li9  1  0.514081  0.494293  0.498437  1
  V  V10  1  0.792434  0.169807  0.625253  1
  V  V11  1  0.541115  0.167573  0.376157  1
  V  V12  1  0.037989  0.175300  0.872936  1
  V  V13  1  0.293653  0.164028  0.125420  1
  V  V14  1  0.121076  0.505114  0.624574  1
  V  V15  1  0.704037  0.830109  0.876245  1
  V  V16  1  0.621643  0.506553  0.125058  1
  V  V17  1  0.953391  0.839738  0.125129  1
  V  V18  1  0.461410  0.834737  0.624788  1
  V  V19  1  0.210350  0.828953  0.373919  1
  O  O20  1  0.761885  0.132799  0.820765  1
  O  O21  1  0.847657  0.149970  0.427279  1
  O  O22  1  0.345820  0.146711  0.927401  1
  O  O23  1  0.470770  0.180797  0.570282  1
  O  O24  1  0.611306  0.168815  0.180446  1
  O  O25  1  0.252741  0.150185  0.322103  1
  O  O26  1  0.112368  0.159890  0.679765  1
  O  O27  1  0.437866  0.497084  0.680699  1
  O  O28  1  0.240516  0.470851  0.430225  1
  O  O29  1  0.041425  0.487863  0.821628  1
  O  O30  1  0.967244  0.173879  0.070264  1
  O  O31  1  0.301498  0.500488  0.069922  1
  O  O32  1  0.731969  0.473339  0.929164  1
  O  O33  1  0.947076  0.498821  0.180911  1
  O  O34  1  0.807898  0.480723  0.568988  1
  O  O35  1  0.144019  0.844233  0.569942  1
  O  O36  1  0.983309  0.857234  0.928160  1
  O  O37  1  0.534552  0.475716  0.319901  1
  O  O38  1  0.775007  0.857819  0.679936  1
  O  O39  1  0.904285  0.852939  0.323108  1
  O  O40  1  0.668475  0.835713  0.069519  1
  O  O41  1  0.380785  0.866317  0.822503  1
  O  O42  1  0.490363  0.852749  0.427541  1
  O  O43  1  0.247440  0.834153  0.180081  1
