# generated using pymatgen
data_YTmO3
_symmetry_space_group_name_H-M   'P 1'
_cell_length_a   6.38378820
_cell_length_b   6.38378820
_cell_length_c   12.69969544
_cell_angle_alpha   90.00000000
_cell_angle_beta   90.00000000
_cell_angle_gamma   120.00000000
_symmetry_Int_Tables_number   1
_chemical_formula_structural   YTmO3
_chemical_formula_sum   'Y6 Tm6 O18'
_cell_volume   448.20931392
_cell_formula_units_Z   6
loop_
 _symmetry_equiv_pos_site_id
 _symmetry_equiv_pos_as_xyz
  1  'x, y, z'
loop_
 _atom_site_type_symbol
 _atom_site_label
 _atom_site_symmetry_multiplicity
 _atom_site_fract_x
 _atom_site_fract_y
 _atom_site_fract_z
 _atom_site_occupancy
  Y  Y0  1  0.333333  0.666667  0.237119  1
  Y  Y1  1  0.000000  0.000000  0.270452  1
  Y  Y2  1  0.000000  0.000000  0.770452  1
  Y  Y3  1  0.333333  0.666667  0.737119  1
  Y  Y4  1  0.666667  0.333333  0.737119  1
  Y  Y5  1  0.666667  0.333333  0.237119  1
  Tm  Tm6  1  0.000000  0.666749  0.501620  1
  Tm  Tm7  1  0.000000  0.333251  0.001620  1
  Tm  Tm8  1  0.333251  0.333251  0.501620  1
  Tm  Tm9  1  0.666749  0.666749  0.001620  1
  Tm  Tm10  1  0.333251  0.000000  0.001620  1
  Tm  Tm11  1  0.666749  0.000000  0.501620  1
  O  O12  1  0.000000  0.692514  0.673801  1
  O  O13  1  0.000000  0.639313  0.330643  1
  O  O14  1  0.000000  0.360687  0.830643  1
  O  O15  1  0.000000  0.307486  0.173801  1
  O  O16  1  0.333333  0.666667  0.026910  1
  O  O17  1  0.000000  0.000000  0.470929  1
  O  O18  1  0.000000  0.000000  0.970929  1
  O  O19  1  0.333333  0.666667  0.526910  1
  O  O20  1  0.307486  0.307486  0.673801  1
  O  O21  1  0.360687  0.360687  0.330643  1
  O  O22  1  0.307486  0.000000  0.173801  1
  O  O23  1  0.639313  0.639313  0.830643  1
  O  O24  1  0.692514  0.692514  0.173801  1
  O  O25  1  0.360687  0.000000  0.830643  1
  O  O26  1  0.666667  0.333333  0.526910  1
  O  O27  1  0.666667  0.333333  0.026910  1
  O  O28  1  0.639313  0.000000  0.330643  1
  O  O29  1  0.692514  0.000000  0.673801  1
