# generated using pymatgen
data_Li9(CoO4)2
_symmetry_space_group_name_H-M   'P 1'
_cell_length_a   6.39903281
_cell_length_b   6.39903281
_cell_length_c   4.74285130
_cell_angle_alpha   89.41516962
_cell_angle_beta   90.58483038
_cell_angle_gamma   90.61644163
_symmetry_Int_Tables_number   1
_chemical_formula_structural   Li9(CoO4)2
_chemical_formula_sum   'Li9 Co2 O8'
_cell_volume   194.17721915
_cell_formula_units_Z   1
loop_
 _symmetry_equiv_pos_site_id
 _symmetry_equiv_pos_as_xyz
  1  'x, y, z'
loop_
 _atom_site_type_symbol
 _atom_site_label
 _atom_site_symmetry_multiplicity
 _atom_site_fract_x
 _atom_site_fract_y
 _atom_site_fract_z
 _atom_site_occupancy
  Li  Li0  1  0.933088  0.933088  0.500000  1
  Li  Li1  1  0.757717  0.252368  0.572181  1
  Li  Li2  1  0.728310  0.276581  0.067107  1
  Li  Li3  1  0.546883  0.546883  0.500000  1
  Li  Li4  1  0.470164  0.036957  0.003530  1
  Li  Li5  1  0.276581  0.728310  0.932893  1
  Li  Li6  1  0.252368  0.757717  0.427819  1
  Li  Li7  1  0.036957  0.470164  0.996470  1
  Li  Li8  1  0.027981  0.027981  0.000000  1
  Co  Co9  1  0.744297  0.744297  0.000000  1
  Co  Co10  1  0.248242  0.248242  0.500000  1
  O  O11  1  0.002929  0.232763  0.289578  1
  O  O12  1  0.758502  0.498312  0.801412  1
  O  O13  1  0.754014  0.017916  0.827751  1
  O  O14  1  0.491468  0.255691  0.311470  1
  O  O15  1  0.498312  0.758502  0.198588  1
  O  O16  1  0.255691  0.491468  0.688530  1
  O  O17  1  0.232763  0.002929  0.710422  1
  O  O18  1  0.017916  0.754014  0.172249  1
