# generated using pymatgen
data_LiVCrP2(HO5)2
_symmetry_space_group_name_H-M   'P 1'
_cell_length_a   6.88595142
_cell_length_b   7.44060728
_cell_length_c   11.02001228
_cell_angle_alpha   98.67019149
_cell_angle_beta   107.20040528
_cell_angle_gamma   89.38131881
_symmetry_Int_Tables_number   1
_chemical_formula_structural   LiVCrP2(HO5)2
_chemical_formula_sum   'Li3 V3 Cr3 P6 H6 O30'
_cell_volume   532.86093754
_cell_formula_units_Z   3
loop_
 _symmetry_equiv_pos_site_id
 _symmetry_equiv_pos_as_xyz
  1  'x, y, z'
loop_
 _atom_site_type_symbol
 _atom_site_label
 _atom_site_symmetry_multiplicity
 _atom_site_fract_x
 _atom_site_fract_y
 _atom_site_fract_z
 _atom_site_occupancy
  Li  Li0  1  0.249917  0.311668  0.159502  1
  Li  Li1  1  0.084199  0.352338  0.506380  1
  Li  Li2  1  0.750281  0.689094  0.839976  1
  V  V3  1  0.169837  0.332271  0.834592  1
  V  V4  1  0.828274  0.665299  0.166868  1
  V  V5  1  0.503160  0.999133  0.501225  1
  Cr  Cr6  1  0.666019  0.331763  0.332976  1
  Cr  Cr7  1  0.331770  0.669098  0.665292  1
  Cr  Cr8  1  0.999633  0.998610  0.999694  1
  P  P9  1  0.052875  0.072941  0.300358  1
  P  P10  1  0.616382  0.257376  0.032448  1
  P  P11  1  0.280368  0.593124  0.365104  1
  P  P12  1  0.719324  0.405966  0.634777  1
  P  P13  1  0.383776  0.741590  0.966415  1
  P  P14  1  0.949092  0.924306  0.700041  1
  H  H15  1  0.044207  0.671620  0.017239  1
  H  H16  1  0.690579  0.000824  0.338890  1
  H  H17  1  0.376534  0.337601  0.682308  1
  H  H18  1  0.641786  0.665347  0.328708  1
  H  H19  1  0.307359  0.998928  0.660207  1
  H  H20  1  0.955161  0.328324  0.983421  1
  O  O21  1  0.140099  0.076648  0.187659  1
  O  O22  1  0.227748  0.088466  0.429565  1
  O  O23  1  0.104959  0.579818  0.235587  1
  O  O24  1  0.086212  0.100191  0.718157  1
  O  O25  1  0.522979  0.270512  0.144027  1
  O  O26  1  0.737467  0.087484  0.021439  1
  O  O27  1  0.193120  0.588147  0.477546  1
  O  O28  1  0.598976  0.086812  0.369152  1
  O  O29  1  0.400336  0.420737  0.345860  1
  O  O30  1  0.758793  0.429019  0.048009  1
  O  O31  1  0.069542  0.252030  0.971701  1
  O  O32  1  0.261722  0.413438  0.693864  1
  O  O33  1  0.073079  0.756397  0.686391  1
  O  O34  1  0.563002  0.745415  0.092908  1
  O  O35  1  0.420552  0.764601  0.383978  1
  O  O36  1  0.573739  0.238110  0.617920  1
  O  O37  1  0.436970  0.255254  0.905496  1
  O  O38  1  0.931565  0.244776  0.319396  1
  O  O39  1  0.732826  0.579183  0.297496  1
  O  O40  1  0.928927  0.747058  0.027521  1
  O  O41  1  0.241955  0.569138  0.951148  1
  O  O42  1  0.601634  0.580058  0.651537  1
  O  O43  1  0.398159  0.912606  0.629396  1
  O  O44  1  0.810244  0.395822  0.522732  1
  O  O45  1  0.262163  0.911221  0.977881  1
  O  O46  1  0.476022  0.726999  0.854118  1
  O  O47  1  0.913912  0.900302  0.281595  1
  O  O48  1  0.895003  0.419116  0.764437  1
  O  O49  1  0.770942  0.920949  0.573624  1
  O  O50  1  0.859220  0.924054  0.812462  1
