# generated using pymatgen
data_Sb8Cl2O11
_symmetry_space_group_name_H-M   'P 1'
_cell_length_a   11.17833499
_cell_length_b   4.20587284
_cell_length_c   18.05585622
_cell_angle_alpha   90.00000000
_cell_angle_beta   97.27192289
_cell_angle_gamma   90.00000000
_symmetry_Int_Tables_number   1
_chemical_formula_structural   Sb8Cl2O11
_chemical_formula_sum   'Sb16 Cl4 O22'
_cell_volume   842.06189176
_cell_formula_units_Z   2
loop_
 _symmetry_equiv_pos_site_id
 _symmetry_equiv_pos_as_xyz
  1  'x, y, z'
loop_
 _atom_site_type_symbol
 _atom_site_label
 _atom_site_symmetry_multiplicity
 _atom_site_fract_x
 _atom_site_fract_y
 _atom_site_fract_z
 _atom_site_occupancy
  Sb  Sb0  1  0.686717  0.693389  0.980777  1
  Sb  Sb1  1  0.945679  0.182682  0.072017  1
  Sb  Sb2  1  0.133244  0.977286  0.258404  1
  Sb  Sb3  1  0.866756  0.477286  0.241596  1
  Sb  Sb4  1  0.348770  0.452830  0.214414  1
  Sb  Sb5  1  0.651230  0.952830  0.285586  1
  Sb  Sb6  1  0.054321  0.682682  0.427983  1
  Sb  Sb7  1  0.313283  0.193389  0.519223  1
  Sb  Sb8  1  0.686717  0.806611  0.480777  1
  Sb  Sb9  1  0.945679  0.317318  0.572017  1
  Sb  Sb10  1  0.348770  0.047170  0.714414  1
  Sb  Sb11  1  0.651230  0.547170  0.785586  1
  Sb  Sb12  1  0.133244  0.522714  0.758404  1
  Sb  Sb13  1  0.866756  0.022714  0.741596  1
  Sb  Sb14  1  0.054321  0.817318  0.927983  1
  Sb  Sb15  1  0.313283  0.306611  0.019223  1
  Cl  Cl16  1  0.485897  0.996205  0.094794  1
  Cl  Cl17  1  0.514103  0.496205  0.405206  1
  Cl  Cl18  1  0.485897  0.503795  0.594794  1
  Cl  Cl19  1  0.514103  0.003795  0.905206  1
  O  O20  1  0.792475  0.076452  0.005830  1
  O  O21  1  0.860206  0.500908  0.129528  1
  O  O22  1  0.191826  0.462217  0.263025  1
  O  O23  1  0.000000  0.500000  0.000000  1
  O  O24  1  0.249948  0.412747  0.113782  1
  O  O25  1  0.696085  0.458463  0.265070  1
  O  O26  1  0.808174  0.962217  0.236975  1
  O  O27  1  0.139794  0.000908  0.370472  1
  O  O28  1  0.207525  0.576452  0.494170  1
  O  O29  1  0.303915  0.958463  0.234930  1
  O  O30  1  0.750052  0.912747  0.386218  1
  O  O31  1  0.000000  0.000000  0.500000  1
  O  O32  1  0.249948  0.087253  0.613782  1
  O  O33  1  0.696085  0.041537  0.765070  1
  O  O34  1  0.792475  0.423548  0.505830  1
  O  O35  1  0.860206  0.999092  0.629528  1
  O  O36  1  0.191826  0.037783  0.763025  1
  O  O37  1  0.303915  0.541537  0.734930  1
  O  O38  1  0.750052  0.587253  0.886218  1
  O  O39  1  0.808174  0.537783  0.736975  1
  O  O40  1  0.139794  0.499092  0.870472  1
  O  O41  1  0.207525  0.923548  0.994170  1
