# generated using pymatgen
data_LiCu5(PO4)2
_symmetry_space_group_name_H-M   'P 1'
_cell_length_a   5.61406299
_cell_length_b   6.22955523
_cell_length_c   10.36514377
_cell_angle_alpha   89.73170764
_cell_angle_beta   89.76445806
_cell_angle_gamma   88.93076325
_symmetry_Int_Tables_number   1
_chemical_formula_structural   LiCu5(PO4)2
_chemical_formula_sum   'Li2 Cu10 P4 O16'
_cell_volume   362.43134085
_cell_formula_units_Z   2
loop_
 _symmetry_equiv_pos_site_id
 _symmetry_equiv_pos_as_xyz
  1  'x, y, z'
loop_
 _atom_site_type_symbol
 _atom_site_label
 _atom_site_symmetry_multiplicity
 _atom_site_fract_x
 _atom_site_fract_y
 _atom_site_fract_z
 _atom_site_occupancy
  Li  Li0  1  0.850015  0.997284  0.254095  1
  Li  Li1  1  0.672294  0.747645  0.500972  1
  Cu  Cu2  1  0.775484  0.007482  0.755114  1
  Cu  Cu3  1  0.656554  0.760807  0.997819  1
  Cu  Cu4  1  0.335742  0.743716  0.748499  1
  Cu  Cu5  1  0.352776  0.713159  0.255324  1
  Cu  Cu6  1  0.231267  0.500320  0.011658  1
  Cu  Cu7  1  0.235578  0.496692  0.511982  1
  Cu  Cu8  1  0.351948  0.295031  0.264081  1
  Cu  Cu9  1  0.349365  0.249263  0.749479  1
  Cu  Cu10  1  0.645233  0.259291  0.505948  1
  Cu  Cu11  1  0.653705  0.238625  0.999316  1
  P  P12  1  0.160264  0.002128  0.002138  1
  P  P13  1  0.156640  0.990943  0.492493  1
  P  P14  1  0.831840  0.505176  0.745359  1
  P  P15  1  0.820798  0.500386  0.251384  1
  O  O16  1  0.163560  0.997672  0.343709  1
  O  O17  1  0.896856  0.982488  0.543578  1
  O  O18  1  0.153083  0.002954  0.852894  1
  O  O19  1  0.908207  0.003249  0.064110  1
  O  O20  1  0.312486  0.795429  0.542785  1
  O  O21  1  0.300451  0.798500  0.052845  1
  O  O22  1  0.692456  0.709105  0.796237  1
  O  O23  1  0.697441  0.707164  0.308694  1
  O  O24  1  0.821740  0.505275  0.102440  1
  O  O25  1  0.079269  0.497558  0.305151  1
  O  O26  1  0.824535  0.503972  0.596233  1
  O  O27  1  0.087715  0.503470  0.799278  1
  O  O28  1  0.701086  0.286873  0.300120  1
  O  O29  1  0.697404  0.306414  0.801050  1
  O  O30  1  0.284000  0.192121  0.549296  1
  O  O31  1  0.300207  0.199807  0.053328  1
