# generated using pymatgen
data_Na2CuO2
_symmetry_space_group_name_H-M   'P 1'
_cell_length_a   5.38667329
_cell_length_b   5.38667329
_cell_length_c   8.24148555
_cell_angle_alpha   90.00000000
_cell_angle_beta   90.00000000
_cell_angle_gamma   148.22252500
_symmetry_Int_Tables_number   1
_chemical_formula_structural   Na2CuO2
_chemical_formula_sum   'Na4 Cu2 O4'
_cell_volume   125.93471587
_cell_formula_units_Z   2
loop_
 _symmetry_equiv_pos_site_id
 _symmetry_equiv_pos_as_xyz
  1  'x, y, z'
loop_
 _atom_site_type_symbol
 _atom_site_label
 _atom_site_symmetry_multiplicity
 _atom_site_fract_x
 _atom_site_fract_y
 _atom_site_fract_z
 _atom_site_occupancy
  Na  Na0  1  0.147191  0.852809  0.331879  1
  Na  Na1  1  0.393522  0.606478  0.151461  1
  Na  Na2  1  0.852809  0.147191  0.831879  1
  Na  Na3  1  0.606478  0.393522  0.651461  1
  Cu  Cu4  1  0.122310  0.877690  0.996568  1
  Cu  Cu5  1  0.877690  0.122310  0.496568  1
  O  O6  1  0.274920  0.725080  0.596643  1
  O  O7  1  0.517044  0.482956  0.908559  1
  O  O8  1  0.482956  0.517044  0.408559  1
  O  O9  1  0.725080  0.274920  0.096643  1
