# generated using pymatgen
data_LiVP2HO7
_symmetry_space_group_name_H-M   'P 1'
_cell_length_a   6.58302562
_cell_length_b   6.60074968
_cell_length_c   6.61395793
_cell_angle_alpha   68.69406531
_cell_angle_beta   82.95188213
_cell_angle_gamma   87.36701690
_symmetry_Int_Tables_number   1
_chemical_formula_structural   LiVP2HO7
_chemical_formula_sum   'Li2 V2 P4 H2 O14'
_cell_volume   265.72964544
_cell_formula_units_Z   2
loop_
 _symmetry_equiv_pos_site_id
 _symmetry_equiv_pos_as_xyz
  1  'x, y, z'
loop_
 _atom_site_type_symbol
 _atom_site_label
 _atom_site_symmetry_multiplicity
 _atom_site_fract_x
 _atom_site_fract_y
 _atom_site_fract_z
 _atom_site_occupancy
  Li  Li0  1  0.859823  0.775104  0.251722  1
  Li  Li1  1  0.140177  0.224896  0.748278  1
  V  V2  1  0.652864  0.278713  0.102460  1
  V  V3  1  0.347136  0.721287  0.897540  1
  P  P4  1  0.843987  0.753188  0.782437  1
  P  P5  1  0.612577  0.177949  0.637690  1
  P  P6  1  0.387423  0.822051  0.362310  1
  P  P7  1  0.156013  0.246812  0.217563  1
  H  H8  1  0.816539  0.475831  0.673976  1
  H  H9  1  0.183461  0.524169  0.326024  1
  O  O10  1  0.904541  0.628420  0.619895  1
  O  O11  1  0.980410  0.207562  0.106835  1
  O  O12  1  0.768209  0.981128  0.621532  1
  O  O13  1  0.720229  0.281115  0.772489  1
  O  O14  1  0.666208  0.637024  0.950450  1
  O  O15  1  0.610592  0.329521  0.404177  1
  O  O16  1  0.592116  0.927467  0.242878  1
  O  O17  1  0.407884  0.072533  0.757122  1
  O  O18  1  0.389408  0.670479  0.595823  1
  O  O19  1  0.333792  0.362976  0.049550  1
  O  O20  1  0.279771  0.718885  0.227511  1
  O  O21  1  0.231791  0.018872  0.378468  1
  O  O22  1  0.019590  0.792438  0.893165  1
  O  O23  1  0.095459  0.371580  0.380105  1
