# generated using pymatgen
data_LiV3Zn2O8
_symmetry_space_group_name_H-M   'P 1'
_cell_length_a   5.96609477
_cell_length_b   5.96609477
_cell_length_c   5.96609477
_cell_angle_alpha   60.08403659
_cell_angle_beta   60.08403659
_cell_angle_gamma   60.08403659
_symmetry_Int_Tables_number   1
_chemical_formula_structural   LiV3Zn2O8
_chemical_formula_sum   'Li1 V3 Zn2 O8'
_cell_volume   150.44636193
_cell_formula_units_Z   1
loop_
 _symmetry_equiv_pos_site_id
 _symmetry_equiv_pos_as_xyz
  1  'x, y, z'
loop_
 _atom_site_type_symbol
 _atom_site_label
 _atom_site_symmetry_multiplicity
 _atom_site_fract_x
 _atom_site_fract_y
 _atom_site_fract_z
 _atom_site_occupancy
  Li  Li0  1  0.500000  0.500000  0.500000  1
  V  V1  1  0.500000  0.000000  0.500000  1
  V  V2  1  0.500000  0.500000  0.000000  1
  V  V3  1  1.000000  0.500000  0.500000  1
  Zn  Zn4  1  0.879439  0.879439  0.879439  1
  Zn  Zn5  1  0.120561  0.120561  0.120561  1
  O  O6  1  0.257436  0.257436  0.257436  1
  O  O7  1  0.714167  0.251087  0.251087  1
  O  O8  1  0.285833  0.748913  0.748913  1
  O  O9  1  0.748913  0.285833  0.748913  1
  O  O10  1  0.748913  0.748913  0.285833  1
  O  O11  1  0.742564  0.742564  0.742564  1
  O  O12  1  0.251087  0.251087  0.714167  1
  O  O13  1  0.251087  0.714167  0.251087  1
