# generated using pymatgen
data_Li4CrFe3O8
_symmetry_space_group_name_H-M   'P 1'
_cell_length_a   5.96697803
_cell_length_b   5.96697803
_cell_length_c   5.19167276
_cell_angle_alpha   73.28169425
_cell_angle_beta   106.71830575
_cell_angle_gamma   120.01888145
_symmetry_Int_Tables_number   1
_chemical_formula_structural   Li4CrFe3O8
_chemical_formula_sum   'Li4 Cr1 Fe3 O8'
_cell_volume   150.96708862
_cell_formula_units_Z   1
loop_
 _symmetry_equiv_pos_site_id
 _symmetry_equiv_pos_as_xyz
  1  'x, y, z'
loop_
 _atom_site_type_symbol
 _atom_site_label
 _atom_site_symmetry_multiplicity
 _atom_site_fract_x
 _atom_site_fract_y
 _atom_site_fract_z
 _atom_site_occupancy
  Li  Li0  1  0.750847  0.249153  0.002269  1
  Li  Li1  1  0.249153  0.750847  0.997731  1
  Li  Li2  1  0.248546  0.248546  0.000000  1
  Li  Li3  1  0.751454  0.751454  0.000000  1
  Cr  Cr4  1  0.000000  0.000000  0.500000  1
  Fe  Fe5  1  0.000000  0.500000  0.500000  1
  Fe  Fe6  1  0.500000  0.000000  0.500000  1
  Fe  Fe7  1  0.500000  0.500000  0.500000  1
  O  O8  1  0.628571  0.371429  0.271161  1
  O  O9  1  0.872036  0.630042  0.728259  1
  O  O10  1  0.128109  0.871891  0.272954  1
  O  O11  1  0.369958  0.127964  0.728259  1
  O  O12  1  0.127964  0.369958  0.271741  1
  O  O13  1  0.371429  0.628571  0.728839  1
  O  O14  1  0.630042  0.872036  0.271741  1
  O  O15  1  0.871891  0.128109  0.727046  1
