# generated using pymatgen
data_Li2V4OF12
_symmetry_space_group_name_H-M   'P 1'
_cell_length_a   3.95359586
_cell_length_b   8.29565806
_cell_length_c   8.57465220
_cell_angle_alpha   80.90401690
_cell_angle_beta   87.49693881
_cell_angle_gamma   77.33029993
_symmetry_Int_Tables_number   1
_chemical_formula_structural   Li2V4OF12
_chemical_formula_sum   'Li2 V4 O1 F12'
_cell_volume   270.91877213
_cell_formula_units_Z   1
loop_
 _symmetry_equiv_pos_site_id
 _symmetry_equiv_pos_as_xyz
  1  'x, y, z'
loop_
 _atom_site_type_symbol
 _atom_site_label
 _atom_site_symmetry_multiplicity
 _atom_site_fract_x
 _atom_site_fract_y
 _atom_site_fract_z
 _atom_site_occupancy
  Li  Li0  1  0.113982  0.418327  0.272088  1
  Li  Li1  1  0.928207  0.565319  0.721286  1
  V  V2  1  0.073269  0.830221  0.356370  1
  V  V3  1  0.883801  0.184671  0.014347  1
  V  V4  1  0.098818  0.800221  0.004157  1
  V  V5  1  0.927905  0.186131  0.626680  1
  O  O6  1  0.006098  0.968788  0.145014  1
  F  F7  1  0.993256  0.023313  0.481572  1
  F  F8  1  0.571196  0.827727  0.358317  1
  F  F9  1  0.163266  0.641752  0.214278  1
  F  F10  1  0.793228  0.338942  0.162174  1
  F  F11  1  0.381504  0.202611  0.004784  1
  F  F12  1  0.120356  0.668019  0.543669  1
  F  F13  1  0.889643  0.376416  0.470192  1
  F  F14  1  0.598414  0.800257  0.989082  1
  F  F15  1  0.180350  0.627358  0.872965  1
  F  F16  1  0.853021  0.339633  0.796704  1
  F  F17  1  0.432341  0.180586  0.633277  1
  F  F18  1  0.991344  0.019709  0.833044  1
