# generated using pymatgen
data_LiBi2(SO4)3
_symmetry_space_group_name_H-M   'P 1'
_cell_length_a   8.94160438
_cell_length_b   9.85980816
_cell_length_c   15.51132248
_cell_angle_alpha   90.00000000
_cell_angle_beta   124.72433322
_cell_angle_gamma   90.00000000
_symmetry_Int_Tables_number   1
_chemical_formula_structural   LiBi2(SO4)3
_chemical_formula_sum   'Li4 Bi8 S12 O48'
_cell_volume   1123.96524963
_cell_formula_units_Z   4
loop_
 _symmetry_equiv_pos_site_id
 _symmetry_equiv_pos_as_xyz
  1  'x, y, z'
loop_
 _atom_site_type_symbol
 _atom_site_label
 _atom_site_symmetry_multiplicity
 _atom_site_fract_x
 _atom_site_fract_y
 _atom_site_fract_z
 _atom_site_occupancy
  Li  Li0  1  0.508837  0.273451  0.821201  1
  Li  Li1  1  0.491163  0.773451  0.678799  1
  Li  Li2  1  0.508837  0.226549  0.321201  1
  Li  Li3  1  0.491163  0.726549  0.178799  1
  Bi  Bi4  1  0.125445  0.036363  0.383496  1
  Bi  Bi5  1  0.311520  0.449500  0.597529  1
  Bi  Bi6  1  0.874555  0.536363  0.116504  1
  Bi  Bi7  1  0.688480  0.949500  0.902471  1
  Bi  Bi8  1  0.311520  0.050500  0.097529  1
  Bi  Bi9  1  0.125445  0.463637  0.883496  1
  Bi  Bi10  1  0.688480  0.550500  0.402471  1
  Bi  Bi11  1  0.874555  0.963637  0.616504  1
  S  S12  1  0.062385  0.776911  0.505417  1
  S  S13  1  0.740482  0.877842  0.150337  1
  S  S14  1  0.455344  0.597386  0.843198  1
  S  S15  1  0.544656  0.097386  0.656802  1
  S  S16  1  0.259518  0.377842  0.349663  1
  S  S17  1  0.937615  0.276911  0.994583  1
  S  S18  1  0.062385  0.723089  0.005417  1
  S  S19  1  0.740482  0.622158  0.650337  1
  S  S20  1  0.455344  0.902614  0.343198  1
  S  S21  1  0.544656  0.402614  0.156802  1
  S  S22  1  0.259518  0.122158  0.849663  1
  S  S23  1  0.937615  0.223089  0.494583  1
  O  O24  1  0.020944  0.358913  0.542296  1
  O  O25  1  0.671407  0.388939  0.123903  1
  O  O26  1  0.395458  0.091185  0.825035  1
  O  O27  1  0.964285  0.198578  0.408639  1
  O  O28  1  0.967153  0.884758  0.422611  1
  O  O29  1  0.800649  0.734427  0.183648  1
  O  O30  1  0.650704  0.890322  0.035212  1
  O  O31  1  0.410711  0.467462  0.779848  1
  O  O32  1  0.255666  0.776571  0.546257  1
  O  O33  1  0.434881  0.713825  0.778325  1
  O  O34  1  0.645725  0.587432  0.937975  1
  O  O35  1  0.897213  0.973670  0.206085  1
  O  O36  1  0.102787  0.473670  0.293915  1
  O  O37  1  0.354275  0.087432  0.562025  1
  O  O38  1  0.565119  0.213825  0.721675  1
  O  O39  1  0.744334  0.276571  0.953743  1
  O  O40  1  0.349296  0.390322  0.464788  1
  O  O41  1  0.589289  0.967462  0.720152  1
  O  O42  1  0.199351  0.234427  0.316352  1
  O  O43  1  0.032847  0.384758  0.077389  1
  O  O44  1  0.035715  0.698578  0.091361  1
  O  O45  1  0.328593  0.888939  0.376097  1
  O  O46  1  0.604542  0.591185  0.674965  1
  O  O47  1  0.979056  0.858913  0.957704  1
  O  O48  1  0.020944  0.141087  0.042296  1
  O  O49  1  0.395458  0.408815  0.325035  1
  O  O50  1  0.671407  0.111061  0.623903  1
  O  O51  1  0.964285  0.301422  0.908639  1
  O  O52  1  0.967153  0.615242  0.922611  1
  O  O53  1  0.800649  0.765573  0.683648  1
  O  O54  1  0.410711  0.032538  0.279848  1
  O  O55  1  0.650704  0.609678  0.535212  1
  O  O56  1  0.255666  0.723429  0.046257  1
  O  O57  1  0.434881  0.786175  0.278325  1
  O  O58  1  0.645725  0.912568  0.437975  1
  O  O59  1  0.897213  0.526330  0.706085  1
  O  O60  1  0.102787  0.026330  0.793915  1
  O  O61  1  0.354275  0.412568  0.062025  1
  O  O62  1  0.565119  0.286175  0.221675  1
  O  O63  1  0.744334  0.223429  0.453743  1
  O  O64  1  0.589289  0.532538  0.220152  1
  O  O65  1  0.349296  0.109678  0.964788  1
  O  O66  1  0.199351  0.265573  0.816352  1
  O  O67  1  0.032847  0.115242  0.577389  1
  O  O68  1  0.035715  0.801422  0.591361  1
  O  O69  1  0.604542  0.908815  0.174965  1
  O  O70  1  0.328593  0.611061  0.876097  1
  O  O71  1  0.979056  0.641087  0.457704  1
