# generated using pymatgen
data_CaPbI6
_symmetry_space_group_name_H-M   'P 1'
_cell_length_a   15.78661437
_cell_length_b   13.45508064
_cell_length_c   12.41755655
_cell_angle_alpha   75.08321162
_cell_angle_beta   55.44551689
_cell_angle_gamma   49.47127150
_symmetry_Int_Tables_number   1
_chemical_formula_structural   CaPbI6
_chemical_formula_sum   'Ca4 Pb4 I24'
_cell_volume   1624.88616451
_cell_formula_units_Z   4
loop_
 _symmetry_equiv_pos_site_id
 _symmetry_equiv_pos_as_xyz
  1  'x, y, z'
loop_
 _atom_site_type_symbol
 _atom_site_label
 _atom_site_symmetry_multiplicity
 _atom_site_fract_x
 _atom_site_fract_y
 _atom_site_fract_z
 _atom_site_occupancy
  Ca  Ca0  1  0.085623  0.695162  0.632369  1
  Ca  Ca1  1  0.617631  0.663154  0.164377  1
  Ca  Ca2  1  0.554838  0.164377  0.663154  1
  Ca  Ca3  1  0.586846  0.632369  0.695162  1
  Pb  Pb4  1  0.264423  0.607789  0.910948  1
  Pb  Pb5  1  0.339052  0.033161  0.985577  1
  Pb  Pb6  1  0.642211  0.985577  0.033161  1
  Pb  Pb7  1  0.216839  0.910948  0.607789  1
  I  I8  1  0.190108  0.602153  0.206153  1
  I  I9  1  0.410267  0.972428  0.238172  1
  I  I10  1  0.231733  0.794826  0.408405  1
  I  I11  1  0.356473  0.273602  0.422515  1
  I  I12  1  0.637986  0.417358  0.175839  1
  I  I13  1  0.339886  0.464992  0.654505  1
  I  I14  1  0.043847  0.248414  0.059892  1
  I  I15  1  0.647847  0.059892  0.248414  1
  I  I16  1  0.540617  0.654505  0.464992  1
  I  I17  1  0.277572  0.839733  0.870867  1
  I  I18  1  0.455174  0.018267  0.684964  1
  I  I19  1  0.768817  0.175839  0.417358  1
  I  I20  1  0.947410  0.422515  0.273602  1
  I  I21  1  0.976398  0.893527  0.302590  1
  I  I22  1  0.832642  0.612014  0.481183  1
  I  I23  1  0.565036  0.408405  0.794826  1
  I  I24  1  0.379133  0.238172  0.972428  1
  I  I25  1  0.785008  0.910114  0.709383  1
  I  I26  1  0.001586  0.206153  0.602153  1
  I  I27  1  0.595495  0.709383  0.910114  1
  I  I28  1  0.074161  0.481183  0.612014  1
  I  I29  1  0.827485  0.302590  0.893527  1
  I  I30  1  0.841595  0.684964  0.018267  1
  I  I31  1  0.011828  0.870867  0.839733  1
