# generated using pymatgen
data_LiFe2(BO3)2
_symmetry_space_group_name_H-M   'P 1'
_cell_length_a   5.28960443
_cell_length_b   9.05618872
_cell_length_c   11.40902515
_cell_angle_alpha   113.06592827
_cell_angle_beta   102.71970768
_cell_angle_gamma   89.80629642
_symmetry_Int_Tables_number   1
_chemical_formula_structural   LiFe2(BO3)2
_chemical_formula_sum   'Li4 Fe8 B8 O24'
_cell_volume   488.40464303
_cell_formula_units_Z   4
loop_
 _symmetry_equiv_pos_site_id
 _symmetry_equiv_pos_as_xyz
  1  'x, y, z'
loop_
 _atom_site_type_symbol
 _atom_site_label
 _atom_site_symmetry_multiplicity
 _atom_site_fract_x
 _atom_site_fract_y
 _atom_site_fract_z
 _atom_site_occupancy
  Li  Li0  1  0.160735  0.829413  0.644128  1
  Li  Li1  1  0.354459  0.684214  0.385543  1
  Li  Li2  1  0.607960  0.951704  0.905264  1
  Li  Li3  1  0.428124  0.066201  0.164548  1
  Fe  Fe4  1  0.404901  0.718158  0.131285  1
  Fe  Fe5  1  0.095079  0.765367  0.879876  1
  Fe  Fe6  1  0.851616  0.864599  0.382889  1
  Fe  Fe7  1  0.662159  0.641526  0.625281  1
  Fe  Fe8  1  0.349962  0.347140  0.384086  1
  Fe  Fe9  1  0.139806  0.168854  0.632584  1
  Fe  Fe10  1  0.910883  0.242786  0.131298  1
  Fe  Fe11  1  0.596802  0.271566  0.868090  1
  B  B12  1  0.641990  0.977723  0.629052  1
  B  B13  1  0.898679  0.909049  0.129629  1
  B  B14  1  0.149295  0.491025  0.632074  1
  B  B15  1  0.401950  0.383019  0.125858  1
  B  B16  1  0.848613  0.529437  0.372711  1
  B  B17  1  0.601003  0.611521  0.881822  1
  B  B18  1  0.350310  0.009091  0.377039  1
  B  B19  1  0.106915  0.103736  0.877895  1
  O  O20  1  0.127033  0.874474  0.084975  1
  O  O21  1  0.471730  0.863918  0.351412  1
  O  O22  1  0.217786  0.960320  0.866553  1
  O  O23  1  0.505605  0.841991  0.618725  1
  O  O24  1  0.877815  0.963513  0.589073  1
  O  O25  1  0.797593  0.820295  0.186614  1
  O  O26  1  0.312910  0.529574  0.159455  1
  O  O27  1  0.064305  0.650774  0.685955  1
  O  O28  1  0.719056  0.726279  0.849777  1
  O  O29  1  0.620210  0.536090  0.412861  1
  O  O30  1  0.986414  0.670147  0.390536  1
  O  O31  1  0.379945  0.656227  0.930009  1
  O  O32  1  0.617721  0.342801  0.068902  1
  O  O33  1  0.361335  0.478928  0.578483  1
  O  O34  1  0.286712  0.260472  0.149919  1
  O  O35  1  0.952985  0.382883  0.317218  1
  O  O36  1  0.698307  0.471074  0.870936  1
  O  O37  1  0.224173  0.213375  0.846265  1
  O  O38  1  0.134884  0.022384  0.430527  1
  O  O39  1  0.439043  0.124788  0.346027  1
  O  O40  1  0.013336  0.368392  0.634629  1
  O  O41  1  0.762516  0.034088  0.111238  1
  O  O42  1  0.548562  0.128108  0.679721  1
  O  O43  1  0.870881  0.132213  0.917724  1
