# generated using pymatgen
data_Mn3(O2F)2
_symmetry_space_group_name_H-M   'P 1'
_cell_length_a   5.50298836
_cell_length_b   5.52254448
_cell_length_c   6.99307158
_cell_angle_alpha   74.36093629
_cell_angle_beta   73.92162286
_cell_angle_gamma   75.60383049
_symmetry_Int_Tables_number   1
_chemical_formula_structural   Mn3(O2F)2
_chemical_formula_sum   'Mn6 O8 F4'
_cell_volume   193.14303413
_cell_formula_units_Z   2
loop_
 _symmetry_equiv_pos_site_id
 _symmetry_equiv_pos_as_xyz
  1  'x, y, z'
loop_
 _atom_site_type_symbol
 _atom_site_label
 _atom_site_symmetry_multiplicity
 _atom_site_fract_x
 _atom_site_fract_y
 _atom_site_fract_z
 _atom_site_occupancy
  Mn  Mn0  1  0.500000  0.500000  0.500000  1
  Mn  Mn1  1  0.189572  0.141324  0.333068  1
  Mn  Mn2  1  0.500000  0.500000  0.000000  1
  Mn  Mn3  1  0.190683  0.156884  0.826981  1
  Mn  Mn4  1  0.809317  0.843116  0.173019  1
  Mn  Mn5  1  0.810428  0.858676  0.666932  1
  O  O6  1  0.720426  0.744209  0.962475  1
  O  O7  1  0.409567  0.379950  0.297562  1
  O  O8  1  0.069771  0.067856  0.625273  1
  O  O9  1  0.930229  0.932144  0.374727  1
  O  O10  1  0.590433  0.620050  0.702438  1
  O  O11  1  0.279574  0.255791  0.037525  1
  O  O12  1  0.466470  0.849064  0.333964  1
  O  O13  1  0.533530  0.150936  0.666036  1
  F  F14  1  0.890111  0.442797  0.330100  1
  F  F15  1  0.170249  0.794313  0.017667  1
  F  F16  1  0.829751  0.205687  0.982333  1
  F  F17  1  0.109889  0.557203  0.669900  1
