# generated using pymatgen
data_FeOF
_symmetry_space_group_name_H-M   'P 1'
_cell_length_a   9.46383047
_cell_length_b   3.08528457
_cell_length_c   14.25668328
_cell_angle_alpha   90.00000000
_cell_angle_beta   90.04681290
_cell_angle_gamma   90.00000000
_symmetry_Int_Tables_number   1
_chemical_formula_structural   FeOF
_chemical_formula_sum   'Fe12 O12 F12'
_cell_volume   416.27519750
_cell_formula_units_Z   12
loop_
 _symmetry_equiv_pos_site_id
 _symmetry_equiv_pos_as_xyz
  1  'x, y, z'
loop_
 _atom_site_type_symbol
 _atom_site_label
 _atom_site_symmetry_multiplicity
 _atom_site_fract_x
 _atom_site_fract_y
 _atom_site_fract_z
 _atom_site_occupancy
  Fe  Fe0  1  0.980608  0.000000  0.000559  1
  Fe  Fe1  1  0.994956  0.000000  0.665131  1
  Fe  Fe2  1  0.983370  0.000000  0.338248  1
  Fe  Fe3  1  0.744072  0.500000  0.851316  1
  Fe  Fe4  1  0.772849  0.500000  0.504716  1
  Fe  Fe5  1  0.774051  0.500000  0.170849  1
  Fe  Fe6  1  0.481215  0.000000  0.668714  1
  Fe  Fe7  1  0.493748  0.000000  0.998091  1
  Fe  Fe8  1  0.483179  0.000000  0.334889  1
  Fe  Fe9  1  0.237783  0.500000  0.813841  1
  Fe  Fe10  1  0.275231  0.500000  0.499951  1
  Fe  Fe11  1  0.275292  0.500000  0.165449  1
  O  O12  1  0.911091  0.500000  0.405183  1
  O  O13  1  0.903006  0.500000  0.063787  1
  O  O14  1  0.852055  0.000000  0.892427  1
  O  O15  1  0.849391  0.000000  0.234903  1
  O  O16  1  0.850605  0.000000  0.570823  1
  O  O17  1  0.589218  0.500000  0.933766  1
  O  O18  1  0.401991  0.500000  0.730833  1
  O  O19  1  0.398898  0.500000  0.059811  1
  O  O20  1  0.411083  0.500000  0.400594  1
  O  O21  1  0.346996  0.000000  0.565517  1
  O  O22  1  0.349640  0.000000  0.232300  1
  O  O23  1  0.139493  0.000000  0.760287  1
  F  F24  1  0.895339  0.500000  0.727556  1
  F  F25  1  0.655295  0.000000  0.762096  1
  F  F26  1  0.659449  0.000000  0.437209  1
  F  F27  1  0.652531  0.000000  0.107938  1
  F  F28  1  0.600443  0.500000  0.600946  1
  F  F29  1  0.602992  0.500000  0.272354  1
  F  F30  1  0.330108  0.000000  0.890918  1
  F  F31  1  0.150444  0.000000  0.101912  1
  F  F32  1  0.156313  0.000000  0.434225  1
  F  F33  1  0.100899  0.500000  0.933990  1
  F  F34  1  0.096547  0.500000  0.595841  1
  F  F35  1  0.099816  0.500000  0.273035  1
