# generated using pymatgen
data_Li4Cr3O8
_symmetry_space_group_name_H-M   'P 1'
_cell_length_a   6.11060779
_cell_length_b   6.11060779
_cell_length_c   6.11060779
_cell_angle_alpha   56.55147651
_cell_angle_beta   56.55147651
_cell_angle_gamma   56.55147651
_symmetry_Int_Tables_number   1
_chemical_formula_structural   Li4Cr3O8
_chemical_formula_sum   'Li4 Cr3 O8'
_cell_volume   148.48179563
_cell_formula_units_Z   1
loop_
 _symmetry_equiv_pos_site_id
 _symmetry_equiv_pos_as_xyz
  1  'x, y, z'
loop_
 _atom_site_type_symbol
 _atom_site_label
 _atom_site_symmetry_multiplicity
 _atom_site_fract_x
 _atom_site_fract_y
 _atom_site_fract_z
 _atom_site_occupancy
  Li  Li0  1  0.000000  0.000000  0.000000  1
  Li  Li1  1  0.356146  0.356146  0.356146  1
  Li  Li2  1  0.500000  0.500000  0.500000  1
  Li  Li3  1  0.643854  0.643854  0.643854  1
  Cr  Cr4  1  0.500000  0.000000  0.000000  1
  Cr  Cr5  1  0.000000  0.000000  0.500000  1
  Cr  Cr6  1  0.000000  0.500000  0.000000  1
  O  O7  1  0.234160  0.234160  0.234160  1
  O  O8  1  0.216579  0.743052  0.743052  1
  O  O9  1  0.743052  0.743052  0.216579  1
  O  O10  1  0.743052  0.216579  0.743052  1
  O  O11  1  0.765840  0.765840  0.765840  1
  O  O12  1  0.783421  0.256948  0.256948  1
  O  O13  1  0.256948  0.256948  0.783421  1
  O  O14  1  0.256948  0.783421  0.256948  1
