# generated using pymatgen
data_V3O5F
_symmetry_space_group_name_H-M   'P 1'
_cell_length_a   4.66818168
_cell_length_b   2.97048884
_cell_length_c   13.98185502
_cell_angle_alpha   90.00000000
_cell_angle_beta   92.52618889
_cell_angle_gamma   90.00000000
_symmetry_Int_Tables_number   1
_chemical_formula_structural   V3O5F
_chemical_formula_sum   'V6 O10 F2'
_cell_volume   193.69490999
_cell_formula_units_Z   2
loop_
 _symmetry_equiv_pos_site_id
 _symmetry_equiv_pos_as_xyz
  1  'x, y, z'
loop_
 _atom_site_type_symbol
 _atom_site_label
 _atom_site_symmetry_multiplicity
 _atom_site_fract_x
 _atom_site_fract_y
 _atom_site_fract_z
 _atom_site_occupancy
  V  V0  1  0.000000  0.000000  0.500000  1
  V  V1  1  0.020965  0.000000  0.157480  1
  V  V2  1  0.979035  0.000000  0.842520  1
  V  V3  1  0.473406  0.500000  0.340943  1
  V  V4  1  0.500000  0.500000  0.000000  1
  V  V5  1  0.526594  0.500000  0.659057  1
  O  O6  1  0.798598  0.500000  0.900073  1
  O  O7  1  0.802454  0.500000  0.565490  1
  O  O8  1  0.696044  0.000000  0.397916  1
  O  O9  1  0.707889  0.000000  0.735167  1
  O  O10  1  0.708093  0.000000  0.069573  1
  O  O11  1  0.292111  0.000000  0.264833  1
  O  O12  1  0.291907  0.000000  0.930427  1
  O  O13  1  0.303956  0.000000  0.602084  1
  O  O14  1  0.197546  0.500000  0.434510  1
  O  O15  1  0.201402  0.500000  0.099927  1
  F  F16  1  0.806754  0.500000  0.231513  1
  F  F17  1  0.193246  0.500000  0.768487  1
