# generated using pymatgen
data_Ni15O16
_symmetry_space_group_name_H-M   'P 1'
_cell_length_a   7.27678595
_cell_length_b   7.27678595
_cell_length_c   7.27678595
_cell_angle_alpha   109.47122063
_cell_angle_beta   109.47122063
_cell_angle_gamma   109.47122063
_symmetry_Int_Tables_number   1
_chemical_formula_structural   Ni15O16
_chemical_formula_sum   'Ni15 O16'
_cell_volume   296.61759528
_cell_formula_units_Z   1
loop_
 _symmetry_equiv_pos_site_id
 _symmetry_equiv_pos_as_xyz
  1  'x, y, z'
loop_
 _atom_site_type_symbol
 _atom_site_label
 _atom_site_symmetry_multiplicity
 _atom_site_fract_x
 _atom_site_fract_y
 _atom_site_fract_z
 _atom_site_occupancy
  Ni  Ni0  1  1.000000  0.246063  0.753937  1
  Ni  Ni1  1  1.000000  0.500000  0.500000  1
  Ni  Ni2  1  0.753937  0.753937  0.507873  1
  Ni  Ni3  1  0.753937  1.000000  0.246063  1
  Ni  Ni4  1  0.753937  0.246063  0.000000  1
  Ni  Ni5  1  0.500000  0.500000  0.000000  1
  Ni  Ni6  1  0.753937  0.507873  0.753937  1
  Ni  Ni7  1  0.507873  0.753937  0.753937  1
  Ni  Ni8  1  0.500000  1.000000  0.500000  1
  Ni  Ni9  1  0.246063  0.246063  0.492127  1
  Ni  Ni10  1  0.492127  0.246063  0.246063  1
  Ni  Ni11  1  0.246063  0.492127  0.246063  1
  Ni  Ni12  1  0.246063  0.753937  1.000000  1
  Ni  Ni13  1  0.246063  1.000000  0.753937  1
  Ni  Ni14  1  1.000000  0.753937  0.246063  1
  O  O15  1  1.000000  0.269159  0.269159  1
  O  O16  1  1.000000  0.500000  1.000000  1
  O  O17  1  0.730841  0.730841  0.000000  1
  O  O18  1  1.000000  0.730841  0.730841  1
  O  O19  1  0.730841  1.000000  0.730841  1
  O  O20  1  0.750000  0.250000  0.500000  1
  O  O21  1  0.500000  0.500000  0.500000  1
  O  O22  1  0.750000  0.500000  0.250000  1
  O  O23  1  0.500000  0.750000  0.250000  1
  O  O24  1  0.500000  1.000000  1.000000  1
  O  O25  1  0.269159  0.269159  0.000000  1
  O  O26  1  0.500000  0.250000  0.750000  1
  O  O27  1  0.250000  0.500000  0.750000  1
  O  O28  1  0.250000  0.750000  0.500000  1
  O  O29  1  1.000000  1.000000  0.500000  1
  O  O30  1  0.269159  1.000000  0.269159  1
