# generated using pymatgen
data_Ba4Ti11O26
_symmetry_space_group_name_H-M   'P 1'
_cell_length_a   7.84610870
_cell_length_b   7.97803712
_cell_length_c   10.03883225
_cell_angle_alpha   91.86954333
_cell_angle_beta   112.97652676
_cell_angle_gamma   104.19041074
_symmetry_Int_Tables_number   1
_chemical_formula_structural   Ba4Ti11O26
_chemical_formula_sum   'Ba4 Ti11 O26'
_cell_volume   555.06261898
_cell_formula_units_Z   1
loop_
 _symmetry_equiv_pos_site_id
 _symmetry_equiv_pos_as_xyz
  1  'x, y, z'
loop_
 _atom_site_type_symbol
 _atom_site_label
 _atom_site_symmetry_multiplicity
 _atom_site_fract_x
 _atom_site_fract_y
 _atom_site_fract_z
 _atom_site_occupancy
  Ba  Ba0  1  0.916651  0.090573  0.772400  1
  Ba  Ba1  1  0.402046  0.094718  0.771916  1
  Ba  Ba2  1  0.087849  0.893805  0.209985  1
  Ba  Ba3  1  0.568512  0.893770  0.210068  1
  Ti  Ti4  1  0.356820  0.237001  0.094919  1
  Ti  Ti5  1  0.857016  0.239648  0.096835  1
  Ti  Ti6  1  0.053922  0.335289  0.442633  1
  Ti  Ti7  1  0.558689  0.337353  0.446160  1
  Ti  Ti8  1  0.254777  0.497766  0.781718  1
  Ti  Ti9  1  0.775422  0.495482  0.781710  1
  Ti  Ti10  1  0.246143  0.520504  0.229337  1
  Ti  Ti11  1  0.746245  0.525600  0.234602  1
  Ti  Ti12  1  0.951845  0.665887  0.569440  1
  Ti  Ti13  1  0.444386  0.655971  0.562530  1
  Ti  Ti14  1  0.638796  0.757036  0.900002  1
  O  O15  1  0.260027  0.022308  0.007486  1
  O  O16  1  0.750509  0.001652  0.000107  1
  O  O17  1  0.935503  0.146195  0.294394  1
  O  O18  1  0.435860  0.149764  0.299846  1
  O  O19  1  0.124157  0.259606  0.616559  1
  O  O20  1  0.622853  0.257637  0.619416  1
  O  O21  1  0.290901  0.343968  0.914174  1
  O  O22  1  0.794890  0.337653  0.916158  1
  O  O23  1  0.123757  0.274789  0.114182  1
  O  O24  1  0.628001  0.274968  0.113648  1
  O  O25  1  0.318563  0.402930  0.436356  1
  O  O26  1  0.812481  0.396674  0.425184  1
  O  O27  1  0.994943  0.505466  0.737920  1
  O  O28  1  0.508366  0.519660  0.757209  1
  O  O29  1  0.988086  0.475199  0.241161  1
  O  O30  1  0.496815  0.484788  0.248007  1
  O  O31  1  0.186568  0.596656  0.573694  1
  O  O32  1  0.686188  0.596128  0.575431  1
  O  O33  1  0.385493  0.719002  0.887255  1
  O  O34  1  0.860597  0.716200  0.886781  1
  O  O35  1  0.709941  0.663902  0.088023  1
  O  O36  1  0.217203  0.662084  0.103204  1
  O  O37  1  0.377034  0.737603  0.388303  1
  O  O38  1  0.872253  0.727403  0.376034  1
  O  O39  1  0.565059  0.852273  0.704180  1
  O  O40  1  0.051953  0.874897  0.665364  1
