# generated using pymatgen
data_LiAlVO4
_symmetry_space_group_name_H-M   'P 1'
_cell_length_a   8.72999126
_cell_length_b   8.72999126
_cell_length_c   8.72999126
_cell_angle_alpha   107.54200337
_cell_angle_beta   107.54200337
_cell_angle_gamma   107.54200337
_symmetry_Int_Tables_number   1
_chemical_formula_structural   LiAlVO4
_chemical_formula_sum   'Li6 Al6 V6 O24'
_cell_volume   545.69897499
_cell_formula_units_Z   6
loop_
 _symmetry_equiv_pos_site_id
 _symmetry_equiv_pos_as_xyz
  1  'x, y, z'
loop_
 _atom_site_type_symbol
 _atom_site_label
 _atom_site_symmetry_multiplicity
 _atom_site_fract_x
 _atom_site_fract_y
 _atom_site_fract_z
 _atom_site_occupancy
  Li  Li0  1  0.726057  0.898932  0.127380  1
  Li  Li1  1  0.608586  0.437091  0.213060  1
  Li  Li2  1  0.213060  0.608586  0.437091  1
  Li  Li3  1  0.127380  0.726057  0.898932  1
  Li  Li4  1  0.437091  0.213060  0.608586  1
  Li  Li5  1  0.898932  0.127380  0.726057  1
  Al  Al6  1  0.233607  0.458061  0.054469  1
  Al  Al7  1  0.946430  0.763219  0.534563  1
  Al  Al8  1  0.534563  0.946430  0.763219  1
  Al  Al9  1  0.458061  0.054469  0.233607  1
  Al  Al10  1  0.054469  0.233607  0.458061  1
  Al  Al11  1  0.763219  0.534563  0.946430  1
  V  V12  1  0.100603  0.871977  0.277074  1
  V  V13  1  0.566886  0.797212  0.389226  1
  V  V14  1  0.871977  0.277074  0.100603  1
  V  V15  1  0.797212  0.389226  0.566886  1
  V  V16  1  0.389226  0.566886  0.797212  1
  V  V17  1  0.277074  0.100603  0.871977  1
  O  O18  1  0.980557  0.011014  0.307480  1
  O  O19  1  0.985454  0.703541  0.045573  1
  O  O20  1  0.570912  0.917531  0.251577  1
  O  O21  1  0.077099  0.750777  0.412880  1
  O  O22  1  0.641961  0.952927  0.619129  1
  O  O23  1  0.337852  0.620065  0.279559  1
  O  O24  1  0.750777  0.412880  0.077099  1
  O  O25  1  0.719570  0.691799  0.393980  1
  O  O26  1  0.357342  0.329636  0.029989  1
  O  O27  1  0.703541  0.045573  0.985454  1
  O  O28  1  0.029989  0.357342  0.329636  1
  O  O29  1  0.393980  0.719570  0.691799  1
  O  O30  1  0.307480  0.980557  0.011014  1
  O  O31  1  0.952927  0.619129  0.641961  1
  O  O32  1  0.620065  0.279559  0.337852  1
  O  O33  1  0.279559  0.337852  0.620065  1
  O  O34  1  0.619129  0.641961  0.952927  1
  O  O35  1  0.917531  0.251577  0.570912  1
  O  O36  1  0.691799  0.393980  0.719570  1
  O  O37  1  0.329636  0.029989  0.357342  1
  O  O38  1  0.251577  0.570912  0.917531  1
  O  O39  1  0.011014  0.307480  0.980557  1
  O  O40  1  0.412880  0.077099  0.750777  1
  O  O41  1  0.045573  0.985454  0.703541  1
