# generated using pymatgen
data_Li2Ti3CoO8
_symmetry_space_group_name_H-M   'P 1'
_cell_length_a   5.88499549
_cell_length_b   5.88499549
_cell_length_c   5.88499549
_cell_angle_alpha   60.87889099
_cell_angle_beta   60.87889099
_cell_angle_gamma   60.87889099
_symmetry_Int_Tables_number   1
_chemical_formula_structural   Li2Ti3CoO8
_chemical_formula_sum   'Li2 Ti3 Co1 O8'
_cell_volume   146.97517303
_cell_formula_units_Z   1
loop_
 _symmetry_equiv_pos_site_id
 _symmetry_equiv_pos_as_xyz
  1  'x, y, z'
loop_
 _atom_site_type_symbol
 _atom_site_label
 _atom_site_symmetry_multiplicity
 _atom_site_fract_x
 _atom_site_fract_y
 _atom_site_fract_z
 _atom_site_occupancy
  Li  Li0  1  0.878484  0.878484  0.878484  1
  Li  Li1  1  0.121516  0.121516  0.121516  1
  Ti  Ti2  1  0.500000  0.000000  0.500000  1
  Ti  Ti3  1  0.500000  0.500000  0.000000  1
  Ti  Ti4  1  0.000000  0.500000  0.500000  1
  Co  Co5  1  0.500000  0.500000  0.500000  1
  O  O6  1  0.740206  0.740206  0.740206  1
  O  O7  1  0.287823  0.742749  0.742749  1
  O  O8  1  0.742749  0.742749  0.287823  1
  O  O9  1  0.742749  0.287823  0.742749  1
  O  O10  1  0.257251  0.712177  0.257251  1
  O  O11  1  0.257251  0.257251  0.712177  1
  O  O12  1  0.712177  0.257251  0.257251  1
  O  O13  1  0.259794  0.259794  0.259794  1
