# generated using pymatgen
data_Li3MnVP2(HO5)2
_symmetry_space_group_name_H-M   'P 1'
_cell_length_a   5.35686393
_cell_length_b   5.48006156
_cell_length_c   7.57529603
_cell_angle_alpha   106.35740445
_cell_angle_beta   108.80372183
_cell_angle_gamma   95.60547999
_symmetry_Int_Tables_number   1
_chemical_formula_structural   Li3MnVP2(HO5)2
_chemical_formula_sum   'Li3 Mn1 V1 P2 H2 O10'
_cell_volume   197.59508139
_cell_formula_units_Z   1
loop_
 _symmetry_equiv_pos_site_id
 _symmetry_equiv_pos_as_xyz
  1  'x, y, z'
loop_
 _atom_site_type_symbol
 _atom_site_label
 _atom_site_symmetry_multiplicity
 _atom_site_fract_x
 _atom_site_fract_y
 _atom_site_fract_z
 _atom_site_occupancy
  Li  Li0  1  0.466261  0.131045  0.845486  1
  Li  Li1  1  0.786940  0.430449  0.806937  1
  Li  Li2  1  0.243209  0.596909  0.171290  1
  Mn  Mn3  1  0.006189  0.002802  0.009046  1
  V  V4  1  0.991219  0.997360  0.494063  1
  P  P5  1  0.680985  0.375537  0.234343  1
  P  P6  1  0.324655  0.625541  0.773790  1
  H  H7  1  0.349040  0.055240  0.352305  1
  H  H8  1  0.661584  0.920480  0.639397  1
  O  O9  1  0.825128  0.057949  0.709679  1
  O  O10  1  0.746155  0.215078  0.376119  1
  O  O11  1  0.313124  0.333408  0.666282  1
  O  O12  1  0.385703  0.262988  0.081947  1
  O  O13  1  0.866551  0.354323  0.110600  1
  O  O14  1  0.132892  0.645792  0.890364  1
  O  O15  1  0.620894  0.740277  0.911883  1
  O  O16  1  0.687863  0.661704  0.345321  1
  O  O17  1  0.253787  0.792381  0.634157  1
  O  O18  1  0.168028  0.943637  0.293849  1
