# generated using pymatgen
data_BiOF
_symmetry_space_group_name_H-M   'P 1'
_cell_length_a   7.20520842
_cell_length_b   7.20520842
_cell_length_c   7.20520842
_cell_angle_alpha   32.24177546
_cell_angle_beta   32.24177546
_cell_angle_gamma   32.24177546
_symmetry_Int_Tables_number   1
_chemical_formula_structural   BiOF
_chemical_formula_sum   'Bi2 O2 F2'
_cell_volume   94.62754333
_cell_formula_units_Z   2
loop_
 _symmetry_equiv_pos_site_id
 _symmetry_equiv_pos_as_xyz
  1  'x, y, z'
loop_
 _atom_site_type_symbol
 _atom_site_label
 _atom_site_symmetry_multiplicity
 _atom_site_fract_x
 _atom_site_fract_y
 _atom_site_fract_z
 _atom_site_occupancy
  Bi  Bi0  1  0.239064  0.239064  0.239064  1
  Bi  Bi1  1  0.760936  0.760936  0.760936  1
  O  O2  1  0.871943  0.871943  0.871943  1
  O  O3  1  0.128057  0.128057  0.128057  1
  F  F4  1  0.622425  0.622425  0.622425  1
  F  F5  1  0.377575  0.377575  0.377575  1
