# generated using pymatgen
data_Sn(PO3)2
_symmetry_space_group_name_H-M   'P 1'
_cell_length_a   8.07929307
_cell_length_b   8.07929307
_cell_length_c   11.34132240
_cell_angle_alpha   64.04924595
_cell_angle_beta   115.95075405
_cell_angle_gamma   111.07505044
_symmetry_Int_Tables_number   1
_chemical_formula_structural   Sn(PO3)2
_chemical_formula_sum   'Sn4 P8 O24'
_cell_volume   585.46228124
_cell_formula_units_Z   4
loop_
 _symmetry_equiv_pos_site_id
 _symmetry_equiv_pos_as_xyz
  1  'x, y, z'
loop_
 _atom_site_type_symbol
 _atom_site_label
 _atom_site_symmetry_multiplicity
 _atom_site_fract_x
 _atom_site_fract_y
 _atom_site_fract_z
 _atom_site_occupancy
  Sn  Sn0  1  0.011341  0.011341  0.750000  1
  Sn  Sn1  1  0.500000  0.000000  0.000000  1
  Sn  Sn2  1  0.000000  0.500000  0.500000  1
  Sn  Sn3  1  0.988659  0.988659  0.250000  1
  P  P4  1  0.320902  0.688495  0.310743  1
  P  P5  1  0.293845  0.271696  0.479500  1
  P  P6  1  0.311505  0.679098  0.810743  1
  P  P7  1  0.271696  0.293845  0.020500  1
  P  P8  1  0.728304  0.706155  0.979500  1
  P  P9  1  0.688495  0.320902  0.189257  1
  P  P10  1  0.706155  0.728304  0.520500  1
  P  P11  1  0.679098  0.311505  0.689257  1
  O  O12  1  0.358860  0.786604  0.176554  1
  O  O13  1  0.216070  0.290986  0.571026  1
  O  O14  1  0.317106  0.468110  0.354040  1
  O  O15  1  0.289314  0.853459  0.817296  1
  O  O16  1  0.193169  0.118678  0.415443  1
  O  O17  1  0.709014  0.783930  0.071026  1
  O  O18  1  0.508702  0.246698  0.562507  1
  O  O19  1  0.118678  0.193169  0.084557  1
  O  O20  1  0.246698  0.508702  0.937493  1
  O  O21  1  0.213396  0.641140  0.676554  1
  O  O22  1  0.468110  0.317106  0.145960  1
  O  O23  1  0.853459  0.289314  0.682704  1
  O  O24  1  0.146541  0.710686  0.317296  1
  O  O25  1  0.531890  0.682894  0.854040  1
  O  O26  1  0.786604  0.358860  0.323446  1
  O  O27  1  0.753302  0.491298  0.062507  1
  O  O28  1  0.881322  0.806831  0.915443  1
  O  O29  1  0.491298  0.753302  0.437493  1
  O  O30  1  0.290986  0.216070  0.928974  1
  O  O31  1  0.806831  0.881322  0.584557  1
  O  O32  1  0.710686  0.146541  0.182704  1
  O  O33  1  0.682894  0.531890  0.645960  1
  O  O34  1  0.783930  0.709014  0.428974  1
  O  O35  1  0.641140  0.213396  0.823446  1
