# generated using pymatgen
data_Li2Ni(PO3)5
_symmetry_space_group_name_H-M   'P 1'
_cell_length_a   7.01019277
_cell_length_b   7.01019277
_cell_length_c   13.54942462
_cell_angle_alpha   82.98232278
_cell_angle_beta   97.01767722
_cell_angle_gamma   66.95686829
_symmetry_Int_Tables_number   1
_chemical_formula_structural   Li2Ni(PO3)5
_chemical_formula_sum   'Li4 Ni2 P10 O30'
_cell_volume   597.51061089
_cell_formula_units_Z   2
loop_
 _symmetry_equiv_pos_site_id
 _symmetry_equiv_pos_as_xyz
  1  'x, y, z'
loop_
 _atom_site_type_symbol
 _atom_site_label
 _atom_site_symmetry_multiplicity
 _atom_site_fract_x
 _atom_site_fract_y
 _atom_site_fract_z
 _atom_site_occupancy
  Li  Li0  1  0.743248  0.749289  0.288544  1
  Li  Li1  1  0.250711  0.256752  0.788544  1
  Li  Li2  1  0.200807  0.623554  0.384176  1
  Li  Li3  1  0.376446  0.799193  0.884176  1
  Ni  Ni4  1  0.156243  0.099751  0.225630  1
  Ni  Ni5  1  0.900249  0.843757  0.725630  1
  P  P6  1  0.347297  0.037296  0.470096  1
  P  P7  1  0.715706  0.389140  0.450111  1
  P  P8  1  0.626253  0.180885  0.171506  1
  P  P9  1  0.962704  0.652703  0.970096  1
  P  P10  1  0.610860  0.284294  0.950111  1
  P  P11  1  0.819115  0.373747  0.671506  1
  P  P12  1  0.823339  0.907318  0.477808  1
  P  P13  1  0.092682  0.176661  0.977808  1
  P  P14  1  0.225982  0.553589  0.177089  1
  P  P15  1  0.446411  0.774018  0.677089  1
  O  O16  1  0.844489  0.160347  0.205706  1
  O  O17  1  0.839653  0.155511  0.705706  1
  O  O18  1  0.772101  0.486080  0.360278  1
  O  O19  1  0.513920  0.227899  0.860278  1
  O  O20  1  0.785863  0.147884  0.447150  1
  O  O21  1  0.852116  0.214137  0.947151  1
  O  O22  1  0.598171  0.154539  0.052640  1
  O  O23  1  0.845461  0.401829  0.552640  1
  O  O24  1  0.547414  0.033118  0.225424  1
  O  O25  1  0.966882  0.452586  0.725424  1
  O  O26  1  0.748768  0.700681  0.997387  1
  O  O27  1  0.299319  0.251232  0.497387  1
  O  O28  1  0.178030  0.074735  0.085801  1
  O  O29  1  0.481881  0.489924  0.450997  1
  O  O30  1  0.925265  0.821970  0.585801  1
  O  O31  1  0.468249  0.423343  0.166874  1
  O  O32  1  0.510076  0.518119  0.950997  1
  O  O33  1  0.576657  0.531751  0.666874  1
  O  O34  1  0.926009  0.793595  0.399422  1
  O  O35  1  0.206405  0.073991  0.899422  1
  O  O36  1  0.587655  0.921283  0.458313  1
  O  O37  1  0.078717  0.412345  0.958313  1
  O  O38  1  0.127082  0.407069  0.211994  1
  O  O39  1  0.592931  0.872918  0.711994  1
  O  O40  1  0.120639  0.673632  0.060870  1
  O  O41  1  0.326368  0.879361  0.560870  1
  O  O42  1  0.219598  0.717412  0.239897  1
  O  O43  1  0.282588  0.780402  0.739897  1
  O  O44  1  0.216684  0.022265  0.376487  1
  O  O45  1  0.977735  0.783316  0.876487  1
