# generated using pymatgen
data_Hf2N2O
_symmetry_space_group_name_H-M   'P 1'
_cell_length_a   5.43663384
_cell_length_b   5.47590760
_cell_length_c   10.19378889
_cell_angle_alpha   75.50354663
_cell_angle_beta   75.01566701
_cell_angle_gamma   60.60288368
_symmetry_Int_Tables_number   1
_chemical_formula_structural   Hf2N2O
_chemical_formula_sum   'Hf8 N8 O4'
_cell_volume   252.64738643
_cell_formula_units_Z   4
loop_
 _symmetry_equiv_pos_site_id
 _symmetry_equiv_pos_as_xyz
  1  'x, y, z'
loop_
 _atom_site_type_symbol
 _atom_site_label
 _atom_site_symmetry_multiplicity
 _atom_site_fract_x
 _atom_site_fract_y
 _atom_site_fract_z
 _atom_site_occupancy
  Hf  Hf0  1  0.692217  0.686720  0.963588  1
  Hf  Hf1  1  0.830288  0.817883  0.535658  1
  Hf  Hf2  1  0.411246  0.440619  0.714493  1
  Hf  Hf3  1  0.919906  0.952391  0.214298  1
  Hf  Hf4  1  0.087421  0.066935  0.785952  1
  Hf  Hf5  1  0.567067  0.580189  0.284916  1
  Hf  Hf6  1  0.200421  0.167874  0.465301  1
  Hf  Hf7  1  0.319224  0.310544  0.035653  1
  N  N8  1  0.084159  0.675362  0.873970  1
  N  N9  1  0.418321  0.828348  0.621810  1
  N  N10  1  0.383920  0.074573  0.874525  1
  N  N11  1  0.112077  0.424370  0.627817  1
  N  N12  1  0.169831  0.867860  0.376860  1
  N  N13  1  0.621676  0.919901  0.125372  1
  N  N14  1  0.577800  0.173143  0.370059  1
  N  N15  1  0.920760  0.327611  0.121324  1
  O  O16  1  0.680705  0.373515  0.875726  1
  O  O17  1  0.811549  0.128808  0.625924  1
  O  O18  1  0.872759  0.563122  0.379061  1
  O  O19  1  0.318650  0.620234  0.127693  1
