# generated using pymatgen
data_NaV2O4
_symmetry_space_group_name_H-M   'P 1'
_cell_length_a   5.09075789
_cell_length_b   6.05266202
_cell_length_c   11.47921692
_cell_angle_alpha   90.00000000
_cell_angle_beta   90.00000000
_cell_angle_gamma   90.00000000
_symmetry_Int_Tables_number   1
_chemical_formula_structural   NaV2O4
_chemical_formula_sum   'Na4 V8 O16'
_cell_volume   353.70494343
_cell_formula_units_Z   4
loop_
 _symmetry_equiv_pos_site_id
 _symmetry_equiv_pos_as_xyz
  1  'x, y, z'
loop_
 _atom_site_type_symbol
 _atom_site_label
 _atom_site_symmetry_multiplicity
 _atom_site_fract_x
 _atom_site_fract_y
 _atom_site_fract_z
 _atom_site_occupancy
  Na  Na0  1  0.026489  0.500000  0.000000  1
  Na  Na1  1  0.352409  0.500000  0.500000  1
  Na  Na2  1  0.647591  0.000000  0.000000  1
  Na  Na3  1  0.973511  0.000000  0.500000  1
  V  V4  1  0.010592  0.000000  0.757883  1
  V  V5  1  0.989408  0.500000  0.742117  1
  V  V6  1  0.010592  0.000000  0.242117  1
  V  V7  1  0.989408  0.500000  0.257883  1
  V  V8  1  0.500000  0.250000  0.750000  1
  V  V9  1  0.500000  0.750000  0.750000  1
  V  V10  1  0.500000  0.750000  0.250000  1
  V  V11  1  0.500000  0.250000  0.250000  1
  O  O12  1  0.158271  0.753014  0.343181  1
  O  O13  1  0.158271  0.753014  0.656819  1
  O  O14  1  0.158271  0.246986  0.343181  1
  O  O15  1  0.158271  0.246986  0.656819  1
  O  O16  1  0.323752  0.000000  0.844049  1
  O  O17  1  0.323752  0.000000  0.155951  1
  O  O18  1  0.314079  0.500000  0.833992  1
  O  O19  1  0.314079  0.500000  0.166008  1
  O  O20  1  0.685921  0.000000  0.333992  1
  O  O21  1  0.685921  0.000000  0.666008  1
  O  O22  1  0.676248  0.500000  0.344049  1
  O  O23  1  0.676248  0.500000  0.655951  1
  O  O24  1  0.841729  0.746986  0.156819  1
  O  O25  1  0.841729  0.253014  0.156819  1
  O  O26  1  0.841729  0.746986  0.843181  1
  O  O27  1  0.841729  0.253014  0.843181  1
