# generated using pymatgen
data_Na3Cr(BO3)2
_symmetry_space_group_name_H-M   'P 1'
_cell_length_a   5.52375545
_cell_length_b   9.21372543
_cell_length_c   11.41931413
_cell_angle_alpha   90.00000000
_cell_angle_beta   114.49445360
_cell_angle_gamma   90.00000000
_symmetry_Int_Tables_number   1
_chemical_formula_structural   Na3Cr(BO3)2
_chemical_formula_sum   'Na12 Cr4 B8 O24'
_cell_volume   528.87348484
_cell_formula_units_Z   4
loop_
 _symmetry_equiv_pos_site_id
 _symmetry_equiv_pos_as_xyz
  1  'x, y, z'
loop_
 _atom_site_type_symbol
 _atom_site_label
 _atom_site_symmetry_multiplicity
 _atom_site_fract_x
 _atom_site_fract_y
 _atom_site_fract_z
 _atom_site_occupancy
  Na  Na0  1  0.506518  0.938992  0.636055  1
  Na  Na1  1  0.445507  0.630614  0.624887  1
  Na  Na2  1  0.942971  0.955711  0.123393  1
  Na  Na3  1  0.554493  0.130614  0.875113  1
  Na  Na4  1  0.057029  0.455711  0.376607  1
  Na  Na5  1  0.493482  0.438992  0.863945  1
  Na  Na6  1  0.506518  0.561008  0.136055  1
  Na  Na7  1  0.942971  0.544289  0.623393  1
  Na  Na8  1  0.445507  0.869386  0.124887  1
  Na  Na9  1  0.057029  0.044289  0.876607  1
  Na  Na10  1  0.554493  0.369386  0.375113  1
  Na  Na11  1  0.493482  0.061008  0.363945  1
  Cr  Cr12  1  0.028282  0.285403  0.122912  1
  Cr  Cr13  1  0.971718  0.785403  0.377088  1
  Cr  Cr14  1  0.028282  0.214597  0.622912  1
  Cr  Cr15  1  0.971718  0.714597  0.877088  1
  B  B16  1  0.457405  0.296714  0.616580  1
  B  B17  1  0.969672  0.635116  0.135815  1
  B  B18  1  0.542595  0.796714  0.883420  1
  B  B19  1  0.030328  0.135116  0.364185  1
  B  B20  1  0.969672  0.864884  0.635815  1
  B  B21  1  0.457405  0.203286  0.116580  1
  B  B22  1  0.030328  0.364884  0.864185  1
  B  B23  1  0.542595  0.703286  0.383420  1
  O  O24  1  0.883965  0.311602  0.928747  1
  O  O25  1  0.323279  0.671333  0.406432  1
  O  O26  1  0.741561  0.898816  0.896009  1
  O  O27  1  0.156049  0.236201  0.314840  1
  O  O28  1  0.598057  0.661676  0.847189  1
  O  O29  1  0.401943  0.161676  0.652811  1
  O  O30  1  0.070241  0.989523  0.347447  1
  O  O31  1  0.929759  0.489523  0.152553  1
  O  O32  1  0.843951  0.736201  0.185160  1
  O  O33  1  0.258439  0.398816  0.603991  1
  O  O34  1  0.116035  0.811602  0.571253  1
  O  O35  1  0.676721  0.171333  0.093568  1
  O  O36  1  0.323279  0.828667  0.906432  1
  O  O37  1  0.883965  0.188398  0.428747  1
  O  O38  1  0.741561  0.601184  0.396009  1
  O  O39  1  0.156049  0.263799  0.814840  1
  O  O40  1  0.070241  0.510477  0.847447  1
  O  O41  1  0.929759  0.010477  0.652553  1
  O  O42  1  0.598057  0.838324  0.347189  1
  O  O43  1  0.401943  0.338324  0.152811  1
  O  O44  1  0.843951  0.763799  0.685160  1
  O  O45  1  0.258439  0.101184  0.103991  1
  O  O46  1  0.676721  0.328667  0.593568  1
  O  O47  1  0.116035  0.688398  0.071253  1
