# generated using pymatgen
data_Bi3PO7
_symmetry_space_group_name_H-M   'P 1'
_cell_length_a   9.43572671
_cell_length_b   9.43572671
_cell_length_c   12.28981478
_cell_angle_alpha   77.21854715
_cell_angle_beta   102.78145285
_cell_angle_gamma   87.51066879
_symmetry_Int_Tables_number   1
_chemical_formula_structural   Bi3PO7
_chemical_formula_sum   'Bi18 P6 O42'
_cell_volume   1035.72331590
_cell_formula_units_Z   6
loop_
 _symmetry_equiv_pos_site_id
 _symmetry_equiv_pos_as_xyz
  1  'x, y, z'
loop_
 _atom_site_type_symbol
 _atom_site_label
 _atom_site_symmetry_multiplicity
 _atom_site_fract_x
 _atom_site_fract_y
 _atom_site_fract_z
 _atom_site_occupancy
  Bi  Bi0  1  0.145758  0.516655  0.945459  1
  Bi  Bi1  1  0.483345  0.854242  0.945459  1
  Bi  Bi2  1  0.190081  0.498472  0.621820  1
  Bi  Bi3  1  0.501528  0.809919  0.621820  1
  Bi  Bi4  1  0.190605  0.149765  0.840002  1
  Bi  Bi5  1  0.850235  0.809395  0.840002  1
  Bi  Bi6  1  0.508548  0.799914  0.281830  1
  Bi  Bi7  1  0.200086  0.491452  0.281830  1
  Bi  Bi8  1  0.133804  0.172409  0.501759  1
  Bi  Bi9  1  0.827591  0.866196  0.501759  1
  Bi  Bi10  1  0.145842  0.164902  0.162909  1
  Bi  Bi11  1  0.835098  0.854158  0.162909  1
  Bi  Bi12  1  0.844234  0.500177  0.697227  1
  Bi  Bi13  1  0.499823  0.155766  0.697227  1
  Bi  Bi14  1  0.481120  0.145950  0.390598  1
  Bi  Bi15  1  0.854050  0.518880  0.390598  1
  Bi  Bi16  1  0.491352  0.163746  0.084705  1
  Bi  Bi17  1  0.836254  0.508648  0.084705  1
  P  P18  1  0.170182  0.829818  0.712722  1
  P  P19  1  0.165890  0.834110  0.075401  1
  P  P20  1  0.504822  0.495178  0.511446  1
  P  P21  1  0.500623  0.499377  0.127878  1
  P  P22  1  0.839380  0.160620  0.656568  1
  P  P23  1  0.834951  0.165049  0.273266  1
  O  O24  1  0.075744  0.924256  0.598145  1
  O  O25  1  0.260759  0.929381  0.780989  1
  O  O26  1  0.070619  0.739241  0.780989  1
  O  O27  1  0.052876  0.947124  0.093968  1
  O  O28  1  0.281339  0.718661  0.690604  1
  O  O29  1  0.585077  0.906330  0.774949  1
  O  O30  1  0.093670  0.414923  0.774949  1
  O  O31  1  0.076136  0.732395  0.009227  1
  O  O32  1  0.267605  0.923864  0.009227  1
  O  O33  1  0.257997  0.742003  0.192037  1
  O  O34  1  0.104146  0.435093  0.446581  1
  O  O35  1  0.564907  0.895854  0.446581  1
  O  O36  1  0.401982  0.598018  0.402752  1
  O  O37  1  0.474256  0.525744  0.624043  1
  O  O38  1  0.583054  0.921705  0.114635  1
  O  O39  1  0.078295  0.416946  0.114635  1
  O  O40  1  0.257693  0.245449  0.669471  1
  O  O41  1  0.754551  0.742307  0.669471  1
  O  O42  1  0.389569  0.610431  0.029260  1
  O  O43  1  0.893695  0.557756  0.894562  1
  O  O44  1  0.442244  0.106305  0.894562  1
  O  O45  1  0.232348  0.230523  0.337783  1
  O  O46  1  0.769477  0.767652  0.337783  1
  O  O47  1  0.664360  0.527748  0.508598  1
  O  O48  1  0.472252  0.335640  0.508598  1
  O  O49  1  0.606726  0.583436  0.201448  1
  O  O50  1  0.416564  0.393274  0.201448  1
  O  O51  1  0.751593  0.756918  0.010215  1
  O  O52  1  0.243082  0.248407  0.010215  1
  O  O53  1  0.951201  0.610821  0.554861  1
  O  O54  1  0.389179  0.048799  0.554861  1
  O  O55  1  0.742904  0.257096  0.706499  1
  O  O56  1  0.591566  0.408434  0.069454  1
  O  O57  1  0.947980  0.614468  0.230718  1
  O  O58  1  0.385532  0.052020  0.230718  1
  O  O59  1  0.927321  0.263160  0.583839  1
  O  O60  1  0.736840  0.072679  0.583839  1
  O  O61  1  0.868654  0.322965  0.280667  1
  O  O62  1  0.677035  0.131346  0.280667  1
  O  O63  1  0.946276  0.053724  0.760579  1
  O  O64  1  0.859341  0.140659  0.157351  1
  O  O65  1  0.943293  0.056707  0.376647  1
