# generated using pymatgen
data_Na2B5H3O10
_symmetry_space_group_name_H-M   'P 1'
_cell_length_a   11.27941022
_cell_length_b   6.62523513
_cell_length_c   21.07645170
_cell_angle_alpha   90.00000000
_cell_angle_beta   93.76378067
_cell_angle_gamma   90.00000000
_symmetry_Int_Tables_number   1
_chemical_formula_structural   Na2B5H3O10
_chemical_formula_sum   'Na16 B40 H24 O80'
_cell_volume   1571.61972775
_cell_formula_units_Z   8
loop_
 _symmetry_equiv_pos_site_id
 _symmetry_equiv_pos_as_xyz
  1  'x, y, z'
loop_
 _atom_site_type_symbol
 _atom_site_label
 _atom_site_symmetry_multiplicity
 _atom_site_fract_x
 _atom_site_fract_y
 _atom_site_fract_z
 _atom_site_occupancy
  Na  Na0  1  0.060258  0.004350  0.225357  1
  Na  Na1  1  0.939742  0.504350  0.274643  1
  Na  Na2  1  0.939742  0.995650  0.774643  1
  Na  Na3  1  0.060258  0.495650  0.725357  1
  Na  Na4  1  0.438154  0.610791  0.264787  1
  Na  Na5  1  0.561846  0.110791  0.235213  1
  Na  Na6  1  0.561846  0.389209  0.735213  1
  Na  Na7  1  0.438154  0.889209  0.764787  1
  Na  Na8  1  0.154569  0.049607  0.042438  1
  Na  Na9  1  0.845431  0.549607  0.457562  1
  Na  Na10  1  0.845431  0.950393  0.957562  1
  Na  Na11  1  0.154569  0.450393  0.542438  1
  Na  Na12  1  0.470736  0.349929  0.095952  1
  Na  Na13  1  0.529264  0.849929  0.404048  1
  Na  Na14  1  0.529264  0.650071  0.904048  1
  Na  Na15  1  0.470736  0.150071  0.595952  1
  B  B16  1  0.258538  0.287562  0.163460  1
  B  B17  1  0.741462  0.787562  0.336540  1
  B  B18  1  0.741462  0.712438  0.836540  1
  B  B19  1  0.258538  0.212438  0.663460  1
  B  B20  1  0.202602  0.641799  0.169241  1
  B  B21  1  0.797398  0.141799  0.330759  1
  B  B22  1  0.797398  0.358201  0.830759  1
  B  B23  1  0.202602  0.858201  0.669241  1
  B  B24  1  0.042281  0.387659  0.144960  1
  B  B25  1  0.957719  0.887659  0.355040  1
  B  B26  1  0.957719  0.612341  0.855040  1
  B  B27  1  0.042281  0.112341  0.644960  1
  B  B28  1  0.889950  0.333705  0.053756  1
  B  B29  1  0.110050  0.833705  0.446244  1
  B  B30  1  0.110050  0.666295  0.946244  1
  B  B31  1  0.889950  0.166295  0.553756  1
  B  B32  1  0.839543  0.215488  0.161087  1
  B  B33  1  0.160457  0.715488  0.338913  1
  B  B34  1  0.160457  0.784512  0.838913  1
  B  B35  1  0.839543  0.284512  0.661087  1
  B  B36  1  0.703789  0.502599  0.184833  1
  B  B37  1  0.296211  0.002599  0.315167  1
  B  B38  1  0.296211  0.497401  0.815167  1
  B  B39  1  0.703789  0.997401  0.684833  1
  B  B40  1  0.761332  0.854012  0.173220  1
  B  B41  1  0.238668  0.354012  0.326780  1
  B  B42  1  0.238668  0.145988  0.826780  1
  B  B43  1  0.761332  0.645988  0.673220  1
  B  B44  1  0.548791  0.755337  0.145946  1
  B  B45  1  0.451209  0.255337  0.354054  1
  B  B46  1  0.451209  0.244663  0.854054  1
  B  B47  1  0.548791  0.744663  0.645946  1
  B  B48  1  0.422416  0.814119  0.045559  1
  B  B49  1  0.577584  0.314119  0.454441  1
  B  B50  1  0.577584  0.185881  0.954441  1
  B  B51  1  0.422416  0.685881  0.545559  1
  B  B52  1  0.346560  0.930073  0.149233  1
  B  B53  1  0.653440  0.430073  0.350767  1
  B  B54  1  0.653440  0.069927  0.850767  1
  B  B55  1  0.346560  0.569927  0.649233  1
  H  H56  1  0.361626  0.313317  0.980238  1
  H  H57  1  0.638374  0.813317  0.519762  1
  H  H58  1  0.638374  0.686683  0.019762  1
  H  H59  1  0.361626  0.186683  0.480238  1
  H  H60  1  0.270096  0.462150  0.009707  1
  H  H61  1  0.729904  0.962150  0.490293  1
  H  H62  1  0.729904  0.537850  0.990293  1
  H  H63  1  0.270096  0.037850  0.509707  1
  H  H64  1  0.973467  0.731568  0.068553  1
  H  H65  1  0.026533  0.231568  0.431447  1
  H  H66  1  0.026533  0.268432  0.931447  1
  H  H67  1  0.973467  0.768432  0.568553  1
  H  H68  1  0.930050  0.920865  0.102168  1
  H  H69  1  0.069950  0.420865  0.397832  1
  H  H70  1  0.069950  0.079135  0.897832  1
  H  H71  1  0.930050  0.579135  0.602168  1
  H  H72  1  0.905858  0.443230  0.966350  1
  H  H73  1  0.094142  0.943230  0.533650  1
  H  H74  1  0.094142  0.556770  0.033650  1
  H  H75  1  0.905858  0.056770  0.466350  1
  H  H76  1  0.331371  0.823613  0.957899  1
  H  H77  1  0.668629  0.323613  0.542101  1
  H  H78  1  0.668629  0.176387  0.042101  1
  H  H79  1  0.331371  0.676387  0.457899  1
  O  O80  1  0.349458  0.150560  0.168008  1
  O  O81  1  0.650542  0.650560  0.331992  1
  O  O82  1  0.650542  0.849440  0.831992  1
  O  O83  1  0.349458  0.349440  0.668008  1
  O  O84  1  0.291005  0.489838  0.174993  1
  O  O85  1  0.708995  0.989838  0.325007  1
  O  O86  1  0.708995  0.510162  0.825007  1
  O  O87  1  0.291005  0.010162  0.674993  1
  O  O88  1  0.233165  0.840021  0.167341  1
  O  O89  1  0.766835  0.340021  0.332659  1
  O  O90  1  0.766835  0.159979  0.832659  1
  O  O91  1  0.233165  0.659979  0.667341  1
  O  O92  1  0.143255  0.239163  0.145518  1
  O  O93  1  0.856745  0.739163  0.354482  1
  O  O94  1  0.856745  0.760837  0.854482  1
  O  O95  1  0.143255  0.260837  0.645518  1
  O  O96  1  0.084774  0.588294  0.166265  1
  O  O97  1  0.915226  0.088294  0.333735  1
  O  O98  1  0.915226  0.411706  0.833735  1
  O  O99  1  0.084774  0.911706  0.666265  1
  O  O100  1  0.951497  0.308920  0.182894  1
  O  O101  1  0.048503  0.808920  0.317106  1
  O  O102  1  0.048503  0.691080  0.817106  1
  O  O103  1  0.951497  0.191080  0.682894  1
  O  O104  1  0.998467  0.411834  0.075626  1
  O  O105  1  0.001533  0.911834  0.424374  1
  O  O106  1  0.001533  0.588166  0.924374  1
  O  O107  1  0.998467  0.088166  0.575626  1
  O  O108  1  0.815044  0.233685  0.090490  1
  O  O109  1  0.184956  0.733685  0.409510  1
  O  O110  1  0.184956  0.766315  0.909510  1
  O  O111  1  0.815044  0.266315  0.590490  1
  O  O112  1  0.851936  0.356285  0.990025  1
  O  O113  1  0.148064  0.856285  0.509975  1
  O  O114  1  0.148064  0.643715  0.009975  1
  O  O115  1  0.851936  0.143715  0.490025  1
  O  O116  1  0.850846  0.994368  0.176927  1
  O  O117  1  0.149154  0.494368  0.323073  1
  O  O118  1  0.149154  0.005632  0.823073  1
  O  O119  1  0.850846  0.505632  0.676927  1
  O  O120  1  0.735666  0.304167  0.190780  1
  O  O121  1  0.264334  0.804167  0.309220  1
  O  O122  1  0.264334  0.695833  0.809220  1
  O  O123  1  0.735666  0.195833  0.690780  1
  O  O124  1  0.790954  0.654490  0.190532  1
  O  O125  1  0.209046  0.154490  0.309468  1
  O  O126  1  0.209046  0.345510  0.809468  1
  O  O127  1  0.790954  0.845510  0.690532  1
  O  O128  1  0.585590  0.552597  0.173226  1
  O  O129  1  0.414410  0.052597  0.326774  1
  O  O130  1  0.414410  0.447403  0.826774  1
  O  O131  1  0.585590  0.947403  0.673226  1
  O  O132  1  0.647803  0.901650  0.153124  1
  O  O133  1  0.352197  0.401650  0.346876  1
  O  O134  1  0.352197  0.098350  0.846876  1
  O  O135  1  0.647803  0.598350  0.653124  1
  O  O136  1  0.450880  0.834103  0.179402  1
  O  O137  1  0.549120  0.334103  0.320598  1
  O  O138  1  0.549120  0.165897  0.820598  1
  O  O139  1  0.450880  0.665897  0.679402  1
  O  O140  1  0.519291  0.719081  0.076291  1
  O  O141  1  0.480709  0.219081  0.423709  1
  O  O142  1  0.480709  0.280919  0.923709  1
  O  O143  1  0.519291  0.780919  0.576291  1
  O  O144  1  0.408986  0.789267  0.979949  1
  O  O145  1  0.591014  0.289267  0.520051  1
  O  O146  1  0.591014  0.210733  0.020051  1
  O  O147  1  0.408986  0.710733  0.479949  1
  O  O148  1  0.345145  0.925680  0.078205  1
  O  O149  1  0.654855  0.425680  0.421795  1
  O  O150  1  0.654855  0.074320  0.921795  1
  O  O151  1  0.345145  0.574320  0.578205  1
  O  O152  1  0.312798  0.333272  0.017064  1
  O  O153  1  0.687202  0.833272  0.482936  1
  O  O154  1  0.687202  0.666728  0.982936  1
  O  O155  1  0.312798  0.166728  0.517064  1
  O  O156  1  0.960051  0.875965  0.061562  1
  O  O157  1  0.039949  0.375965  0.438438  1
  O  O158  1  0.039949  0.124035  0.938438  1
  O  O159  1  0.960051  0.624035  0.561562  1
