# generated using pymatgen
data_Co2OF3
_symmetry_space_group_name_H-M   'P 1'
_cell_length_a   4.69430834
_cell_length_b   4.69430834
_cell_length_c   12.68742782
_cell_angle_alpha   90.00000000
_cell_angle_beta   90.00000000
_cell_angle_gamma   93.39304362
_symmetry_Int_Tables_number   1
_chemical_formula_structural   Co2OF3
_chemical_formula_sum   'Co8 O4 F12'
_cell_volume   279.09678351
_cell_formula_units_Z   4
loop_
 _symmetry_equiv_pos_site_id
 _symmetry_equiv_pos_as_xyz
  1  'x, y, z'
loop_
 _atom_site_type_symbol
 _atom_site_label
 _atom_site_symmetry_multiplicity
 _atom_site_fract_x
 _atom_site_fract_y
 _atom_site_fract_z
 _atom_site_occupancy
  Co  Co0  1  0.975034  0.975034  0.624515  1
  Co  Co1  1  0.975034  0.975034  0.875485  1
  Co  Co2  1  0.024966  0.024966  0.124515  1
  Co  Co3  1  0.024966  0.024966  0.375485  1
  Co  Co4  1  0.520181  0.520181  0.750000  1
  Co  Co5  1  0.479819  0.479819  0.250000  1
  Co  Co6  1  0.500000  0.500000  0.000000  1
  Co  Co7  1  0.500000  0.500000  0.500000  1
  O  O8  1  0.301515  0.301515  0.377568  1
  O  O9  1  0.301515  0.301515  0.122432  1
  O  O10  1  0.698485  0.698485  0.622432  1
  O  O11  1  0.698485  0.698485  0.877568  1
  F  F12  1  0.799980  0.190277  0.750000  1
  F  F13  1  0.809723  0.200020  0.250000  1
  F  F14  1  0.804956  0.195044  0.000000  1
  F  F15  1  0.804956  0.195044  0.500000  1
  F  F16  1  0.287273  0.287273  0.625850  1
  F  F17  1  0.287273  0.287273  0.874150  1
  F  F18  1  0.712727  0.712727  0.125850  1
  F  F19  1  0.712727  0.712727  0.374150  1
  F  F20  1  0.190277  0.799980  0.750000  1
  F  F21  1  0.200020  0.809723  0.250000  1
  F  F22  1  0.195044  0.804956  0.000000  1
  F  F23  1  0.195044  0.804956  0.500000  1
