# generated using pymatgen
data_Na2NiPCO7
_symmetry_space_group_name_H-M   'P 1'
_cell_length_a   8.36596558
_cell_length_b   8.39991931
_cell_length_c   8.87409325
_cell_angle_alpha   91.20628176
_cell_angle_beta   90.54003645
_cell_angle_gamma   104.38531460
_symmetry_Int_Tables_number   1
_chemical_formula_structural   Na2NiPCO7
_chemical_formula_sum   'Na8 Ni4 P4 C4 O28'
_cell_volume   603.85777396
_cell_formula_units_Z   4
loop_
 _symmetry_equiv_pos_site_id
 _symmetry_equiv_pos_as_xyz
  1  'x, y, z'
loop_
 _atom_site_type_symbol
 _atom_site_label
 _atom_site_symmetry_multiplicity
 _atom_site_fract_x
 _atom_site_fract_y
 _atom_site_fract_z
 _atom_site_occupancy
  Na  Na0  1  0.132566  0.114902  0.734227  1
  Na  Na1  1  0.628199  0.616351  0.748871  1
  Na  Na2  1  0.863001  0.383570  0.734347  1
  Na  Na3  1  0.365339  0.877395  0.748524  1
  Na  Na4  1  0.137605  0.625581  0.256424  1
  Na  Na5  1  0.383863  0.385297  0.249597  1
  Na  Na6  1  0.851910  0.882670  0.268503  1
  Na  Na7  1  0.963090  0.229917  0.087653  1
  Ni  Ni8  1  0.762310  0.014367  0.649256  1
  Ni  Ni9  1  0.265075  0.511677  0.652838  1
  Ni  Ni10  1  0.239645  0.984546  0.346275  1
  Ni  Ni11  1  0.736364  0.482753  0.346817  1
  P  P12  1  0.486223  0.234480  0.575333  1
  P  P13  1  0.983545  0.734718  0.577788  1
  P  P14  1  0.021899  0.270961  0.418684  1
  P  P15  1  0.514653  0.763788  0.423773  1
  C  C16  1  0.227111  0.477317  0.927115  1
  C  C17  1  0.734598  0.981832  0.924627  1
  C  C18  1  0.269191  0.017587  0.074323  1
  C  C19  1  0.768541  0.521195  0.074171  1
  O  O20  1  0.276999  0.034539  0.934220  1
  O  O21  1  0.786554  0.534246  0.934458  1
  O  O22  1  0.340365  0.590361  0.866144  1
  O  O23  1  0.844869  0.097738  0.858234  1
  O  O24  1  0.128153  0.379846  0.830962  1
  O  O25  1  0.633202  0.884593  0.832003  1
  O  O26  1  0.111861  0.674836  0.672052  1
  O  O27  1  0.613162  0.175052  0.672052  1
  O  O28  1  0.425344  0.359061  0.676833  1
  O  O29  1  0.924028  0.862621  0.674903  1
  O  O30  1  0.946480  0.199234  0.567380  1
  O  O31  1  0.447831  0.692877  0.576994  1
  O  O32  1  0.334484  0.085832  0.539015  1
  O  O33  1  0.833074  0.584115  0.541898  1
  O  O34  1  0.177431  0.415562  0.456650  1
  O  O35  1  0.665253  0.911761  0.460819  1
  O  O36  1  0.052969  0.807496  0.426098  1
  O  O37  1  0.556974  0.309115  0.426591  1
  O  O38  1  0.075515  0.141571  0.317025  1
  O  O39  1  0.381697  0.817349  0.331768  1
  O  O40  1  0.905817  0.343279  0.319965  1
  O  O41  1  0.575483  0.637922  0.325045  1
  O  O42  1  0.365963  0.112392  0.171658  1
  O  O43  1  0.863513  0.617390  0.173681  1
  O  O44  1  0.656605  0.406348  0.134549  1
  O  O45  1  0.157538  0.902506  0.137119  1
  O  O46  1  0.211324  0.460298  0.068046  1
  O  O47  1  0.734892  0.973108  0.065020  1
