# generated using pymatgen
data_Mn3(O2F)2
_symmetry_space_group_name_H-M   'P 1'
_cell_length_a   4.62596270
_cell_length_b   5.55737700
_cell_length_c   7.65965870
_cell_angle_alpha   86.04704114
_cell_angle_beta   88.97077736
_cell_angle_gamma   87.94451975
_symmetry_Int_Tables_number   1
_chemical_formula_structural   Mn3(O2F)2
_chemical_formula_sum   'Mn6 O8 F4'
_cell_volume   196.29761732
_cell_formula_units_Z   2
loop_
 _symmetry_equiv_pos_site_id
 _symmetry_equiv_pos_as_xyz
  1  'x, y, z'
loop_
 _atom_site_type_symbol
 _atom_site_label
 _atom_site_symmetry_multiplicity
 _atom_site_fract_x
 _atom_site_fract_y
 _atom_site_fract_z
 _atom_site_occupancy
  Mn  Mn0  1  0.486269  0.504802  0.994733  1
  Mn  Mn1  1  0.501856  0.828480  0.661270  1
  Mn  Mn2  1  0.506027  0.179607  0.353729  1
  Mn  Mn3  1  0.000074  0.336528  0.671328  1
  Mn  Mn4  1  0.973430  0.653395  0.320434  1
  Mn  Mn5  1  0.020620  0.991059  0.998675  1
  O  O6  1  0.802544  0.367892  0.440150  1
  O  O7  1  0.807959  0.707230  0.096365  1
  O  O8  1  0.686813  0.534518  0.768257  1
  O  O9  1  0.703013  0.878908  0.434902  1
  O  O10  1  0.307733  0.130776  0.569872  1
  O  O11  1  0.307540  0.464560  0.231825  1
  O  O12  1  0.306770  0.790808  0.890647  1
  O  O13  1  0.193434  0.290210  0.900193  1
  F  F14  1  0.799004  0.031364  0.772185  1
  F  F15  1  0.698485  0.200124  0.106185  1
  F  F16  1  0.188090  0.639672  0.548628  1
  F  F17  1  0.210339  0.970066  0.240621  1
