# generated using pymatgen
data_ErP4HO12
_symmetry_space_group_name_H-M   'P 1'
_cell_length_a   9.68892205
_cell_length_b   7.22254891
_cell_length_c   13.79612998
_cell_angle_alpha   90.00000000
_cell_angle_beta   100.82201123
_cell_angle_gamma   90.00000000
_symmetry_Int_Tables_number   1
_chemical_formula_structural   ErP4HO12
_chemical_formula_sum   'Er4 P16 H4 O48'
_cell_volume   948.26534224
_cell_formula_units_Z   4
loop_
 _symmetry_equiv_pos_site_id
 _symmetry_equiv_pos_as_xyz
  1  'x, y, z'
loop_
 _atom_site_type_symbol
 _atom_site_label
 _atom_site_symmetry_multiplicity
 _atom_site_fract_x
 _atom_site_fract_y
 _atom_site_fract_z
 _atom_site_occupancy
  Er  Er0  1  0.941074  0.056722  0.271083  1
  Er  Er1  1  0.558926  0.556722  0.728917  1
  Er  Er2  1  0.058926  0.943278  0.728917  1
  Er  Er3  1  0.441074  0.443278  0.271083  1
  P  P4  1  0.706017  0.785239  0.386567  1
  P  P5  1  0.793983  0.285239  0.613433  1
  P  P6  1  0.293983  0.214761  0.613433  1
  P  P7  1  0.206017  0.714761  0.386567  1
  P  P8  1  0.787936  0.396631  0.405288  1
  P  P9  1  0.712064  0.896631  0.594712  1
  P  P10  1  0.212064  0.603369  0.594712  1
  P  P11  1  0.287936  0.103369  0.405288  1
  P  P12  1  0.875166  0.681144  0.098745  1
  P  P13  1  0.624834  0.181144  0.901255  1
  P  P14  1  0.124834  0.318856  0.901255  1
  P  P15  1  0.375166  0.818856  0.098745  1
  P  P16  1  0.691451  0.346807  0.104408  1
  P  P17  1  0.808549  0.846807  0.895592  1
  P  P18  1  0.308549  0.653193  0.895592  1
  P  P19  1  0.191451  0.153193  0.104408  1
  H  H20  1  0.563640  0.853022  0.204419  1
  H  H21  1  0.936360  0.353022  0.795581  1
  H  H22  1  0.436360  0.146978  0.795581  1
  H  H23  1  0.063640  0.646978  0.204419  1
  O  O24  1  0.632327  0.360032  0.382887  1
  O  O25  1  0.867673  0.860032  0.617113  1
  O  O26  1  0.367673  0.639968  0.617113  1
  O  O27  1  0.132327  0.139968  0.382887  1
  O  O28  1  0.790464  0.947924  0.362457  1
  O  O29  1  0.709536  0.447924  0.637543  1
  O  O30  1  0.209536  0.052076  0.637543  1
  O  O31  1  0.290464  0.552076  0.362457  1
  O  O32  1  0.901409  0.770896  0.997902  1
  O  O33  1  0.598591  0.270896  0.002098  1
  O  O34  1  0.098591  0.229104  0.002098  1
  O  O35  1  0.401409  0.729104  0.997902  1
  O  O36  1  0.826949  0.817551  0.165749  1
  O  O37  1  0.673051  0.317551  0.834251  1
  O  O38  1  0.173051  0.182449  0.834251  1
  O  O39  1  0.326949  0.682449  0.165749  1
  O  O40  1  0.583032  0.724330  0.308336  1
  O  O41  1  0.916968  0.224330  0.691664  1
  O  O42  1  0.416968  0.275670  0.691664  1
  O  O43  1  0.083032  0.775670  0.308336  1
  O  O44  1  0.644387  0.824203  0.485001  1
  O  O45  1  0.855613  0.324203  0.514999  1
  O  O46  1  0.355613  0.175797  0.514999  1
  O  O47  1  0.144387  0.675797  0.485001  1
  O  O48  1  0.880130  0.325883  0.337684  1
  O  O49  1  0.619870  0.825883  0.662316  1
  O  O50  1  0.119870  0.674117  0.662316  1
  O  O51  1  0.380130  0.174117  0.337684  1
  O  O52  1  0.589203  0.419418  0.163630  1
  O  O53  1  0.910797  0.919418  0.836370  1
  O  O54  1  0.410797  0.580582  0.836370  1
  O  O55  1  0.089203  0.080582  0.163630  1
  O  O56  1  0.765627  0.522386  0.059942  1
  O  O57  1  0.734373  0.022386  0.940058  1
  O  O58  1  0.234373  0.477614  0.940058  1
  O  O59  1  0.265627  0.977614  0.059942  1
  O  O60  1  0.800034  0.208525  0.145810  1
  O  O61  1  0.699966  0.708525  0.854190  1
  O  O62  1  0.199966  0.791475  0.854190  1
  O  O63  1  0.300034  0.291475  0.145810  1
  O  O64  1  0.814897  0.617595  0.417248  1
  O  O65  1  0.685103  0.117595  0.582752  1
  O  O66  1  0.185103  0.382405  0.582752  1
  O  O67  1  0.314897  0.882405  0.417248  1
  O  O68  1  0.516740  0.917705  0.141314  1
  O  O69  1  0.983260  0.417705  0.858686  1
  O  O70  1  0.483260  0.082295  0.858686  1
  O  O71  1  0.016740  0.582295  0.141314  1
