# generated using pymatgen
data_K2CoPCO7
_symmetry_space_group_name_H-M   'P 1'
_cell_length_a   5.53644594
_cell_length_b   6.96193297
_cell_length_c   9.50697632
_cell_angle_alpha   90.00000000
_cell_angle_beta   90.59695265
_cell_angle_gamma   90.00000000
_symmetry_Int_Tables_number   1
_chemical_formula_structural   K2CoPCO7
_chemical_formula_sum   'K4 Co2 P2 C2 O14'
_cell_volume   366.42048173
_cell_formula_units_Z   2
loop_
 _symmetry_equiv_pos_site_id
 _symmetry_equiv_pos_as_xyz
  1  'x, y, z'
loop_
 _atom_site_type_symbol
 _atom_site_label
 _atom_site_symmetry_multiplicity
 _atom_site_fract_x
 _atom_site_fract_y
 _atom_site_fract_z
 _atom_site_occupancy
  K  K0  1  0.243368  0.479448  0.245277  1
  K  K1  1  0.243368  0.020552  0.245277  1
  K  K2  1  0.756632  0.520552  0.754723  1
  K  K3  1  0.756632  0.979448  0.754723  1
  Co  Co4  1  0.769429  0.750000  0.363299  1
  Co  Co5  1  0.230571  0.250000  0.636701  1
  P  P6  1  0.722188  0.250000  0.432188  1
  P  P7  1  0.277812  0.750000  0.567812  1
  C  C8  1  0.727673  0.750000  0.099264  1
  C  C9  1  0.272327  0.250000  0.900736  1
  O  O10  1  0.282507  0.250000  0.032510  1
  O  O11  1  0.932187  0.750000  0.171767  1
  O  O12  1  0.540079  0.750000  0.181726  1
  O  O13  1  0.755657  0.066760  0.343368  1
  O  O14  1  0.755657  0.433240  0.343368  1
  O  O15  1  0.108428  0.750000  0.436322  1
  O  O16  1  0.451462  0.250000  0.487806  1
  O  O17  1  0.548538  0.750000  0.512194  1
  O  O18  1  0.891572  0.250000  0.563678  1
  O  O19  1  0.244343  0.566760  0.656632  1
  O  O20  1  0.244343  0.933240  0.656632  1
  O  O21  1  0.459921  0.250000  0.818274  1
  O  O22  1  0.067813  0.250000  0.828233  1
  O  O23  1  0.717493  0.750000  0.967490  1
