# generated using pymatgen
data_Na5Fe6(SiO3)12
_symmetry_space_group_name_H-M   'P 1'
_cell_length_a   9.42234798
_cell_length_b   9.42234798
_cell_length_c   9.63702505
_cell_angle_alpha   72.45196808
_cell_angle_beta   107.54803192
_cell_angle_gamma   123.70104126
_symmetry_Int_Tables_number   1
_chemical_formula_structural   Na5Fe6(SiO3)12
_chemical_formula_sum   'Na5 Fe6 Si12 O36'
_cell_volume   668.88703686
_cell_formula_units_Z   1
loop_
 _symmetry_equiv_pos_site_id
 _symmetry_equiv_pos_as_xyz
  1  'x, y, z'
loop_
 _atom_site_type_symbol
 _atom_site_label
 _atom_site_symmetry_multiplicity
 _atom_site_fract_x
 _atom_site_fract_y
 _atom_site_fract_z
 _atom_site_occupancy
  Na  Na0  1  0.713007  0.379418  0.667691  1
  Na  Na1  1  0.954211  0.954211  0.500000  1
  Na  Na2  1  0.379418  0.713007  0.332309  1
  Na  Na3  1  0.618423  0.286751  0.167012  1
  Na  Na4  1  0.286751  0.618423  0.832988  1
  Fe  Fe5  1  0.317894  0.983007  0.667374  1
  Fe  Fe6  1  0.349639  0.349639  0.500000  1
  Fe  Fe7  1  0.983007  0.317894  0.332626  1
  Fe  Fe8  1  0.017631  0.691705  0.163676  1
  Fe  Fe9  1  0.651362  0.651362  0.000000  1
  Fe  Fe10  1  0.691705  0.017631  0.836324  1
  Si  Si11  1  0.261800  0.059748  0.309894  1
  Si  Si12  1  0.070906  0.607068  0.521796  1
  Si  Si13  1  0.726653  0.596134  0.356534  1
  Si  Si14  1  0.940563  0.738749  0.811405  1
  Si  Si15  1  0.394449  0.930200  0.022226  1
  Si  Si16  1  0.596134  0.726653  0.643466  1
  Si  Si17  1  0.400249  0.271957  0.857138  1
  Si  Si18  1  0.607068  0.070906  0.478204  1
  Si  Si19  1  0.059748  0.261800  0.690106  1
  Si  Si20  1  0.271957  0.400249  0.142862  1
  Si  Si21  1  0.930200  0.394449  0.977774  1
  Si  Si22  1  0.738749  0.940563  0.188595  1
  O  O23  1  0.439656  0.049350  0.344109  1
  O  O24  1  0.235220  0.774018  0.590614  1
  O  O25  1  0.570987  0.086363  0.628728  1
  O  O26  1  0.892947  0.615435  0.490834  1
  O  O27  1  0.559025  0.432462  0.424462  1
  O  O28  1  0.248054  0.096663  0.461475  1
  O  O29  1  0.718562  0.774401  0.324109  1
  O  O30  1  0.900727  0.108984  0.256718  1
  O  O31  1  0.236783  0.418274  0.293216  1
  O  O32  1  0.948356  0.559862  0.842403  1
  O  O33  1  0.418274  0.236783  0.706784  1
  O  O34  1  0.108984  0.900727  0.743282  1
  O  O35  1  0.774401  0.718562  0.675891  1
  O  O36  1  0.096663  0.248054  0.538525  1
  O  O37  1  0.432462  0.559025  0.575538  1
  O  O38  1  0.225088  0.767340  0.089337  1
  O  O39  1  0.615435  0.892947  0.509166  1
  O  O40  1  0.912580  0.429889  0.127342  1
  O  O41  1  0.086363  0.570987  0.371272  1
  O  O42  1  0.389893  0.109382  0.991060  1
  O  O43  1  0.774018  0.235220  0.409386  1
  O  O44  1  0.565954  0.441621  0.922905  1
  O  O45  1  0.899397  0.747630  0.961269  1
  O  O46  1  0.227345  0.287750  0.821822  1
  O  O47  1  0.885506  0.096865  0.745819  1
  O  O48  1  0.579439  0.761731  0.793703  1
  O  O49  1  0.049350  0.439656  0.655891  1
  O  O50  1  0.761731  0.579439  0.206297  1
  O  O51  1  0.096865  0.885506  0.254181  1
  O  O52  1  0.287750  0.227345  0.178178  1
  O  O53  1  0.747630  0.899397  0.038731  1
  O  O54  1  0.441621  0.565954  0.077095  1
  O  O55  1  0.109382  0.389893  0.008940  1
  O  O56  1  0.429889  0.912580  0.872658  1
  O  O57  1  0.767340  0.225088  0.910663  1
  O  O58  1  0.559862  0.948356  0.157597  1
