# generated using pymatgen
data_Co2OF3
_symmetry_space_group_name_H-M   'P 1'
_cell_length_a   4.67669460
_cell_length_b   4.67669460
_cell_length_c   6.12752935
_cell_angle_alpha   90.00000000
_cell_angle_beta   90.00000000
_cell_angle_gamma   92.69467765
_symmetry_Int_Tables_number   1
_chemical_formula_structural   Co2OF3
_chemical_formula_sum   'Co4 O2 F6'
_cell_volume   133.86989778
_cell_formula_units_Z   2
loop_
 _symmetry_equiv_pos_site_id
 _symmetry_equiv_pos_as_xyz
  1  'x, y, z'
loop_
 _atom_site_type_symbol
 _atom_site_label
 _atom_site_symmetry_multiplicity
 _atom_site_fract_x
 _atom_site_fract_y
 _atom_site_fract_z
 _atom_site_occupancy
  Co  Co0  1  0.966902  0.966902  0.750000  1
  Co  Co1  1  0.033098  0.033098  0.250000  1
  Co  Co2  1  0.500000  0.500000  0.000000  1
  Co  Co3  1  0.500000  0.500000  0.500000  1
  O  O4  1  0.330287  0.330287  0.250000  1
  O  O5  1  0.669713  0.669713  0.750000  1
  F  F6  1  0.797977  0.202023  0.000000  1
  F  F7  1  0.797977  0.202023  0.500000  1
  F  F8  1  0.284712  0.284712  0.750000  1
  F  F9  1  0.715288  0.715288  0.250000  1
  F  F10  1  0.202023  0.797977  0.000000  1
  F  F11  1  0.202023  0.797977  0.500000  1
