# generated using pymatgen
data_Y6O5F8
_symmetry_space_group_name_H-M   'P 1'
_cell_length_a   5.48738429
_cell_length_b   5.61380144
_cell_length_c   33.53700598
_cell_angle_alpha   90.00000000
_cell_angle_beta   90.10538915
_cell_angle_gamma   90.00000000
_symmetry_Int_Tables_number   1
_chemical_formula_structural   Y6O5F8
_chemical_formula_sum   'Y24 O20 F32'
_cell_volume   1033.10859960
_cell_formula_units_Z   4
loop_
 _symmetry_equiv_pos_site_id
 _symmetry_equiv_pos_as_xyz
  1  'x, y, z'
loop_
 _atom_site_type_symbol
 _atom_site_label
 _atom_site_symmetry_multiplicity
 _atom_site_fract_x
 _atom_site_fract_y
 _atom_site_fract_z
 _atom_site_occupancy
  Y  Y0  1  0.710368  0.251793  0.000042  1
  Y  Y1  1  0.710368  0.248207  0.500042  1
  Y  Y2  1  0.722572  0.713495  0.250710  1
  Y  Y3  1  0.722572  0.786505  0.750710  1
  Y  Y4  1  0.707672  0.213190  0.664234  1
  Y  Y5  1  0.711389  0.261247  0.335874  1
  Y  Y6  1  0.711389  0.238753  0.835874  1
  Y  Y7  1  0.707672  0.286810  0.164234  1
  Y  Y8  1  0.703202  0.727938  0.082102  1
  Y  Y9  1  0.702280  0.722587  0.417628  1
  Y  Y10  1  0.703202  0.772062  0.582102  1
  Y  Y11  1  0.702280  0.777413  0.917628  1
  Y  Y12  1  0.297720  0.222587  0.082372  1
  Y  Y13  1  0.296798  0.272062  0.917898  1
  Y  Y14  1  0.296798  0.227938  0.417898  1
  Y  Y15  1  0.297720  0.277413  0.582372  1
  Y  Y16  1  0.288611  0.761247  0.164126  1
  Y  Y17  1  0.292328  0.713190  0.835766  1
  Y  Y18  1  0.288611  0.738753  0.664126  1
  Y  Y19  1  0.292328  0.786810  0.335766  1
  Y  Y20  1  0.277428  0.286505  0.749290  1
  Y  Y21  1  0.277428  0.213495  0.249290  1
  Y  Y22  1  0.289632  0.751793  0.499958  1
  Y  Y23  1  0.289632  0.748207  0.999958  1
  O  O24  1  0.536238  0.992229  0.289517  1
  O  O25  1  0.536238  0.507771  0.789517  1
  O  O26  1  0.531070  0.493211  0.874821  1
  O  O27  1  0.530068  0.493117  0.627459  1
  O  O28  1  0.531070  0.006789  0.374821  1
  O  O29  1  0.530068  0.006883  0.127459  1
  O  O30  1  0.515445  0.523446  0.541859  1
  O  O31  1  0.515842  0.524283  0.958216  1
  O  O32  1  0.515445  0.976554  0.041859  1
  O  O33  1  0.515842  0.975717  0.458216  1
  O  O34  1  0.484158  0.024283  0.541784  1
  O  O35  1  0.484158  0.475717  0.041784  1
  O  O36  1  0.484555  0.476554  0.458141  1
  O  O37  1  0.484555  0.023446  0.958141  1
  O  O38  1  0.469932  0.993117  0.872541  1
  O  O39  1  0.468930  0.993211  0.625179  1
  O  O40  1  0.469932  0.506883  0.372541  1
  O  O41  1  0.468930  0.506789  0.125179  1
  O  O42  1  0.463762  0.492229  0.210483  1
  O  O43  1  0.463762  0.007771  0.710483  1
  F  F44  1  0.973280  0.581833  0.036489  1
  F  F45  1  0.974845  0.581918  0.463390  1
  F  F46  1  0.973280  0.918167  0.536489  1
  F  F47  1  0.974845  0.918082  0.963390  1
  F  F48  1  0.946225  0.386468  0.111327  1
  F  F49  1  0.943217  0.381215  0.389428  1
  F  F50  1  0.946225  0.113532  0.611327  1
  F  F51  1  0.943217  0.118785  0.889428  1
  F  F52  1  0.908357  0.642110  0.183726  1
  F  F53  1  0.908443  0.632149  0.315081  1
  F  F54  1  0.908443  0.867851  0.815081  1
  F  F55  1  0.908357  0.857890  0.683726  1
  F  F56  1  0.893969  0.345976  0.251231  1
  F  F57  1  0.893969  0.154024  0.751231  1
  F  F58  1  0.547797  0.508149  0.708282  1
  F  F59  1  0.547797  0.991851  0.208282  1
  F  F60  1  0.452203  0.491851  0.291718  1
  F  F61  1  0.452203  0.008149  0.791718  1
  F  F62  1  0.106031  0.654024  0.748769  1
  F  F63  1  0.106031  0.845976  0.248769  1
  F  F64  1  0.091557  0.132149  0.184919  1
  F  F65  1  0.091643  0.357890  0.816274  1
  F  F66  1  0.091643  0.142110  0.316274  1
  F  F67  1  0.091557  0.367851  0.684919  1
  F  F68  1  0.056783  0.618785  0.610572  1
  F  F69  1  0.056783  0.881215  0.110572  1
  F  F70  1  0.053775  0.613532  0.888673  1
  F  F71  1  0.053775  0.886468  0.388673  1
  F  F72  1  0.025155  0.081918  0.036610  1
  F  F73  1  0.026720  0.081833  0.463511  1
  F  F74  1  0.025155  0.418082  0.536610  1
  F  F75  1  0.026720  0.418167  0.963511  1
