# generated using pymatgen
data_Fe14Ni11O32
_symmetry_space_group_name_H-M   'P 1'
_cell_length_a   5.92610115
_cell_length_b   6.11211927
_cell_length_c   19.78187736
_cell_angle_alpha   82.38280426
_cell_angle_beta   81.38542234
_cell_angle_gamma   61.27042317
_symmetry_Int_Tables_number   1
_chemical_formula_structural   Fe14Ni11O32
_chemical_formula_sum   'Fe14 Ni11 O32'
_cell_volume   619.70963023
_cell_formula_units_Z   1
loop_
 _symmetry_equiv_pos_site_id
 _symmetry_equiv_pos_as_xyz
  1  'x, y, z'
loop_
 _atom_site_type_symbol
 _atom_site_label
 _atom_site_symmetry_multiplicity
 _atom_site_fract_x
 _atom_site_fract_y
 _atom_site_fract_z
 _atom_site_occupancy
  Fe  Fe0  1  0.512535  0.738208  0.752513  1
  Fe  Fe1  1  0.613894  0.702102  0.936225  1
  Fe  Fe2  1  0.058251  0.732559  0.846332  1
  Fe  Fe3  1  0.125361  0.429903  0.689191  1
  Fe  Fe4  1  0.045970  0.416720  0.510946  1
  Fe  Fe5  1  0.318819  0.340409  0.969949  1
  Fe  Fe6  1  0.058085  0.219474  0.843686  1
  Fe  Fe7  1  0.585415  0.261597  0.434615  1
  Fe  Fe8  1  0.578641  0.944139  0.602816  1
  Fe  Fe9  1  0.538144  0.178780  0.257417  1
  Fe  Fe10  1  0.074492  0.016430  0.166749  1
  Fe  Fe11  1  0.061840  0.719779  0.343225  1
  Fe  Fe12  1  0.552668  0.984702  0.090387  1
  Fe  Fe13  1  0.546160  0.482798  0.088855  1
  Ni  Ni14  1  0.564792  0.222108  0.843399  1
  Ni  Ni15  1  0.569762  0.454038  0.596358  1
  Ni  Ni16  1  0.074661  0.947457  0.600228  1
  Ni  Ni17  1  0.816681  0.090785  0.720660  1
  Ni  Ni18  1  0.817515  0.834744  0.468369  1
  Ni  Ni19  1  0.060624  0.218748  0.342166  1
  Ni  Ni20  1  0.562043  0.717646  0.343216  1
  Ni  Ni21  1  0.313416  0.843012  0.470167  1
  Ni  Ni22  1  0.306239  0.603106  0.217528  1
  Ni  Ni23  1  0.047655  0.488647  0.086273  1
  Ni  Ni24  1  0.812321  0.589482  0.217011  1
  O  O25  1  0.419870  0.533381  0.905939  1
  O  O26  1  0.189186  0.408340  0.788442  1
  O  O27  1  0.952485  0.528882  0.905885  1
  O  O28  1  0.422769  0.056109  0.906134  1
  O  O29  1  0.703262  0.391629  0.782816  1
  O  O30  1  0.933970  0.267043  0.654031  1
  O  O31  1  0.184272  0.908914  0.784229  1
  O  O32  1  0.693401  0.137729  0.531323  1
  O  O33  1  0.454291  0.260604  0.653629  1
  O  O34  1  0.931642  0.041498  0.892316  1
  O  O35  1  0.704855  0.903344  0.784348  1
  O  O36  1  0.933939  0.784968  0.656739  1
  O  O37  1  0.440504  0.033864  0.406345  1
  O  O38  1  0.229275  0.085448  0.540973  1
  O  O39  1  0.176516  0.926358  0.268594  1
  O  O40  1  0.694012  0.652932  0.531610  1
  O  O41  1  0.450732  0.764517  0.653562  1
  O  O42  1  0.924900  0.040814  0.407816  1
  O  O43  1  0.188236  0.643518  0.530595  1
  O  O44  1  0.403565  0.589496  0.400711  1
  O  O45  1  0.720287  0.845786  0.285145  1
  O  O46  1  0.932710  0.786244  0.153332  1
  O  O47  1  0.668571  0.678438  0.034970  1
  O  O48  1  0.192884  0.403135  0.278259  1
  O  O49  1  0.431354  0.780042  0.151236  1
  O  O50  1  0.938930  0.518077  0.411483  1
  O  O51  1  0.888884  0.355709  0.143708  1
  O  O52  1  0.680398  0.410574  0.279836  1
  O  O53  1  0.218223  0.611611  0.036226  1
  O  O54  1  0.650961  0.192672  0.040235  1
  O  O55  1  0.447690  0.282731  0.160309  1
  O  O56  1  0.206443  0.185721  0.038445  1
