# generated using pymatgen
data_Li4Mn2P4H3O16
_symmetry_space_group_name_H-M   'P 1'
_cell_length_a   5.00215447
_cell_length_b   7.67719226
_cell_length_c   8.24532324
_cell_angle_alpha   91.26490542
_cell_angle_beta   92.33917420
_cell_angle_gamma   100.28625899
_symmetry_Int_Tables_number   1
_chemical_formula_structural   Li4Mn2P4H3O16
_chemical_formula_sum   'Li4 Mn2 P4 H3 O16'
_cell_volume   311.15346119
_cell_formula_units_Z   1
loop_
 _symmetry_equiv_pos_site_id
 _symmetry_equiv_pos_as_xyz
  1  'x, y, z'
loop_
 _atom_site_type_symbol
 _atom_site_label
 _atom_site_symmetry_multiplicity
 _atom_site_fract_x
 _atom_site_fract_y
 _atom_site_fract_z
 _atom_site_occupancy
  Li  Li0  1  0.136343  0.688877  0.651103  1
  Li  Li1  1  0.378146  0.842683  0.127371  1
  Li  Li2  1  0.606161  0.161181  0.875468  1
  Li  Li3  1  0.862686  0.311344  0.345443  1
  Mn  Mn4  1  0.997337  0.496240  0.002333  1
  Mn  Mn5  1  0.498527  0.002388  0.498026  1
  P  P6  1  0.106572  0.254713  0.671473  1
  P  P7  1  0.363542  0.235120  0.150652  1
  P  P8  1  0.636019  0.757859  0.847401  1
  P  P9  1  0.890044  0.745564  0.328526  1
  H  H10  1  0.430408  0.439960  0.578047  1
  H  H11  1  0.563624  0.553756  0.411478  1
  H  H12  1  0.958050  0.979656  0.985884  1
  O  O13  1  0.113613  0.827686  0.451888  1
  O  O14  1  0.983573  0.305073  0.830397  1
  O  O15  1  0.139828  0.356592  0.171229  1
  O  O16  1  0.240718  0.445509  0.594896  1
  O  O17  1  0.410194  0.670495  0.953256  1
  O  O18  1  0.530106  0.797341  0.677600  1
  O  O19  1  0.240527  0.055845  0.065825  1
  O  O20  1  0.339458  0.152957  0.694300  1
  O  O21  1  0.657288  0.847277  0.304957  1
  O  O22  1  0.763907  0.946191  0.931510  1
  O  O23  1  0.468428  0.207040  0.325719  1
  O  O24  1  0.594796  0.333197  0.050942  1
  O  O25  1  0.758537  0.556307  0.408940  1
  O  O26  1  0.865196  0.644694  0.830266  1
  O  O27  1  0.009449  0.693680  0.168720  1
  O  O28  1  0.885800  0.172674  0.546453  1
