# generated using pymatgen
data_Li2TiV5O12
_symmetry_space_group_name_H-M   'P 1'
_cell_length_a   6.91649469
_cell_length_b   6.91649469
_cell_length_c   5.66274130
_cell_angle_alpha   71.39198818
_cell_angle_beta   108.60801182
_cell_angle_gamma   105.86460993
_symmetry_Int_Tables_number   1
_chemical_formula_structural   Li2TiV5O12
_chemical_formula_sum   'Li2 Ti1 V5 O12'
_cell_volume   238.83237494
_cell_formula_units_Z   1
loop_
 _symmetry_equiv_pos_site_id
 _symmetry_equiv_pos_as_xyz
  1  'x, y, z'
loop_
 _atom_site_type_symbol
 _atom_site_label
 _atom_site_symmetry_multiplicity
 _atom_site_fract_x
 _atom_site_fract_y
 _atom_site_fract_z
 _atom_site_occupancy
  Li  Li0  1  0.695253  0.695253  0.500000  1
  Li  Li1  1  0.304020  0.304020  0.000000  1
  Ti  Ti2  1  0.080687  0.080687  0.500000  1
  V  V3  1  0.921527  0.921527  0.000000  1
  V  V4  1  0.367267  0.823895  0.936822  1
  V  V5  1  0.165102  0.633674  0.428111  1
  V  V6  1  0.823895  0.367267  0.063178  1
  V  V7  1  0.633674  0.165102  0.571889  1
  O  O8  1  0.192173  0.012797  0.898093  1
  O  O9  1  0.642609  0.961806  0.951375  1
  O  O10  1  0.973157  0.814922  0.378606  1
  O  O11  1  0.307200  0.610482  0.799573  1
  O  O12  1  0.961806  0.642609  0.048625  1
  O  O13  1  0.398565  0.705526  0.286941  1
  O  O14  1  0.610482  0.307200  0.200427  1
  O  O15  1  0.045936  0.343399  0.470185  1
  O  O16  1  0.705526  0.398565  0.713059  1
  O  O17  1  0.012797  0.192173  0.101907  1
  O  O18  1  0.343399  0.045936  0.529815  1
  O  O19  1  0.814922  0.973157  0.621394  1
