# generated using pymatgen
data_LiV2P5O16
_symmetry_space_group_name_H-M   'P 1'
_cell_length_a   7.59029222
_cell_length_b   9.51643120
_cell_length_c   10.36324830
_cell_angle_alpha   90.00000000
_cell_angle_beta   111.55162879
_cell_angle_gamma   90.00000000
_symmetry_Int_Tables_number   1
_chemical_formula_structural   LiV2P5O16
_chemical_formula_sum   'Li2 V4 P10 O32'
_cell_volume   696.22891787
_cell_formula_units_Z   2
loop_
 _symmetry_equiv_pos_site_id
 _symmetry_equiv_pos_as_xyz
  1  'x, y, z'
loop_
 _atom_site_type_symbol
 _atom_site_label
 _atom_site_symmetry_multiplicity
 _atom_site_fract_x
 _atom_site_fract_y
 _atom_site_fract_z
 _atom_site_occupancy
  Li  Li0  1  0.999050  0.802289  0.247738  1
  Li  Li1  1  0.999050  0.197711  0.747738  1
  V  V2  1  0.377580  0.142501  0.532272  1
  V  V3  1  0.926875  0.369572  0.137349  1
  V  V4  1  0.926875  0.630428  0.637349  1
  V  V5  1  0.377580  0.857499  0.032272  1
  P  P6  1  0.614643  0.861635  0.628058  1
  P  P7  1  0.571726  0.292755  0.871209  1
  P  P8  1  0.276896  0.874106  0.697063  1
  P  P9  1  0.124124  0.417939  0.475087  1
  P  P10  1  0.124124  0.582061  0.975087  1
  P  P11  1  0.614643  0.138365  0.128058  1
  P  P12  1  0.515868  0.540572  0.007312  1
  P  P13  1  0.571726  0.707245  0.371209  1
  P  P14  1  0.515868  0.459428  0.507312  1
  P  P15  1  0.276896  0.125894  0.197063  1
  O  O16  1  0.785411  0.295779  0.930685  1
  O  O17  1  0.491904  0.819827  0.716836  1
  O  O18  1  0.293525  0.065934  0.338928  1
  O  O19  1  0.476763  0.229187  0.731694  1
  O  O20  1  0.152282  0.255021  0.151496  1
  O  O21  1  0.332343  0.495528  0.541986  1
  O  O22  1  0.484515  0.448687  0.867522  1
  O  O23  1  0.518164  0.693918  0.974784  1
  O  O24  1  0.496800  0.212489  0.979574  1
  O  O25  1  0.017082  0.534184  0.065093  1
  O  O26  1  0.225935  0.987261  0.585543  1
  O  O27  1  0.152586  0.258537  0.495029  1
  O  O28  1  0.044064  0.464318  0.324937  1
  O  O29  1  0.293525  0.934066  0.838928  1
  O  O30  1  0.152282  0.744979  0.651496  1
  O  O31  1  0.017082  0.465816  0.565093  1
  O  O32  1  0.808071  0.200634  0.195856  1
  O  O33  1  0.152586  0.741463  0.995029  1
  O  O34  1  0.685737  0.480217  0.121698  1
  O  O35  1  0.044064  0.535682  0.824937  1
  O  O36  1  0.785411  0.704221  0.430685  1
  O  O37  1  0.615298  0.980565  0.104820  1
  O  O38  1  0.808071  0.799366  0.695856  1
  O  O39  1  0.491904  0.180173  0.216836  1
  O  O40  1  0.685737  0.519783  0.621698  1
  O  O41  1  0.476763  0.770813  0.231694  1
  O  O42  1  0.332343  0.504472  0.041986  1
  O  O43  1  0.615298  0.019435  0.604820  1
  O  O44  1  0.484515  0.551313  0.367522  1
  O  O45  1  0.518164  0.306082  0.474784  1
  O  O46  1  0.496800  0.787511  0.479574  1
  O  O47  1  0.225935  0.012739  0.085543  1
