# generated using pymatgen
data_Ni5Te4(BrO6)2
_symmetry_space_group_name_H-M   'P 1'
_cell_length_a   10.57147175
_cell_length_b   10.57147175
_cell_length_c   16.45824852
_cell_angle_alpha   56.37224795
_cell_angle_beta   123.62775205
_cell_angle_gamma   150.89577893
_symmetry_Int_Tables_number   1
_chemical_formula_structural   Ni5Te4(BrO6)2
_chemical_formula_sum   'Ni10 Te8 Br4 O24'
_cell_volume   733.73749618
_cell_formula_units_Z   2
loop_
 _symmetry_equiv_pos_site_id
 _symmetry_equiv_pos_as_xyz
  1  'x, y, z'
loop_
 _atom_site_type_symbol
 _atom_site_label
 _atom_site_symmetry_multiplicity
 _atom_site_fract_x
 _atom_site_fract_y
 _atom_site_fract_z
 _atom_site_occupancy
  Ni  Ni0  1  0.227669  0.208032  0.622223  1
  Ni  Ni1  1  0.791968  0.772331  0.122223  1
  Ni  Ni2  1  0.697702  0.869960  0.528862  1
  Ni  Ni3  1  0.869960  0.697702  0.971138  1
  Ni  Ni4  1  0.208032  0.227669  0.877777  1
  Ni  Ni5  1  0.130040  0.302298  0.028862  1
  Ni  Ni6  1  0.302298  0.130040  0.471138  1
  Ni  Ni7  1  0.772331  0.791968  0.377777  1
  Ni  Ni8  1  0.247024  0.247024  0.250000  1
  Ni  Ni9  1  0.752976  0.752976  0.750000  1
  Te  Te10  1  0.805133  0.561531  0.636219  1
  Te  Te11  1  0.140263  0.427242  0.620043  1
  Te  Te12  1  0.859737  0.572758  0.379957  1
  Te  Te13  1  0.572758  0.859737  0.120043  1
  Te  Te14  1  0.427242  0.140263  0.879957  1
  Te  Te15  1  0.194867  0.438469  0.363781  1
  Te  Te16  1  0.438469  0.194867  0.136219  1
  Te  Te17  1  0.561531  0.805133  0.863781  1
  Br  Br18  1  0.933112  0.458517  0.098541  1
  Br  Br19  1  0.458517  0.933112  0.401459  1
  Br  Br20  1  0.066888  0.541483  0.901459  1
  Br  Br21  1  0.541483  0.066888  0.598541  1
  O  O22  1  0.052927  0.236229  0.482318  1
  O  O23  1  0.763771  0.947073  0.982318  1
  O  O24  1  0.690058  0.551027  0.069898  1
  O  O25  1  0.930472  0.080111  0.645353  1
  O  O26  1  0.448496  0.223276  0.750701  1
  O  O27  1  0.223276  0.448496  0.749299  1
  O  O28  1  0.919889  0.069528  0.145353  1
  O  O29  1  0.947073  0.763771  0.517682  1
  O  O30  1  0.236229  0.052927  0.017682  1
  O  O31  1  0.433907  0.559188  0.130694  1
  O  O32  1  0.448973  0.309942  0.569898  1
  O  O33  1  0.873031  0.794121  0.643452  1
  O  O34  1  0.080111  0.930472  0.854647  1
  O  O35  1  0.440812  0.566093  0.630694  1
  O  O36  1  0.566093  0.440812  0.869306  1
  O  O37  1  0.205879  0.126969  0.143452  1
  O  O38  1  0.126969  0.205879  0.356548  1
  O  O39  1  0.776724  0.551504  0.250701  1
  O  O40  1  0.794121  0.873031  0.856548  1
  O  O41  1  0.559188  0.433907  0.369306  1
  O  O42  1  0.551027  0.690058  0.430102  1
  O  O43  1  0.551504  0.776724  0.249299  1
  O  O44  1  0.309942  0.448973  0.930102  1
  O  O45  1  0.069528  0.919889  0.354647  1
