# generated using pymatgen
data_LiSnPO4
_symmetry_space_group_name_H-M   'P 1'
_cell_length_a   5.39672005
_cell_length_b   8.68467713
_cell_length_c   25.14235366
_cell_angle_alpha   90.00000000
_cell_angle_beta   90.00000000
_cell_angle_gamma   90.00000000
_symmetry_Int_Tables_number   1
_chemical_formula_structural   LiSnPO4
_chemical_formula_sum   'Li12 Sn12 P12 O48'
_cell_volume   1178.39122100
_cell_formula_units_Z   12
loop_
 _symmetry_equiv_pos_site_id
 _symmetry_equiv_pos_as_xyz
  1  'x, y, z'
loop_
 _atom_site_type_symbol
 _atom_site_label
 _atom_site_symmetry_multiplicity
 _atom_site_fract_x
 _atom_site_fract_y
 _atom_site_fract_z
 _atom_site_occupancy
  Li  Li0  1  0.241683  0.070767  0.909533  1
  Li  Li1  1  0.724716  0.582161  0.926279  1
  Li  Li2  1  0.234766  0.417039  0.740534  1
  Li  Li3  1  0.734766  0.917039  0.759466  1
  Li  Li4  1  0.224716  0.082161  0.573721  1
  Li  Li5  1  0.741683  0.570767  0.590467  1
  Li  Li6  1  0.241683  0.429233  0.409533  1
  Li  Li7  1  0.724716  0.917839  0.426279  1
  Li  Li8  1  0.234766  0.082961  0.240534  1
  Li  Li9  1  0.734766  0.582961  0.259466  1
  Li  Li10  1  0.224716  0.417839  0.073721  1
  Li  Li11  1  0.741683  0.929233  0.090467  1
  Sn  Sn12  1  0.241328  0.742089  0.017859  1
  Sn  Sn13  1  0.716784  0.243080  0.816126  1
  Sn  Sn14  1  0.257253  0.750600  0.850716  1
  Sn  Sn15  1  0.757253  0.250600  0.649284  1
  Sn  Sn16  1  0.216784  0.743080  0.683874  1
  Sn  Sn17  1  0.741328  0.242089  0.482141  1
  Sn  Sn18  1  0.241328  0.757911  0.517859  1
  Sn  Sn19  1  0.716784  0.256920  0.316126  1
  Sn  Sn20  1  0.257253  0.749400  0.350716  1
  Sn  Sn21  1  0.757253  0.249400  0.149284  1
  Sn  Sn22  1  0.216784  0.756920  0.183874  1
  Sn  Sn23  1  0.741328  0.257911  0.982141  1
  P  P24  1  0.224725  0.417993  0.938377  1
  P  P25  1  0.755082  0.915914  0.895791  1
  P  P26  1  0.227477  0.076397  0.773313  1
  P  P27  1  0.727477  0.576397  0.726687  1
  P  P28  1  0.255082  0.415914  0.604209  1
  P  P29  1  0.724725  0.917993  0.561623  1
  P  P30  1  0.224725  0.082007  0.438377  1
  P  P31  1  0.755082  0.584086  0.395791  1
  P  P32  1  0.227477  0.423603  0.273313  1
  P  P33  1  0.727477  0.923603  0.226687  1
  P  P34  1  0.255082  0.084086  0.104209  1
  P  P35  1  0.724725  0.582007  0.061623  1
  O  O36  1  0.196376  0.459614  0.997678  1
  O  O37  1  0.878214  0.042988  0.929826  1
  O  O38  1  0.914268  0.763840  0.901964  1
  O  O39  1  0.485666  0.881272  0.915966  1
  O  O40  1  0.380890  0.265454  0.934172  1
  O  O41  1  0.957319  0.390471  0.915280  1
  O  O42  1  0.362808  0.543742  0.906059  1
  O  O43  1  0.748159  0.957245  0.836116  1
  O  O44  1  0.241993  0.032208  0.832546  1
  O  O45  1  0.596308  0.451556  0.760705  1
  O  O46  1  0.995269  0.606991  0.748566  1
  O  O47  1  0.572757  0.730509  0.731046  1
  O  O48  1  0.072757  0.230509  0.768954  1
  O  O49  1  0.495269  0.106991  0.751434  1
  O  O50  1  0.096308  0.951556  0.739295  1
  O  O51  1  0.741993  0.532208  0.667454  1
  O  O52  1  0.248159  0.457245  0.663884  1
  O  O53  1  0.862808  0.043742  0.593941  1
  O  O54  1  0.457319  0.890471  0.584720  1
  O  O55  1  0.880890  0.765454  0.565828  1
  O  O56  1  0.985666  0.381272  0.584034  1
  O  O57  1  0.414268  0.263840  0.598036  1
  O  O58  1  0.378214  0.542988  0.570174  1
  O  O59  1  0.696376  0.959614  0.502322  1
  O  O60  1  0.196376  0.040386  0.497678  1
  O  O61  1  0.878214  0.457012  0.429826  1
  O  O62  1  0.914268  0.736160  0.401964  1
  O  O63  1  0.485666  0.618728  0.415966  1
  O  O64  1  0.380890  0.234546  0.434172  1
  O  O65  1  0.957319  0.109529  0.415280  1
  O  O66  1  0.362808  0.956258  0.406059  1
  O  O67  1  0.748159  0.542755  0.336116  1
  O  O68  1  0.241993  0.467792  0.332546  1
  O  O69  1  0.596308  0.048444  0.260705  1
  O  O70  1  0.995269  0.893009  0.248566  1
  O  O71  1  0.572757  0.769491  0.231046  1
  O  O72  1  0.072757  0.269491  0.268954  1
  O  O73  1  0.495269  0.393009  0.251434  1
  O  O74  1  0.096308  0.548444  0.239295  1
  O  O75  1  0.741993  0.967792  0.167454  1
  O  O76  1  0.248159  0.042755  0.163884  1
  O  O77  1  0.862808  0.456258  0.093941  1
  O  O78  1  0.457319  0.609529  0.084720  1
  O  O79  1  0.880890  0.734546  0.065828  1
  O  O80  1  0.985666  0.118728  0.084034  1
  O  O81  1  0.414268  0.236160  0.098036  1
  O  O82  1  0.378214  0.957012  0.070174  1
  O  O83  1  0.696376  0.540386  0.002322  1
