# generated using pymatgen
data_Li2P2H2O7
_symmetry_space_group_name_H-M   'P 1'
_cell_length_a   10.13663049
_cell_length_b   10.13663049
_cell_length_c   10.13663049
_cell_angle_alpha   103.86025610
_cell_angle_beta   103.86025610
_cell_angle_gamma   103.86025610
_symmetry_Int_Tables_number   1
_chemical_formula_structural   Li2P2H2O7
_chemical_formula_sum   'Li12 P12 H12 O42'
_cell_volume   931.79383835
_cell_formula_units_Z   6
loop_
 _symmetry_equiv_pos_site_id
 _symmetry_equiv_pos_as_xyz
  1  'x, y, z'
loop_
 _atom_site_type_symbol
 _atom_site_label
 _atom_site_symmetry_multiplicity
 _atom_site_fract_x
 _atom_site_fract_y
 _atom_site_fract_z
 _atom_site_occupancy
  Li  Li0  1  0.500000  0.192539  0.807461  1
  Li  Li1  1  0.807461  0.500000  0.192539  1
  Li  Li2  1  0.192539  0.807461  0.500000  1
  Li  Li3  1  0.192539  0.500000  0.807461  1
  Li  Li4  1  0.807461  0.192539  0.500000  1
  Li  Li5  1  0.500000  0.807461  0.192539  1
  Li  Li6  1  0.239640  0.239640  0.797900  1
  Li  Li7  1  0.797900  0.239640  0.239640  1
  Li  Li8  1  0.239640  0.797900  0.239640  1
  Li  Li9  1  0.760360  0.760360  0.202100  1
  Li  Li10  1  0.202100  0.760360  0.760360  1
  Li  Li11  1  0.760360  0.202100  0.760360  1
  P  P12  1  0.296727  0.484124  0.110990  1
  P  P13  1  0.110990  0.296727  0.484124  1
  P  P14  1  0.484124  0.110990  0.296727  1
  P  P15  1  0.484124  0.296727  0.110990  1
  P  P16  1  0.110990  0.484124  0.296727  1
  P  P17  1  0.296727  0.110990  0.484124  1
  P  P18  1  0.703273  0.515876  0.889010  1
  P  P19  1  0.889010  0.703273  0.515876  1
  P  P20  1  0.515876  0.889010  0.703273  1
  P  P21  1  0.515876  0.703273  0.889010  1
  P  P22  1  0.889010  0.515876  0.703273  1
  P  P23  1  0.703273  0.889010  0.515876  1
  H  H24  1  0.978648  0.075149  0.712991  1
  H  H25  1  0.712991  0.978648  0.075149  1
  H  H26  1  0.075149  0.712991  0.978648  1
  H  H27  1  0.075149  0.978648  0.712991  1
  H  H28  1  0.712991  0.075149  0.978648  1
  H  H29  1  0.978648  0.712991  0.075149  1
  H  H30  1  0.021352  0.924851  0.287009  1
  H  H31  1  0.287009  0.021352  0.924851  1
  H  H32  1  0.924851  0.287009  0.021352  1
  H  H33  1  0.924851  0.021352  0.287009  1
  H  H34  1  0.287009  0.924851  0.021352  1
  H  H35  1  0.021352  0.287009  0.924851  1
  O  O36  1  0.218194  0.404447  0.954610  1
  O  O37  1  0.954610  0.218194  0.404447  1
  O  O38  1  0.404447  0.954610  0.218194  1
  O  O39  1  0.404447  0.218194  0.954610  1
  O  O40  1  0.954610  0.404447  0.218194  1
  O  O41  1  0.218194  0.954610  0.404447  1
  O  O42  1  0.781806  0.595553  0.045390  1
  O  O43  1  0.045390  0.781806  0.595553  1
  O  O44  1  0.595553  0.045390  0.781806  1
  O  O45  1  0.595553  0.781806  0.045390  1
  O  O46  1  0.045390  0.595553  0.781806  1
  O  O47  1  0.781806  0.045390  0.595553  1
  O  O48  1  0.644122  0.338974  0.159065  1
  O  O49  1  0.159065  0.644122  0.338974  1
  O  O50  1  0.338974  0.159065  0.644122  1
  O  O51  1  0.338974  0.644122  0.159065  1
  O  O52  1  0.159065  0.338974  0.644122  1
  O  O53  1  0.644122  0.159065  0.338974  1
  O  O54  1  0.355878  0.661026  0.840935  1
  O  O55  1  0.840935  0.355878  0.661026  1
  O  O56  1  0.661026  0.840935  0.355878  1
  O  O57  1  0.661026  0.355878  0.840935  1
  O  O58  1  0.840935  0.661026  0.355878  1
  O  O59  1  0.355878  0.840935  0.661026  1
  O  O60  1  0.439175  0.439175  0.161429  1
  O  O61  1  0.161429  0.439175  0.439175  1
  O  O62  1  0.439175  0.161429  0.439175  1
  O  O63  1  0.560825  0.560825  0.838571  1
  O  O64  1  0.838571  0.560825  0.560825  1
  O  O65  1  0.560825  0.838571  0.560825  1
  O  O66  1  0.796558  0.796558  0.580650  1
  O  O67  1  0.580650  0.796558  0.796558  1
  O  O68  1  0.796558  0.580650  0.796558  1
  O  O69  1  0.203442  0.203442  0.419350  1
  O  O70  1  0.419350  0.203442  0.203442  1
  O  O71  1  0.203442  0.419350  0.203442  1
  O  O72  1  0.075229  0.075229  0.759972  1
  O  O73  1  0.759972  0.075229  0.075229  1
  O  O74  1  0.075229  0.759972  0.075229  1
  O  O75  1  0.924771  0.924771  0.240028  1
  O  O76  1  0.240028  0.924771  0.924771  1
  O  O77  1  0.924771  0.240028  0.924771  1
