# generated using pymatgen
data_Li2VO2F
_symmetry_space_group_name_H-M   'P 1'
_cell_length_a   3.02510869
_cell_length_b   8.92976466
_cell_length_c   9.10220006
_cell_angle_alpha   109.58286987
_cell_angle_beta   90.23785567
_cell_angle_gamma   90.02878479
_symmetry_Int_Tables_number   1
_chemical_formula_structural   Li2VO2F
_chemical_formula_sum   'Li8 V4 O8 F4'
_cell_volume   231.65749562
_cell_formula_units_Z   4
loop_
 _symmetry_equiv_pos_site_id
 _symmetry_equiv_pos_as_xyz
  1  'x, y, z'
loop_
 _atom_site_type_symbol
 _atom_site_label
 _atom_site_symmetry_multiplicity
 _atom_site_fract_x
 _atom_site_fract_y
 _atom_site_fract_z
 _atom_site_occupancy
  Li  Li0  1  0.999652  0.743681  0.901981  1
  Li  Li1  1  0.999677  0.281911  0.419348  1
  Li  Li2  1  0.002111  0.725172  0.590358  1
  Li  Li3  1  0.000247  0.254442  0.095802  1
  Li  Li4  1  0.499119  0.502277  0.632576  1
  Li  Li5  1  0.499749  0.997583  0.844150  1
  Li  Li6  1  0.497213  0.497584  0.367082  1
  Li  Li7  1  0.500098  0.000716  0.144169  1
  V  V8  1  0.996218  0.736871  0.244581  1
  V  V9  1  0.992459  0.254183  0.750594  1
  V  V10  1  0.506057  0.999542  0.519025  1
  V  V11  1  0.508306  0.499268  0.997357  1
  O  O12  1  0.000938  0.493594  0.845210  1
  O  O13  1  0.994231  0.004261  0.662664  1
  O  O14  1  0.014832  0.503276  0.152561  1
  O  O15  1  0.997802  0.503437  0.499539  1
  O  O16  1  0.515325  0.746673  0.091735  1
  O  O17  1  0.489082  0.770531  0.400206  1
  O  O18  1  0.500170  0.254850  0.906057  1
  O  O19  1  0.485911  0.234583  0.590226  1
  F  F20  1  0.000740  0.000109  0.341540  1
  F  F21  1  0.000768  0.000075  0.002007  1
  F  F22  1  0.498942  0.762004  0.760598  1
  F  F23  1  0.500434  0.233376  0.240635  1
