# generated using pymatgen
data_Ba8Bi4O17
_symmetry_space_group_name_H-M   'P 1'
_cell_length_a   11.06123554
_cell_length_b   11.06123554
_cell_length_c   6.39804725
_cell_angle_alpha   73.81317772
_cell_angle_beta   106.18682228
_cell_angle_gamma   132.20255973
_symmetry_Int_Tables_number   1
_chemical_formula_structural   Ba8Bi4O17
_chemical_formula_sum   'Ba8 Bi4 O17'
_cell_volume   552.26971767
_cell_formula_units_Z   1
loop_
 _symmetry_equiv_pos_site_id
 _symmetry_equiv_pos_as_xyz
  1  'x, y, z'
loop_
 _atom_site_type_symbol
 _atom_site_label
 _atom_site_symmetry_multiplicity
 _atom_site_fract_x
 _atom_site_fract_y
 _atom_site_fract_z
 _atom_site_occupancy
  Ba  Ba0  1  0.961047  0.583442  0.171273  1
  Ba  Ba1  1  0.758963  0.763194  0.458507  1
  Ba  Ba2  1  0.416558  0.038953  0.171273  1
  Ba  Ba3  1  0.587410  0.881324  0.831244  1
  Ba  Ba4  1  0.524536  0.475464  0.986880  1
  Ba  Ba5  1  0.166238  0.833762  0.657464  1
  Ba  Ba6  1  0.236806  0.241037  0.458507  1
  Ba  Ba7  1  0.118676  0.412590  0.831244  1
  Bi  Bi8  1  0.834987  0.165013  0.326809  1
  Bi  Bi9  1  0.666765  0.333235  0.682599  1
  Bi  Bi10  1  0.343208  0.656792  0.322689  1
  Bi  Bi11  1  0.996935  0.003065  0.985248  1
  O  O12  1  0.854165  0.580412  0.739601  1
  O  O13  1  0.721265  0.278735  0.033890  1
  O  O14  1  0.577960  0.422040  0.402754  1
  O  O15  1  0.748341  0.251659  0.548553  1
  O  O16  1  0.917603  0.082397  0.654655  1
  O  O17  1  0.906768  0.093232  0.130186  1
  O  O18  1  0.753396  0.779054  0.998278  1
  O  O19  1  0.419588  0.145835  0.739601  1
  O  O20  1  0.579739  0.907629  0.318768  1
  O  O21  1  0.067080  0.932920  0.307482  1
  O  O22  1  0.424553  0.575447  0.624722  1
  O  O23  1  0.256654  0.743346  0.029113  1
  O  O24  1  0.266121  0.733879  0.492145  1
  O  O25  1  0.074672  0.925328  0.840388  1
  O  O26  1  0.411682  0.588318  0.129013  1
  O  O27  1  0.092371  0.420261  0.318768  1
  O  O28  1  0.220946  0.246604  0.998278  1
