# generated using pymatgen
data_Li24MnCr11O36
_symmetry_space_group_name_H-M   'P 1'
_cell_length_a   8.74524211
_cell_length_b   8.74524211
_cell_length_c   11.70145344
_cell_angle_alpha   60.50756603
_cell_angle_beta   119.49243397
_cell_angle_gamma   120.23289795
_symmetry_Int_Tables_number   1
_chemical_formula_structural   Li24MnCr11O36
_chemical_formula_sum   'Li24 Mn1 Cr11 O36'
_cell_volume   636.46772568
_cell_formula_units_Z   1
loop_
 _symmetry_equiv_pos_site_id
 _symmetry_equiv_pos_as_xyz
  1  'x, y, z'
loop_
 _atom_site_type_symbol
 _atom_site_label
 _atom_site_symmetry_multiplicity
 _atom_site_fract_x
 _atom_site_fract_y
 _atom_site_fract_z
 _atom_site_occupancy
  Li  Li0  1  0.990716  0.994776  0.248764  1
  Li  Li1  1  0.665968  0.000680  0.002032  1
  Li  Li2  1  0.998202  0.667812  0.751700  1
  Li  Li3  1  0.327409  0.663236  0.748996  1
  Li  Li4  1  0.997486  0.665292  0.500816  1
  Li  Li5  1  0.663236  0.327409  0.251004  1
  Li  Li6  1  0.674561  0.668836  0.255079  1
  Li  Li7  1  0.999836  0.665671  0.249381  1
  Li  Li8  1  0.334828  0.334828  0.000000  1
  Li  Li9  1  0.008286  0.340054  0.752467  1
  Li  Li10  1  0.330051  0.330443  0.750667  1
  Li  Li11  1  0.660859  0.331057  0.748457  1
  Li  Li12  1  0.330443  0.330051  0.249333  1
  Li  Li13  1  0.341343  0.006983  0.751689  1
  Li  Li14  1  0.665671  0.999836  0.750619  1
  Li  Li15  1  0.994776  0.990716  0.751236  1
  Li  Li16  1  0.665292  0.997486  0.499184  1
  Li  Li17  1  0.331057  0.660859  0.251543  1
  Li  Li18  1  0.340054  0.008286  0.247533  1
  Li  Li19  1  0.667812  0.998202  0.248300  1
  Li  Li20  1  0.000680  0.665968  0.997968  1
  Li  Li21  1  0.668836  0.674561  0.744921  1
  Li  Li22  1  0.333872  0.333872  0.500000  1
  Li  Li23  1  0.006983  0.341343  0.248311  1
  Mn  Mn24  1  0.667952  0.667952  0.500000  1
  Cr  Cr25  1  0.331922  0.659577  0.000879  1
  Cr  Cr26  1  0.672987  0.672987  0.000000  1
  Cr  Cr27  1  0.991445  0.331361  0.001110  1
  Cr  Cr28  1  0.659577  0.331922  0.999121  1
  Cr  Cr29  1  0.664435  0.329174  0.501539  1
  Cr  Cr30  1  0.995629  0.338177  0.498845  1
  Cr  Cr31  1  0.007292  0.007292  0.000000  1
  Cr  Cr32  1  0.331361  0.991445  0.998890  1
  Cr  Cr33  1  0.338177  0.995629  0.501155  1
  Cr  Cr34  1  0.004854  0.004854  0.500000  1
  Cr  Cr35  1  0.329174  0.664435  0.498461  1
  O  O36  1  0.837784  0.830836  0.114889  1
  O  O37  1  0.502176  0.809499  0.888787  1
  O  O38  1  0.174987  0.855549  0.614652  1
  O  O39  1  0.498729  0.524949  0.113852  1
  O  O40  1  0.829758  0.834665  0.387741  1
  O  O41  1  0.809499  0.502176  0.111213  1
  O  O42  1  0.164616  0.506643  0.886192  1
  O  O43  1  0.524949  0.498729  0.886148  1
  O  O44  1  0.810070  0.500384  0.611685  1
  O  O45  1  0.168032  0.491059  0.615750  1
  O  O46  1  0.832497  0.188942  0.112440  1
  O  O47  1  0.521788  0.502259  0.388982  1
  O  O48  1  0.142224  0.160981  0.113289  1
  O  O49  1  0.506643  0.164616  0.113808  1
  O  O50  1  0.835329  0.480448  0.387846  1
  O  O51  1  0.858390  0.175522  0.887607  1
  O  O52  1  0.488537  0.167247  0.885554  1
  O  O53  1  0.160981  0.142224  0.886711  1
  O  O54  1  0.831447  0.193561  0.612577  1
  O  O55  1  0.499265  0.161301  0.615537  1
  O  O56  1  0.139995  0.160000  0.613525  1
  O  O57  1  0.175522  0.858390  0.112393  1
  O  O58  1  0.491059  0.168032  0.384250  1
  O  O59  1  0.855549  0.174987  0.385348  1
  O  O60  1  0.474093  0.830394  0.111520  1
  O  O61  1  0.160000  0.139995  0.386475  1
  O  O62  1  0.830836  0.837784  0.885111  1
  O  O63  1  0.188942  0.832497  0.887560  1
  O  O64  1  0.480448  0.835329  0.612154  1
  O  O65  1  0.834665  0.829758  0.612259  1
  O  O66  1  0.193561  0.831447  0.387423  1
  O  O67  1  0.167247  0.488537  0.114446  1
  O  O68  1  0.500384  0.810070  0.388315  1
  O  O69  1  0.830394  0.474093  0.888480  1
  O  O70  1  0.502259  0.521788  0.611018  1
  O  O71  1  0.161301  0.499265  0.384463  1
