# generated using pymatgen
data_Li2TiCr3O8
_symmetry_space_group_name_H-M   'P 1'
_cell_length_a   5.90814983
_cell_length_b   5.91305057
_cell_length_c   5.99756155
_cell_angle_alpha   119.42553799
_cell_angle_beta   89.96303372
_cell_angle_gamma   119.89367298
_symmetry_Int_Tables_number   1
_chemical_formula_structural   Li2TiCr3O8
_chemical_formula_sum   'Li2 Ti1 Cr3 O8'
_cell_volume   149.71256878
_cell_formula_units_Z   1
loop_
 _symmetry_equiv_pos_site_id
 _symmetry_equiv_pos_as_xyz
  1  'x, y, z'
loop_
 _atom_site_type_symbol
 _atom_site_label
 _atom_site_symmetry_multiplicity
 _atom_site_fract_x
 _atom_site_fract_y
 _atom_site_fract_z
 _atom_site_occupancy
  Li  Li0  1  0.500000  0.000000  0.500000  1
  Li  Li1  1  0.500000  0.500000  0.500000  1
  Ti  Ti2  1  0.000000  0.000000  0.000000  1
  Cr  Cr3  1  1.000000  0.500000  0.000000  1
  Cr  Cr4  1  0.500000  0.000000  0.000000  1
  Cr  Cr5  1  0.500000  0.500000  0.000000  1
  O  O6  1  0.723498  0.271294  0.198885  1
  O  O7  1  0.761119  0.232116  0.786920  1
  O  O8  1  0.756515  0.741670  0.784040  1
  O  O9  1  0.266495  0.243531  0.794042  1
  O  O10  1  0.733505  0.756469  0.205958  1
  O  O11  1  0.243485  0.258330  0.215960  1
  O  O12  1  0.238881  0.767884  0.213080  1
  O  O13  1  0.276502  0.728706  0.801115  1
