# generated using pymatgen
data_MgB3H15O13
_symmetry_space_group_name_H-M   'P 1'
_cell_length_a   6.84912184
_cell_length_b   13.16383690
_cell_length_c   12.10909688
_cell_angle_alpha   90.00000000
_cell_angle_beta   104.64145651
_cell_angle_gamma   90.00000000
_symmetry_Int_Tables_number   1
_chemical_formula_structural   MgB3H15O13
_chemical_formula_sum   'Mg4 B12 H60 O52'
_cell_volume   1056.31153405
_cell_formula_units_Z   4
loop_
 _symmetry_equiv_pos_site_id
 _symmetry_equiv_pos_as_xyz
  1  'x, y, z'
loop_
 _atom_site_type_symbol
 _atom_site_label
 _atom_site_symmetry_multiplicity
 _atom_site_fract_x
 _atom_site_fract_y
 _atom_site_fract_z
 _atom_site_occupancy
  Mg  Mg0  1  0.254349  0.715441  0.616620  1
  Mg  Mg1  1  0.745651  0.215441  0.883380  1
  Mg  Mg2  1  0.745651  0.284559  0.383380  1
  Mg  Mg3  1  0.254349  0.784559  0.116620  1
  B  B4  1  0.599720  0.618123  0.814292  1
  B  B5  1  0.400280  0.118123  0.685708  1
  B  B6  1  0.400280  0.381877  0.185708  1
  B  B7  1  0.599720  0.881877  0.314292  1
  B  B8  1  0.379306  0.486027  0.692380  1
  B  B9  1  0.620694  0.986027  0.807620  1
  B  B10  1  0.620694  0.513973  0.307620  1
  B  B11  1  0.379306  0.013973  0.192380  1
  B  B12  1  0.722425  0.516315  0.669519  1
  B  B13  1  0.277575  0.016315  0.830481  1
  B  B14  1  0.277575  0.483685  0.330481  1
  B  B15  1  0.722425  0.983685  0.169519  1
  H  H16  1  0.738681  0.588647  0.985677  1
  H  H17  1  0.261319  0.088647  0.514323  1
  H  H18  1  0.261319  0.411353  0.014323  1
  H  H19  1  0.738681  0.911353  0.485677  1
  H  H20  1  0.582130  0.771945  0.771587  1
  H  H21  1  0.417870  0.271945  0.728413  1
  H  H22  1  0.417870  0.228055  0.228413  1
  H  H23  1  0.582130  0.728055  0.271587  1
  H  H24  1  0.192811  0.390378  0.753947  1
  H  H25  1  0.807189  0.890378  0.746053  1
  H  H26  1  0.807189  0.609622  0.246053  1
  H  H27  1  0.192811  0.109622  0.253947  1
  H  H28  1  0.995148  0.527117  0.624788  1
  H  H29  1  0.004852  0.027117  0.875212  1
  H  H30  1  0.004852  0.472883  0.375212  1
  H  H31  1  0.995148  0.972883  0.124788  1
  H  H32  1  0.210135  0.535281  0.535760  1
  H  H33  1  0.789865  0.035281  0.964240  1
  H  H34  1  0.789865  0.464719  0.464240  1
  H  H35  1  0.210135  0.964719  0.035760  1
  H  H36  1  0.508349  0.758027  0.474059  1
  H  H37  1  0.491651  0.258027  0.025941  1
  H  H38  1  0.491651  0.241973  0.525941  1
  H  H39  1  0.508349  0.741973  0.974059  1
  H  H40  1  0.444146  0.642308  0.447970  1
  H  H41  1  0.555854  0.142308  0.052030  1
  H  H42  1  0.555854  0.357692  0.552030  1
  H  H43  1  0.444146  0.857692  0.947970  1
  H  H44  1  0.878199  0.769045  0.470635  1
  H  H45  1  0.121801  0.269045  0.029365  1
  H  H46  1  0.121801  0.230955  0.529365  1
  H  H47  1  0.878199  0.730955  0.970635  1
  H  H48  1  0.932522  0.662699  0.430451  1
  H  H49  1  0.067478  0.162699  0.069549  1
  H  H50  1  0.067478  0.337301  0.569549  1
  H  H51  1  0.932522  0.837301  0.930451  1
  H  H52  1  0.385550  0.916425  0.641872  1
  H  H53  1  0.614450  0.416425  0.858128  1
  H  H54  1  0.614450  0.083575  0.358128  1
  H  H55  1  0.385550  0.583575  0.141872  1
  H  H56  1  0.217022  0.904422  0.528984  1
  H  H57  1  0.782978  0.404422  0.971016  1
  H  H58  1  0.782978  0.095578  0.471016  1
  H  H59  1  0.217022  0.595578  0.028984  1
  H  H60  1  0.954388  0.685913  0.738365  1
  H  H61  1  0.045612  0.185913  0.761635  1
  H  H62  1  0.045612  0.314087  0.261635  1
  H  H63  1  0.954388  0.814087  0.238365  1
  H  H64  1  0.137415  0.746531  0.813087  1
  H  H65  1  0.862585  0.246531  0.686913  1
  H  H66  1  0.862585  0.253469  0.186913  1
  H  H67  1  0.137415  0.753469  0.313087  1
  H  H68  1  0.025666  0.534558  0.864158  1
  H  H69  1  0.974334  0.034558  0.635842  1
  H  H70  1  0.974334  0.465442  0.135842  1
  H  H71  1  0.025666  0.965442  0.364158  1
  H  H72  1  0.265020  0.533524  0.870324  1
  H  H73  1  0.734980  0.033524  0.629676  1
  H  H74  1  0.734980  0.466476  0.129676  1
  H  H75  1  0.265020  0.966476  0.370324  1
  O  O76  1  0.686113  0.646192  0.934814  1
  O  O77  1  0.313887  0.146192  0.565186  1
  O  O78  1  0.313887  0.353808  0.065186  1
  O  O79  1  0.686113  0.853808  0.434814  1
  O  O80  1  0.500123  0.708954  0.754464  1
  O  O81  1  0.499877  0.208954  0.745536  1
  O  O82  1  0.499877  0.291046  0.245536  1
  O  O83  1  0.500123  0.791046  0.254464  1
  O  O84  1  0.768739  0.584522  0.759154  1
  O  O85  1  0.231261  0.084522  0.740846  1
  O  O86  1  0.231261  0.415478  0.240846  1
  O  O87  1  0.768739  0.915478  0.259154  1
  O  O88  1  0.455561  0.533129  0.804269  1
  O  O89  1  0.544439  0.033129  0.695731  1
  O  O90  1  0.544439  0.466871  0.195731  1
  O  O91  1  0.455561  0.966871  0.304269  1
  O  O92  1  0.280640  0.386896  0.702202  1
  O  O93  1  0.719360  0.886896  0.797798  1
  O  O94  1  0.719360  0.613104  0.297798  1
  O  O95  1  0.280640  0.113104  0.202202  1
  O  O96  1  0.542627  0.465264  0.636326  1
  O  O97  1  0.457373  0.965264  0.863674  1
  O  O98  1  0.457373  0.534736  0.363674  1
  O  O99  1  0.542627  0.034736  0.136326  1
  O  O100  1  0.860652  0.492509  0.607887  1
  O  O101  1  0.139348  0.992509  0.892113  1
  O  O102  1  0.139348  0.507491  0.392113  1
  O  O103  1  0.860652  0.007491  0.107887  1
  O  O104  1  0.229301  0.556943  0.616758  1
  O  O105  1  0.770699  0.056943  0.883242  1
  O  O106  1  0.770699  0.443057  0.383242  1
  O  O107  1  0.229301  0.943057  0.116758  1
  O  O108  1  0.419456  0.703976  0.489844  1
  O  O109  1  0.580544  0.203976  0.010156  1
  O  O110  1  0.580544  0.296024  0.510156  1
  O  O111  1  0.419456  0.796024  0.989844  1
  O  O112  1  0.988693  0.717199  0.484734  1
  O  O113  1  0.011307  0.217199  0.015266  1
  O  O114  1  0.011307  0.282801  0.515266  1
  O  O115  1  0.988693  0.782801  0.984734  1
  O  O116  1  0.276445  0.870014  0.603393  1
  O  O117  1  0.723555  0.370014  0.896607  1
  O  O118  1  0.723555  0.129986  0.396607  1
  O  O119  1  0.276445  0.629986  0.103393  1
  O  O120  1  0.063073  0.733826  0.733980  1
  O  O121  1  0.936927  0.233826  0.766020  1
  O  O122  1  0.936927  0.266174  0.266020  1
  O  O123  1  0.063073  0.766174  0.233980  1
  O  O124  1  0.160383  0.518911  0.913664  1
  O  O125  1  0.839617  0.018911  0.586336  1
  O  O126  1  0.839617  0.481089  0.086336  1
  O  O127  1  0.160383  0.981089  0.413664  1
