# generated using pymatgen
data_Ca2MnFeSi4(HO3)5
_symmetry_space_group_name_H-M   'P 1'
_cell_length_a   8.86456243
_cell_length_b   9.04924210
_cell_length_c   10.20013426
_cell_angle_alpha   78.01541437
_cell_angle_beta   67.33679832
_cell_angle_gamma   64.57020691
_symmetry_Int_Tables_number   1
_chemical_formula_structural   Ca2MnFeSi4(HO3)5
_chemical_formula_sum   'Ca4 Mn2 Fe2 Si8 H10 O30'
_cell_volume   681.02119280
_cell_formula_units_Z   2
loop_
 _symmetry_equiv_pos_site_id
 _symmetry_equiv_pos_as_xyz
  1  'x, y, z'
loop_
 _atom_site_type_symbol
 _atom_site_label
 _atom_site_symmetry_multiplicity
 _atom_site_fract_x
 _atom_site_fract_y
 _atom_site_fract_z
 _atom_site_occupancy
  Ca  Ca0  1  0.580622  0.815198  0.422467  1
  Ca  Ca1  1  0.868230  0.301167  0.496748  1
  Ca  Ca2  1  0.131770  0.698833  0.503252  1
  Ca  Ca3  1  0.419378  0.184802  0.577533  1
  Mn  Mn4  1  0.293306  0.983886  0.223870  1
  Mn  Mn5  1  0.706694  0.016114  0.776130  1
  Fe  Fe6  1  0.981371  0.157800  0.129613  1
  Fe  Fe7  1  0.018629  0.842200  0.870387  1
  Si  Si8  1  0.617267  0.797534  0.962495  1
  Si  Si9  1  0.040530  0.807220  0.212284  1
  Si  Si10  1  0.024883  0.510158  0.167417  1
  Si  Si11  1  0.616196  0.165158  0.218234  1
  Si  Si12  1  0.383804  0.834842  0.781766  1
  Si  Si13  1  0.975117  0.489842  0.832583  1
  Si  Si14  1  0.959470  0.192780  0.787716  1
  Si  Si15  1  0.382733  0.202466  0.037505  1
  H  H16  1  0.754182  0.558932  0.150704  1
  H  H17  1  0.213305  0.972824  0.495115  1
  H  H18  1  0.958417  0.605443  0.375189  1
  H  H19  1  0.629759  0.319429  0.234001  1
  H  H20  1  0.663709  0.357826  0.832504  1
  H  H21  1  0.336291  0.642174  0.167496  1
  H  H22  1  0.370241  0.680571  0.765999  1
  H  H23  1  0.041583  0.394557  0.624811  1
  H  H24  1  0.786695  0.027176  0.504885  1
  H  H25  1  0.245818  0.441068  0.849296  1
  O  O26  1  0.171930  0.957800  0.837674  1
  O  O27  1  0.788028  0.618917  0.924974  1
  O  O28  1  0.544080  0.813668  0.134684  1
  O  O29  1  0.470827  0.785685  0.909001  1
  O  O30  1  0.133929  0.530706  0.845441  1
  O  O31  1  0.905164  0.804412  0.375257  1
  O  O32  1  0.005894  0.705459  0.106307  1
  O  O33  1  0.144447  0.929909  0.124155  1
  O  O34  1  0.993676  0.494708  0.339018  1
  O  O35  1  0.507593  0.088088  0.359293  1
  O  O36  1  0.225741  0.656360  0.245015  1
  O  O37  1  0.601595  0.520193  0.447024  1
  O  O38  1  0.045748  0.172564  0.277364  1
  O  O39  1  0.653269  0.562359  0.539487  1
  O  O40  1  0.278440  0.881464  0.431497  1
  O  O41  1  0.721560  0.118536  0.568503  1
  O  O42  1  0.346731  0.437641  0.460513  1
  O  O43  1  0.954252  0.827436  0.722636  1
  O  O44  1  0.398405  0.479807  0.552976  1
  O  O45  1  0.774259  0.343640  0.754985  1
  O  O46  1  0.492407  0.911912  0.640707  1
  O  O47  1  0.006324  0.505292  0.660982  1
  O  O48  1  0.855553  0.070091  0.875845  1
  O  O49  1  0.994106  0.294541  0.893693  1
  O  O50  1  0.094836  0.195588  0.624743  1
  O  O51  1  0.866071  0.469294  0.154559  1
  O  O52  1  0.529173  0.214315  0.090999  1
  O  O53  1  0.455920  0.186332  0.865316  1
  O  O54  1  0.211972  0.381083  0.075026  1
  O  O55  1  0.828070  0.042200  0.162326  1
