# generated using pymatgen
data_Li4VCr(TeO6)2
_symmetry_space_group_name_H-M   'P 1'
_cell_length_a   5.11170792
_cell_length_b   5.35738819
_cell_length_c   7.42393982
_cell_angle_alpha   86.41378243
_cell_angle_beta   89.97121212
_cell_angle_gamma   89.82259568
_symmetry_Int_Tables_number   1
_chemical_formula_structural   Li4VCr(TeO6)2
_chemical_formula_sum   'Li4 V1 Cr1 Te2 O12'
_cell_volume   202.90849018
_cell_formula_units_Z   1
loop_
 _symmetry_equiv_pos_site_id
 _symmetry_equiv_pos_as_xyz
  1  'x, y, z'
loop_
 _atom_site_type_symbol
 _atom_site_label
 _atom_site_symmetry_multiplicity
 _atom_site_fract_x
 _atom_site_fract_y
 _atom_site_fract_z
 _atom_site_occupancy
  Li  Li0  1  0.997978  0.427933  0.722012  1
  Li  Li1  1  0.499641  0.929894  0.204897  1
  Li  Li2  1  0.002525  0.430786  0.209804  1
  Li  Li3  1  0.500818  0.960901  0.734886  1
  V  V4  1  0.497001  0.490762  0.491113  1
  Cr  Cr5  1  0.000563  0.996619  0.999783  1
  Te  Te6  1  0.000278  0.988551  0.499890  1
  Te  Te7  1  0.495765  0.498958  0.991714  1
  O  O8  1  0.694430  0.205834  0.567402  1
  O  O9  1  0.873554  0.019020  0.259133  1
  O  O10  1  0.669926  0.816082  0.952601  1
  O  O11  1  0.802843  0.694087  0.572358  1
  O  O12  1  0.202717  0.688505  0.072907  1
  O  O13  1  0.619623  0.509697  0.262994  1
  O  O14  1  0.375564  0.510728  0.743307  1
  O  O15  1  0.816054  0.328782  0.948864  1
  O  O16  1  0.193582  0.320229  0.444539  1
  O  O17  1  0.313908  0.200730  0.069686  1
  O  O18  1  0.123115  0.024079  0.740197  1
  O  O19  1  0.320116  0.815421  0.440712  1
