# generated using pymatgen
data_Na2SnO3
_symmetry_space_group_name_H-M   'P 1'
_cell_length_a   5.61559213
_cell_length_b   5.61559213
_cell_length_c   11.20844588
_cell_angle_alpha   85.24830328
_cell_angle_beta   94.75169672
_cell_angle_gamma   59.99129099
_symmetry_Int_Tables_number   1
_chemical_formula_structural   Na2SnO3
_chemical_formula_sum   'Na8 Sn4 O12'
_cell_volume   301.84483445
_cell_formula_units_Z   4
loop_
 _symmetry_equiv_pos_site_id
 _symmetry_equiv_pos_as_xyz
  1  'x, y, z'
loop_
 _atom_site_type_symbol
 _atom_site_label
 _atom_site_symmetry_multiplicity
 _atom_site_fract_x
 _atom_site_fract_y
 _atom_site_fract_z
 _atom_site_occupancy
  Na  Na0  1  0.156911  0.682478  0.501062  1
  Na  Na1  1  1.000000  0.500000  0.000000  1
  Na  Na2  1  0.084161  0.084161  0.250000  1
  Na  Na3  1  0.500000  0.000000  0.500000  1
  Na  Na4  1  0.317522  0.843089  0.001062  1
  Na  Na5  1  0.682478  0.156911  0.998938  1
  Na  Na6  1  0.915839  0.915839  0.750000  1
  Na  Na7  1  0.843089  0.317522  0.498938  1
  Sn  Sn8  1  0.417687  0.417687  0.250000  1
  Sn  Sn9  1  0.249751  0.249751  0.750000  1
  Sn  Sn10  1  0.750249  0.750249  0.250000  1
  Sn  Sn11  1  0.582313  0.582313  0.750000  1
  O  O12  1  0.048567  0.751421  0.142968  1
  O  O13  1  0.118744  0.419443  0.355639  1
  O  O14  1  0.419443  0.118744  0.144361  1
  O  O15  1  0.320055  0.512032  0.856241  1
  O  O16  1  0.248579  0.951433  0.642968  1
  O  O17  1  0.512032  0.320055  0.643759  1
  O  O18  1  0.487968  0.679945  0.356241  1
  O  O19  1  0.751421  0.048567  0.357032  1
  O  O20  1  0.679945  0.487968  0.143759  1
  O  O21  1  0.580557  0.881256  0.855639  1
  O  O22  1  0.881256  0.580557  0.644361  1
  O  O23  1  0.951433  0.248579  0.857032  1
