# generated using pymatgen
data_TiMn9O20
_symmetry_space_group_name_H-M   'P 1'
_cell_length_a   5.82458736
_cell_length_b   5.82458736
_cell_length_c   24.04637771
_cell_angle_alpha   83.15110086
_cell_angle_beta   96.84889914
_cell_angle_gamma   120.19737984
_symmetry_Int_Tables_number   1
_chemical_formula_structural   TiMn9O20
_chemical_formula_sum   'Ti2 Mn18 O40'
_cell_volume   698.38486336
_cell_formula_units_Z   2
loop_
 _symmetry_equiv_pos_site_id
 _symmetry_equiv_pos_as_xyz
  1  'x, y, z'
loop_
 _atom_site_type_symbol
 _atom_site_label
 _atom_site_symmetry_multiplicity
 _atom_site_fract_x
 _atom_site_fract_y
 _atom_site_fract_z
 _atom_site_occupancy
  Ti  Ti0  1  0.500000  0.500000  0.000000  1
  Ti  Ti1  1  0.500000  0.500000  0.500000  1
  Mn  Mn2  1  0.701647  0.298353  0.100003  1
  Mn  Mn3  1  0.500000  0.000000  0.000000  1
  Mn  Mn4  1  0.105204  0.402785  0.799085  1
  Mn  Mn5  1  0.000000  0.500000  0.000000  1
  Mn  Mn6  1  0.298353  0.701647  0.899997  1
  Mn  Mn7  1  0.101054  0.898946  0.799388  1
  Mn  Mn8  1  0.597215  0.894796  0.799085  1
  Mn  Mn9  1  0.204155  0.297938  0.600036  1
  Mn  Mn10  1  0.703038  0.296962  0.600128  1
  Mn  Mn11  1  0.902659  0.097341  0.699654  1
  Mn  Mn12  1  0.297938  0.204155  0.399964  1
  Mn  Mn13  1  0.795845  0.702062  0.399964  1
  Mn  Mn14  1  0.894796  0.597215  0.200915  1
  Mn  Mn15  1  0.702062  0.795845  0.600036  1
  Mn  Mn16  1  0.898946  0.101054  0.200612  1
  Mn  Mn17  1  0.296962  0.703038  0.399872  1
  Mn  Mn18  1  0.097341  0.902659  0.300346  1
  Mn  Mn19  1  0.402785  0.105204  0.200915  1
  O  O20  1  0.389131  0.166025  0.047797  1
  O  O21  1  0.833975  0.610869  0.047797  1
  O  O22  1  0.429246  0.570754  0.846462  1
  O  O23  1  0.829594  0.170406  0.046362  1
  O  O24  1  0.655241  0.344759  0.957957  1
  O  O25  1  0.344759  0.655241  0.042043  1
  O  O26  1  0.217082  0.231284  0.752290  1
  O  O27  1  0.610869  0.833975  0.952203  1
  O  O28  1  0.166025  0.389131  0.952203  1
  O  O29  1  0.991410  0.572042  0.846009  1
  O  O30  1  0.427958  0.008590  0.846009  1
  O  O31  1  0.034098  0.410407  0.646801  1
  O  O32  1  0.032252  0.967748  0.646954  1
  O  O33  1  0.856129  0.143871  0.559036  1
  O  O34  1  0.253927  0.746073  0.758148  1
  O  O35  1  0.170406  0.829594  0.953638  1
  O  O36  1  0.772414  0.227586  0.752086  1
  O  O37  1  0.947749  0.052251  0.840312  1
  O  O38  1  0.550009  0.449991  0.641145  1
  O  O39  1  0.819982  0.629515  0.553833  1
  O  O40  1  0.768716  0.782918  0.752290  1
  O  O41  1  0.965902  0.589593  0.353199  1
  O  O42  1  0.370485  0.180018  0.553833  1
  O  O43  1  0.589593  0.965902  0.646801  1
  O  O44  1  0.180018  0.370485  0.446167  1
  O  O45  1  0.449991  0.550009  0.358855  1
  O  O46  1  0.632379  0.367621  0.445019  1
  O  O47  1  0.746073  0.253927  0.241852  1
  O  O48  1  0.367621  0.632379  0.554981  1
  O  O49  1  0.143871  0.856129  0.440964  1
  O  O50  1  0.967748  0.032252  0.353046  1
  O  O51  1  0.570754  0.429246  0.153538  1
  O  O52  1  0.410407  0.034098  0.353199  1
  O  O53  1  0.008590  0.427958  0.153991  1
  O  O54  1  0.572042  0.991410  0.153991  1
  O  O55  1  0.782918  0.768716  0.247710  1
  O  O56  1  0.629515  0.819982  0.446167  1
  O  O57  1  0.231284  0.217082  0.247710  1
  O  O58  1  0.227586  0.772414  0.247914  1
  O  O59  1  0.052251  0.947749  0.159688  1
