# generated using pymatgen
data_CuH16(ClO8)2
_symmetry_space_group_name_H-M   'P 1'
_cell_length_a   6.45458380
_cell_length_b   12.70698387
_cell_length_c   9.38998070
_cell_angle_alpha   90.00000000
_cell_angle_beta   106.34568863
_cell_angle_gamma   90.00000000
_symmetry_Int_Tables_number   1
_chemical_formula_structural   CuH16(ClO8)2
_chemical_formula_sum   'Cu2 H32 Cl4 O32'
_cell_volume   739.02161856
_cell_formula_units_Z   2
loop_
 _symmetry_equiv_pos_site_id
 _symmetry_equiv_pos_as_xyz
  1  'x, y, z'
loop_
 _atom_site_type_symbol
 _atom_site_label
 _atom_site_symmetry_multiplicity
 _atom_site_fract_x
 _atom_site_fract_y
 _atom_site_fract_z
 _atom_site_occupancy
  Cu  Cu0  1  0.000000  0.500000  0.500000  1
  Cu  Cu1  1  0.000000  0.000000  0.000000  1
  H  H2  1  0.684074  0.558978  0.597921  1
  H  H3  1  0.315926  0.058978  0.902079  1
  H  H4  1  0.315926  0.441022  0.402079  1
  H  H5  1  0.684074  0.941022  0.097921  1
  H  H6  1  0.686294  0.636830  0.467083  1
  H  H7  1  0.313706  0.136830  0.032917  1
  H  H8  1  0.313706  0.363170  0.532917  1
  H  H9  1  0.686294  0.863170  0.967083  1
  H  H10  1  0.045706  0.404205  0.764319  1
  H  H11  1  0.954294  0.904205  0.735681  1
  H  H12  1  0.954294  0.595795  0.235681  1
  H  H13  1  0.045706  0.095795  0.264319  1
  H  H14  1  0.987618  0.320470  0.634687  1
  H  H15  1  0.012382  0.820470  0.865313  1
  H  H16  1  0.012382  0.679530  0.365313  1
  H  H17  1  0.987618  0.179530  0.134687  1
  H  H18  1  0.104286  0.628349  0.749948  1
  H  H19  1  0.895714  0.128349  0.750052  1
  H  H20  1  0.895714  0.371651  0.250052  1
  H  H21  1  0.104286  0.871651  0.249948  1
  H  H22  1  0.321518  0.597630  0.713521  1
  H  H23  1  0.678482  0.097630  0.786479  1
  H  H24  1  0.678482  0.402370  0.286479  1
  H  H25  1  0.321518  0.902370  0.213521  1
  H  H26  1  0.631143  0.081283  0.338812  1
  H  H27  1  0.368857  0.581283  0.161188  1
  H  H28  1  0.368857  0.918717  0.661188  1
  H  H29  1  0.631143  0.418717  0.838812  1
  H  H30  1  0.597223  0.197175  0.287409  1
  H  H31  1  0.402777  0.697175  0.212591  1
  H  H32  1  0.402777  0.802825  0.712591  1
  H  H33  1  0.597223  0.302825  0.787409  1
  Cl  Cl34  1  0.743827  0.860033  0.409036  1
  Cl  Cl35  1  0.256173  0.360033  0.090964  1
  Cl  Cl36  1  0.256173  0.139967  0.590964  1
  Cl  Cl37  1  0.743827  0.639967  0.909036  1
  O  O38  1  0.605190  0.769301  0.412506  1
  O  O39  1  0.394810  0.269301  0.087494  1
  O  O40  1  0.394810  0.230699  0.587494  1
  O  O41  1  0.605190  0.730699  0.912506  1
  O  O42  1  0.630658  0.927824  0.281488  1
  O  O43  1  0.369342  0.427824  0.218512  1
  O  O44  1  0.369342  0.072176  0.718512  1
  O  O45  1  0.630658  0.572176  0.781488  1
  O  O46  1  0.782710  0.921808  0.543074  1
  O  O47  1  0.217290  0.421808  0.956926  1
  O  O48  1  0.217290  0.078192  0.456926  1
  O  O49  1  0.782710  0.578192  0.043074  1
  O  O50  1  0.947953  0.822886  0.386389  1
  O  O51  1  0.052047  0.322886  0.113611  1
  O  O52  1  0.052047  0.177114  0.613611  1
  O  O53  1  0.947953  0.677114  0.886389  1
  O  O54  1  0.707774  0.562453  0.498676  1
  O  O55  1  0.292226  0.062453  0.001324  1
  O  O56  1  0.292226  0.437547  0.501324  1
  O  O57  1  0.707774  0.937547  0.998676  1
  O  O58  1  0.962478  0.393544  0.659747  1
  O  O59  1  0.037522  0.893544  0.840253  1
  O  O60  1  0.037522  0.606456  0.340253  1
  O  O61  1  0.962478  0.106456  0.159747  1
  O  O62  1  0.169258  0.615885  0.668580  1
  O  O63  1  0.830742  0.115885  0.831420  1
  O  O64  1  0.830742  0.384115  0.331420  1
  O  O65  1  0.169258  0.884115  0.168580  1
  O  O66  1  0.643825  0.153449  0.375370  1
  O  O67  1  0.356175  0.653449  0.124630  1
  O  O68  1  0.356175  0.846551  0.624630  1
  O  O69  1  0.643825  0.346551  0.875370  1
