# generated using pymatgen
data_Ti3Bi2(PO4)6
_symmetry_space_group_name_H-M   'P 1'
_cell_length_a   8.87179462
_cell_length_b   8.87179462
_cell_length_c   8.87179462
_cell_angle_alpha   59.15953643
_cell_angle_beta   59.15953643
_cell_angle_gamma   59.15953643
_symmetry_Int_Tables_number   1
_chemical_formula_structural   Ti3Bi2(PO4)6
_chemical_formula_sum   'Ti3 Bi2 P6 O24'
_cell_volume   484.30675497
_cell_formula_units_Z   1
loop_
 _symmetry_equiv_pos_site_id
 _symmetry_equiv_pos_as_xyz
  1  'x, y, z'
loop_
 _atom_site_type_symbol
 _atom_site_label
 _atom_site_symmetry_multiplicity
 _atom_site_fract_x
 _atom_site_fract_y
 _atom_site_fract_z
 _atom_site_occupancy
  Ti  Ti0  1  0.649587  0.649587  0.649587  1
  Ti  Ti1  1  0.859428  0.859428  0.859428  1
  Ti  Ti2  1  0.340706  0.340706  0.340706  1
  Bi  Bi3  1  0.022996  0.022996  0.022996  1
  Bi  Bi4  1  0.497326  0.497326  0.497326  1
  P  P5  1  0.248799  0.545830  0.937923  1
  P  P6  1  0.937923  0.248799  0.545830  1
  P  P7  1  0.545830  0.937923  0.248799  1
  P  P8  1  0.479596  0.043567  0.733262  1
  P  P9  1  0.043567  0.733263  0.479596  1
  P  P10  1  0.733263  0.479596  0.043567  1
  O  O11  1  0.116758  0.296803  0.484909  1
  O  O12  1  0.484909  0.116758  0.296803  1
  O  O13  1  0.296803  0.484909  0.116758  1
  O  O14  1  0.071779  0.726470  0.953486  1
  O  O15  1  0.406038  0.617886  0.757904  1
  O  O16  1  0.232851  0.399107  0.917512  1
  O  O17  1  0.953486  0.071779  0.726470  1
  O  O18  1  0.757904  0.406038  0.617886  1
  O  O19  1  0.617886  0.757904  0.406038  1
  O  O20  1  0.637871  0.012878  0.783905  1
  O  O21  1  0.296725  0.047153  0.897406  1
  O  O22  1  0.012878  0.783905  0.637871  1
  O  O23  1  0.917512  0.232851  0.399107  1
  O  O24  1  0.726470  0.953486  0.071779  1
  O  O25  1  0.399107  0.917512  0.232851  1
  O  O26  1  0.452241  0.232330  0.565672  1
  O  O27  1  0.232330  0.565672  0.452241  1
  O  O28  1  0.047153  0.897406  0.296725  1
  O  O29  1  0.783905  0.637871  0.012878  1
  O  O30  1  0.565672  0.452241  0.232330  1
  O  O31  1  0.897406  0.296725  0.047153  1
  O  O32  1  0.658549  0.536625  0.893037  1
  O  O33  1  0.536625  0.893037  0.658549  1
  O  O34  1  0.893037  0.658549  0.536625  1
