# generated using pymatgen
data_Ca9La5Br33
_symmetry_space_group_name_H-M   'P 1'
_cell_length_a   11.81154681
_cell_length_b   11.92626410
_cell_length_c   22.24184876
_cell_angle_alpha   98.46131387
_cell_angle_beta   100.95114592
_cell_angle_gamma   110.03886845
_symmetry_Int_Tables_number   1
_chemical_formula_structural   Ca9La5Br33
_chemical_formula_sum   'Ca18 La10 Br66'
_cell_volume   2812.32753931
_cell_formula_units_Z   2
loop_
 _symmetry_equiv_pos_site_id
 _symmetry_equiv_pos_as_xyz
  1  'x, y, z'
loop_
 _atom_site_type_symbol
 _atom_site_label
 _atom_site_symmetry_multiplicity
 _atom_site_fract_x
 _atom_site_fract_y
 _atom_site_fract_z
 _atom_site_occupancy
  Ca  Ca0  1  0.910670  0.235867  0.927425  1
  Ca  Ca1  1  0.317630  0.081190  0.971106  1
  Ca  Ca2  1  0.479368  0.018167  0.193998  1
  Ca  Ca3  1  0.867330  0.262157  0.334347  1
  Ca  Ca4  1  0.236535  0.145507  0.382221  1
  Ca  Ca5  1  0.687638  0.402120  0.542844  1
  Ca  Ca6  1  0.068732  0.257752  0.560540  1
  Ca  Ca7  1  0.763701  0.348200  0.119659  1
  Ca  Ca8  1  0.132502  0.202543  0.152897  1
  Ca  Ca9  1  0.867498  0.797457  0.847103  1
  Ca  Ca10  1  0.236299  0.651800  0.880341  1
  Ca  Ca11  1  0.931268  0.742248  0.439460  1
  Ca  Ca12  1  0.312362  0.597880  0.457156  1
  Ca  Ca13  1  0.763465  0.854493  0.617779  1
  Ca  Ca14  1  0.132670  0.737843  0.665653  1
  Ca  Ca15  1  0.520632  0.981833  0.806002  1
  Ca  Ca16  1  0.682370  0.918810  0.028894  1
  Ca  Ca17  1  0.089330  0.764133  0.072575  1
  La  La18  1  0.378529  0.047383  0.584363  1
  La  La19  1  0.173985  0.136490  0.762785  1
  La  La20  1  0.862609  0.356327  0.735360  1
  La  La21  1  0.632258  0.455528  0.930069  1
  La  La22  1  0.466354  0.544087  0.683957  1
  La  La23  1  0.533646  0.455913  0.316043  1
  La  La24  1  0.367742  0.544472  0.069931  1
  La  La25  1  0.137391  0.643673  0.264640  1
  La  La26  1  0.826015  0.863510  0.237215  1
  La  La27  1  0.621471  0.952617  0.415637  1
  Br  Br28  1  0.767348  0.137950  0.790883  1
  Br  Br29  1  0.933430  0.138016  0.669768  1
  Br  Br30  1  0.629457  0.199024  0.916298  1
  Br  Br31  1  0.734602  0.049110  0.193431  1
  Br  Br32  1  0.149088  0.992259  0.634594  1
  Br  Br33  1  0.048094  0.064021  0.875247  1
  Br  Br34  1  0.657451  0.196600  0.621235  1
  Br  Br35  1  0.446399  0.187996  0.737505  1
  Br  Br36  1  0.815385  0.224655  0.482678  1
  Br  Br37  1  0.599275  0.122189  0.331118  1
  Br  Br38  1  0.469559  0.117239  0.464534  1
  Br  Br39  1  0.149278  0.051734  0.486196  1
  Br  Br40  1  0.356513  0.276611  0.889279  1
  Br  Br41  1  0.883905  0.176891  0.057942  1
  Br  Br42  1  0.829115  0.457247  0.859790  1
  Br  Br43  1  0.558289  0.107366  0.070140  1
  Br  Br44  1  0.959667  0.442600  0.626080  1
  Br  Br45  1  0.253247  0.046958  0.093834  1
  Br  Br46  1  0.395496  0.308039  0.585145  1
  Br  Br47  1  0.972430  0.366218  0.220195  1
  Br  Br48  1  0.341387  0.193252  0.265180  1
  Br  Br49  1  0.660733  0.321225  0.233574  1
  Br  Br50  1  0.040346  0.133016  0.275875  1
  Br  Br51  1  0.233106  0.350186  0.697843  1
  Br  Br52  1  0.710816  0.504799  0.685004  1
  Br  Br53  1  0.091457  0.360351  0.826338  1
  Br  Br54  1  0.755407  0.460424  0.415247  1
  Br  Br55  1  0.589563  0.572446  0.820959  1
  Br  Br56  1  0.441858  0.386492  0.430203  1
  Br  Br57  1  0.813685  0.723830  0.974900  1
  Br  Br58  1  0.458802  0.607310  0.953909  1
  Br  Br59  1  0.117021  0.322165  0.435704  1
  Br  Br60  1  0.138989  0.537214  0.977023  1
  Br  Br61  1  0.861011  0.462786  0.022977  1
  Br  Br62  1  0.882979  0.677835  0.564296  1
  Br  Br63  1  0.541198  0.392690  0.046091  1
  Br  Br64  1  0.186315  0.276170  0.025100  1
  Br  Br65  1  0.558142  0.613508  0.569797  1
  Br  Br66  1  0.410437  0.427554  0.179041  1
  Br  Br67  1  0.244593  0.539576  0.584753  1
  Br  Br68  1  0.908543  0.639649  0.173662  1
  Br  Br69  1  0.289184  0.495201  0.314996  1
  Br  Br70  1  0.766894  0.649814  0.302157  1
  Br  Br71  1  0.959654  0.866984  0.724125  1
  Br  Br72  1  0.339267  0.678775  0.766426  1
  Br  Br73  1  0.658613  0.806748  0.734820  1
  Br  Br74  1  0.027570  0.633782  0.779805  1
  Br  Br75  1  0.604504  0.691961  0.414855  1
  Br  Br76  1  0.746753  0.953042  0.906166  1
  Br  Br77  1  0.040333  0.557400  0.373920  1
  Br  Br78  1  0.441711  0.892634  0.929860  1
  Br  Br79  1  0.170885  0.542753  0.140210  1
  Br  Br80  1  0.116095  0.823109  0.942058  1
  Br  Br81  1  0.643487  0.723389  0.110721  1
  Br  Br82  1  0.850722  0.948266  0.513804  1
  Br  Br83  1  0.530441  0.882761  0.535466  1
  Br  Br84  1  0.400725  0.877811  0.668882  1
  Br  Br85  1  0.184615  0.775345  0.517322  1
  Br  Br86  1  0.553601  0.812004  0.262495  1
  Br  Br87  1  0.342549  0.803400  0.378765  1
  Br  Br88  1  0.951906  0.935979  0.124753  1
  Br  Br89  1  0.850912  0.007741  0.365406  1
  Br  Br90  1  0.265398  0.950890  0.806569  1
  Br  Br91  1  0.370543  0.800976  0.083702  1
  Br  Br92  1  0.066570  0.861984  0.330232  1
  Br  Br93  1  0.232652  0.862050  0.209117  1
