# generated using pymatgen
data_Cr3Sb(PO4)4
_symmetry_space_group_name_H-M   'P 1'
_cell_length_a   4.88085520
_cell_length_b   5.93931812
_cell_length_c   10.17720626
_cell_angle_alpha   90.00000000
_cell_angle_beta   90.22169354
_cell_angle_gamma   90.00000000
_symmetry_Int_Tables_number   1
_chemical_formula_structural   Cr3Sb(PO4)4
_chemical_formula_sum   'Cr3 Sb1 P4 O16'
_cell_volume   295.02433221
_cell_formula_units_Z   1
loop_
 _symmetry_equiv_pos_site_id
 _symmetry_equiv_pos_as_xyz
  1  'x, y, z'
loop_
 _atom_site_type_symbol
 _atom_site_label
 _atom_site_symmetry_multiplicity
 _atom_site_fract_x
 _atom_site_fract_y
 _atom_site_fract_z
 _atom_site_occupancy
  Cr  Cr0  1  0.462149  0.000000  0.226121  1
  Cr  Cr1  1  0.536971  0.500000  0.778843  1
  Cr  Cr2  1  0.967062  0.500000  0.265684  1
  Sb  Sb3  1  0.030334  0.000000  0.724915  1
  P  P4  1  0.111341  0.500000  0.591622  1
  P  P5  1  0.411614  0.500000  0.094435  1
  P  P6  1  0.576224  0.000000  0.920773  1
  P  P7  1  0.903420  0.000000  0.391311  1
  O  O8  1  0.152635  0.500000  0.444282  1
  O  O9  1  0.277057  0.303486  0.663898  1
  O  O10  1  0.277057  0.696514  0.663898  1
  O  O11  1  0.214294  0.000000  0.379291  1
  O  O12  1  0.264816  0.000000  0.907957  1
  O  O13  1  0.265379  0.299334  0.171717  1
  O  O14  1  0.265379  0.700666  0.171717  1
  O  O15  1  0.330310  0.500000  0.949525  1
  O  O16  1  0.672477  0.000000  0.062788  1
  O  O17  1  0.708657  0.794580  0.843938  1
  O  O18  1  0.708657  0.205420  0.843938  1
  O  O19  1  0.722139  0.500000  0.111044  1
  O  O20  1  0.809892  0.500000  0.630264  1
  O  O21  1  0.762145  0.796445  0.314767  1
  O  O22  1  0.762145  0.203555  0.314767  1
  O  O23  1  0.807842  0.000000  0.532505  1
