# generated using pymatgen
data_LiCo3NiO8
_symmetry_space_group_name_H-M   'P 1'
_cell_length_a   5.98511398
_cell_length_b   5.98511398
_cell_length_c   5.98511398
_cell_angle_alpha   56.63679625
_cell_angle_beta   56.63679625
_cell_angle_gamma   56.63679625
_symmetry_Int_Tables_number   1
_chemical_formula_structural   LiCo3NiO8
_chemical_formula_sum   'Li1 Co3 Ni1 O8'
_cell_volume   139.82394125
_cell_formula_units_Z   1
loop_
 _symmetry_equiv_pos_site_id
 _symmetry_equiv_pos_as_xyz
  1  'x, y, z'
loop_
 _atom_site_type_symbol
 _atom_site_label
 _atom_site_symmetry_multiplicity
 _atom_site_fract_x
 _atom_site_fract_y
 _atom_site_fract_z
 _atom_site_occupancy
  Li  Li0  1  0.500000  0.500000  0.500000  1
  Co  Co1  1  0.500000  0.500000  0.000000  1
  Co  Co2  1  0.000000  0.500000  0.500000  1
  Co  Co3  1  0.500000  1.000000  0.500000  1
  Ni  Ni4  1  0.000000  0.000000  0.000000  1
  O  O5  1  0.239662  0.239662  0.715965  1
  O  O6  1  0.729207  0.729207  0.729207  1
  O  O7  1  0.239662  0.715965  0.239662  1
  O  O8  1  0.715965  0.239662  0.239662  1
  O  O9  1  0.284035  0.760338  0.760338  1
  O  O10  1  0.760338  0.284035  0.760338  1
  O  O11  1  0.270793  0.270793  0.270793  1
  O  O12  1  0.760338  0.760338  0.284035  1
