# generated using pymatgen
data_Li2V3O3F5
_symmetry_space_group_name_H-M   'P 1'
_cell_length_a   5.98813772
_cell_length_b   5.98813772
_cell_length_c   5.95466564
_cell_angle_alpha   61.81876854
_cell_angle_beta   118.18123146
_cell_angle_gamma   119.44287759
_symmetry_Int_Tables_number   1
_chemical_formula_structural   Li2V3O3F5
_chemical_formula_sum   'Li2 V3 O3 F5'
_cell_volume   155.67654372
_cell_formula_units_Z   1
loop_
 _symmetry_equiv_pos_site_id
 _symmetry_equiv_pos_as_xyz
  1  'x, y, z'
loop_
 _atom_site_type_symbol
 _atom_site_label
 _atom_site_symmetry_multiplicity
 _atom_site_fract_x
 _atom_site_fract_y
 _atom_site_fract_z
 _atom_site_occupancy
  Li  Li0  1  0.991326  0.008674  0.996558  1
  Li  Li1  1  0.259163  0.740837  0.760512  1
  V  V2  1  0.141858  0.385265  0.364727  1
  V  V3  1  0.614735  0.858142  0.364727  1
  V  V4  1  0.625219  0.374781  0.880345  1
  O  O5  1  0.367294  0.632706  0.148540  1
  O  O6  1  0.853695  0.146305  0.129848  1
  O  O7  1  0.397506  0.602494  0.625815  1
  F  F8  1  0.878458  0.610253  0.122235  1
  F  F9  1  0.389747  0.121542  0.122235  1
  F  F10  1  0.884122  0.115878  0.605350  1
  F  F11  1  0.858953  0.629271  0.630852  1
  F  F12  1  0.370729  0.141047  0.630852  1
