# generated using pymatgen
data_Li4Mn2Cu3Sn3O16
_symmetry_space_group_name_H-M   'P 1'
_cell_length_a   6.04689545
_cell_length_b   6.04689545
_cell_length_c   9.58827622
_cell_angle_alpha   89.82451089
_cell_angle_beta   90.17548911
_cell_angle_gamma   119.25830118
_symmetry_Int_Tables_number   1
_chemical_formula_structural   Li4Mn2Cu3Sn3O16
_chemical_formula_sum   'Li4 Mn2 Cu3 Sn3 O16'
_cell_volume   305.86580304
_cell_formula_units_Z   1
loop_
 _symmetry_equiv_pos_site_id
 _symmetry_equiv_pos_as_xyz
  1  'x, y, z'
loop_
 _atom_site_type_symbol
 _atom_site_label
 _atom_site_symmetry_multiplicity
 _atom_site_fract_x
 _atom_site_fract_y
 _atom_site_fract_z
 _atom_site_occupancy
  Li  Li0  1  0.324114  0.675886  0.108043  1
  Li  Li1  1  0.023448  0.976552  0.014713  1
  Li  Li2  1  0.018627  0.981373  0.501241  1
  Li  Li3  1  0.664233  0.335767  0.595686  1
  Mn  Mn4  1  0.331698  0.668302  0.509072  1
  Mn  Mn5  1  0.657003  0.342997  0.019678  1
  Cu  Cu6  1  0.168620  0.831380  0.786616  1
  Cu  Cu7  1  0.340013  0.173793  0.288047  1
  Cu  Cu8  1  0.826207  0.659987  0.288047  1
  Sn  Sn9  1  0.167399  0.340373  0.787909  1
  Sn  Sn10  1  0.659627  0.832601  0.787909  1
  Sn  Sn11  1  0.829250  0.170750  0.289500  1
  O  O12  1  0.167678  0.334142  0.407554  1
  O  O13  1  0.482309  0.517691  0.652997  1
  O  O14  1  0.324709  0.675291  0.899883  1
  O  O15  1  0.006394  0.993606  0.690252  1
  O  O16  1  0.007292  0.992708  0.201095  1
  O  O17  1  0.665858  0.832322  0.407554  1
  O  O18  1  0.042426  0.518044  0.644792  1
  O  O19  1  0.481956  0.957574  0.644792  1
  O  O20  1  0.831257  0.168743  0.905409  1
  O  O21  1  0.178252  0.821748  0.403302  1
  O  O22  1  0.519129  0.049388  0.149277  1
  O  O23  1  0.950612  0.480871  0.149277  1
  O  O24  1  0.657600  0.342400  0.392112  1
  O  O25  1  0.337792  0.178645  0.909656  1
  O  O26  1  0.516675  0.483325  0.147990  1
  O  O27  1  0.821355  0.662208  0.909656  1
