# generated using pymatgen
data_Li2FeNiO4
_symmetry_space_group_name_H-M   'P 1'
_cell_length_a   5.03910237
_cell_length_b   2.91082836
_cell_length_c   5.05335818
_cell_angle_alpha   90.00000000
_cell_angle_beta   109.52864412
_cell_angle_gamma   90.00000000
_symmetry_Int_Tables_number   1
_chemical_formula_structural   Li2FeNiO4
_chemical_formula_sum   'Li2 Fe1 Ni1 O4'
_cell_volume   69.85853361
_cell_formula_units_Z   1
loop_
 _symmetry_equiv_pos_site_id
 _symmetry_equiv_pos_as_xyz
  1  'x, y, z'
loop_
 _atom_site_type_symbol
 _atom_site_label
 _atom_site_symmetry_multiplicity
 _atom_site_fract_x
 _atom_site_fract_y
 _atom_site_fract_z
 _atom_site_occupancy
  Li  Li0  1  0.500000  0.500000  0.500000  1
  Li  Li1  1  0.500000  0.000000  0.000000  1
  Fe  Fe2  1  0.000000  0.500000  0.000000  1
  Ni  Ni3  1  0.000000  0.000000  0.500000  1
  O  O4  1  0.778324  0.500000  0.234015  1
  O  O5  1  0.221676  0.500000  0.765985  1
  O  O6  1  0.228325  0.000000  0.224805  1
  O  O7  1  0.771675  0.000000  0.775195  1
