# generated using pymatgen
data_Mn2OF3
_symmetry_space_group_name_H-M   'P 1'
_cell_length_a   5.81309816
_cell_length_b   5.81309816
_cell_length_c   4.85173510
_cell_angle_alpha   86.97630253
_cell_angle_beta   93.02369747
_cell_angle_gamma   113.35248034
_symmetry_Int_Tables_number   1
_chemical_formula_structural   Mn2OF3
_chemical_formula_sum   'Mn4 O2 F6'
_cell_volume   150.21993120
_cell_formula_units_Z   2
loop_
 _symmetry_equiv_pos_site_id
 _symmetry_equiv_pos_as_xyz
  1  'x, y, z'
loop_
 _atom_site_type_symbol
 _atom_site_label
 _atom_site_symmetry_multiplicity
 _atom_site_fract_x
 _atom_site_fract_y
 _atom_site_fract_z
 _atom_site_occupancy
  Mn  Mn0  1  0.000000  0.500000  0.500000  1
  Mn  Mn1  1  0.500000  1.000000  0.500000  1
  Mn  Mn2  1  0.500000  0.500000  0.000000  1
  Mn  Mn3  1  0.000000  0.000000  0.000000  1
  O  O4  1  0.656911  0.343089  0.308209  1
  O  O5  1  0.343089  0.656911  0.691791  1
  F  F6  1  0.649365  0.846589  0.197939  1
  F  F7  1  0.153411  0.350635  0.197939  1
  F  F8  1  0.150808  0.849192  0.306942  1
  F  F9  1  0.849192  0.150808  0.693058  1
  F  F10  1  0.350635  0.153411  0.802061  1
  F  F11  1  0.846589  0.649365  0.802061  1
