# generated using pymatgen
data_Li3Cr2(PO4)3
_symmetry_space_group_name_H-M   'P 1'
_cell_length_a   8.58849766
_cell_length_b   8.58849766
_cell_length_c   8.55285689
_cell_angle_alpha   61.28035504
_cell_angle_beta   118.71964496
_cell_angle_gamma   118.67765642
_symmetry_Int_Tables_number   1
_chemical_formula_structural   Li3Cr2(PO4)3
_chemical_formula_sum   'Li6 Cr4 P6 O24'
_cell_volume   459.07807276
_cell_formula_units_Z   2
loop_
 _symmetry_equiv_pos_site_id
 _symmetry_equiv_pos_as_xyz
  1  'x, y, z'
loop_
 _atom_site_type_symbol
 _atom_site_label
 _atom_site_symmetry_multiplicity
 _atom_site_fract_x
 _atom_site_fract_y
 _atom_site_fract_z
 _atom_site_occupancy
  Li  Li0  1  0.997021  0.495122  0.222381  1
  Li  Li1  1  0.349404  0.349404  0.500000  1
  Li  Li2  1  0.495122  0.997021  0.777619  1
  Li  Li3  1  0.653567  0.653567  0.000000  1
  Li  Li4  1  0.843429  0.249440  0.596175  1
  Li  Li5  1  0.249440  0.843429  0.403825  1
  Cr  Cr6  1  0.138505  0.355148  0.107900  1
  Cr  Cr7  1  0.355148  0.138505  0.892100  1
  Cr  Cr8  1  0.645339  0.854303  0.605428  1
  Cr  Cr9  1  0.854303  0.645339  0.394572  1
  P  P10  1  0.451734  0.749108  0.202336  1
  P  P11  1  0.749108  0.451734  0.797664  1
  P  P12  1  0.044270  0.044270  0.500000  1
  P  P13  1  0.959940  0.959940  0.000000  1
  P  P14  1  0.250375  0.536926  0.708487  1
  P  P15  1  0.536926  0.250375  0.291513  1
  O  O16  1  0.500962  0.212988  0.119620  1
  O  O17  1  0.123263  0.985660  0.955808  1
  O  O18  1  0.269221  0.576059  0.204399  1
  O  O19  1  0.292860  0.376732  0.719872  1
  O  O20  1  0.430135  0.908031  0.011759  1
  O  O21  1  0.614359  0.696023  0.231611  1
  O  O22  1  0.908031  0.430135  0.988241  1
  O  O23  1  0.576059  0.269221  0.795601  1
  O  O24  1  0.238674  0.067661  0.658113  1
  O  O25  1  0.985660  0.123263  0.044192  1
  O  O26  1  0.933805  0.765516  0.162704  1
  O  O27  1  0.212988  0.500962  0.880380  1
  O  O28  1  0.805678  0.483994  0.635593  1
  O  O29  1  0.067661  0.238674  0.341887  1
  O  O30  1  0.015599  0.884913  0.444345  1
  O  O31  1  0.765516  0.933805  0.837296  1
  O  O32  1  0.412635  0.730547  0.684663  1
  O  O33  1  0.085868  0.566186  0.517241  1
  O  O34  1  0.376732  0.292860  0.280128  1
  O  O35  1  0.566186  0.085868  0.482759  1
  O  O36  1  0.696023  0.614359  0.768389  1
  O  O37  1  0.730547  0.412635  0.315337  1
  O  O38  1  0.884913  0.015599  0.555655  1
  O  O39  1  0.483994  0.805678  0.364407  1
