# generated using pymatgen
data_Li2Sn4P4O15
_symmetry_space_group_name_H-M   'P 1'
_cell_length_a   9.35968644
_cell_length_b   9.35968644
_cell_length_c   20.34017144
_cell_angle_alpha   86.86276711
_cell_angle_beta   93.13723289
_cell_angle_gamma   66.90211041
_symmetry_Int_Tables_number   1
_chemical_formula_structural   Li2Sn4P4O15
_chemical_formula_sum   'Li8 Sn16 P16 O60'
_cell_volume   1630.93436939
_cell_formula_units_Z   4
loop_
 _symmetry_equiv_pos_site_id
 _symmetry_equiv_pos_as_xyz
  1  'x, y, z'
loop_
 _atom_site_type_symbol
 _atom_site_label
 _atom_site_symmetry_multiplicity
 _atom_site_fract_x
 _atom_site_fract_y
 _atom_site_fract_z
 _atom_site_occupancy
  Li  Li0  1  0.459871  0.971232  0.260589  1
  Li  Li1  1  0.441526  0.457707  0.097553  1
  Li  Li2  1  0.457707  0.441526  0.402447  1
  Li  Li3  1  0.028768  0.540129  0.760589  1
  Li  Li4  1  0.971232  0.459871  0.239411  1
  Li  Li5  1  0.542293  0.558474  0.597553  1
  Li  Li6  1  0.558474  0.542293  0.902447  1
  Li  Li7  1  0.540129  0.028768  0.739411  1
  Sn  Sn8  1  0.904078  0.149879  0.434303  1
  Sn  Sn9  1  0.926976  0.665088  0.063356  1
  Sn  Sn10  1  0.000000  0.500000  0.500000  1
  Sn  Sn11  1  0.850121  0.095922  0.934303  1
  Sn  Sn12  1  0.806056  0.806056  0.250000  1
  Sn  Sn13  1  0.521021  0.521021  0.250000  1
  Sn  Sn14  1  0.024833  0.024833  0.250000  1
  Sn  Sn15  1  0.334912  0.073024  0.563356  1
  Sn  Sn16  1  0.665088  0.926976  0.436644  1
  Sn  Sn17  1  0.975167  0.975167  0.750000  1
  Sn  Sn18  1  0.193944  0.193944  0.750000  1
  Sn  Sn19  1  0.478979  0.478979  0.750000  1
  Sn  Sn20  1  0.149879  0.904078  0.065697  1
  Sn  Sn21  1  0.073024  0.334912  0.936644  1
  Sn  Sn22  1  0.095922  0.850121  0.565697  1
  Sn  Sn23  1  0.500000  0.000000  0.000000  1
  P  P24  1  0.738870  0.123484  0.104101  1
  P  P25  1  0.950538  0.288232  0.112581  1
  P  P26  1  0.635743  0.165432  0.321919  1
  P  P27  1  0.876516  0.261130  0.604101  1
  P  P28  1  0.711768  0.049462  0.612581  1
  P  P29  1  0.770226  0.537375  0.372181  1
  P  P30  1  0.834568  0.364257  0.821919  1
  P  P31  1  0.537375  0.770226  0.127819  1
  P  P32  1  0.462625  0.229774  0.872181  1
  P  P33  1  0.165432  0.635743  0.178081  1
  P  P34  1  0.229774  0.462625  0.627819  1
  P  P35  1  0.288232  0.950538  0.387419  1
  P  P36  1  0.123484  0.738870  0.395899  1
  P  P37  1  0.364257  0.834568  0.678081  1
  P  P38  1  0.049462  0.711768  0.887419  1
  P  P39  1  0.261130  0.876516  0.895899  1
  O  O40  1  0.790857  0.062209  0.177212  1
  O  O41  1  0.813751  0.135739  0.325178  1
  O  O42  1  0.787877  0.273712  0.090746  1
  O  O43  1  0.562871  0.196654  0.084757  1
  O  O44  1  0.945091  0.427771  0.066952  1
  O  O45  1  0.937791  0.209143  0.677212  1
  O  O46  1  0.568898  0.223269  0.387939  1
  O  O47  1  0.904598  0.388589  0.408401  1
  O  O48  1  0.000026  0.624523  0.182376  1
  O  O49  1  0.864261  0.186249  0.825178  1
  O  O50  1  0.545081  0.275747  0.261654  1
  O  O51  1  0.726288  0.212123  0.590746  1
  O  O52  1  0.803346  0.437129  0.584757  1
  O  O53  1  0.572229  0.054909  0.566952  1
  O  O54  1  0.816600  0.564504  0.301112  1
  O  O55  1  0.311534  0.956468  0.314119  1
  O  O56  1  0.829085  0.000684  0.057222  1
  O  O57  1  0.084877  0.137593  0.096748  1
  O  O58  1  0.673207  0.768511  0.085797  1
  O  O59  1  0.776731  0.431102  0.887939  1
  O  O60  1  0.520021  0.613429  0.129991  1
  O  O61  1  0.611411  0.095402  0.908401  1
  O  O62  1  0.613429  0.520021  0.370009  1
  O  O63  1  0.768511  0.673207  0.414203  1
  O  O64  1  0.137593  0.084877  0.403252  1
  O  O65  1  0.000684  0.829085  0.442778  1
  O  O66  1  0.375477  0.999974  0.682376  1
  O  O67  1  0.724253  0.454919  0.761654  1
  O  O68  1  0.956468  0.311534  0.185881  1
  O  O69  1  0.564504  0.816600  0.198888  1
  O  O70  1  0.435496  0.183400  0.801112  1
  O  O71  1  0.043532  0.688466  0.814119  1
  O  O72  1  0.275747  0.545081  0.238346  1
  O  O73  1  0.624523  0.000026  0.317624  1
  O  O74  1  0.999316  0.170915  0.557222  1
  O  O75  1  0.862407  0.915123  0.596748  1
  O  O76  1  0.231489  0.326793  0.585797  1
  O  O77  1  0.386571  0.479979  0.629991  1
  O  O78  1  0.388589  0.904598  0.091599  1
  O  O79  1  0.479979  0.386571  0.870009  1
  O  O80  1  0.223269  0.568898  0.112061  1
  O  O81  1  0.326793  0.231489  0.914203  1
  O  O82  1  0.915123  0.862407  0.903252  1
  O  O83  1  0.170915  0.999316  0.942778  1
  O  O84  1  0.688466  0.043532  0.685881  1
  O  O85  1  0.183400  0.435496  0.698888  1
  O  O86  1  0.427771  0.945091  0.433048  1
  O  O87  1  0.196654  0.562871  0.415243  1
  O  O88  1  0.273712  0.787877  0.409254  1
  O  O89  1  0.454919  0.724253  0.738346  1
  O  O90  1  0.135739  0.813751  0.174822  1
  O  O91  1  0.999974  0.375477  0.817624  1
  O  O92  1  0.095402  0.611411  0.591599  1
  O  O93  1  0.431102  0.776731  0.612061  1
  O  O94  1  0.062209  0.790857  0.322788  1
  O  O95  1  0.054909  0.572229  0.933048  1
  O  O96  1  0.437129  0.803346  0.915243  1
  O  O97  1  0.212123  0.726288  0.909254  1
  O  O98  1  0.186249  0.864261  0.674822  1
  O  O99  1  0.209143  0.937791  0.822788  1
