# generated using pymatgen
data_LiFe2(BO3)2
_symmetry_space_group_name_H-M   'P 1'
_cell_length_a   5.22683641
_cell_length_b   9.10604233
_cell_length_c   11.39827003
_cell_angle_alpha   112.67459844
_cell_angle_beta   103.00084033
_cell_angle_gamma   89.63024446
_symmetry_Int_Tables_number   1
_chemical_formula_structural   LiFe2(BO3)2
_chemical_formula_sum   'Li4 Fe8 B8 O24'
_cell_volume   485.79929198
_cell_formula_units_Z   4
loop_
 _symmetry_equiv_pos_site_id
 _symmetry_equiv_pos_as_xyz
  1  'x, y, z'
loop_
 _atom_site_type_symbol
 _atom_site_label
 _atom_site_symmetry_multiplicity
 _atom_site_fract_x
 _atom_site_fract_y
 _atom_site_fract_z
 _atom_site_occupancy
  Li  Li0  1  0.284270  0.269430  0.899276  1
  Li  Li1  1  0.477000  0.498122  0.652135  1
  Li  Li2  1  0.529610  0.533151  0.407668  1
  Li  Li3  1  0.767446  0.757410  0.163975  1
  Fe  Fe4  1  0.033383  0.344297  0.378461  1
  Fe  Fe5  1  0.266772  0.927442  0.877616  1
  Fe  Fe6  1  0.474456  0.151327  0.627042  1
  Fe  Fe7  1  0.244571  0.558066  0.133585  1
  Fe  Fe8  1  0.771978  0.438541  0.876277  1
  Fe  Fe9  1  0.512903  0.858874  0.384151  1
  Fe  Fe10  1  0.970696  0.658505  0.630750  1
  Fe  Fe11  1  0.740719  0.077739  0.129411  1
  B  B12  1  0.007851  0.679988  0.373546  1
  B  B13  1  0.261386  0.598166  0.873469  1
  B  B14  1  0.469293  0.808982  0.624831  1
  B  B15  1  0.237139  0.896572  0.128788  1
  B  B16  1  0.533745  0.188862  0.376765  1
  B  B17  1  0.776151  0.110790  0.884992  1
  B  B18  1  0.991557  0.326491  0.639779  1
  B  B19  1  0.728302  0.393854  0.119185  1
  O  O20  1  0.032112  0.092264  0.878870  1
  O  O21  1  0.119326  0.714602  0.845870  1
  O  O22  1  0.148173  0.496208  0.917552  1
  O  O23  1  0.127374  0.206336  0.655102  1
  O  O24  1  0.082653  0.429828  0.590835  1
  O  O25  1  0.263148  0.842939  0.687474  1
  O  O26  1  0.260797  0.669899  0.346681  1
  O  O27  1  0.512537  0.579409  0.856462  1
  O  O28  1  0.636871  0.224990  0.848807  1
  O  O29  1  0.450762  0.078870  0.421031  1
  O  O30  1  0.416085  0.327385  0.394274  1
  O  O31  1  0.639910  0.020142  0.929753  1
  O  O32  1  0.367117  0.980134  0.075812  1
  O  O33  1  0.583273  0.667395  0.606349  1
  O  O34  1  0.553007  0.913686  0.576155  1
  O  O35  1  0.384479  0.794621  0.178399  1
  O  O36  1  0.463710  0.381331  0.107467  1
  O  O37  1  0.748289  0.355138  0.679032  1
  O  O38  1  0.745922  0.157154  0.317908  1
  O  O39  1  0.917112  0.573740  0.417610  1
  O  O40  1  0.849680  0.792196  0.350742  1
  O  O41  1  0.838641  0.508285  0.083350  1
  O  O42  1  0.888378  0.291502  0.160734  1
  O  O43  1  0.977085  0.911003  0.130512  1
