# generated using pymatgen
data_BaH9IO5
_symmetry_space_group_name_H-M   'P 1'
_cell_length_a   6.37295602
_cell_length_b   8.17279075
_cell_length_c   8.17308770
_cell_angle_alpha   89.91338028
_cell_angle_beta   89.80757762
_cell_angle_gamma   73.14908654
_symmetry_Int_Tables_number   1
_chemical_formula_structural   BaH9IO5
_chemical_formula_sum   'Ba2 H18 I2 O10'
_cell_volume   407.41324570
_cell_formula_units_Z   2
loop_
 _symmetry_equiv_pos_site_id
 _symmetry_equiv_pos_as_xyz
  1  'x, y, z'
loop_
 _atom_site_type_symbol
 _atom_site_label
 _atom_site_symmetry_multiplicity
 _atom_site_fract_x
 _atom_site_fract_y
 _atom_site_fract_z
 _atom_site_occupancy
  Ba  Ba0  1  0.672394  0.222828  0.466963  1
  Ba  Ba1  1  0.327606  0.777172  0.533037  1
  H  H2  1  0.988491  0.911255  0.224452  1
  H  H3  1  0.859662  0.816128  0.334899  1
  H  H4  1  0.796241  0.822286  0.657003  1
  H  H5  1  0.969480  0.332911  0.207658  1
  H  H6  1  0.818432  0.559565  0.666382  1
  H  H7  1  0.822323  0.550368  0.327977  1
  H  H8  1  0.628707  0.958549  0.767215  1
  H  H9  1  0.654684  0.682924  0.210254  1
  H  H10  1  0.660436  0.483905  0.775029  1
  H  H11  1  0.339564  0.516095  0.224971  1
  H  H12  1  0.345316  0.317076  0.789746  1
  H  H13  1  0.371293  0.041451  0.232785  1
  H  H14  1  0.177677  0.449632  0.672023  1
  H  H15  1  0.181568  0.440435  0.333618  1
  H  H16  1  0.030520  0.667089  0.792342  1
  H  H17  1  0.203759  0.177714  0.342997  1
  H  H18  1  0.140338  0.183872  0.665101  1
  H  H19  1  0.011509  0.088745  0.775548  1
  I  I20  1  0.667408  0.214169  0.999345  1
  I  I21  1  0.332592  0.785831  0.000655  1
  O  O22  1  0.939199  0.905859  0.337986  1
  O  O23  1  0.990673  0.353636  0.323873  1
  O  O24  1  0.658792  0.923952  0.652430  1
  O  O25  1  0.718033  0.671541  0.321447  1
  O  O26  1  0.684627  0.512031  0.661080  1
  O  O27  1  0.315373  0.487969  0.338920  1
  O  O28  1  0.281967  0.328459  0.678553  1
  O  O29  1  0.341208  0.076048  0.347570  1
  O  O30  1  0.009327  0.646364  0.676127  1
  O  O31  1  0.060801  0.094141  0.662014  1
