# generated using pymatgen
data_V2OF5
_symmetry_space_group_name_H-M   'P 1'
_cell_length_a   4.70661131
_cell_length_b   5.06402189
_cell_length_c   17.36712506
_cell_angle_alpha   90.77285134
_cell_angle_beta   90.28529232
_cell_angle_gamma   90.10890357
_symmetry_Int_Tables_number   1
_chemical_formula_structural   V2OF5
_chemical_formula_sum   'V8 O4 F20'
_cell_volume   413.89111610
_cell_formula_units_Z   4
loop_
 _symmetry_equiv_pos_site_id
 _symmetry_equiv_pos_as_xyz
  1  'x, y, z'
loop_
 _atom_site_type_symbol
 _atom_site_label
 _atom_site_symmetry_multiplicity
 _atom_site_fract_x
 _atom_site_fract_y
 _atom_site_fract_z
 _atom_site_occupancy
  V  V0  1  0.002837  0.255811  0.951775  1
  V  V1  1  0.020804  0.758726  0.716510  1
  V  V2  1  0.027189  0.767302  0.056236  1
  V  V3  1  0.477665  0.767992  0.557374  1
  V  V4  1  0.495014  0.237877  0.787802  1
  V  V5  1  0.500277  0.253359  0.451158  1
  V  V6  1  0.499757  0.751009  0.212549  1
  V  V7  1  0.976474  0.281702  0.288663  1
  O  O8  1  0.245798  0.865797  0.626300  1
  O  O9  1  0.236008  0.930251  0.778109  1
  O  O10  1  0.254869  0.864804  0.126359  1
  O  O11  1  0.759352  0.547781  0.281857  1
  F  F12  1  0.220867  0.928109  0.966711  1
  F  F13  1  0.245386  0.950805  0.282978  1
  F  F14  1  0.251827  0.432785  0.714620  1
  F  F15  1  0.240283  0.392816  0.370291  1
  F  F16  1  0.222661  0.427201  0.036729  1
  F  F17  1  0.257018  0.395130  0.872361  1
  F  F18  1  0.281476  0.428280  0.535755  1
  F  F19  1  0.252032  0.424673  0.214649  1
  F  F20  1  0.282530  0.927699  0.467065  1
  F  F21  1  0.708434  0.578352  0.471518  1
  F  F22  1  0.717908  0.067796  0.535827  1
  F  F23  1  0.752238  0.560769  0.781630  1
  F  F24  1  0.741721  0.112718  0.870526  1
  F  F25  1  0.759478  0.066297  0.213629  1
  F  F26  1  0.745477  0.614729  0.126158  1
  F  F27  1  0.759912  0.622044  0.629436  1
  F  F28  1  0.751970  0.060166  0.711870  1
  F  F29  1  0.758474  0.109789  0.371269  1
  F  F30  1  0.795146  0.580505  0.969735  1
  F  F31  1  0.785940  0.067768  0.035769  1
