# generated using pymatgen
data_NdAl11O18
_symmetry_space_group_name_H-M   'P 1'
_cell_length_a   5.61114392
_cell_length_b   5.64279216
_cell_length_c   11.50608497
_cell_angle_alpha   102.97977736
_cell_angle_beta   89.98802119
_cell_angle_gamma   118.41713475
_symmetry_Int_Tables_number   1
_chemical_formula_structural   NdAl11O18
_chemical_formula_sum   'Nd1 Al11 O18'
_cell_volume   309.79935591
_cell_formula_units_Z   1
loop_
 _symmetry_equiv_pos_site_id
 _symmetry_equiv_pos_as_xyz
  1  'x, y, z'
loop_
 _atom_site_type_symbol
 _atom_site_label
 _atom_site_symmetry_multiplicity
 _atom_site_fract_x
 _atom_site_fract_y
 _atom_site_fract_z
 _atom_site_occupancy
  Nd  Nd0  1  0.000000  0.000000  0.500000  1
  Al  Al1  1  0.399253  0.094612  0.217704  1
  Al  Al2  1  0.000000  0.000000  0.000000  1
  Al  Al3  1  0.897665  0.587674  0.224036  1
  Al  Al4  1  0.892071  0.097697  0.207088  1
  Al  Al5  1  0.648180  0.353651  0.943601  1
  Al  Al6  1  0.546465  0.457970  0.627073  1
  Al  Al7  1  0.453535  0.542030  0.372927  1
  Al  Al8  1  0.351820  0.646349  0.056399  1
  Al  Al9  1  0.107929  0.902303  0.792911  1
  Al  Al10  1  0.102335  0.412326  0.775964  1
  Al  Al11  1  0.600747  0.905388  0.782296  1
  O  O12  1  0.693479  0.291783  0.108185  1
  O  O13  1  0.915251  0.099170  0.706637  1
  O  O14  1  0.190833  0.808550  0.106646  1
  O  O15  1  0.280004  0.186798  0.896685  1
  O  O16  1  0.424521  0.604705  0.712161  1
  O  O17  1  0.084010  0.382496  0.290630  1
  O  O18  1  0.728817  0.555127  0.496814  1
  O  O19  1  0.818717  0.725564  0.902677  1
  O  O20  1  0.602243  0.908963  0.304009  1
  O  O21  1  0.397757  0.091037  0.695991  1
  O  O22  1  0.181283  0.274436  0.097323  1
  O  O23  1  0.271183  0.444873  0.503186  1
  O  O24  1  0.915990  0.617504  0.709370  1
  O  O25  1  0.575479  0.395295  0.287839  1
  O  O26  1  0.719996  0.813202  0.103315  1
  O  O27  1  0.809167  0.191450  0.893354  1
  O  O28  1  0.306521  0.708217  0.891815  1
  O  O29  1  0.084749  0.900830  0.293363  1
