# generated using pymatgen
data_Na6Fe2As(CO4)4
_symmetry_space_group_name_H-M   'P 1'
_cell_length_a   10.12557380
_cell_length_b   10.12557380
_cell_length_c   10.12557380
_cell_angle_alpha   60.00000000
_cell_angle_beta   60.00000000
_cell_angle_gamma   60.00000000
_symmetry_Int_Tables_number   1
_chemical_formula_structural   Na6Fe2As(CO4)4
_chemical_formula_sum   'Na12 Fe4 As2 C8 O32'
_cell_volume   734.08091259
_cell_formula_units_Z   2
loop_
 _symmetry_equiv_pos_site_id
 _symmetry_equiv_pos_as_xyz
  1  'x, y, z'
loop_
 _atom_site_type_symbol
 _atom_site_label
 _atom_site_symmetry_multiplicity
 _atom_site_fract_x
 _atom_site_fract_y
 _atom_site_fract_z
 _atom_site_occupancy
  Na  Na0  1  0.789699  0.210301  0.210301  1
  Na  Na1  1  0.460301  0.039699  0.460301  1
  Na  Na2  1  0.210301  0.210301  0.789699  1
  Na  Na3  1  0.789699  0.789699  0.210301  1
  Na  Na4  1  0.039699  0.460301  0.039699  1
  Na  Na5  1  0.039699  0.460301  0.460301  1
  Na  Na6  1  0.210301  0.789699  0.210301  1
  Na  Na7  1  0.210301  0.789699  0.789699  1
  Na  Na8  1  0.460301  0.460301  0.039699  1
  Na  Na9  1  0.039699  0.039699  0.460301  1
  Na  Na10  1  0.789699  0.210301  0.789699  1
  Na  Na11  1  0.460301  0.039699  0.039699  1
  Fe  Fe12  1  0.125000  0.625000  0.625000  1
  Fe  Fe13  1  0.625000  0.625000  0.125000  1
  Fe  Fe14  1  0.625000  0.125000  0.625000  1
  Fe  Fe15  1  0.625000  0.625000  0.625000  1
  As  As16  1  1.000000  0.000000  1.000000  1
  As  As17  1  0.250000  0.250000  0.250000  1
  C  C18  1  0.770856  0.409715  0.409715  1
  C  C19  1  0.409715  0.409715  0.409715  1
  C  C20  1  0.409715  0.409715  0.770856  1
  C  C21  1  0.409715  0.770856  0.409715  1
  C  C22  1  0.840285  0.479144  0.840285  1
  C  C23  1  0.840285  0.840285  0.479144  1
  C  C24  1  0.840285  0.840285  0.840285  1
  C  C25  1  0.479144  0.840285  0.840285  1
  O  O26  1  0.727493  0.814756  0.476764  1
  O  O27  1  0.476764  0.980987  0.727493  1
  O  O28  1  0.773236  0.435244  0.269013  1
  O  O29  1  0.522507  0.269013  0.435244  1
  O  O30  1  0.773236  0.522507  0.435244  1
  O  O31  1  0.069692  0.790923  0.069692  1
  O  O32  1  0.435244  0.269013  0.773236  1
  O  O33  1  0.069692  0.069692  0.790923  1
  O  O34  1  0.069692  0.069692  0.069692  1
  O  O35  1  0.435244  0.522507  0.269013  1
  O  O36  1  0.269013  0.435244  0.522507  1
  O  O37  1  0.790923  0.069692  0.069692  1
  O  O38  1  0.522507  0.773236  0.269013  1
  O  O39  1  0.269013  0.522507  0.773236  1
  O  O40  1  0.435244  0.773236  0.522507  1
  O  O41  1  0.980987  0.476764  0.814756  1
  O  O42  1  0.269013  0.773236  0.435244  1
  O  O43  1  0.814756  0.476764  0.727493  1
  O  O44  1  0.980987  0.727493  0.476764  1
  O  O45  1  0.727493  0.476764  0.980987  1
  O  O46  1  0.459077  0.180308  0.180308  1
  O  O47  1  0.980987  0.814756  0.727493  1
  O  O48  1  0.814756  0.727493  0.980987  1
  O  O49  1  0.180308  0.180308  0.180308  1
  O  O50  1  0.180308  0.180308  0.459077  1
  O  O51  1  0.814756  0.980987  0.476764  1
  O  O52  1  0.180308  0.459077  0.180308  1
  O  O53  1  0.476764  0.727493  0.814756  1
  O  O54  1  0.727493  0.980987  0.814756  1
  O  O55  1  0.476764  0.814756  0.980987  1
  O  O56  1  0.773236  0.269013  0.522507  1
  O  O57  1  0.522507  0.435244  0.773236  1
