# generated using pymatgen
data_KB6P(H2O7)2
_symmetry_space_group_name_H-M   'P 1'
_cell_length_a   12.27398059
_cell_length_b   12.27398059
_cell_length_c   7.68284237
_cell_angle_alpha   90.00000000
_cell_angle_beta   90.00000000
_cell_angle_gamma   90.00000000
_symmetry_Int_Tables_number   1
_chemical_formula_structural   KB6P(H2O7)2
_chemical_formula_sum   'K4 B24 P4 H16 O56'
_cell_volume   1157.42480909
_cell_formula_units_Z   4
loop_
 _symmetry_equiv_pos_site_id
 _symmetry_equiv_pos_as_xyz
  1  'x, y, z'
loop_
 _atom_site_type_symbol
 _atom_site_label
 _atom_site_symmetry_multiplicity
 _atom_site_fract_x
 _atom_site_fract_y
 _atom_site_fract_z
 _atom_site_occupancy
  K  K0  1  0.000000  0.500000  0.888217  1
  K  K1  1  0.000000  0.500000  0.388217  1
  K  K2  1  0.500000  0.000000  0.111783  1
  K  K3  1  0.500000  0.000000  0.611783  1
  B  B4  1  0.821322  0.303857  0.185071  1
  B  B5  1  0.178678  0.303857  0.685071  1
  B  B6  1  0.196143  0.321322  0.185071  1
  B  B7  1  0.803857  0.321322  0.685071  1
  B  B8  1  0.384016  0.384016  0.250000  1
  B  B9  1  0.615984  0.384016  0.750000  1
  B  B10  1  0.384016  0.615984  0.750000  1
  B  B11  1  0.615984  0.615984  0.250000  1
  B  B12  1  0.803857  0.678678  0.185071  1
  B  B13  1  0.196143  0.678678  0.685071  1
  B  B14  1  0.821322  0.696143  0.685071  1
  B  B15  1  0.178678  0.696143  0.185071  1
  B  B16  1  0.321322  0.803857  0.814929  1
  B  B17  1  0.678678  0.803857  0.314929  1
  B  B18  1  0.303857  0.821322  0.314929  1
  B  B19  1  0.696143  0.821322  0.814929  1
  B  B20  1  0.884016  0.884016  0.750000  1
  B  B21  1  0.115984  0.884016  0.250000  1
  B  B22  1  0.884016  0.115984  0.250000  1
  B  B23  1  0.115984  0.115984  0.750000  1
  B  B24  1  0.696143  0.178678  0.314929  1
  B  B25  1  0.303857  0.178678  0.814929  1
  B  B26  1  0.678678  0.196143  0.814929  1
  B  B27  1  0.321322  0.196143  0.314929  1
  P  P28  1  0.500000  0.500000  0.000000  1
  P  P29  1  0.500000  0.500000  0.500000  1
  P  P30  1  0.000000  0.000000  0.000000  1
  P  P31  1  0.000000  0.000000  0.500000  1
  H  H32  1  0.040482  0.284203  0.134550  1
  H  H33  1  0.959518  0.284203  0.634550  1
  H  H34  1  0.784203  0.459518  0.134550  1
  H  H35  1  0.215797  0.459518  0.634550  1
  H  H36  1  0.215797  0.540482  0.134550  1
  H  H37  1  0.784203  0.540482  0.634550  1
  H  H38  1  0.959518  0.715797  0.134550  1
  H  H39  1  0.040482  0.715797  0.634550  1
  H  H40  1  0.459518  0.784203  0.365450  1
  H  H41  1  0.540482  0.784203  0.865450  1
  H  H42  1  0.715797  0.959518  0.365450  1
  H  H43  1  0.284203  0.959518  0.865450  1
  H  H44  1  0.284203  0.040482  0.365450  1
  H  H45  1  0.715797  0.040482  0.865450  1
  H  H46  1  0.459518  0.215797  0.865450  1
  H  H47  1  0.540482  0.215797  0.365450  1
  O  O48  1  0.401423  0.273478  0.317234  1
  O  O49  1  0.598577  0.273478  0.817234  1
  O  O50  1  0.281800  0.281800  0.750000  1
  O  O51  1  0.718200  0.281800  0.250000  1
  O  O52  1  0.093388  0.344586  0.123332  1
  O  O53  1  0.906612  0.344586  0.623332  1
  O  O54  1  0.466963  0.400337  0.110606  1
  O  O55  1  0.533037  0.400337  0.610606  1
  O  O56  1  0.273478  0.401423  0.182766  1
  O  O57  1  0.726522  0.401423  0.682766  1
  O  O58  1  0.844586  0.406612  0.123332  1
  O  O59  1  0.155414  0.406612  0.623332  1
  O  O60  1  0.400337  0.466963  0.389394  1
  O  O61  1  0.599663  0.466963  0.889394  1
  O  O62  1  0.599663  0.533037  0.389394  1
  O  O63  1  0.400337  0.533037  0.889394  1
  O  O64  1  0.844586  0.593388  0.623332  1
  O  O65  1  0.155414  0.593388  0.123332  1
  O  O66  1  0.273478  0.598577  0.682766  1
  O  O67  1  0.726522  0.598577  0.182766  1
  O  O68  1  0.466963  0.599663  0.610606  1
  O  O69  1  0.533037  0.599663  0.110606  1
  O  O70  1  0.906612  0.655414  0.123332  1
  O  O71  1  0.093388  0.655414  0.623332  1
  O  O72  1  0.718200  0.718200  0.750000  1
  O  O73  1  0.281800  0.718200  0.250000  1
  O  O74  1  0.401423  0.726522  0.817234  1
  O  O75  1  0.598577  0.726522  0.317234  1
  O  O76  1  0.901423  0.773478  0.682766  1
  O  O77  1  0.098577  0.773478  0.182766  1
  O  O78  1  0.781800  0.781800  0.250000  1
  O  O79  1  0.218200  0.781800  0.750000  1
  O  O80  1  0.406612  0.844586  0.376668  1
  O  O81  1  0.593388  0.844586  0.876668  1
  O  O82  1  0.966963  0.900337  0.889394  1
  O  O83  1  0.033037  0.900337  0.389394  1
  O  O84  1  0.773478  0.901423  0.817234  1
  O  O85  1  0.226522  0.901423  0.317234  1
  O  O86  1  0.344586  0.906612  0.876668  1
  O  O87  1  0.655414  0.906612  0.376668  1
  O  O88  1  0.900337  0.966963  0.610606  1
  O  O89  1  0.099663  0.966963  0.110606  1
  O  O90  1  0.900337  0.033037  0.110606  1
  O  O91  1  0.099663  0.033037  0.610606  1
  O  O92  1  0.344586  0.093388  0.376668  1
  O  O93  1  0.655414  0.093388  0.876668  1
  O  O94  1  0.773478  0.098577  0.317234  1
  O  O95  1  0.226522  0.098577  0.817234  1
  O  O96  1  0.966963  0.099663  0.389394  1
  O  O97  1  0.033037  0.099663  0.889394  1
  O  O98  1  0.406612  0.155414  0.876668  1
  O  O99  1  0.593388  0.155414  0.376668  1
  O  O100  1  0.781800  0.218200  0.750000  1
  O  O101  1  0.218200  0.218200  0.250000  1
  O  O102  1  0.901423  0.226522  0.182766  1
  O  O103  1  0.098577  0.226522  0.682766  1
