# generated using pymatgen
data_CrCoO4
_symmetry_space_group_name_H-M   'P 1'
_cell_length_a   4.95128712
_cell_length_b   6.08363669
_cell_length_c   10.46366022
_cell_angle_alpha   90.00000000
_cell_angle_beta   90.00000000
_cell_angle_gamma   90.00000000
_symmetry_Int_Tables_number   1
_chemical_formula_structural   CrCoO4
_chemical_formula_sum   'Cr4 Co4 O16'
_cell_volume   315.18461526
_cell_formula_units_Z   4
loop_
 _symmetry_equiv_pos_site_id
 _symmetry_equiv_pos_as_xyz
  1  'x, y, z'
loop_
 _atom_site_type_symbol
 _atom_site_label
 _atom_site_symmetry_multiplicity
 _atom_site_fract_x
 _atom_site_fract_y
 _atom_site_fract_z
 _atom_site_occupancy
  Cr  Cr0  1  0.407952  0.750000  0.405811  1
  Cr  Cr1  1  0.092048  0.750000  0.905811  1
  Cr  Cr2  1  0.907952  0.250000  0.094189  1
  Cr  Cr3  1  0.592048  0.250000  0.594189  1
  Co  Co4  1  0.973406  0.750000  0.230909  1
  Co  Co5  1  0.526594  0.750000  0.730909  1
  Co  Co6  1  0.473406  0.250000  0.269091  1
  Co  Co7  1  0.026594  0.250000  0.769091  1
  O  O8  1  0.273670  0.530882  0.328252  1
  O  O9  1  0.226330  0.530882  0.828252  1
  O  O10  1  0.169471  0.750000  0.059672  1
  O  O11  1  0.737971  0.750000  0.389091  1
  O  O12  1  0.762029  0.750000  0.889091  1
  O  O13  1  0.330529  0.750000  0.559672  1
  O  O14  1  0.273670  0.969118  0.328252  1
  O  O15  1  0.226330  0.969118  0.828252  1
  O  O16  1  0.726330  0.030882  0.671748  1
  O  O17  1  0.773670  0.030882  0.171748  1
  O  O18  1  0.830529  0.250000  0.940328  1
  O  O19  1  0.669471  0.250000  0.440328  1
  O  O20  1  0.237971  0.250000  0.110909  1
  O  O21  1  0.262029  0.250000  0.610909  1
  O  O22  1  0.773670  0.469118  0.171748  1
  O  O23  1  0.726330  0.469118  0.671748  1
