# generated using pymatgen
data_Na3SnPCO7
_symmetry_space_group_name_H-M   'P 1'
_cell_length_a   5.49610722
_cell_length_b   7.26567549
_cell_length_c   9.39423979
_cell_angle_alpha   90.00000000
_cell_angle_beta   96.37724301
_cell_angle_gamma   90.00000000
_symmetry_Int_Tables_number   1
_chemical_formula_structural   Na3SnPCO7
_chemical_formula_sum   'Na6 Sn2 P2 C2 O14'
_cell_volume   372.81821366
_cell_formula_units_Z   2
loop_
 _symmetry_equiv_pos_site_id
 _symmetry_equiv_pos_as_xyz
  1  'x, y, z'
loop_
 _atom_site_type_symbol
 _atom_site_label
 _atom_site_symmetry_multiplicity
 _atom_site_fract_x
 _atom_site_fract_y
 _atom_site_fract_z
 _atom_site_occupancy
  Na  Na0  1  0.778862  0.250000  0.905857  1
  Na  Na1  1  0.249492  0.020016  0.724755  1
  Na  Na2  1  0.249492  0.479984  0.724755  1
  Na  Na3  1  0.750508  0.979984  0.275245  1
  Na  Na4  1  0.750508  0.520016  0.275245  1
  Na  Na5  1  0.221138  0.750000  0.094143  1
  Sn  Sn6  1  0.740734  0.750000  0.657618  1
  Sn  Sn7  1  0.259266  0.250000  0.342382  1
  P  P8  1  0.711834  0.250000  0.595093  1
  P  P9  1  0.288166  0.750000  0.404907  1
  C  C10  1  0.680944  0.750000  0.961958  1
  C  C11  1  0.319056  0.250000  0.038042  1
  O  O12  1  0.900212  0.750000  0.923258  1
  O  O13  1  0.355999  0.250000  0.904877  1
  O  O14  1  0.491882  0.750000  0.861357  1
  O  O15  1  0.824081  0.079378  0.680906  1
  O  O16  1  0.824081  0.420622  0.680906  1
  O  O17  1  0.428160  0.250000  0.597830  1
  O  O18  1  0.238648  0.750000  0.565044  1
  O  O19  1  0.761352  0.250000  0.434956  1
  O  O20  1  0.571840  0.750000  0.402170  1
  O  O21  1  0.175919  0.579378  0.319094  1
  O  O22  1  0.175919  0.920622  0.319094  1
  O  O23  1  0.508118  0.250000  0.138643  1
  O  O24  1  0.644001  0.750000  0.095123  1
  O  O25  1  0.099788  0.250000  0.076742  1
