# generated using pymatgen
data_Sr2Mg3H10
_symmetry_space_group_name_H-M   'P 1'
_cell_length_a   9.21767873
_cell_length_b   9.21767873
_cell_length_c   7.48499122
_cell_angle_alpha   69.87403085
_cell_angle_beta   110.12596915
_cell_angle_gamma   143.97169892
_symmetry_Int_Tables_number   1
_chemical_formula_structural   Sr2Mg3H10
_chemical_formula_sum   'Sr4 Mg6 H20'
_cell_volume   348.72200646
_cell_formula_units_Z   2
loop_
 _symmetry_equiv_pos_site_id
 _symmetry_equiv_pos_as_xyz
  1  'x, y, z'
loop_
 _atom_site_type_symbol
 _atom_site_label
 _atom_site_symmetry_multiplicity
 _atom_site_fract_x
 _atom_site_fract_y
 _atom_site_fract_z
 _atom_site_occupancy
  Sr  Sr0  1  0.718981  0.281019  0.311183  1
  Sr  Sr1  1  0.281019  0.718981  0.688817  1
  Sr  Sr2  1  0.616734  0.383266  0.720749  1
  Sr  Sr3  1  0.383266  0.616734  0.279251  1
  Mg  Mg4  1  0.924554  0.075446  0.553586  1
  Mg  Mg5  1  0.075446  0.924554  0.446414  1
  Mg  Mg6  1  0.826021  0.173979  0.981890  1
  Mg  Mg7  1  0.173979  0.826021  0.018110  1
  Mg  Mg8  1  0.742255  0.742255  0.000000  1
  Mg  Mg9  1  0.257745  0.257745  0.000000  1
  H  H10  1  0.614128  0.840387  0.974243  1
  H  H11  1  0.159613  0.385872  0.974243  1
  H  H12  1  0.385872  0.159613  0.025757  1
  H  H13  1  0.840387  0.614128  0.025757  1
  H  H14  1  0.600377  0.908795  0.515944  1
  H  H15  1  0.091205  0.399623  0.515944  1
  H  H16  1  0.399623  0.091205  0.484056  1
  H  H17  1  0.908795  0.600377  0.484056  1
  H  H18  1  0.978346  0.021654  0.822838  1
  H  H19  1  0.021654  0.978346  0.177162  1
  H  H20  1  0.864260  0.135740  0.258071  1
  H  H21  1  0.135740  0.864260  0.741929  1
  H  H22  1  0.762885  0.237115  0.714599  1
  H  H23  1  0.237115  0.762885  0.285401  1
  H  H24  1  0.483606  0.516394  0.810885  1
  H  H25  1  0.516394  0.483606  0.189115  1
  H  H26  1  0.769006  0.769006  0.500000  1
  H  H27  1  0.230994  0.230994  0.500000  1
  H  H28  1  0.500000  0.000000  0.000000  1
  H  H29  1  0.000000  0.500000  0.000000  1
