# generated using pymatgen
data_Li6CrSn3(PO4)6
_symmetry_space_group_name_H-M   'P 1'
_cell_length_a   8.51566619
_cell_length_b   8.63150597
_cell_length_c   8.66443544
_cell_angle_alpha   63.69448373
_cell_angle_beta   65.25680341
_cell_angle_gamma   64.52298123
_symmetry_Int_Tables_number   1
_chemical_formula_structural   Li6CrSn3(PO4)6
_chemical_formula_sum   'Li6 Cr1 Sn3 P6 O24'
_cell_volume   494.53054399
_cell_formula_units_Z   1
loop_
 _symmetry_equiv_pos_site_id
 _symmetry_equiv_pos_as_xyz
  1  'x, y, z'
loop_
 _atom_site_type_symbol
 _atom_site_label
 _atom_site_symmetry_multiplicity
 _atom_site_fract_x
 _atom_site_fract_y
 _atom_site_fract_z
 _atom_site_occupancy
  Li  Li0  1  0.989452  0.978015  0.028349  1
  Li  Li1  1  0.159517  0.372622  0.742856  1
  Li  Li2  1  0.535339  0.515872  0.470661  1
  Li  Li3  1  0.860596  0.683492  0.228534  1
  Li  Li4  1  0.213210  0.865755  0.674381  1
  Li  Li5  1  0.681952  0.211281  0.865308  1
  Cr  Cr6  1  0.846336  0.836136  0.846550  1
  Sn  Sn7  1  0.148473  0.146684  0.144630  1
  Sn  Sn8  1  0.359991  0.352964  0.362748  1
  Sn  Sn9  1  0.656676  0.665868  0.667917  1
  P  P10  1  0.741489  0.418712  0.069701  1
  P  P11  1  0.078646  0.745359  0.413655  1
  P  P12  1  0.425855  0.062467  0.752659  1
  P  P13  1  0.555344  0.961392  0.248569  1
  P  P14  1  0.960863  0.242902  0.558283  1
  P  P15  1  0.237454  0.552652  0.953927  1
  O  O16  1  0.296135  0.490834  0.123238  1
  O  O17  1  0.505313  0.102019  0.340039  1
  O  O18  1  0.906266  0.241161  0.090365  1
  O  O19  1  0.108383  0.311558  0.552176  1
  O  O20  1  0.602452  0.413027  0.259789  1
  O  O21  1  0.797695  0.589157  0.002612  1
  O  O22  1  0.107741  0.902753  0.230598  1
  O  O23  1  0.266917  0.591038  0.418765  1
  O  O24  1  0.419782  0.256953  0.606736  1
  O  O25  1  0.405307  0.022379  0.159488  1
  O  O26  1  0.738061  0.959409  0.100836  1
  O  O27  1  0.033029  0.198152  0.381704  1
  O  O28  1  0.026454  0.802184  0.575998  1
  O  O29  1  0.239799  0.103773  0.899056  1
  O  O30  1  0.595254  0.000473  0.810267  1
  O  O31  1  0.573513  0.766793  0.385732  1
  O  O32  1  0.769645  0.381164  0.577487  1
  O  O33  1  0.951549  0.070935  0.727577  1
  O  O34  1  0.181009  0.397633  0.963682  1
  O  O35  1  0.380526  0.594587  0.770920  1
  O  O36  1  0.944495  0.678415  0.403524  1
  O  O37  1  0.071738  0.727536  0.956232  1
  O  O38  1  0.410611  0.929648  0.691088  1
  O  O39  1  0.666131  0.407250  0.943366  1
