# generated using pymatgen
data_LiV3O8
_symmetry_space_group_name_H-M   'P 1'
_cell_length_a   6.48546987
_cell_length_b   6.48546987
_cell_length_c   7.20275192
_cell_angle_alpha   70.97098996
_cell_angle_beta   109.02901004
_cell_angle_gamma   148.65764494
_symmetry_Int_Tables_number   1
_chemical_formula_structural   LiV3O8
_chemical_formula_sum   'Li1 V3 O8'
_cell_volume   148.27304792
_cell_formula_units_Z   1
loop_
 _symmetry_equiv_pos_site_id
 _symmetry_equiv_pos_as_xyz
  1  'x, y, z'
loop_
 _atom_site_type_symbol
 _atom_site_label
 _atom_site_symmetry_multiplicity
 _atom_site_fract_x
 _atom_site_fract_y
 _atom_site_fract_z
 _atom_site_occupancy
  Li  Li0  1  0.314481  0.685519  0.721746  1
  V  V1  1  0.396771  0.603229  0.251287  1
  V  V2  1  0.696504  0.303496  0.330429  1
  V  V3  1  0.597067  0.402933  0.764941  1
  O  O4  1  0.455693  0.544307  0.658027  1
  O  O5  1  0.361778  0.638222  0.012920  1
  O  O6  1  0.873611  0.126389  0.313098  1
  O  O7  1  0.233374  0.766626  0.285521  1
  O  O8  1  0.755201  0.244799  0.577023  1
  O  O9  1  0.138373  0.861627  0.716318  1
  O  O10  1  0.551334  0.448666  0.325910  1
  O  O11  1  0.628789  0.371211  0.012455  1
