# generated using pymatgen
data_LiNiPO4
_symmetry_space_group_name_H-M   'P 1'
_cell_length_a   4.90148631
_cell_length_b   6.34020192
_cell_length_c   8.99687362
_cell_angle_alpha   90.00000000
_cell_angle_beta   90.00000000
_cell_angle_gamma   90.00000000
_symmetry_Int_Tables_number   1
_chemical_formula_structural   LiNiPO4
_chemical_formula_sum   'Li4 Ni4 P4 O16'
_cell_volume   279.59055955
_cell_formula_units_Z   4
loop_
 _symmetry_equiv_pos_site_id
 _symmetry_equiv_pos_as_xyz
  1  'x, y, z'
loop_
 _atom_site_type_symbol
 _atom_site_label
 _atom_site_symmetry_multiplicity
 _atom_site_fract_x
 _atom_site_fract_y
 _atom_site_fract_z
 _atom_site_occupancy
  Li  Li0  1  0.540970  0.750000  0.159865  1
  Li  Li1  1  0.040970  0.250000  0.340135  1
  Li  Li2  1  0.959030  0.750000  0.659865  1
  Li  Li3  1  0.459030  0.250000  0.840135  1
  Ni  Ni4  1  0.000000  0.500000  0.000000  1
  Ni  Ni5  1  0.000000  0.000000  0.000000  1
  Ni  Ni6  1  0.500000  0.500000  0.500000  1
  Ni  Ni7  1  0.500000  0.000000  0.500000  1
  P  P8  1  0.527794  0.250000  0.179017  1
  P  P9  1  0.027794  0.750000  0.320983  1
  P  P10  1  0.972206  0.250000  0.679017  1
  P  P11  1  0.472206  0.750000  0.820983  1
  O  O12  1  0.219800  0.250000  0.133081  1
  O  O13  1  0.664215  0.451584  0.120294  1
  O  O14  1  0.664215  0.048416  0.120294  1
  O  O15  1  0.074080  0.750000  0.146458  1
  O  O16  1  0.574080  0.250000  0.353542  1
  O  O17  1  0.164215  0.548416  0.379706  1
  O  O18  1  0.164215  0.951584  0.379706  1
  O  O19  1  0.719800  0.750000  0.366919  1
  O  O20  1  0.280200  0.250000  0.633081  1
  O  O21  1  0.835785  0.451584  0.620294  1
  O  O22  1  0.835785  0.048416  0.620294  1
  O  O23  1  0.425920  0.750000  0.646458  1
  O  O24  1  0.925920  0.250000  0.853542  1
  O  O25  1  0.335785  0.951584  0.879706  1
  O  O26  1  0.335785  0.548416  0.879706  1
  O  O27  1  0.780200  0.750000  0.866919  1
