# generated using pymatgen
data_NaMn8O16
_symmetry_space_group_name_H-M   'P 1'
_cell_length_a   5.92428911
_cell_length_b   8.37996152
_cell_length_c   11.85828732
_cell_angle_alpha   90.00000000
_cell_angle_beta   90.00000000
_cell_angle_gamma   90.00000000
_symmetry_Int_Tables_number   1
_chemical_formula_structural   NaMn8O16
_chemical_formula_sum   'Na2 Mn16 O32'
_cell_volume   588.70840717
_cell_formula_units_Z   2
loop_
 _symmetry_equiv_pos_site_id
 _symmetry_equiv_pos_as_xyz
  1  'x, y, z'
loop_
 _atom_site_type_symbol
 _atom_site_label
 _atom_site_symmetry_multiplicity
 _atom_site_fract_x
 _atom_site_fract_y
 _atom_site_fract_z
 _atom_site_occupancy
  Na  Na0  1  0.000000  0.374255  0.500000  1
  Na  Na1  1  0.500000  0.625745  0.000000  1
  Mn  Mn2  1  0.252709  0.995087  0.500000  1
  Mn  Mn3  1  0.247291  0.004913  0.000000  1
  Mn  Mn4  1  0.747291  0.995087  0.500000  1
  Mn  Mn5  1  0.752709  0.004913  0.000000  1
  Mn  Mn6  1  0.500000  0.245174  0.126212  1
  Mn  Mn7  1  0.500000  0.245293  0.627383  1
  Mn  Mn8  1  0.500000  0.245293  0.372617  1
  Mn  Mn9  1  0.500000  0.245174  0.873788  1
  Mn  Mn10  1  0.750000  0.500000  0.750000  1
  Mn  Mn11  1  0.250000  0.500000  0.250000  1
  Mn  Mn12  1  0.750000  0.500000  0.250000  1
  Mn  Mn13  1  0.250000  0.500000  0.750000  1
  Mn  Mn14  1  0.000000  0.754826  0.626212  1
  Mn  Mn15  1  0.000000  0.754826  0.373788  1
  Mn  Mn16  1  0.000000  0.754707  0.872617  1
  Mn  Mn17  1  0.000000  0.754707  0.127383  1
  O  O18  1  0.500000  0.015344  0.107884  1
  O  O19  1  0.500000  0.010672  0.608958  1
  O  O20  1  0.500000  0.010672  0.391042  1
  O  O21  1  0.500000  0.015344  0.892116  1
  O  O22  1  0.715672  0.235101  0.000000  1
  O  O23  1  0.711512  0.226125  0.500000  1
  O  O24  1  0.284328  0.235101  0.000000  1
  O  O25  1  0.288488  0.226125  0.500000  1
  O  O26  1  0.718557  0.263989  0.251297  1
  O  O27  1  0.281443  0.263989  0.748703  1
  O  O28  1  0.718557  0.263989  0.748703  1
  O  O29  1  0.281443  0.263989  0.251297  1
  O  O30  1  0.500000  0.478087  0.855701  1
  O  O31  1  0.500000  0.478087  0.144299  1
  O  O32  1  0.500000  0.480076  0.359702  1
  O  O33  1  0.500000  0.480076  0.640298  1
  O  O34  1  0.000000  0.521913  0.644299  1
  O  O35  1  0.000000  0.519924  0.140298  1
  O  O36  1  0.000000  0.521913  0.355701  1
  O  O37  1  0.000000  0.519924  0.859702  1
  O  O38  1  0.218557  0.736011  0.248703  1
  O  O39  1  0.781443  0.736011  0.751297  1
  O  O40  1  0.218557  0.736011  0.751297  1
  O  O41  1  0.781443  0.736011  0.248703  1
  O  O42  1  0.211512  0.773875  0.000000  1
  O  O43  1  0.215672  0.764899  0.500000  1
  O  O44  1  0.784328  0.764899  0.500000  1
  O  O45  1  0.788488  0.773875  0.000000  1
  O  O46  1  0.000000  0.984656  0.607884  1
  O  O47  1  0.000000  0.984656  0.392116  1
  O  O48  1  0.000000  0.989328  0.891042  1
  O  O49  1  0.000000  0.989328  0.108958  1
