# generated using pymatgen
data_Ca4Ta2O9
_symmetry_space_group_name_H-M   'P 1'
_cell_length_a   9.90674840
_cell_length_b   5.57809475
_cell_length_c   17.22663437
_cell_angle_alpha   90.00000000
_cell_angle_beta   124.13423927
_cell_angle_gamma   90.00000000
_symmetry_Int_Tables_number   1
_chemical_formula_structural   Ca4Ta2O9
_chemical_formula_sum   'Ca16 Ta8 O36'
_cell_volume   787.95898198
_cell_formula_units_Z   4
loop_
 _symmetry_equiv_pos_site_id
 _symmetry_equiv_pos_as_xyz
  1  'x, y, z'
loop_
 _atom_site_type_symbol
 _atom_site_label
 _atom_site_symmetry_multiplicity
 _atom_site_fract_x
 _atom_site_fract_y
 _atom_site_fract_z
 _atom_site_occupancy
  Ca  Ca0  1  0.500000  0.000000  0.500000  1
  Ca  Ca1  1  0.000000  0.000000  0.000000  1
  Ca  Ca2  1  0.785019  0.997891  0.770033  1
  Ca  Ca3  1  0.547731  0.481971  0.394745  1
  Ca  Ca4  1  0.120572  0.516714  0.926982  1
  Ca  Ca5  1  0.879428  0.016714  0.573018  1
  Ca  Ca6  1  0.452269  0.981971  0.105255  1
  Ca  Ca7  1  0.214981  0.497891  0.729967  1
  Ca  Ca8  1  0.000000  0.500000  0.500000  1
  Ca  Ca9  1  0.785019  0.502109  0.270033  1
  Ca  Ca10  1  0.500000  0.500000  0.000000  1
  Ca  Ca11  1  0.547731  0.018029  0.894745  1
  Ca  Ca12  1  0.120572  0.983286  0.426982  1
  Ca  Ca13  1  0.879428  0.483286  0.073018  1
  Ca  Ca14  1  0.452269  0.518029  0.605255  1
  Ca  Ca15  1  0.214981  0.002109  0.229967  1
  Ta  Ta16  1  0.325918  0.491182  0.164092  1
  Ta  Ta17  1  0.831453  0.509813  0.663674  1
  Ta  Ta18  1  0.674082  0.991182  0.335908  1
  Ta  Ta19  1  0.168547  0.009813  0.836326  1
  Ta  Ta20  1  0.831453  0.990187  0.163674  1
  Ta  Ta21  1  0.325918  0.008818  0.664092  1
  Ta  Ta22  1  0.168547  0.490187  0.336326  1
  Ta  Ta23  1  0.674082  0.508818  0.835908  1
  O  O24  1  0.276216  0.590486  0.265042  1
  O  O25  1  0.121856  0.321029  0.101048  1
  O  O26  1  0.698689  0.797275  0.628984  1
  O  O27  1  0.671359  0.330194  0.553008  1
  O  O28  1  0.236066  0.788997  0.096532  1
  O  O29  1  0.056814  0.117022  0.893490  1
  O  O30  1  0.622377  0.884967  0.423701  1
  O  O31  1  0.453773  0.197047  0.249755  1
  O  O32  1  0.020328  0.710238  0.782098  1
  O  O33  1  0.979672  0.210238  0.717902  1
  O  O34  1  0.546227  0.697047  0.250245  1
  O  O35  1  0.377623  0.384967  0.076299  1
  O  O36  1  0.943186  0.617022  0.606510  1
  O  O37  1  0.763934  0.288997  0.403468  1
  O  O38  1  0.328641  0.830194  0.946992  1
  O  O39  1  0.301311  0.297275  0.871016  1
  O  O40  1  0.878144  0.821029  0.398952  1
  O  O41  1  0.723784  0.090486  0.234958  1
  O  O42  1  0.276216  0.909514  0.765042  1
  O  O43  1  0.121856  0.178971  0.601048  1
  O  O44  1  0.698689  0.702725  0.128984  1
  O  O45  1  0.671359  0.169806  0.053008  1
  O  O46  1  0.236066  0.711003  0.596532  1
  O  O47  1  0.056814  0.382978  0.393490  1
  O  O48  1  0.622377  0.615033  0.923701  1
  O  O49  1  0.453773  0.302953  0.749755  1
  O  O50  1  0.020328  0.789762  0.282098  1
  O  O51  1  0.979672  0.289762  0.217902  1
  O  O52  1  0.546227  0.802953  0.750245  1
  O  O53  1  0.377623  0.115033  0.576299  1
  O  O54  1  0.943186  0.882978  0.106510  1
  O  O55  1  0.763934  0.211003  0.903468  1
  O  O56  1  0.328641  0.669806  0.446992  1
  O  O57  1  0.301311  0.202725  0.371016  1
  O  O58  1  0.878144  0.678971  0.898952  1
  O  O59  1  0.723784  0.409514  0.734958  1
