# generated using pymatgen
data_Li11Fe12(BO3)12
_symmetry_space_group_name_H-M   'P 1'
_cell_length_a   9.06040934
_cell_length_b   9.06624206
_cell_length_c   11.46548082
_cell_angle_alpha   88.94186181
_cell_angle_beta   113.22462430
_cell_angle_gamma   119.88370125
_symmetry_Int_Tables_number   1
_chemical_formula_structural   Li11Fe12(BO3)12
_chemical_formula_sum   'Li11 Fe12 B12 O36'
_cell_volume   731.45427161
_cell_formula_units_Z   1
loop_
 _symmetry_equiv_pos_site_id
 _symmetry_equiv_pos_as_xyz
  1  'x, y, z'
loop_
 _atom_site_type_symbol
 _atom_site_label
 _atom_site_symmetry_multiplicity
 _atom_site_fract_x
 _atom_site_fract_y
 _atom_site_fract_z
 _atom_site_occupancy
  Li  Li0  1  0.989874  0.574925  0.412565  1
  Li  Li1  1  0.730534  0.277222  0.160441  1
  Li  Li2  1  0.653197  0.912109  0.413748  1
  Li  Li3  1  0.714569  0.783329  0.667988  1
  Li  Li4  1  0.391535  0.609685  0.161250  1
  Li  Li5  1  0.666138  0.409716  0.907428  1
  Li  Li6  1  0.318551  0.245869  0.399105  1
  Li  Li7  1  0.388082  0.115160  0.667119  1
  Li  Li8  1  0.059218  0.944918  0.157800  1
  Li  Li9  1  0.334035  0.740706  0.911394  1
  Li  Li10  1  0.045729  0.445176  0.664707  1
  Fe  Fe11  1  0.631541  0.233579  0.380770  1
  Fe  Fe12  1  0.373963  0.939477  0.127252  1
  Fe  Fe13  1  0.290498  0.384794  0.883230  1
  Fe  Fe14  1  0.305647  0.564655  0.378932  1
  Fe  Fe15  1  0.032097  0.103540  0.640258  1
  Fe  Fe16  1  0.038835  0.269499  0.119731  1
  Fe  Fe17  1  0.983541  0.757203  0.884979  1
  Fe  Fe18  1  0.970870  0.904133  0.379463  1
  Fe  Fe19  1  0.699672  0.444798  0.635909  1
  Fe  Fe20  1  0.699068  0.598873  0.123592  1
  Fe  Fe21  1  0.657130  0.061911  0.880083  1
  Fe  Fe22  1  0.363579  0.768080  0.633498  1
  B  B23  1  0.298858  0.896612  0.375597  1
  B  B24  1  0.032341  0.602389  0.127278  1
  B  B25  1  0.624849  0.722031  0.872251  1
  B  B26  1  0.971886  0.234226  0.374279  1
  B  B27  1  0.357966  0.429769  0.622405  1
  B  B28  1  0.698900  0.932873  0.128658  1
  B  B29  1  0.317146  0.067616  0.874378  1
  B  B30  1  0.641877  0.576472  0.376969  1
  B  B31  1  0.024568  0.764858  0.618653  1
  B  B32  1  0.369340  0.269112  0.135894  1
  B  B33  1  0.971829  0.413269  0.875506  1
  B  B34  1  0.696794  0.099995  0.626475  1
  O  O35  1  0.488947  0.204807  0.163659  1
  O  O36  1  0.094400  0.767644  0.099838  1
  O  O37  1  0.848125  0.499503  0.114051  1
  O  O38  1  0.238722  0.741615  0.415020  1
  O  O39  1  0.453948  0.970508  0.346979  1
  O  O40  1  0.878118  0.319069  0.362736  1
  O  O41  1  0.762880  0.996941  0.609609  1
  O  O42  1  0.150935  0.537805  0.164984  1
  O  O43  1  0.210880  0.366871  0.657911  1
  O  O44  1  0.757616  0.090580  0.090252  1
  O  O45  1  0.433648  0.595010  0.593541  1
  O  O46  1  0.516180  0.829862  0.116423  1
  O  O47  1  0.785952  0.806238  0.855475  1
  O  O48  1  0.906915  0.071086  0.410216  1
  O  O49  1  0.571043  0.568630  0.918185  1
  O  O50  1  0.125832  0.302579  0.346413  1
  O  O51  1  0.200514  0.132595  0.840334  1
  O  O52  1  0.550745  0.664461  0.361920  1
  O  O53  1  0.429966  0.328946  0.612222  1
  O  O54  1  0.824142  0.871901  0.177230  1
  O  O55  1  0.884761  0.710431  0.659296  1
  O  O56  1  0.424178  0.429950  0.100684  1
  O  O57  1  0.093072  0.926832  0.579331  1
  O  O58  1  0.202300  0.175736  0.144848  1
  O  O59  1  0.484199  0.154245  0.862457  1
  O  O60  1  0.581192  0.418378  0.413585  1
  O  O61  1  0.260154  0.910171  0.915688  1
  O  O62  1  0.803059  0.649788  0.351200  1
  O  O63  1  0.858923  0.484570  0.843031  1
  O  O64  1  0.203081  0.984116  0.363497  1
  O  O65  1  0.098219  0.665102  0.612904  1
  O  O66  1  0.555873  0.035037  0.669300  1
  O  O67  1  0.766453  0.264180  0.596937  1
  O  O68  1  0.139079  0.496628  0.861504  1
  O  O69  1  0.917123  0.261684  0.919843  1
  O  O70  1  0.512073  0.793652  0.843437  1
