# generated using pymatgen
data_PH3NF5
_symmetry_space_group_name_H-M   'P 1'
_cell_length_a   4.86667490
_cell_length_b   9.39886572
_cell_length_c   9.83667388
_cell_angle_alpha   90.00000000
_cell_angle_beta   118.29994529
_cell_angle_gamma   90.00000000
_symmetry_Int_Tables_number   1
_chemical_formula_structural   PH3NF5
_chemical_formula_sum   'P4 H12 N4 F20'
_cell_volume   396.16350657
_cell_formula_units_Z   4
loop_
 _symmetry_equiv_pos_site_id
 _symmetry_equiv_pos_as_xyz
  1  'x, y, z'
loop_
 _atom_site_type_symbol
 _atom_site_label
 _atom_site_symmetry_multiplicity
 _atom_site_fract_x
 _atom_site_fract_y
 _atom_site_fract_z
 _atom_site_occupancy
  P  P0  1  0.873500  0.388580  0.251088  1
  P  P1  1  0.126500  0.888580  0.248912  1
  P  P2  1  0.873500  0.111420  0.751088  1
  P  P3  1  0.126500  0.611420  0.748912  1
  H  H4  1  0.366397  0.342050  0.030918  1
  H  H5  1  0.629045  0.226539  0.033083  1
  H  H6  1  0.474862  0.203700  0.150931  1
  H  H7  1  0.525138  0.703699  0.349069  1
  H  H8  1  0.633603  0.842050  0.469082  1
  H  H9  1  0.370955  0.726539  0.466917  1
  H  H10  1  0.629045  0.273461  0.533083  1
  H  H11  1  0.366397  0.157950  0.530918  1
  H  H12  1  0.474862  0.296300  0.650931  1
  H  H13  1  0.525138  0.796300  0.849069  1
  H  H14  1  0.370955  0.773461  0.966917  1
  H  H15  1  0.633603  0.657950  0.969082  1
  N  N16  1  0.552418  0.278784  0.100902  1
  N  N17  1  0.447582  0.778784  0.399098  1
  N  N18  1  0.552418  0.221216  0.600902  1
  N  N19  1  0.447582  0.721216  0.899098  1
  F  F20  1  0.141336  0.789309  0.114926  1
  F  F21  1  0.875588  0.480011  0.110391  1
  F  F22  1  0.846879  0.982391  0.119995  1
  F  F23  1  0.121622  0.275844  0.243166  1
  F  F24  1  0.392000  0.993052  0.247911  1
  F  F25  1  0.608000  0.493052  0.252089  1
  F  F26  1  0.878378  0.775844  0.256834  1
  F  F27  1  0.858664  0.289309  0.385074  1
  F  F28  1  0.153121  0.482391  0.380005  1
  F  F29  1  0.124412  0.980011  0.389609  1
  F  F30  1  0.875588  0.019989  0.610391  1
  F  F31  1  0.846879  0.517609  0.619995  1
  F  F32  1  0.141336  0.710691  0.614926  1
  F  F33  1  0.121622  0.224156  0.743166  1
  F  F34  1  0.392000  0.506948  0.747911  1
  F  F35  1  0.608000  0.006948  0.752089  1
  F  F36  1  0.878378  0.724156  0.756834  1
  F  F37  1  0.153121  0.017609  0.880005  1
  F  F38  1  0.124412  0.519989  0.889609  1
  F  F39  1  0.858664  0.210691  0.885074  1
