# generated using pymatgen
data_Li3Fe8(BO3)8
_symmetry_space_group_name_H-M   'P 1'
_cell_length_a   5.25584236
_cell_length_b   5.27095839
_cell_length_c   20.07931482
_cell_angle_alpha   90.31010027
_cell_angle_beta   90.40631763
_cell_angle_gamma   119.25181157
_symmetry_Int_Tables_number   1
_chemical_formula_structural   Li3Fe8(BO3)8
_chemical_formula_sum   'Li3 Fe8 B8 O24'
_cell_volume   485.29203235
_cell_formula_units_Z   1
loop_
 _symmetry_equiv_pos_site_id
 _symmetry_equiv_pos_as_xyz
  1  'x, y, z'
loop_
 _atom_site_type_symbol
 _atom_site_label
 _atom_site_symmetry_multiplicity
 _atom_site_fract_x
 _atom_site_fract_y
 _atom_site_fract_z
 _atom_site_occupancy
  Li  Li0  1  0.641809  0.667126  0.081128  1
  Li  Li1  1  0.666217  0.642225  0.829183  1
  Li  Li2  1  0.344042  0.344506  0.450766  1
  Fe  Fe3  1  0.018343  0.677083  0.189537  1
  Fe  Fe4  1  0.998983  0.673395  0.690185  1
  Fe  Fe5  1  0.315697  0.008484  0.062909  1
  Fe  Fe6  1  0.324845  0.994913  0.564952  1
  Fe  Fe7  1  0.681114  0.993680  0.439250  1
  Fe  Fe8  1  0.676263  0.015407  0.939353  1
  Fe  Fe9  1  0.995214  0.333359  0.316517  1
  Fe  Fe10  1  0.008584  0.314371  0.812669  1
  B  B11  1  0.996246  0.336985  0.064166  1
  B  B12  1  0.997703  0.337091  0.563353  1
  B  B13  1  0.673444  0.012034  0.188239  1
  B  B14  1  0.660760  0.003117  0.687964  1
  B  B15  1  0.337913  0.001712  0.314873  1
  B  B16  1  0.338728  0.994878  0.814076  1
  B  B17  1  0.001295  0.664709  0.440250  1
  B  B18  1  0.009736  0.671313  0.936756  1
  O  O19  1  0.887813  0.275632  0.215143  1
  O  O20  1  0.882841  0.271811  0.709737  1
  O  O21  1  0.745517  0.082925  0.041275  1
  O  O22  1  0.964989  0.574076  0.086649  1
  O  O23  1  0.725770  0.114619  0.543692  1
  O  O24  1  0.020632  0.598280  0.586710  1
  O  O25  1  0.407399  0.984375  0.168055  1
  O  O26  1  0.737451  0.651166  0.440103  1
  O  O27  1  0.395786  0.983962  0.666697  1
  O  O28  1  0.778167  0.719397  0.928761  1
  O  O29  1  0.726515  0.786119  0.177888  1
  O  O30  1  0.695978  0.764433  0.690005  1
  O  O31  1  0.287979  0.229100  0.322309  1
  O  O32  1  0.351251  0.257813  0.815155  1
  O  O33  1  0.261177  0.352001  0.065599  1
  O  O34  1  0.601650  0.022892  0.334425  1
  O  O35  1  0.238237  0.303647  0.555220  1
  O  O36  1  0.578195  0.966054  0.836309  1
  O  O37  1  0.031075  0.426217  0.417759  1
  O  O38  1  0.978082  0.402565  0.918748  1
  O  O39  1  0.256262  0.913613  0.462528  1
  O  O40  1  0.274634  0.887723  0.961193  1
  O  O41  1  0.119596  0.733949  0.288949  1
  O  O42  1  0.085847  0.742273  0.791668  1
