# generated using pymatgen
data_Li3VF5
_symmetry_space_group_name_H-M   'P 1'
_cell_length_a   6.80653456
_cell_length_b   7.56735686
_cell_length_c   8.35083991
_cell_angle_alpha   90.00000000
_cell_angle_beta   90.00000000
_cell_angle_gamma   90.00000000
_symmetry_Int_Tables_number   1
_chemical_formula_structural   Li3VF5
_chemical_formula_sum   'Li12 V4 F20'
_cell_volume   430.13068621
_cell_formula_units_Z   4
loop_
 _symmetry_equiv_pos_site_id
 _symmetry_equiv_pos_as_xyz
  1  'x, y, z'
loop_
 _atom_site_type_symbol
 _atom_site_label
 _atom_site_symmetry_multiplicity
 _atom_site_fract_x
 _atom_site_fract_y
 _atom_site_fract_z
 _atom_site_occupancy
  Li  Li0  1  0.145477  0.250000  0.123050  1
  Li  Li1  1  0.737113  0.946113  0.124117  1
  Li  Li2  1  0.737113  0.553887  0.124117  1
  Li  Li3  1  0.237113  0.446113  0.375883  1
  Li  Li4  1  0.237113  0.053887  0.375883  1
  Li  Li5  1  0.645477  0.750000  0.376950  1
  Li  Li6  1  0.354523  0.250000  0.623050  1
  Li  Li7  1  0.762887  0.946113  0.624117  1
  Li  Li8  1  0.762887  0.553887  0.624117  1
  Li  Li9  1  0.262887  0.446113  0.875883  1
  Li  Li10  1  0.262887  0.053887  0.875883  1
  Li  Li11  1  0.854523  0.750000  0.876950  1
  V  V12  1  0.249000  0.750000  0.125099  1
  V  V13  1  0.749000  0.250000  0.374901  1
  V  V14  1  0.251000  0.750000  0.625099  1
  V  V15  1  0.751000  0.250000  0.874901  1
  F  F16  1  0.938645  0.750000  0.091216  1
  F  F17  1  0.261511  0.472968  0.124195  1
  F  F18  1  0.261511  0.027032  0.124195  1
  F  F19  1  0.720517  0.250000  0.124891  1
  F  F20  1  0.557027  0.750000  0.162521  1
  F  F21  1  0.057027  0.250000  0.337479  1
  F  F22  1  0.220517  0.750000  0.375109  1
  F  F23  1  0.761511  0.972968  0.375805  1
  F  F24  1  0.761511  0.527032  0.375805  1
  F  F25  1  0.438645  0.250000  0.408784  1
  F  F26  1  0.561355  0.750000  0.591216  1
  F  F27  1  0.238489  0.472968  0.624195  1
  F  F28  1  0.238489  0.027032  0.624195  1
  F  F29  1  0.779483  0.250000  0.624891  1
  F  F30  1  0.942973  0.750000  0.662521  1
  F  F31  1  0.442973  0.250000  0.837479  1
  F  F32  1  0.279483  0.750000  0.875109  1
  F  F33  1  0.738489  0.972968  0.875805  1
  F  F34  1  0.738489  0.527032  0.875805  1
  F  F35  1  0.061355  0.250000  0.908784  1
