# generated using pymatgen
data_Li2CrO2
_symmetry_space_group_name_H-M   'P 1'
_cell_length_a   3.49453881
_cell_length_b   3.49453881
_cell_length_c   5.47704590
_cell_angle_alpha   79.51451340
_cell_angle_beta   100.48548660
_cell_angle_gamma   129.65848957
_symmetry_Int_Tables_number   1
_chemical_formula_structural   Li2CrO2
_chemical_formula_sum   'Li2 Cr1 O2'
_cell_volume   50.44018561
_cell_formula_units_Z   1
loop_
 _symmetry_equiv_pos_site_id
 _symmetry_equiv_pos_as_xyz
  1  'x, y, z'
loop_
 _atom_site_type_symbol
 _atom_site_label
 _atom_site_symmetry_multiplicity
 _atom_site_fract_x
 _atom_site_fract_y
 _atom_site_fract_z
 _atom_site_occupancy
  Li  Li0  1  0.327223  0.672777  0.869125  1
  Li  Li1  1  0.672777  0.327223  0.130875  1
  Cr  Cr2  1  0.000000  0.000000  0.500000  1
  O  O3  1  0.388373  0.611627  0.241119  1
  O  O4  1  0.611627  0.388373  0.758881  1
