# generated using pymatgen
data_Fe3OF5
_symmetry_space_group_name_H-M   'P 1'
_cell_length_a   5.76338357
_cell_length_b   5.76971231
_cell_length_c   7.42558832
_cell_angle_alpha   73.23816654
_cell_angle_beta   73.86052843
_cell_angle_gamma   71.24032205
_symmetry_Int_Tables_number   1
_chemical_formula_structural   Fe3OF5
_chemical_formula_sum   'Fe6 O2 F10'
_cell_volume   219.15005300
_cell_formula_units_Z   2
loop_
 _symmetry_equiv_pos_site_id
 _symmetry_equiv_pos_as_xyz
  1  'x, y, z'
loop_
 _atom_site_type_symbol
 _atom_site_label
 _atom_site_symmetry_multiplicity
 _atom_site_fract_x
 _atom_site_fract_y
 _atom_site_fract_z
 _atom_site_occupancy
  Fe  Fe0  1  0.640108  0.668028  0.842399  1
  Fe  Fe1  1  0.311346  0.322374  0.667880  1
  Fe  Fe2  1  0.668002  0.676665  0.332236  1
  Fe  Fe3  1  0.327688  0.354053  0.162068  1
  Fe  Fe4  1  0.004779  0.004081  0.511782  1
  Fe  Fe5  1  0.029658  0.985018  0.981686  1
  O  O6  1  0.088350  0.087536  0.722945  1
  O  O7  1  0.317249  0.706274  0.991513  1
  F  F8  1  0.002327  0.626916  0.676589  1
  F  F9  1  0.368508  0.974374  0.331172  1
  F  F10  1  0.919186  0.912702  0.276540  1
  F  F11  1  0.230215  0.224480  0.974675  1
  F  F12  1  0.563462  0.557481  0.638433  1
  F  F13  1  0.782322  0.773310  0.020376  1
  F  F14  1  0.438262  0.432896  0.370166  1
  F  F15  1  0.965239  0.375208  0.335065  1
  F  F16  1  0.624332  0.012967  0.670475  1
  F  F17  1  0.718967  0.305635  0.993999  1
