# generated using pymatgen
data_NaCu2H2(SeO5)2
_symmetry_space_group_name_H-M   'P 1'
_cell_length_a   5.68401233
_cell_length_b   5.68401233
_cell_length_c   7.92609010
_cell_angle_alpha   64.76503967
_cell_angle_beta   115.23496033
_cell_angle_gamma   111.93548118
_symmetry_Int_Tables_number   1
_chemical_formula_structural   NaCu2H2(SeO5)2
_chemical_formula_sum   'Na1 Cu2 H2 Se2 O10'
_cell_volume   203.69409817
_cell_formula_units_Z   1
loop_
 _symmetry_equiv_pos_site_id
 _symmetry_equiv_pos_as_xyz
  1  'x, y, z'
loop_
 _atom_site_type_symbol
 _atom_site_label
 _atom_site_symmetry_multiplicity
 _atom_site_fract_x
 _atom_site_fract_y
 _atom_site_fract_z
 _atom_site_occupancy
  Na  Na0  1  0.500000  0.500000  0.500000  1
  Cu  Cu1  1  0.500000  0.000000  0.000000  1
  Cu  Cu2  1  0.000000  0.500000  0.000000  1
  H  H3  1  0.288684  0.711316  0.796328  1
  H  H4  1  0.711316  0.288684  0.203672  1
  Se  Se5  1  0.915525  0.084475  0.700529  1
  Se  Se6  1  0.084475  0.915525  0.299471  1
  O  O7  1  0.817134  0.182866  0.825751  1
  O  O8  1  0.182866  0.817134  0.174249  1
  O  O9  1  0.773294  0.226706  0.463540  1
  O  O10  1  0.226706  0.773294  0.536460  1
  O  O11  1  0.814946  0.743598  0.752087  1
  O  O12  1  0.256402  0.185054  0.752087  1
  O  O13  1  0.185054  0.256402  0.247913  1
  O  O14  1  0.743598  0.814946  0.247913  1
  O  O15  1  0.323976  0.676024  0.938295  1
  O  O16  1  0.676024  0.323976  0.061705  1
