# generated using pymatgen
data_Sb2(SO4)3
_symmetry_space_group_name_H-M   'P 1'
_cell_length_a   9.23031391
_cell_length_b   9.21486637
_cell_length_c   15.75673779
_cell_angle_alpha   90.00000000
_cell_angle_beta   125.83976078
_cell_angle_gamma   90.00000000
_symmetry_Int_Tables_number   1
_chemical_formula_structural   Sb2(SO4)3
_chemical_formula_sum   'Sb8 S12 O48'
_cell_volume   1086.44895499
_cell_formula_units_Z   4
loop_
 _symmetry_equiv_pos_site_id
 _symmetry_equiv_pos_as_xyz
  1  'x, y, z'
loop_
 _atom_site_type_symbol
 _atom_site_label
 _atom_site_symmetry_multiplicity
 _atom_site_fract_x
 _atom_site_fract_y
 _atom_site_fract_z
 _atom_site_occupancy
  Sb  Sb0  1  0.369512  0.463542  0.618609  1
  Sb  Sb1  1  0.630488  0.963542  0.881391  1
  Sb  Sb2  1  0.864747  0.535629  0.116436  1
  Sb  Sb3  1  0.135253  0.035629  0.383564  1
  Sb  Sb4  1  0.864747  0.964371  0.616436  1
  Sb  Sb5  1  0.135253  0.464371  0.883564  1
  Sb  Sb6  1  0.369512  0.036458  0.118609  1
  Sb  Sb7  1  0.630488  0.536458  0.381391  1
  S  S8  1  0.455887  0.754466  0.493723  1
  S  S9  1  0.746007  0.617181  0.846152  1
  S  S10  1  0.052149  0.893272  0.153786  1
  S  S11  1  0.253993  0.117181  0.653848  1
  S  S12  1  0.947851  0.393272  0.346214  1
  S  S13  1  0.544113  0.254466  0.006277  1
  S  S14  1  0.455887  0.745534  0.993723  1
  S  S15  1  0.052149  0.606728  0.653786  1
  S  S16  1  0.746007  0.882819  0.346152  1
  S  S17  1  0.947851  0.106728  0.846214  1
  S  S18  1  0.253993  0.382819  0.153848  1
  S  S19  1  0.544113  0.245534  0.506277  1
  O  O20  1  0.405612  0.133455  0.441074  1
  O  O21  1  0.790604  0.116925  0.850319  1
  O  O22  1  0.526891  0.301406  0.588617  1
  O  O23  1  0.116961  0.404270  0.174290  1
  O  O24  1  0.476319  0.635416  0.563349  1
  O  O25  1  0.672165  0.766870  0.810766  1
  O  O26  1  0.826177  0.598512  0.958897  1
  O  O27  1  0.087499  0.010793  0.230535  1
  O  O28  1  0.028904  0.752627  0.189997  1
  O  O29  1  0.273629  0.820006  0.440900  1
  O  O30  1  0.889995  0.934902  0.050067  1
  O  O31  1  0.599394  0.507439  0.785307  1
  O  O32  1  0.400606  0.007439  0.714693  1
  O  O33  1  0.110005  0.434902  0.449933  1
  O  O34  1  0.726371  0.320006  0.059100  1
  O  O35  1  0.971096  0.252627  0.310003  1
  O  O36  1  0.173823  0.098512  0.541103  1
  O  O37  1  0.912501  0.510793  0.269465  1
  O  O38  1  0.327835  0.266870  0.689234  1
  O  O39  1  0.523681  0.135416  0.936651  1
  O  O40  1  0.473109  0.801406  0.911383  1
  O  O41  1  0.209396  0.616925  0.649681  1
  O  O42  1  0.883039  0.904270  0.325710  1
  O  O43  1  0.594388  0.633455  0.058926  1
  O  O44  1  0.405612  0.366545  0.941074  1
  O  O45  1  0.116961  0.095730  0.674290  1
  O  O46  1  0.790604  0.383075  0.350319  1
  O  O47  1  0.526891  0.198594  0.088617  1
  O  O48  1  0.476319  0.864584  0.063349  1
  O  O49  1  0.672165  0.733130  0.310766  1
  O  O50  1  0.087499  0.489207  0.730535  1
  O  O51  1  0.826177  0.901488  0.458897  1
  O  O52  1  0.028904  0.747373  0.689997  1
  O  O53  1  0.273629  0.679994  0.940900  1
  O  O54  1  0.889995  0.565098  0.550067  1
  O  O55  1  0.599394  0.992561  0.285307  1
  O  O56  1  0.400606  0.492561  0.214693  1
  O  O57  1  0.110005  0.065098  0.949933  1
  O  O58  1  0.726371  0.179994  0.559100  1
  O  O59  1  0.971096  0.247373  0.810003  1
  O  O60  1  0.912501  0.989207  0.769465  1
  O  O61  1  0.173823  0.401488  0.041103  1
  O  O62  1  0.327835  0.233130  0.189234  1
  O  O63  1  0.523681  0.364584  0.436651  1
  O  O64  1  0.883039  0.595730  0.825710  1
  O  O65  1  0.473109  0.698594  0.411383  1
  O  O66  1  0.209396  0.883075  0.149681  1
  O  O67  1  0.594388  0.866545  0.558926  1
