# generated using pymatgen
data_Li4Mn2Fe3Ni3O16
_symmetry_space_group_name_H-M   'P 1'
_cell_length_a   5.83062758
_cell_length_b   5.83062758
_cell_length_c   9.37816809
_cell_angle_alpha   88.51077134
_cell_angle_beta   91.48922866
_cell_angle_gamma   120.78708875
_symmetry_Int_Tables_number   1
_chemical_formula_structural   Li4Mn2Fe3Ni3O16
_chemical_formula_sum   'Li4 Mn2 Fe3 Ni3 O16'
_cell_volume   273.76991453
_cell_formula_units_Z   1
loop_
 _symmetry_equiv_pos_site_id
 _symmetry_equiv_pos_as_xyz
  1  'x, y, z'
loop_
 _atom_site_type_symbol
 _atom_site_label
 _atom_site_symmetry_multiplicity
 _atom_site_fract_x
 _atom_site_fract_y
 _atom_site_fract_z
 _atom_site_occupancy
  Li  Li0  1  0.662182  0.337818  0.895283  1
  Li  Li1  1  0.996784  0.003216  0.991984  1
  Li  Li2  1  0.997692  0.002308  0.494764  1
  Li  Li3  1  0.333774  0.666226  0.400567  1
  Mn  Mn4  1  0.672069  0.327931  0.486973  1
  Mn  Mn5  1  0.332203  0.667797  0.984225  1
  Fe  Fe6  1  0.339460  0.169717  0.213212  1
  Fe  Fe7  1  0.830283  0.660540  0.213212  1
  Fe  Fe8  1  0.169272  0.830728  0.713676  1
  Ni  Ni9  1  0.829276  0.170724  0.211173  1
  Ni  Ni10  1  0.167259  0.340596  0.712560  1
  Ni  Ni11  1  0.659404  0.832741  0.712560  1
  O  O12  1  0.339073  0.155247  0.596176  1
  O  O13  1  0.520295  0.479705  0.347762  1
  O  O14  1  0.671742  0.328258  0.105712  1
  O  O15  1  0.993042  0.006958  0.304033  1
  O  O16  1  0.993784  0.006216  0.803315  1
  O  O17  1  0.844753  0.660927  0.596176  1
  O  O18  1  0.518917  0.039294  0.348619  1
  O  O19  1  0.960706  0.481083  0.348619  1
  O  O20  1  0.169532  0.830468  0.100004  1
  O  O21  1  0.838392  0.161608  0.594960  1
  O  O22  1  0.034883  0.531181  0.846587  1
  O  O23  1  0.468819  0.965117  0.846587  1
  O  O24  1  0.338429  0.661571  0.610898  1
  O  O25  1  0.171484  0.336312  0.092454  1
  O  O26  1  0.475371  0.524629  0.843407  1
  O  O27  1  0.663688  0.828516  0.092454  1
