# generated using pymatgen
data_Li2Cu(PO3)4
_symmetry_space_group_name_H-M   'P 1'
_cell_length_a   7.90803628
_cell_length_b   7.90803628
_cell_length_c   8.26614054
_cell_angle_alpha   84.36345576
_cell_angle_beta   95.63654424
_cell_angle_gamma   77.20518355
_symmetry_Int_Tables_number   1
_chemical_formula_structural   Li2Cu(PO3)4
_chemical_formula_sum   'Li4 Cu2 P8 O24'
_cell_volume   497.81858942
_cell_formula_units_Z   2
loop_
 _symmetry_equiv_pos_site_id
 _symmetry_equiv_pos_as_xyz
  1  'x, y, z'
loop_
 _atom_site_type_symbol
 _atom_site_label
 _atom_site_symmetry_multiplicity
 _atom_site_fract_x
 _atom_site_fract_y
 _atom_site_fract_z
 _atom_site_occupancy
  Li  Li0  1  0.451269  0.178370  0.051344  1
  Li  Li1  1  0.821630  0.548731  0.551344  1
  Li  Li2  1  0.165247  0.477340  0.457298  1
  Li  Li3  1  0.522660  0.834753  0.957298  1
  Cu  Cu4  1  0.816650  0.894695  0.253476  1
  Cu  Cu5  1  0.105305  0.183350  0.753476  1
  P  P6  1  0.925924  0.241225  0.311524  1
  P  P7  1  0.758775  0.074076  0.811524  1
  P  P8  1  0.817856  0.555835  0.078319  1
  P  P9  1  0.444165  0.182144  0.578319  1
  P  P10  1  0.492702  0.852232  0.417531  1
  P  P11  1  0.147768  0.507298  0.917531  1
  P  P12  1  0.176697  0.970340  0.180456  1
  P  P13  1  0.029660  0.823303  0.680456  1
  O  O14  1  0.831806  0.101736  0.358465  1
  O  O15  1  0.967278  0.354740  0.439288  1
  O  O16  1  0.898264  0.168194  0.858465  1
  O  O17  1  0.645260  0.032722  0.939288  1
  O  O18  1  0.812245  0.359029  0.149914  1
  O  O19  1  0.640971  0.187755  0.649914  1
  O  O20  1  0.286536  0.998980  0.046009  1
  O  O21  1  0.789930  0.663157  0.219492  1
  O  O22  1  0.001020  0.713464  0.546009  1
  O  O23  1  0.385926  0.305046  0.424112  1
  O  O24  1  0.336843  0.210070  0.719492  1
  O  O25  1  0.694954  0.614074  0.924112  1
  O  O26  1  0.107460  0.157256  0.244906  1
  O  O27  1  0.326679  0.423435  0.999644  1
  O  O28  1  0.842744  0.892540  0.744906  1
  O  O29  1  0.576565  0.673321  0.499644  1
  O  O30  1  0.569837  0.943471  0.282065  1
  O  O31  1  0.021773  0.535238  0.058807  1
  O  O32  1  0.056529  0.430163  0.782065  1
  O  O33  1  0.464762  0.978227  0.558807  1
  O  O34  1  0.295194  0.854802  0.341410  1
  O  O35  1  0.145198  0.704806  0.841410  1
  O  O36  1  0.027806  0.883223  0.146554  1
  O  O37  1  0.116777  0.972194  0.646554  1
