# generated using pymatgen
data_KCoPCO7
_symmetry_space_group_name_H-M   'P 1'
_cell_length_a   5.28126349
_cell_length_b   6.08359312
_cell_length_c   9.92521768
_cell_angle_alpha   90.00000000
_cell_angle_beta   91.72416159
_cell_angle_gamma   90.00000000
_symmetry_Int_Tables_number   1
_chemical_formula_structural   KCoPCO7
_chemical_formula_sum   'K2 Co2 P2 C2 O14'
_cell_volume   318.74352368
_cell_formula_units_Z   2
loop_
 _symmetry_equiv_pos_site_id
 _symmetry_equiv_pos_as_xyz
  1  'x, y, z'
loop_
 _atom_site_type_symbol
 _atom_site_label
 _atom_site_symmetry_multiplicity
 _atom_site_fract_x
 _atom_site_fract_y
 _atom_site_fract_z
 _atom_site_occupancy
  K  K0  1  0.755414  0.597420  0.737723  1
  K  K1  1  0.244586  0.097420  0.262277  1
  Co  Co2  1  0.225709  0.229422  0.849643  1
  Co  Co3  1  0.774291  0.729422  0.150357  1
  P  P4  1  0.278908  0.734568  0.943541  1
  P  P5  1  0.721092  0.234568  0.056459  1
  C  C6  1  0.280240  0.251075  0.614036  1
  C  C7  1  0.719760  0.751075  0.385964  1
  O  O8  1  0.687788  0.778457  0.506694  1
  O  O9  1  0.060811  0.241387  0.673814  1
  O  O10  1  0.463608  0.231976  0.707960  1
  O  O11  1  0.223964  0.925025  0.839816  1
  O  O12  1  0.230771  0.539561  0.842519  1
  O  O13  1  0.892296  0.238159  0.935700  1
  O  O14  1  0.562988  0.735100  0.986501  1
  O  O15  1  0.437012  0.235100  0.013499  1
  O  O16  1  0.107704  0.738159  0.064300  1
  O  O17  1  0.769229  0.039561  0.157481  1
  O  O18  1  0.776036  0.425025  0.160184  1
  O  O19  1  0.536392  0.731976  0.292040  1
  O  O20  1  0.939189  0.741387  0.326186  1
  O  O21  1  0.312212  0.278457  0.493306  1
