# generated using pymatgen
data_LiFe(SiO3)2
_symmetry_space_group_name_H-M   'P 1'
_cell_length_a   5.30970102
_cell_length_b   8.83854473
_cell_length_c   18.24426166
_cell_angle_alpha   90.00000000
_cell_angle_beta   90.00000000
_cell_angle_gamma   90.00000000
_symmetry_Int_Tables_number   1
_chemical_formula_structural   LiFe(SiO3)2
_chemical_formula_sum   'Li8 Fe8 Si16 O48'
_cell_volume   856.20374645
_cell_formula_units_Z   8
loop_
 _symmetry_equiv_pos_site_id
 _symmetry_equiv_pos_as_xyz
  1  'x, y, z'
loop_
 _atom_site_type_symbol
 _atom_site_label
 _atom_site_symmetry_multiplicity
 _atom_site_fract_x
 _atom_site_fract_y
 _atom_site_fract_z
 _atom_site_occupancy
  Li  Li0  1  0.614789  0.999756  0.124948  1
  Li  Li1  1  0.114789  0.500244  0.124948  1
  Li  Li2  1  0.114789  0.000244  0.375052  1
  Li  Li3  1  0.614789  0.499756  0.375052  1
  Li  Li4  1  0.385211  0.500244  0.624948  1
  Li  Li5  1  0.885211  0.999756  0.624948  1
  Li  Li6  1  0.385211  0.000244  0.875052  1
  Li  Li7  1  0.885211  0.499756  0.875052  1
  Fe  Fe8  1  0.615670  0.646766  0.125069  1
  Fe  Fe9  1  0.115670  0.853234  0.125069  1
  Fe  Fe10  1  0.115670  0.353234  0.374931  1
  Fe  Fe11  1  0.615670  0.146766  0.374931  1
  Fe  Fe12  1  0.384330  0.853234  0.625069  1
  Fe  Fe13  1  0.884330  0.646766  0.625069  1
  Fe  Fe14  1  0.384330  0.353234  0.874931  1
  Fe  Fe15  1  0.884330  0.146766  0.874931  1
  Si  Si16  1  0.716896  0.337458  0.025121  1
  Si  Si17  1  0.216896  0.162542  0.025121  1
  Si  Si18  1  0.443187  0.338668  0.225615  1
  Si  Si19  1  0.943187  0.161332  0.225615  1
  Si  Si20  1  0.443187  0.838668  0.274385  1
  Si  Si21  1  0.943187  0.661332  0.274385  1
  Si  Si22  1  0.716896  0.837458  0.474879  1
  Si  Si23  1  0.216896  0.662542  0.474879  1
  Si  Si24  1  0.783104  0.337458  0.525121  1
  Si  Si25  1  0.283104  0.162542  0.525121  1
  Si  Si26  1  0.056813  0.338668  0.725615  1
  Si  Si27  1  0.556813  0.161332  0.725615  1
  Si  Si28  1  0.056813  0.838668  0.774385  1
  Si  Si29  1  0.556813  0.661332  0.774385  1
  Si  Si30  1  0.783104  0.837458  0.974879  1
  Si  Si31  1  0.283104  0.662542  0.974879  1
  O  O32  1  0.434472  0.283691  0.052105  1
  O  O33  1  0.934472  0.216309  0.052105  1
  O  O34  1  0.788437  0.833436  0.065866  1
  O  O35  1  0.288437  0.666564  0.065866  1
  O  O36  1  0.785491  0.497959  0.062978  1
  O  O37  1  0.285491  0.002041  0.062978  1
  O  O38  1  0.442958  0.832160  0.183683  1
  O  O39  1  0.942958  0.667840  0.183683  1
  O  O40  1  0.949363  0.993063  0.191296  1
  O  O41  1  0.449363  0.506937  0.191296  1
  O  O42  1  0.175545  0.266951  0.195535  1
  O  O43  1  0.675545  0.233049  0.195535  1
  O  O44  1  0.175545  0.766951  0.304465  1
  O  O45  1  0.675545  0.733049  0.304465  1
  O  O46  1  0.949363  0.493063  0.308704  1
  O  O47  1  0.449363  0.006937  0.308704  1
  O  O48  1  0.442958  0.332160  0.316317  1
  O  O49  1  0.942958  0.167840  0.316317  1
  O  O50  1  0.785491  0.997959  0.437022  1
  O  O51  1  0.285491  0.502041  0.437022  1
  O  O52  1  0.788437  0.333436  0.434134  1
  O  O53  1  0.288437  0.166564  0.434134  1
  O  O54  1  0.434472  0.783691  0.447895  1
  O  O55  1  0.934472  0.716309  0.447895  1
  O  O56  1  0.065528  0.283691  0.552105  1
  O  O57  1  0.565528  0.216309  0.552105  1
  O  O58  1  0.711563  0.833436  0.565866  1
  O  O59  1  0.211563  0.666564  0.565866  1
  O  O60  1  0.714509  0.497959  0.562978  1
  O  O61  1  0.214509  0.002041  0.562978  1
  O  O62  1  0.057042  0.832160  0.683683  1
  O  O63  1  0.557042  0.667840  0.683683  1
  O  O64  1  0.550637  0.993063  0.691296  1
  O  O65  1  0.050637  0.506937  0.691296  1
  O  O66  1  0.324455  0.266951  0.695535  1
  O  O67  1  0.824455  0.233049  0.695535  1
  O  O68  1  0.324455  0.766951  0.804465  1
  O  O69  1  0.824455  0.733049  0.804465  1
  O  O70  1  0.550637  0.493063  0.808704  1
  O  O71  1  0.050637  0.006937  0.808704  1
  O  O72  1  0.057042  0.332160  0.816317  1
  O  O73  1  0.557042  0.167840  0.816317  1
  O  O74  1  0.714509  0.997959  0.937022  1
  O  O75  1  0.214509  0.502041  0.937022  1
  O  O76  1  0.711563  0.333436  0.934134  1
  O  O77  1  0.211563  0.166564  0.934134  1
  O  O78  1  0.065528  0.783691  0.947895  1
  O  O79  1  0.565528  0.716309  0.947895  1
