# generated using pymatgen
data_K2LiMnPCO7
_symmetry_space_group_name_H-M   'P 1'
_cell_length_a   5.35097956
_cell_length_b   7.16737408
_cell_length_c   9.92495582
_cell_angle_alpha   90.00000000
_cell_angle_beta   90.95907691
_cell_angle_gamma   90.00000000
_symmetry_Int_Tables_number   1
_chemical_formula_structural   K2LiMnPCO7
_chemical_formula_sum   'K4 Li2 Mn2 P2 C2 O14'
_cell_volume   380.59326548
_cell_formula_units_Z   2
loop_
 _symmetry_equiv_pos_site_id
 _symmetry_equiv_pos_as_xyz
  1  'x, y, z'
loop_
 _atom_site_type_symbol
 _atom_site_label
 _atom_site_symmetry_multiplicity
 _atom_site_fract_x
 _atom_site_fract_y
 _atom_site_fract_z
 _atom_site_occupancy
  K  K0  1  0.752079  0.478380  0.769713  1
  K  K1  1  0.752079  0.021620  0.769713  1
  K  K2  1  0.247921  0.521620  0.230287  1
  K  K3  1  0.247921  0.978380  0.230287  1
  Li  Li4  1  0.799847  0.750000  0.517295  1
  Li  Li5  1  0.200153  0.250000  0.482705  1
  Mn  Mn6  1  0.266621  0.750000  0.869296  1
  Mn  Mn7  1  0.733379  0.250000  0.130704  1
  P  P8  1  0.219721  0.250000  0.921222  1
  P  P9  1  0.780279  0.750000  0.078778  1
  C  C10  1  0.238112  0.750000  0.574257  1
  C  C11  1  0.761888  0.250000  0.425743  1
  O  O12  1  0.849306  0.250000  0.548078  1
  O  O13  1  0.475075  0.750000  0.603953  1
  O  O14  1  0.072040  0.750000  0.671383  1
  O  O15  1  0.273314  0.071716  0.837238  1
  O  O16  1  0.273314  0.428284  0.837238  1
  O  O17  1  0.629309  0.750000  0.942836  1
  O  O18  1  0.935934  0.250000  0.958188  1
  O  O19  1  0.064066  0.750000  0.041812  1
  O  O20  1  0.370691  0.250000  0.057164  1
  O  O21  1  0.726686  0.571716  0.162762  1
  O  O22  1  0.726686  0.928284  0.162762  1
  O  O23  1  0.927960  0.250000  0.328617  1
  O  O24  1  0.524925  0.250000  0.396047  1
  O  O25  1  0.150694  0.750000  0.451922  1
