# generated using pymatgen
data_LiFePO4
_symmetry_space_group_name_H-M   'P 1'
_cell_length_a   7.70223465
_cell_length_b   4.93536747
_cell_length_c   18.47944692
_cell_angle_alpha   90.00000000
_cell_angle_beta   90.74551621
_cell_angle_gamma   90.00000000
_symmetry_Int_Tables_number   1
_chemical_formula_structural   LiFePO4
_chemical_formula_sum   'Li8 Fe8 P8 O32'
_cell_volume   702.40637322
_cell_formula_units_Z   8
loop_
 _symmetry_equiv_pos_site_id
 _symmetry_equiv_pos_as_xyz
  1  'x, y, z'
loop_
 _atom_site_type_symbol
 _atom_site_label
 _atom_site_symmetry_multiplicity
 _atom_site_fract_x
 _atom_site_fract_y
 _atom_site_fract_z
 _atom_site_occupancy
  Li  Li0  1  0.015716  0.773708  0.913503  1
  Li  Li1  1  0.015716  0.726292  0.413503  1
  Li  Li2  1  0.510786  0.353261  0.685842  1
  Li  Li3  1  0.510786  0.146739  0.185842  1
  Li  Li4  1  0.489214  0.853261  0.814158  1
  Li  Li5  1  0.489214  0.646739  0.314158  1
  Li  Li6  1  0.984284  0.273708  0.586497  1
  Li  Li7  1  0.984284  0.226292  0.086497  1
  Fe  Fe8  1  0.166037  0.779873  0.726601  1
  Fe  Fe9  1  0.166037  0.720127  0.226601  1
  Fe  Fe10  1  0.342688  0.225332  0.982661  1
  Fe  Fe11  1  0.342688  0.274668  0.482661  1
  Fe  Fe12  1  0.657312  0.725332  0.517339  1
  Fe  Fe13  1  0.657312  0.774668  0.017339  1
  Fe  Fe14  1  0.833963  0.279873  0.773399  1
  Fe  Fe15  1  0.833963  0.220127  0.273399  1
  P  P16  1  0.245221  0.351484  0.817723  1
  P  P17  1  0.245221  0.148516  0.317723  1
  P  P18  1  0.249920  0.718145  0.563798  1
  P  P19  1  0.249920  0.781855  0.063798  1
  P  P20  1  0.750080  0.218145  0.936202  1
  P  P21  1  0.750080  0.281855  0.436202  1
  P  P22  1  0.754779  0.851484  0.682277  1
  P  P23  1  0.754779  0.648516  0.182277  1
  O  O24  1  0.068756  0.468346  0.788055  1
  O  O25  1  0.068756  0.031654  0.288055  1
  O  O26  1  0.174177  0.602840  0.492264  1
  O  O27  1  0.145790  0.603225  0.628262  1
  O  O28  1  0.252951  0.433962  0.897523  1
  O  O29  1  0.258121  0.040119  0.805718  1
  O  O30  1  0.174177  0.897160  0.992264  1
  O  O31  1  0.145790  0.896775  0.128262  1
  O  O32  1  0.252951  0.066038  0.397523  1
  O  O33  1  0.258121  0.459881  0.305718  1
  O  O34  1  0.246847  0.032571  0.564685  1
  O  O35  1  0.246847  0.467429  0.064685  1
  O  O36  1  0.386834  0.501636  0.772754  1
  O  O37  1  0.386834  0.998364  0.272754  1
  O  O38  1  0.439337  0.597952  0.570598  1
  O  O39  1  0.439337  0.902048  0.070598  1
  O  O40  1  0.560663  0.097952  0.929402  1
  O  O41  1  0.560663  0.402048  0.429402  1
  O  O42  1  0.613166  0.001636  0.727246  1
  O  O43  1  0.613166  0.498364  0.227246  1
  O  O44  1  0.753153  0.532571  0.935315  1
  O  O45  1  0.753153  0.967429  0.435315  1
  O  O46  1  0.741879  0.540119  0.694282  1
  O  O47  1  0.747049  0.933962  0.602477  1
  O  O48  1  0.854210  0.103225  0.871738  1
  O  O49  1  0.825823  0.102840  0.007736  1
  O  O50  1  0.741879  0.959881  0.194282  1
  O  O51  1  0.747049  0.566038  0.102477  1
  O  O52  1  0.854210  0.396775  0.371738  1
  O  O53  1  0.825823  0.397160  0.507736  1
  O  O54  1  0.931244  0.968346  0.711945  1
  O  O55  1  0.931244  0.531654  0.211945  1
