# generated using pymatgen
data_Ni(Pt3O4)4
_symmetry_space_group_name_H-M   'P 1'
_cell_length_a   8.02621617
_cell_length_b   8.02621617
_cell_length_c   8.02621617
_cell_angle_alpha   60.00000000
_cell_angle_beta   60.00000000
_cell_angle_gamma   60.00000000
_symmetry_Int_Tables_number   1
_chemical_formula_structural   Ni(Pt3O4)4
_chemical_formula_sum   'Ni1 Pt12 O16'
_cell_volume   365.60957342
_cell_formula_units_Z   1
loop_
 _symmetry_equiv_pos_site_id
 _symmetry_equiv_pos_as_xyz
  1  'x, y, z'
loop_
 _atom_site_type_symbol
 _atom_site_label
 _atom_site_symmetry_multiplicity
 _atom_site_fract_x
 _atom_site_fract_y
 _atom_site_fract_z
 _atom_site_occupancy
  Ni  Ni0  1  0.000000  0.000000  0.000000  1
  Pt  Pt1  1  0.375760  0.872952  0.127048  1
  Pt  Pt2  1  0.624240  0.127048  0.872952  1
  Pt  Pt3  1  0.624240  0.872952  0.375760  1
  Pt  Pt4  1  0.127048  0.872952  0.624240  1
  Pt  Pt5  1  0.624240  0.375760  0.127048  1
  Pt  Pt6  1  0.375760  0.127048  0.624240  1
  Pt  Pt7  1  0.872952  0.375760  0.624240  1
  Pt  Pt8  1  0.127048  0.624240  0.375760  1
  Pt  Pt9  1  0.127048  0.375760  0.872952  1
  Pt  Pt10  1  0.375760  0.624240  0.872952  1
  Pt  Pt11  1  0.872952  0.127048  0.375760  1
  Pt  Pt12  1  0.872952  0.624240  0.127048  1
  O  O13  1  0.659025  0.113658  0.113658  1
  O  O14  1  0.371981  0.884058  0.371981  1
  O  O15  1  0.113658  0.113658  0.659025  1
  O  O16  1  0.886342  0.886342  0.886342  1
  O  O17  1  0.628019  0.628019  0.115942  1
  O  O18  1  0.371981  0.371981  0.371981  1
  O  O19  1  0.628019  0.115942  0.628019  1
  O  O20  1  0.340975  0.886342  0.886342  1
  O  O21  1  0.371981  0.371981  0.884058  1
  O  O22  1  0.115942  0.628019  0.628019  1
  O  O23  1  0.628019  0.628019  0.628019  1
  O  O24  1  0.886342  0.340975  0.886342  1
  O  O25  1  0.113658  0.113658  0.113658  1
  O  O26  1  0.886342  0.886342  0.340975  1
  O  O27  1  0.884058  0.371981  0.371981  1
  O  O28  1  0.113658  0.659025  0.113658  1
