# generated using pymatgen
data_Er2B4O9
_symmetry_space_group_name_H-M   'P 1'
_cell_length_a   6.17463102
_cell_length_b   6.42941116
_cell_length_c   7.47202364
_cell_angle_alpha   102.58697624
_cell_angle_beta   97.17074361
_cell_angle_gamma   102.41149507
_symmetry_Int_Tables_number   1
_chemical_formula_structural   Er2B4O9
_chemical_formula_sum   'Er4 B8 O18'
_cell_volume   278.11520047
_cell_formula_units_Z   2
loop_
 _symmetry_equiv_pos_site_id
 _symmetry_equiv_pos_as_xyz
  1  'x, y, z'
loop_
 _atom_site_type_symbol
 _atom_site_label
 _atom_site_symmetry_multiplicity
 _atom_site_fract_x
 _atom_site_fract_y
 _atom_site_fract_z
 _atom_site_occupancy
  Er  Er0  1  0.112818  0.322917  0.640142  1
  Er  Er1  1  0.450084  0.909329  0.712191  1
  Er  Er2  1  0.549916  0.090671  0.287809  1
  Er  Er3  1  0.887182  0.677083  0.359858  1
  B  B4  1  0.005737  0.855122  0.809736  1
  B  B5  1  0.268554  0.666480  0.018598  1
  B  B6  1  0.373624  0.643427  0.349512  1
  B  B7  1  0.338491  0.317148  0.072647  1
  B  B8  1  0.661509  0.682852  0.927353  1
  B  B9  1  0.626376  0.356573  0.650488  1
  B  B10  1  0.731446  0.333520  0.981402  1
  B  B11  1  0.994263  0.144878  0.190264  1
  O  O12  1  0.070358  0.956702  0.674211  1
  O  O13  1  0.139680  0.717507  0.855534  1
  O  O14  1  0.225997  0.427670  0.956991  1
  O  O15  1  0.218769  0.595184  0.478691  1
  O  O16  1  0.235582  0.737149  0.211883  1
  O  O17  1  0.187880  0.130793  0.121429  1
  O  O18  1  0.419544  0.181572  0.553793  1
  O  O19  1  0.495095  0.207857  0.978616  1
  O  O20  1  0.539044  0.537794  0.747503  1
  O  O21  1  0.460956  0.462206  0.252497  1
  O  O22  1  0.504905  0.792143  0.021384  1
  O  O23  1  0.580456  0.818428  0.446207  1
  O  O24  1  0.812120  0.869207  0.878571  1
  O  O25  1  0.764418  0.262851  0.788117  1
  O  O26  1  0.781231  0.404816  0.521309  1
  O  O27  1  0.774003  0.572330  0.043009  1
  O  O28  1  0.860320  0.282493  0.144466  1
  O  O29  1  0.929642  0.043298  0.325789  1
