# generated using pymatgen
data_NaCo11O17
_symmetry_space_group_name_H-M   'P 1'
_cell_length_a   5.71751802
_cell_length_b   5.71751802
_cell_length_c   23.00497729
_cell_angle_alpha   90.00000000
_cell_angle_beta   90.00000000
_cell_angle_gamma   120.00000000
_symmetry_Int_Tables_number   1
_chemical_formula_structural   NaCo11O17
_chemical_formula_sum   'Na2 Co22 O34'
_cell_volume   651.27967378
_cell_formula_units_Z   2
loop_
 _symmetry_equiv_pos_site_id
 _symmetry_equiv_pos_as_xyz
  1  'x, y, z'
loop_
 _atom_site_type_symbol
 _atom_site_label
 _atom_site_symmetry_multiplicity
 _atom_site_fract_x
 _atom_site_fract_y
 _atom_site_fract_z
 _atom_site_occupancy
  Na  Na0  1  0.333333  0.666667  0.750000  1
  Na  Na1  1  0.666667  0.333333  0.250000  1
  Co  Co2  1  0.164499  0.835501  0.602832  1
  Co  Co3  1  0.164499  0.835501  0.897168  1
  Co  Co4  1  0.333333  0.666667  0.172093  1
  Co  Co5  1  0.333333  0.666667  0.024256  1
  Co  Co6  1  0.000000  0.000000  0.000000  1
  Co  Co7  1  0.000000  0.000000  0.500000  1
  Co  Co8  1  0.333333  0.666667  0.327907  1
  Co  Co9  1  0.333333  0.666667  0.475744  1
  Co  Co10  1  0.164499  0.328998  0.602832  1
  Co  Co11  1  0.164499  0.328998  0.897168  1
  Co  Co12  1  0.328998  0.164499  0.102832  1
  Co  Co13  1  0.328998  0.164499  0.397168  1
  Co  Co14  1  0.671002  0.835501  0.602832  1
  Co  Co15  1  0.671002  0.835501  0.897168  1
  Co  Co16  1  0.835501  0.671002  0.397168  1
  Co  Co17  1  0.835501  0.671002  0.102832  1
  Co  Co18  1  0.666667  0.333333  0.672093  1
  Co  Co19  1  0.666667  0.333333  0.827907  1
  Co  Co20  1  0.666667  0.333333  0.524256  1
  Co  Co21  1  0.666667  0.333333  0.975744  1
  Co  Co22  1  0.835501  0.164499  0.397168  1
  Co  Co23  1  0.835501  0.164499  0.102832  1
  O  O24  1  0.148274  0.851726  0.053690  1
  O  O25  1  0.985009  0.492505  0.353267  1
  O  O26  1  0.014991  0.507495  0.646733  1
  O  O27  1  0.985009  0.492505  0.146733  1
  O  O28  1  0.148274  0.851726  0.446310  1
  O  O29  1  0.014991  0.507495  0.853267  1
  O  O30  1  0.148274  0.296547  0.446310  1
  O  O31  1  0.333333  0.666667  0.250000  1
  O  O32  1  0.000000  0.000000  0.144556  1
  O  O33  1  0.000000  0.000000  0.355444  1
  O  O34  1  0.000000  0.000000  0.644556  1
  O  O35  1  0.000000  0.000000  0.855444  1
  O  O36  1  0.333333  0.666667  0.559569  1
  O  O37  1  0.333333  0.666667  0.940431  1
  O  O38  1  0.148274  0.296547  0.053690  1
  O  O39  1  0.296547  0.148274  0.553690  1
  O  O40  1  0.296547  0.148274  0.946310  1
  O  O41  1  0.507495  0.492505  0.146733  1
  O  O42  1  0.507495  0.492505  0.353267  1
  O  O43  1  0.492505  0.507495  0.646733  1
  O  O44  1  0.492505  0.507495  0.853267  1
  O  O45  1  0.703453  0.851726  0.053690  1
  O  O46  1  0.703453  0.851726  0.446310  1
  O  O47  1  0.507495  0.014991  0.146733  1
  O  O48  1  0.507495  0.014991  0.353267  1
  O  O49  1  0.492505  0.985009  0.646733  1
  O  O50  1  0.666667  0.333333  0.440431  1
  O  O51  1  0.492505  0.985009  0.853267  1
  O  O52  1  0.666667  0.333333  0.750000  1
  O  O53  1  0.666667  0.333333  0.059569  1
  O  O54  1  0.851726  0.703453  0.946310  1
  O  O55  1  0.851726  0.703453  0.553690  1
  O  O56  1  0.851726  0.148274  0.946310  1
  O  O57  1  0.851726  0.148274  0.553690  1
