# generated using pymatgen
data_Na6SbO5
_symmetry_space_group_name_H-M   'P 1'
_cell_length_a   6.10872567
_cell_length_b   6.10872567
_cell_length_c   10.96503619
_cell_angle_alpha   90.00000000
_cell_angle_beta   90.00000000
_cell_angle_gamma   124.02000792
_symmetry_Int_Tables_number   1
_chemical_formula_structural   Na6SbO5
_chemical_formula_sum   'Na12 Sb2 O10'
_cell_volume   339.14326339
_cell_formula_units_Z   2
loop_
 _symmetry_equiv_pos_site_id
 _symmetry_equiv_pos_as_xyz
  1  'x, y, z'
loop_
 _atom_site_type_symbol
 _atom_site_label
 _atom_site_symmetry_multiplicity
 _atom_site_fract_x
 _atom_site_fract_y
 _atom_site_fract_z
 _atom_site_occupancy
  Na  Na0  1  0.570022  0.164494  0.250000  1
  Na  Na1  1  0.835506  0.429978  0.750000  1
  Na  Na2  1  0.220854  0.779146  0.500000  1
  Na  Na3  1  0.220854  0.779146  1.000000  1
  Na  Na4  1  0.779146  0.220854  0.000000  1
  Na  Na5  1  0.779146  0.220854  0.500000  1
  Na  Na6  1  0.429978  0.835506  0.750000  1
  Na  Na7  1  0.164494  0.570022  0.250000  1
  Na  Na8  1  0.685239  0.685239  0.561051  1
  Na  Na9  1  0.685239  0.685239  0.938949  1
  Na  Na10  1  0.314761  0.314761  0.438949  1
  Na  Na11  1  0.314761  0.314761  0.061051  1
  Sb  Sb12  1  0.219384  0.219384  0.750000  1
  Sb  Sb13  1  0.780616  0.780616  0.250000  1
  O  O14  1  0.433196  0.162340  0.882769  1
  O  O15  1  0.837660  0.566804  0.382769  1
  O  O16  1  0.837660  0.566804  0.117231  1
  O  O17  1  0.433196  0.162340  0.617231  1
  O  O18  1  0.162340  0.433196  0.882769  1
  O  O19  1  0.566804  0.837660  0.382769  1
  O  O20  1  0.162340  0.433196  0.617231  1
  O  O21  1  0.566804  0.837660  0.117231  1
  O  O22  1  0.867365  0.867365  0.750000  1
  O  O23  1  0.132635  0.132635  0.250000  1
