# generated using pymatgen
data_Li2TiCo3O8
_symmetry_space_group_name_H-M   'P 1'
_cell_length_a   5.72902689
_cell_length_b   5.72902689
_cell_length_c   5.72902689
_cell_angle_alpha   60.34763625
_cell_angle_beta   60.34763625
_cell_angle_gamma   60.34763625
_symmetry_Int_Tables_number   1
_chemical_formula_structural   Li2TiCo3O8
_chemical_formula_sum   'Li2 Ti1 Co3 O8'
_cell_volume   134.00766976
_cell_formula_units_Z   1
loop_
 _symmetry_equiv_pos_site_id
 _symmetry_equiv_pos_as_xyz
  1  'x, y, z'
loop_
 _atom_site_type_symbol
 _atom_site_label
 _atom_site_symmetry_multiplicity
 _atom_site_fract_x
 _atom_site_fract_y
 _atom_site_fract_z
 _atom_site_occupancy
  Li  Li0  1  0.876658  0.876658  0.876658  1
  Li  Li1  1  0.123342  0.123342  0.123342  1
  Ti  Ti2  1  0.500000  0.500000  0.500000  1
  Co  Co3  1  0.500000  0.500000  0.000000  1
  Co  Co4  1  0.500000  0.000000  0.500000  1
  Co  Co5  1  0.000000  0.500000  0.500000  1
  O  O6  1  0.741861  0.287691  0.741861  1
  O  O7  1  0.741861  0.741861  0.287691  1
  O  O8  1  0.263698  0.263698  0.263698  1
  O  O9  1  0.287691  0.741861  0.741861  1
  O  O10  1  0.712309  0.258139  0.258139  1
  O  O11  1  0.736302  0.736302  0.736302  1
  O  O12  1  0.258139  0.258139  0.712309  1
  O  O13  1  0.258139  0.712309  0.258139  1
