# generated using pymatgen
data_Ba2CaI6
_symmetry_space_group_name_H-M   'P 1'
_cell_length_a   8.57735158
_cell_length_b   8.19022129
_cell_length_c   24.98657909
_cell_angle_alpha   90.00000000
_cell_angle_beta   91.28604107
_cell_angle_gamma   90.00000000
_symmetry_Int_Tables_number   1
_chemical_formula_structural   Ba2CaI6
_chemical_formula_sum   'Ba8 Ca4 I24'
_cell_volume   1754.87521244
_cell_formula_units_Z   4
loop_
 _symmetry_equiv_pos_site_id
 _symmetry_equiv_pos_as_xyz
  1  'x, y, z'
loop_
 _atom_site_type_symbol
 _atom_site_label
 _atom_site_symmetry_multiplicity
 _atom_site_fract_x
 _atom_site_fract_y
 _atom_site_fract_z
 _atom_site_occupancy
  Ba  Ba0  1  0.227802  0.438897  0.737982  1
  Ba  Ba1  1  0.329390  0.016209  0.908697  1
  Ba  Ba2  1  0.227802  0.061103  0.237982  1
  Ba  Ba3  1  0.329390  0.483791  0.408697  1
  Ba  Ba4  1  0.670610  0.516209  0.591303  1
  Ba  Ba5  1  0.772198  0.938897  0.762018  1
  Ba  Ba6  1  0.670610  0.983791  0.091303  1
  Ba  Ba7  1  0.772198  0.561103  0.262018  1
  Ca  Ca8  1  0.147167  0.969734  0.585691  1
  Ca  Ca9  1  0.147167  0.530266  0.085691  1
  Ca  Ca10  1  0.852833  0.469734  0.914309  1
  Ca  Ca11  1  0.852833  0.030266  0.414309  1
  I  I12  1  0.016931  0.212836  0.831955  1
  I  I13  1  0.075410  0.708558  0.841807  1
  I  I14  1  0.130167  0.304472  0.985368  1
  I  I15  1  0.016931  0.287164  0.331955  1
  I  I16  1  0.075410  0.791442  0.341807  1
  I  I17  1  0.130167  0.195528  0.485368  1
  I  I18  1  0.358732  0.717968  0.524984  1
  I  I19  1  0.403514  0.221058  0.636008  1
  I  I20  1  0.471896  0.743882  0.688988  1
  I  I21  1  0.528104  0.243882  0.811012  1
  I  I22  1  0.358732  0.782032  0.024984  1
  I  I23  1  0.596486  0.721058  0.863992  1
  I  I24  1  0.403514  0.278942  0.136008  1
  I  I25  1  0.641268  0.217968  0.975016  1
  I  I26  1  0.471896  0.756118  0.188988  1
  I  I27  1  0.528104  0.256118  0.311012  1
  I  I28  1  0.596486  0.778942  0.363992  1
  I  I29  1  0.641268  0.282032  0.475016  1
  I  I30  1  0.869833  0.804472  0.514632  1
  I  I31  1  0.924590  0.208558  0.658193  1
  I  I32  1  0.983069  0.712836  0.668045  1
  I  I33  1  0.869833  0.695528  0.014632  1
  I  I34  1  0.924590  0.291442  0.158193  1
  I  I35  1  0.983069  0.787164  0.168045  1
