# generated using pymatgen
data_Na3Ni2P2(CO7)2
_symmetry_space_group_name_H-M   'P 1'
_cell_length_a   5.17153955
_cell_length_b   6.51292333
_cell_length_c   8.86216626
_cell_angle_alpha   90.92323370
_cell_angle_beta   91.63947269
_cell_angle_gamma   90.02195399
_symmetry_Int_Tables_number   1
_chemical_formula_structural   Na3Ni2P2(CO7)2
_chemical_formula_sum   'Na3 Ni2 P2 C2 O14'
_cell_volume   298.33303953
_cell_formula_units_Z   1
loop_
 _symmetry_equiv_pos_site_id
 _symmetry_equiv_pos_as_xyz
  1  'x, y, z'
loop_
 _atom_site_type_symbol
 _atom_site_label
 _atom_site_symmetry_multiplicity
 _atom_site_fract_x
 _atom_site_fract_y
 _atom_site_fract_z
 _atom_site_occupancy
  Na  Na0  1  0.755388  0.526216  0.255864  1
  Na  Na1  1  0.246970  0.487621  0.744786  1
  Na  Na2  1  0.246162  0.014268  0.746491  1
  Ni  Ni3  1  0.217052  0.240687  0.342474  1
  Ni  Ni4  1  0.779286  0.749947  0.653402  1
  P  P5  1  0.281075  0.748050  0.422107  1
  P  P6  1  0.719853  0.248318  0.573409  1
  C  C7  1  0.289098  0.250716  0.070410  1
  C  C8  1  0.715718  0.752491  0.927599  1
  O  O9  1  0.678527  0.749248  0.065018  1
  O  O10  1  0.061239  0.248195  0.127319  1
  O  O11  1  0.473783  0.247822  0.172696  1
  O  O12  1  0.214972  0.933367  0.323978  1
  O  O13  1  0.210490  0.558664  0.321088  1
  O  O14  1  0.865152  0.254904  0.425357  1
  O  O15  1  0.575306  0.740208  0.465218  1
  O  O16  1  0.420625  0.248256  0.538712  1
  O  O17  1  0.133736  0.748895  0.572714  1
  O  O18  1  0.787924  0.436471  0.677747  1
  O  O19  1  0.792097  0.062714  0.673204  1
  O  O20  1  0.525977  0.753729  0.826162  1
  O  O21  1  0.943081  0.753942  0.868329  1
  O  O22  1  0.327502  0.255114  0.931206  1
