# generated using pymatgen
data_MnV3O8
_symmetry_space_group_name_H-M   'P 1'
_cell_length_a   6.30997726
_cell_length_b   6.30997726
_cell_length_c   6.63740225
_cell_angle_alpha   74.10230276
_cell_angle_beta   105.89769724
_cell_angle_gamma   144.87296888
_symmetry_Int_Tables_number   1
_chemical_formula_structural   MnV3O8
_chemical_formula_sum   'Mn1 V3 O8'
_cell_volume   145.64924745
_cell_formula_units_Z   1
loop_
 _symmetry_equiv_pos_site_id
 _symmetry_equiv_pos_as_xyz
  1  'x, y, z'
loop_
 _atom_site_type_symbol
 _atom_site_label
 _atom_site_symmetry_multiplicity
 _atom_site_fract_x
 _atom_site_fract_y
 _atom_site_fract_z
 _atom_site_occupancy
  Mn  Mn0  1  0.292180  0.707820  0.692340  1
  V  V1  1  0.597631  0.402369  0.703708  1
  V  V2  1  0.398357  0.601643  0.280426  1
  V  V3  1  0.699845  0.300155  0.277706  1
  O  O4  1  0.867631  0.132369  0.310340  1
  O  O5  1  0.756937  0.243063  0.643400  1
  O  O6  1  0.640126  0.359874  0.011169  1
  O  O7  1  0.554093  0.445907  0.369152  1
  O  O8  1  0.446337  0.553663  0.644686  1
  O  O9  1  0.370273  0.629727  0.022462  1
  O  O10  1  0.241214  0.758786  0.336094  1
  O  O11  1  0.135375  0.864625  0.708516  1
