# generated using pymatgen
data_Li2Mn3WO8
_symmetry_space_group_name_H-M   'P 1'
_cell_length_a   8.51085379
_cell_length_b   8.52205293
_cell_length_c   9.09924230
_cell_angle_alpha   90.00000000
_cell_angle_beta   90.00000000
_cell_angle_gamma   90.00000000
_symmetry_Int_Tables_number   1
_chemical_formula_structural   Li2Mn3WO8
_chemical_formula_sum   'Li8 Mn12 W4 O32'
_cell_volume   659.96755704
_cell_formula_units_Z   4
loop_
 _symmetry_equiv_pos_site_id
 _symmetry_equiv_pos_as_xyz
  1  'x, y, z'
loop_
 _atom_site_type_symbol
 _atom_site_label
 _atom_site_symmetry_multiplicity
 _atom_site_fract_x
 _atom_site_fract_y
 _atom_site_fract_z
 _atom_site_occupancy
  Li  Li0  1  0.753883  0.751116  0.747351  1
  Li  Li1  1  0.502218  0.489728  0.500505  1
  Li  Li2  1  0.002218  0.010272  0.499495  1
  Li  Li3  1  0.253883  0.748884  0.252649  1
  Li  Li4  1  0.746117  0.248884  0.247351  1
  Li  Li5  1  0.997782  0.510272  0.000505  1
  Li  Li6  1  0.497782  0.989728  0.999495  1
  Li  Li7  1  0.246117  0.251116  0.752649  1
  Mn  Mn8  1  0.130312  0.605801  0.635665  1
  Mn  Mn9  1  0.872106  0.364148  0.625201  1
  Mn  Mn10  1  0.620967  0.128936  0.620108  1
  Mn  Mn11  1  0.120967  0.371064  0.379892  1
  Mn  Mn12  1  0.372106  0.135852  0.374799  1
  Mn  Mn13  1  0.630312  0.894199  0.364335  1
  Mn  Mn14  1  0.369688  0.394199  0.135665  1
  Mn  Mn15  1  0.627894  0.635852  0.125201  1
  Mn  Mn16  1  0.879033  0.871064  0.120108  1
  Mn  Mn17  1  0.379033  0.628936  0.879892  1
  Mn  Mn18  1  0.127894  0.864148  0.874799  1
  Mn  Mn19  1  0.869688  0.105801  0.864335  1
  W  W20  1  0.371465  0.875645  0.617006  1
  W  W21  1  0.871465  0.624355  0.382994  1
  W  W22  1  0.128535  0.124355  0.117006  1
  W  W23  1  0.628535  0.375645  0.882994  1
  O  O24  1  0.382713  0.653713  0.616422  1
  O  O25  1  0.148868  0.880568  0.629686  1
  O  O26  1  0.849872  0.137119  0.632123  1
  O  O27  1  0.872205  0.603838  0.595604  1
  O  O28  1  0.634539  0.361295  0.654386  1
  O  O29  1  0.095956  0.364054  0.616317  1
  O  O30  1  0.388255  0.108069  0.631245  1
  O  O31  1  0.606007  0.896921  0.621067  1
  O  O32  1  0.106007  0.603079  0.378933  1
  O  O33  1  0.888255  0.391931  0.368755  1
  O  O34  1  0.595956  0.135946  0.383683  1
  O  O35  1  0.134539  0.138705  0.345614  1
  O  O36  1  0.372205  0.896162  0.404396  1
  O  O37  1  0.349872  0.362881  0.367877  1
  O  O38  1  0.648868  0.619432  0.370314  1
  O  O39  1  0.882713  0.846287  0.383578  1
  O  O40  1  0.117287  0.346287  0.116422  1
  O  O41  1  0.351132  0.119432  0.129686  1
  O  O42  1  0.650128  0.862881  0.132123  1
  O  O43  1  0.627795  0.396162  0.095604  1
  O  O44  1  0.865461  0.638705  0.154386  1
  O  O45  1  0.404044  0.635946  0.116317  1
  O  O46  1  0.111745  0.891931  0.131245  1
  O  O47  1  0.893993  0.103079  0.121067  1
  O  O48  1  0.393993  0.396921  0.878933  1
  O  O49  1  0.611745  0.608069  0.868755  1
  O  O50  1  0.904044  0.864054  0.883683  1
  O  O51  1  0.365461  0.861295  0.845614  1
  O  O52  1  0.127795  0.103838  0.904396  1
  O  O53  1  0.150128  0.637119  0.867877  1
  O  O54  1  0.851132  0.380568  0.870314  1
  O  O55  1  0.617287  0.153713  0.883578  1
