# generated using pymatgen
data_Cs4SiO4
_symmetry_space_group_name_H-M   'P 1'
_cell_length_a   11.35062782
_cell_length_b   7.06209039
_cell_length_c   11.62540980
_cell_angle_alpha   90.00000000
_cell_angle_beta   111.27074995
_cell_angle_gamma   90.00000000
_symmetry_Int_Tables_number   1
_chemical_formula_structural   Cs4SiO4
_chemical_formula_sum   'Cs16 Si4 O16'
_cell_volume   868.39998955
_cell_formula_units_Z   4
loop_
 _symmetry_equiv_pos_site_id
 _symmetry_equiv_pos_as_xyz
  1  'x, y, z'
loop_
 _atom_site_type_symbol
 _atom_site_label
 _atom_site_symmetry_multiplicity
 _atom_site_fract_x
 _atom_site_fract_y
 _atom_site_fract_z
 _atom_site_occupancy
  Cs  Cs0  1  0.299923  0.591629  0.935017  1
  Cs  Cs1  1  0.415056  0.119339  0.849753  1
  Cs  Cs2  1  0.799923  0.908371  0.935017  1
  Cs  Cs3  1  0.105089  0.334046  0.630152  1
  Cs  Cs4  1  0.915056  0.380661  0.849753  1
  Cs  Cs5  1  0.211860  0.824981  0.584574  1
  Cs  Cs6  1  0.605089  0.165954  0.630152  1
  Cs  Cs7  1  0.288140  0.324981  0.415426  1
  Cs  Cs8  1  0.711860  0.675019  0.584574  1
  Cs  Cs9  1  0.394911  0.834046  0.369848  1
  Cs  Cs10  1  0.788140  0.175019  0.415426  1
  Cs  Cs11  1  0.084944  0.619339  0.150247  1
  Cs  Cs12  1  0.894911  0.665954  0.369848  1
  Cs  Cs13  1  0.200077  0.091629  0.064983  1
  Cs  Cs14  1  0.584944  0.880661  0.150247  1
  Cs  Cs15  1  0.700077  0.408371  0.064983  1
  Si  Si16  1  0.009839  0.872140  0.759686  1
  Si  Si17  1  0.509839  0.627860  0.759686  1
  Si  Si18  1  0.490161  0.372140  0.240314  1
  Si  Si19  1  0.990161  0.127860  0.240314  1
  O  O20  1  0.021854  0.773747  0.894690  1
  O  O21  1  0.140789  0.999863  0.780369  1
  O  O22  1  0.521854  0.726253  0.894690  1
  O  O23  1  0.380837  0.488823  0.707081  1
  O  O24  1  0.640789  0.500137  0.780369  1
  O  O25  1  0.497171  0.802344  0.657257  1
  O  O26  1  0.880837  0.011177  0.707081  1
  O  O27  1  0.002829  0.302344  0.342743  1
  O  O28  1  0.997171  0.697656  0.657257  1
  O  O29  1  0.119163  0.988823  0.292919  1
  O  O30  1  0.502829  0.197656  0.342743  1
  O  O31  1  0.359211  0.499863  0.219631  1
  O  O32  1  0.619163  0.511177  0.292919  1
  O  O33  1  0.478146  0.273747  0.105310  1
  O  O34  1  0.859211  0.000137  0.219631  1
  O  O35  1  0.978146  0.226253  0.105310  1
