# generated using pymatgen
data_V6O11F
_symmetry_space_group_name_H-M   'P 1'
_cell_length_a   4.61609397
_cell_length_b   5.53104804
_cell_length_c   7.53219660
_cell_angle_alpha   85.81313024
_cell_angle_beta   89.22114759
_cell_angle_gamma   89.01055808
_symmetry_Int_Tables_number   1
_chemical_formula_structural   V6O11F
_chemical_formula_sum   'V6 O11 F1'
_cell_volume   191.75432309
_cell_formula_units_Z   1
loop_
 _symmetry_equiv_pos_site_id
 _symmetry_equiv_pos_as_xyz
  1  'x, y, z'
loop_
 _atom_site_type_symbol
 _atom_site_label
 _atom_site_symmetry_multiplicity
 _atom_site_fract_x
 _atom_site_fract_y
 _atom_site_fract_z
 _atom_site_occupancy
  V  V0  1  0.523169  0.847449  0.673566  1
  V  V1  1  0.481087  0.481926  0.990057  1
  V  V2  1  0.491956  0.169225  0.333876  1
  V  V3  1  0.984404  0.321027  0.662342  1
  V  V4  1  0.980694  0.665477  0.311307  1
  V  V5  1  0.007869  0.004683  0.008234  1
  O  O6  1  0.802040  0.365919  0.431741  1
  O  O7  1  0.797150  0.691489  0.108055  1
  O  O8  1  0.809579  0.041484  0.770925  1
  O  O9  1  0.691654  0.203754  0.103804  1
  O  O10  1  0.712661  0.536370  0.764430  1
  O  O11  1  0.695049  0.863711  0.446260  1
  O  O12  1  0.301057  0.139663  0.574191  1
  O  O13  1  0.304765  0.464395  0.232183  1
  O  O14  1  0.313044  0.800407  0.887380  1
  O  O15  1  0.207722  0.962585  0.243251  1
  O  O16  1  0.201258  0.307168  0.899020  1
  F  F17  1  0.194842  0.633269  0.559379  1
