# generated using pymatgen
data_Li5MnV3O8
_symmetry_space_group_name_H-M   'P 1'
_cell_length_a   8.65302016
_cell_length_b   8.65302016
_cell_length_c   8.65302016
_cell_angle_alpha   90.00000000
_cell_angle_beta   90.00000000
_cell_angle_gamma   90.00000000
_symmetry_Int_Tables_number   1
_chemical_formula_structural   Li5MnV3O8
_chemical_formula_sum   'Li20 Mn4 V12 O32'
_cell_volume   647.89278845
_cell_formula_units_Z   4
loop_
 _symmetry_equiv_pos_site_id
 _symmetry_equiv_pos_as_xyz
  1  'x, y, z'
loop_
 _atom_site_type_symbol
 _atom_site_label
 _atom_site_symmetry_multiplicity
 _atom_site_fract_x
 _atom_site_fract_y
 _atom_site_fract_z
 _atom_site_occupancy
  Li  Li0  1  0.552935  0.447065  0.947065  1
  Li  Li1  1  0.638615  0.125000  0.611385  1
  Li  Li2  1  0.625000  0.888615  0.361385  1
  Li  Li3  1  0.611385  0.638615  0.125000  1
  Li  Li4  1  0.697065  0.302935  0.802935  1
  Li  Li5  1  0.802935  0.697065  0.302935  1
  Li  Li6  1  0.888615  0.361385  0.625000  1
  Li  Li7  1  0.875000  0.111385  0.861385  1
  Li  Li8  1  0.861385  0.875000  0.111385  1
  Li  Li9  1  0.947065  0.552935  0.447065  1
  Li  Li10  1  0.052935  0.052935  0.052935  1
  Li  Li11  1  0.138615  0.375000  0.388615  1
  Li  Li12  1  0.125000  0.611385  0.638615  1
  Li  Li13  1  0.111385  0.861385  0.875000  1
  Li  Li14  1  0.197065  0.197065  0.197065  1
  Li  Li15  1  0.302935  0.802935  0.697065  1
  Li  Li16  1  0.388615  0.138615  0.375000  1
  Li  Li17  1  0.375000  0.388615  0.138615  1
  Li  Li18  1  0.361385  0.625000  0.888615  1
  Li  Li19  1  0.447065  0.947065  0.552935  1
  Mn  Mn20  1  0.625000  0.625000  0.625000  1
  Mn  Mn21  1  0.875000  0.375000  0.125000  1
  Mn  Mn22  1  0.125000  0.875000  0.375000  1
  Mn  Mn23  1  0.375000  0.125000  0.875000  1
  V  V24  1  0.624259  0.374259  0.375000  1
  V  V25  1  0.625000  0.124259  0.125741  1
  V  V26  1  0.625741  0.875000  0.875741  1
  V  V27  1  0.874259  0.125000  0.375741  1
  V  V28  1  0.875000  0.875741  0.625741  1
  V  V29  1  0.875741  0.625741  0.875000  1
  V  V30  1  0.124259  0.125741  0.625000  1
  V  V31  1  0.125000  0.375741  0.874259  1
  V  V32  1  0.125741  0.625000  0.124259  1
  V  V33  1  0.374259  0.375000  0.624259  1
  V  V34  1  0.375000  0.624259  0.374259  1
  V  V35  1  0.375741  0.874259  0.125000  1
  O  O36  1  0.614347  0.610721  0.369320  1
  O  O37  1  0.610721  0.369320  0.614347  1
  O  O38  1  0.619867  0.880133  0.119867  1
  O  O39  1  0.619320  0.360721  0.135653  1
  O  O40  1  0.630680  0.114347  0.889279  1
  O  O41  1  0.630133  0.130133  0.369867  1
  O  O42  1  0.639279  0.635653  0.880680  1
  O  O43  1  0.635653  0.880680  0.639279  1
  O  O44  1  0.864347  0.119320  0.139279  1
  O  O45  1  0.860721  0.364347  0.380680  1
  O  O46  1  0.869867  0.869867  0.869867  1
  O  O47  1  0.869320  0.885653  0.389279  1
  O  O48  1  0.880680  0.639279  0.635653  1
  O  O49  1  0.880133  0.119867  0.619867  1
  O  O50  1  0.889279  0.630680  0.114347  1
  O  O51  1  0.885653  0.389279  0.869320  1
  O  O52  1  0.114347  0.889279  0.630680  1
  O  O53  1  0.110721  0.130680  0.385653  1
  O  O54  1  0.119867  0.619867  0.880133  1
  O  O55  1  0.119320  0.139279  0.864347  1
  O  O56  1  0.130680  0.385653  0.110721  1
  O  O57  1  0.130133  0.369867  0.630133  1
  O  O58  1  0.139279  0.864347  0.119320  1
  O  O59  1  0.135653  0.619320  0.360721  1
  O  O60  1  0.364347  0.380680  0.860721  1
  O  O61  1  0.360721  0.135653  0.619320  1
  O  O62  1  0.369867  0.630133  0.130133  1
  O  O63  1  0.369320  0.614347  0.610721  1
  O  O64  1  0.380680  0.860721  0.364347  1
  O  O65  1  0.380133  0.380133  0.380133  1
  O  O66  1  0.389279  0.869320  0.885653  1
  O  O67  1  0.385653  0.110721  0.130680  1
