# generated using pymatgen
data_H4CSN2Cl
_symmetry_space_group_name_H-M   'P 1'
_cell_length_a   9.03815271
_cell_length_b   10.65887529
_cell_length_c   19.81893754
_cell_angle_alpha   90.00000000
_cell_angle_beta   90.00000000
_cell_angle_gamma   90.00000000
_symmetry_Int_Tables_number   1
_chemical_formula_structural   H4CSN2Cl
_chemical_formula_sum   'H64 C16 S16 N32 Cl16'
_cell_volume   1909.28792037
_cell_formula_units_Z   16
loop_
 _symmetry_equiv_pos_site_id
 _symmetry_equiv_pos_as_xyz
  1  'x, y, z'
loop_
 _atom_site_type_symbol
 _atom_site_label
 _atom_site_symmetry_multiplicity
 _atom_site_fract_x
 _atom_site_fract_y
 _atom_site_fract_z
 _atom_site_occupancy
  H  H0  1  0.944236  0.793058  0.482096  1
  H  H1  1  0.444236  0.706942  0.517904  1
  H  H2  1  0.055764  0.293058  0.017904  1
  H  H3  1  0.555764  0.206942  0.982096  1
  H  H4  1  0.055764  0.206942  0.517904  1
  H  H5  1  0.555764  0.293058  0.482096  1
  H  H6  1  0.944236  0.706942  0.982096  1
  H  H7  1  0.444236  0.793058  0.017904  1
  H  H8  1  0.950761  0.863352  0.402153  1
  H  H9  1  0.450761  0.636648  0.597847  1
  H  H10  1  0.049239  0.363352  0.097847  1
  H  H11  1  0.549239  0.136648  0.902153  1
  H  H12  1  0.049239  0.136648  0.597847  1
  H  H13  1  0.549239  0.363352  0.402153  1
  H  H14  1  0.950761  0.636648  0.902153  1
  H  H15  1  0.450761  0.863352  0.097847  1
  H  H16  1  0.780918  0.855903  0.562769  1
  H  H17  1  0.280918  0.644097  0.437231  1
  H  H18  1  0.219082  0.355903  0.937231  1
  H  H19  1  0.719082  0.144097  0.062769  1
  H  H20  1  0.219082  0.144097  0.437231  1
  H  H21  1  0.719082  0.355903  0.562769  1
  H  H22  1  0.780918  0.644097  0.062769  1
  H  H23  1  0.280918  0.855903  0.937231  1
  H  H24  1  0.673689  0.996577  0.551137  1
  H  H25  1  0.173689  0.503423  0.448863  1
  H  H26  1  0.326311  0.496577  0.948863  1
  H  H27  1  0.826311  0.003423  0.051137  1
  H  H28  1  0.326311  0.003423  0.448863  1
  H  H29  1  0.826311  0.496577  0.551137  1
  H  H30  1  0.673689  0.503423  0.051137  1
  H  H31  1  0.173689  0.996577  0.948863  1
  H  H32  1  0.605763  0.822031  0.265516  1
  H  H33  1  0.105763  0.677969  0.734484  1
  H  H34  1  0.394237  0.322031  0.234484  1
  H  H35  1  0.894237  0.177969  0.765516  1
  H  H36  1  0.394237  0.177969  0.734484  1
  H  H37  1  0.894237  0.322031  0.265516  1
  H  H38  1  0.605763  0.677969  0.765516  1
  H  H39  1  0.105763  0.822031  0.234484  1
  H  H40  1  0.610583  0.879136  0.350036  1
  H  H41  1  0.110583  0.620864  0.649964  1
  H  H42  1  0.389417  0.379136  0.149964  1
  H  H43  1  0.889417  0.120864  0.850036  1
  H  H44  1  0.389417  0.120864  0.649964  1
  H  H45  1  0.889417  0.379136  0.350036  1
  H  H46  1  0.610583  0.620864  0.850036  1
  H  H47  1  0.110583  0.879136  0.149964  1
  H  H48  1  0.863518  0.039268  0.201410  1
  H  H49  1  0.363518  0.460732  0.798590  1
  H  H50  1  0.136482  0.539268  0.298590  1
  H  H51  1  0.636482  0.960732  0.701410  1
  H  H52  1  0.136482  0.960732  0.798590  1
  H  H53  1  0.636482  0.539268  0.201410  1
  H  H54  1  0.863518  0.460732  0.701410  1
  H  H55  1  0.363518  0.039268  0.298590  1
  H  H56  1  0.772216  0.893673  0.185472  1
  H  H57  1  0.272216  0.606327  0.814528  1
  H  H58  1  0.227784  0.393673  0.314528  1
  H  H59  1  0.727784  0.106327  0.685472  1
  H  H60  1  0.227784  0.106327  0.814528  1
  H  H61  1  0.727784  0.393673  0.185472  1
  H  H62  1  0.772216  0.606327  0.685472  1
  H  H63  1  0.272216  0.893673  0.314528  1
  C  C64  1  0.807191  0.941730  0.472591  1
  C  C65  1  0.307191  0.558270  0.527409  1
  C  C66  1  0.192809  0.441730  0.027409  1
  C  C67  1  0.692809  0.058270  0.972591  1
  C  C68  1  0.192809  0.058270  0.527409  1
  C  C69  1  0.692809  0.441730  0.472591  1
  C  C70  1  0.807191  0.558270  0.972591  1
  C  C71  1  0.307191  0.941730  0.027409  1
  C  C72  1  0.756497  0.958542  0.281735  1
  C  C73  1  0.256497  0.541458  0.718265  1
  C  C74  1  0.243503  0.458542  0.218265  1
  C  C75  1  0.743503  0.041458  0.781735  1
  C  C76  1  0.243503  0.041458  0.718265  1
  C  C77  1  0.743503  0.458542  0.281735  1
  C  C78  1  0.756497  0.541458  0.781735  1
  C  C79  1  0.256497  0.958542  0.218265  1
  S  S80  1  0.731057  0.065698  0.423235  1
  S  S81  1  0.231057  0.434302  0.576765  1
  S  S82  1  0.268943  0.565698  0.076765  1
  S  S83  1  0.768943  0.934302  0.923235  1
  S  S84  1  0.268943  0.934302  0.576765  1
  S  S85  1  0.768943  0.565698  0.423235  1
  S  S86  1  0.731057  0.434302  0.923235  1
  S  S87  1  0.231057  0.065698  0.076765  1
  S  S88  1  0.852322  0.063444  0.336893  1
  S  S89  1  0.352322  0.436556  0.663107  1
  S  S90  1  0.147678  0.563444  0.163107  1
  S  S91  1  0.647678  0.936556  0.836893  1
  S  S92  1  0.147678  0.936556  0.663107  1
  S  S93  1  0.647678  0.563444  0.336893  1
  S  S94  1  0.852322  0.436556  0.836893  1
  S  S95  1  0.352322  0.063444  0.163107  1
  N  N96  1  0.912197  0.866004  0.450921  1
  N  N97  1  0.412197  0.633996  0.549079  1
  N  N98  1  0.087803  0.366004  0.049079  1
  N  N99  1  0.587803  0.133996  0.950921  1
  N  N100  1  0.087803  0.133996  0.549079  1
  N  N101  1  0.587803  0.366004  0.450921  1
  N  N102  1  0.912197  0.633996  0.950921  1
  N  N103  1  0.412197  0.866004  0.049079  1
  N  N104  1  0.748014  0.930364  0.533364  1
  N  N105  1  0.248014  0.569636  0.466636  1
  N  N106  1  0.251986  0.430364  0.966636  1
  N  N107  1  0.751986  0.069636  0.033364  1
  N  N108  1  0.251986  0.069636  0.466636  1
  N  N109  1  0.751986  0.430364  0.533364  1
  N  N110  1  0.748014  0.569636  0.033364  1
  N  N111  1  0.248014  0.930364  0.966636  1
  N  N112  1  0.653445  0.880134  0.301990  1
  N  N113  1  0.153445  0.619866  0.698010  1
  N  N114  1  0.346555  0.380134  0.198010  1
  N  N115  1  0.846555  0.119866  0.801990  1
  N  N116  1  0.346555  0.119866  0.698010  1
  N  N117  1  0.846555  0.380134  0.301990  1
  N  N118  1  0.653445  0.619866  0.801990  1
  N  N119  1  0.153445  0.880134  0.198010  1
  N  N120  1  0.805228  0.961660  0.218899  1
  N  N121  1  0.305228  0.538340  0.781101  1
  N  N122  1  0.194772  0.461660  0.281101  1
  N  N123  1  0.694772  0.038340  0.718899  1
  N  N124  1  0.194772  0.038340  0.781101  1
  N  N125  1  0.694772  0.461660  0.218899  1
  N  N126  1  0.805228  0.538340  0.718899  1
  N  N127  1  0.305228  0.961660  0.281101  1
  Cl  Cl128  1  0.932066  0.678283  0.575089  1
  Cl  Cl129  1  0.432066  0.821717  0.424911  1
  Cl  Cl130  1  0.067934  0.178283  0.924911  1
  Cl  Cl131  1  0.567934  0.321717  0.075089  1
  Cl  Cl132  1  0.067934  0.321717  0.424911  1
  Cl  Cl133  1  0.567934  0.178283  0.575089  1
  Cl  Cl134  1  0.932066  0.821717  0.075089  1
  Cl  Cl135  1  0.432066  0.678283  0.924911  1
  Cl  Cl136  1  0.546650  0.720702  0.178258  1
  Cl  Cl137  1  0.046650  0.779298  0.821742  1
  Cl  Cl138  1  0.453350  0.220702  0.321742  1
  Cl  Cl139  1  0.953350  0.279298  0.678258  1
  Cl  Cl140  1  0.453350  0.279298  0.821742  1
  Cl  Cl141  1  0.953350  0.220702  0.178258  1
  Cl  Cl142  1  0.546650  0.779298  0.678258  1
  Cl  Cl143  1  0.046650  0.720702  0.321742  1
