# generated using pymatgen
data_LiNiO2
_symmetry_space_group_name_H-M   'P 1'
_cell_length_a   5.04404410
_cell_length_b   5.06223033
_cell_length_c   7.55069844
_cell_angle_alpha   107.22642686
_cell_angle_beta   104.00352472
_cell_angle_gamma   100.02902649
_symmetry_Int_Tables_number   1
_chemical_formula_structural   LiNiO2
_chemical_formula_sum   'Li5 Ni5 O10'
_cell_volume   172.27920981
_cell_formula_units_Z   5
loop_
 _symmetry_equiv_pos_site_id
 _symmetry_equiv_pos_as_xyz
  1  'x, y, z'
loop_
 _atom_site_type_symbol
 _atom_site_label
 _atom_site_symmetry_multiplicity
 _atom_site_fract_x
 _atom_site_fract_y
 _atom_site_fract_z
 _atom_site_occupancy
  Li  Li0  1  0.795856  0.502232  0.409195  1
  Li  Li1  1  0.606567  0.499830  0.782665  1
  Li  Li2  1  0.000000  0.000000  0.500000  1
  Li  Li3  1  0.393433  0.500170  0.217335  1
  Li  Li4  1  0.204144  0.497768  0.590805  1
  Ni  Ni5  1  0.403704  0.999485  0.696390  1
  Ni  Ni6  1  0.000000  0.500000  0.000000  1
  Ni  Ni7  1  0.800414  0.996660  0.898535  1
  Ni  Ni8  1  0.199586  0.003340  0.101465  1
  Ni  Ni9  1  0.596296  0.000515  0.303610  1
  O  O10  1  0.196445  0.245307  0.861989  1
  O  O11  1  0.378304  0.766774  0.948658  1
  O  O12  1  0.590522  0.765367  0.539837  1
  O  O13  1  0.996093  0.245540  0.230369  1
  O  O14  1  0.779290  0.223147  0.663476  1
  O  O15  1  0.220710  0.776853  0.336524  1
  O  O16  1  0.003907  0.754460  0.769631  1
  O  O17  1  0.409478  0.234633  0.460163  1
  O  O18  1  0.621696  0.233226  0.051342  1
  O  O19  1  0.803555  0.754693  0.138011  1
