# generated using pymatgen
data_LiSn2P4H3O16
_symmetry_space_group_name_H-M   'P 1'
_cell_length_a   4.96316177
_cell_length_b   7.57202436
_cell_length_c   8.17948581
_cell_angle_alpha   89.97871670
_cell_angle_beta   91.23927548
_cell_angle_gamma   103.96779840
_symmetry_Int_Tables_number   1
_chemical_formula_structural   LiSn2P4H3O16
_chemical_formula_sum   'Li1 Sn2 P4 H3 O16'
_cell_volume   298.23205314
_cell_formula_units_Z   1
loop_
 _symmetry_equiv_pos_site_id
 _symmetry_equiv_pos_as_xyz
  1  'x, y, z'
loop_
 _atom_site_type_symbol
 _atom_site_label
 _atom_site_symmetry_multiplicity
 _atom_site_fract_x
 _atom_site_fract_y
 _atom_site_fract_z
 _atom_site_occupancy
  Li  Li0  1  0.421161  0.865439  0.114927  1
  Sn  Sn1  1  0.499863  0.001845  0.502342  1
  Sn  Sn2  1  0.987784  0.491272  0.995839  1
  P  P3  1  0.122090  0.256841  0.655973  1
  P  P4  1  0.360875  0.231459  0.147966  1
  P  P5  1  0.630247  0.768503  0.850207  1
  P  P6  1  0.877132  0.737577  0.338633  1
  H  H7  1  0.002217  0.001757  0.004609  1
  H  H8  1  0.441385  0.506647  0.630144  1
  H  H9  1  0.537148  0.503149  0.405046  1
  O  O10  1  0.113926  0.832749  0.452968  1
  O  O11  1  0.987158  0.699809  0.170674  1
  O  O12  1  0.155801  0.355459  0.171531  1
  O  O13  1  0.272192  0.442868  0.570073  1
  O  O14  1  0.369827  0.669552  0.948095  1
  O  O15  1  0.550888  0.813080  0.673735  1
  O  O16  1  0.225291  0.051136  0.057983  1
  O  O17  1  0.332044  0.136292  0.675255  1
  O  O18  1  0.653833  0.852628  0.319025  1
  O  O19  1  0.756446  0.936792  0.954219  1
  O  O20  1  0.453784  0.182366  0.320092  1
  O  O21  1  0.605021  0.337825  0.048270  1
  O  O22  1  0.739729  0.550762  0.419747  1
  O  O23  1  0.819494  0.633844  0.825653  1
  O  O24  1  0.030655  0.300505  0.824847  1
  O  O25  1  0.884237  0.171272  0.537596  1
