# generated using pymatgen
data_Mn2InO5
_symmetry_space_group_name_H-M   'P 1'
_cell_length_a   5.70907285
_cell_length_b   7.45038505
_cell_length_c   8.34657653
_cell_angle_alpha   90.00000000
_cell_angle_beta   90.00000000
_cell_angle_gamma   90.00000000
_symmetry_Int_Tables_number   1
_chemical_formula_structural   Mn2InO5
_chemical_formula_sum   'Mn8 In4 O20'
_cell_volume   355.01988836
_cell_formula_units_Z   4
loop_
 _symmetry_equiv_pos_site_id
 _symmetry_equiv_pos_as_xyz
  1  'x, y, z'
loop_
 _atom_site_type_symbol
 _atom_site_label
 _atom_site_symmetry_multiplicity
 _atom_site_fract_x
 _atom_site_fract_y
 _atom_site_fract_z
 _atom_site_occupancy
  Mn  Mn0  1  0.253150  0.000000  0.500000  1
  Mn  Mn1  1  0.746850  0.000000  0.500000  1
  Mn  Mn2  1  0.500000  0.097208  0.846876  1
  Mn  Mn3  1  0.500000  0.402792  0.346876  1
  Mn  Mn4  1  0.253150  0.500000  0.000000  1
  Mn  Mn5  1  0.746850  0.500000  0.000000  1
  Mn  Mn6  1  0.500000  0.597208  0.653124  1
  Mn  Mn7  1  0.500000  0.902792  0.153124  1
  In  In8  1  0.000000  0.145333  0.162085  1
  In  In9  1  0.000000  0.354667  0.662085  1
  In  In10  1  0.000000  0.645333  0.337915  1
  In  In11  1  0.000000  0.854667  0.837915  1
  O  O12  1  0.262563  0.000000  0.000000  1
  O  O13  1  0.737437  0.000000  0.000000  1
  O  O14  1  0.241387  0.123942  0.700578  1
  O  O15  1  0.758613  0.123942  0.700578  1
  O  O16  1  0.000000  0.155073  0.429900  1
  O  O17  1  0.500000  0.141236  0.416093  1
  O  O18  1  0.500000  0.358764  0.916093  1
  O  O19  1  0.000000  0.344927  0.929900  1
  O  O20  1  0.241387  0.376058  0.200578  1
  O  O21  1  0.758613  0.376058  0.200578  1
  O  O22  1  0.737437  0.500000  0.500000  1
  O  O23  1  0.262563  0.500000  0.500000  1
  O  O24  1  0.241387  0.623942  0.799422  1
  O  O25  1  0.758613  0.623942  0.799422  1
  O  O26  1  0.000000  0.655073  0.070100  1
  O  O27  1  0.500000  0.641236  0.083907  1
  O  O28  1  0.500000  0.858764  0.583907  1
  O  O29  1  0.000000  0.844927  0.570100  1
  O  O30  1  0.241387  0.876058  0.299422  1
  O  O31  1  0.758613  0.876058  0.299422  1
