# generated using pymatgen
data_Ba2VI5O17
_symmetry_space_group_name_H-M   'P 1'
_cell_length_a   7.26160228
_cell_length_b   33.69774524
_cell_length_c   7.68588114
_cell_angle_alpha   90.00000000
_cell_angle_beta   116.19585323
_cell_angle_gamma   90.00000000
_symmetry_Int_Tables_number   1
_chemical_formula_structural   Ba2VI5O17
_chemical_formula_sum   'Ba8 V4 I20 O68'
_cell_volume   1687.56282023
_cell_formula_units_Z   4
loop_
 _symmetry_equiv_pos_site_id
 _symmetry_equiv_pos_as_xyz
  1  'x, y, z'
loop_
 _atom_site_type_symbol
 _atom_site_label
 _atom_site_symmetry_multiplicity
 _atom_site_fract_x
 _atom_site_fract_y
 _atom_site_fract_z
 _atom_site_occupancy
  Ba  Ba0  1  0.828058  0.997845  0.184705  1
  Ba  Ba1  1  0.519099  0.813029  0.622041  1
  Ba  Ba2  1  0.480901  0.186971  0.377959  1
  Ba  Ba3  1  0.171942  0.002155  0.815295  1
  Ba  Ba4  1  0.980901  0.313029  0.377959  1
  Ba  Ba5  1  0.019099  0.686971  0.622041  1
  Ba  Ba6  1  0.328058  0.502155  0.184705  1
  Ba  Ba7  1  0.671942  0.497845  0.815295  1
  V  V8  1  0.979739  0.903528  0.972655  1
  V  V9  1  0.479739  0.596472  0.972655  1
  V  V10  1  0.520261  0.403528  0.027345  1
  V  V11  1  0.020261  0.096472  0.027345  1
  I  I12  1  0.443526  0.047853  0.398124  1
  I  I13  1  0.507902  0.114111  0.874564  1
  I  I14  1  0.866069  0.784870  0.276714  1
  I  I15  1  0.007902  0.385889  0.874564  1
  I  I16  1  0.101410  0.800735  0.901313  1
  I  I17  1  0.898590  0.199265  0.098687  1
  I  I18  1  0.398590  0.300735  0.098687  1
  I  I19  1  0.366069  0.715130  0.276714  1
  I  I20  1  0.556474  0.952147  0.601876  1
  I  I21  1  0.418282  0.396182  0.439193  1
  I  I22  1  0.492098  0.885889  0.125436  1
  I  I23  1  0.918282  0.103818  0.439193  1
  I  I24  1  0.601410  0.699265  0.901313  1
  I  I25  1  0.133931  0.215130  0.723286  1
  I  I26  1  0.943526  0.452147  0.398124  1
  I  I27  1  0.581718  0.603818  0.560807  1
  I  I28  1  0.081718  0.896182  0.560807  1
  I  I29  1  0.056474  0.547853  0.601876  1
  I  I30  1  0.633931  0.284870  0.723286  1
  I  I31  1  0.992098  0.614111  0.125436  1
  O  O32  1  0.036224  0.531938  0.820350  1
  O  O33  1  0.161632  0.386190  0.414708  1
  O  O34  1  0.951227  0.053637  0.533705  1
  O  O35  1  0.838368  0.613810  0.585292  1
  O  O36  1  0.657383  0.388616  0.911378  1
  O  O37  1  0.754338  0.911681  0.706435  1
  O  O38  1  0.165963  0.913102  0.814049  1
  O  O39  1  0.334037  0.413102  0.185951  1
  O  O40  1  0.443487  0.064857  0.766006  1
  O  O41  1  0.473516  0.451988  0.970342  1
  O  O42  1  0.455678  0.730054  0.688528  1
  O  O43  1  0.943487  0.435143  0.766006  1
  O  O44  1  0.056513  0.564857  0.233994  1
  O  O45  1  0.931861  0.844696  0.807256  1
  O  O46  1  0.955678  0.769946  0.688528  1
  O  O47  1  0.526213  0.234649  0.678091  1
  O  O48  1  0.068139  0.155304  0.192744  1
  O  O49  1  0.973787  0.734649  0.321909  1
  O  O50  1  0.451227  0.446363  0.533705  1
  O  O51  1  0.137452  0.646215  0.331141  1
  O  O52  1  0.225607  0.508595  0.589263  1
  O  O53  1  0.526484  0.548012  0.029658  1
  O  O54  1  0.740988  0.621726  0.145038  1
  O  O55  1  0.556513  0.935143  0.233994  1
  O  O56  1  0.048773  0.946363  0.466295  1
  O  O57  1  0.536224  0.968062  0.820350  1
  O  O58  1  0.759012  0.121726  0.854962  1
  O  O59  1  0.834037  0.086898  0.185951  1
  O  O60  1  0.902156  0.185039  0.630165  1
  O  O61  1  0.568139  0.344696  0.192744  1
  O  O62  1  0.710850  0.284873  0.986918  1
  O  O63  1  0.661632  0.113810  0.414708  1
  O  O64  1  0.544322  0.269946  0.311472  1
  O  O65  1  0.317350  0.818490  0.860626  1
  O  O66  1  0.254338  0.588319  0.706435  1
  O  O67  1  0.245662  0.088319  0.293565  1
  O  O68  1  0.682650  0.181510  0.139374  1
  O  O69  1  0.463776  0.031938  0.179650  1
  O  O70  1  0.431861  0.655304  0.807256  1
  O  O71  1  0.274393  0.008595  0.410737  1
  O  O72  1  0.157383  0.111384  0.911378  1
  O  O73  1  0.044322  0.230054  0.311472  1
  O  O74  1  0.973516  0.048012  0.970342  1
  O  O75  1  0.289150  0.715127  0.013082  1
  O  O76  1  0.725607  0.991405  0.589263  1
  O  O77  1  0.774393  0.491405  0.410737  1
  O  O78  1  0.210850  0.215127  0.986918  1
  O  O79  1  0.548773  0.553637  0.466295  1
  O  O80  1  0.240988  0.878274  0.145038  1
  O  O81  1  0.817350  0.681510  0.860626  1
  O  O82  1  0.026484  0.951988  0.029658  1
  O  O83  1  0.637452  0.853785  0.331141  1
  O  O84  1  0.259012  0.378274  0.854962  1
  O  O85  1  0.789150  0.784873  0.013082  1
  O  O86  1  0.097844  0.814961  0.369835  1
  O  O87  1  0.026213  0.265351  0.678091  1
  O  O88  1  0.745662  0.411681  0.293565  1
  O  O89  1  0.963776  0.468062  0.179650  1
  O  O90  1  0.182650  0.318490  0.139374  1
  O  O91  1  0.597844  0.685039  0.369835  1
  O  O92  1  0.665963  0.586898  0.814049  1
  O  O93  1  0.338368  0.886190  0.585292  1
  O  O94  1  0.473787  0.765351  0.321909  1
  O  O95  1  0.402156  0.314961  0.630165  1
  O  O96  1  0.842617  0.888616  0.088622  1
  O  O97  1  0.862548  0.353785  0.668859  1
  O  O98  1  0.362548  0.146215  0.668859  1
  O  O99  1  0.342617  0.611384  0.088622  1
