# generated using pymatgen
data_LiSiBiO4
_symmetry_space_group_name_H-M   'P 1'
_cell_length_a   4.88537248
_cell_length_b   5.36749224
_cell_length_c   12.48572948
_cell_angle_alpha   90.00000000
_cell_angle_beta   90.00000000
_cell_angle_gamma   90.00000000
_symmetry_Int_Tables_number   1
_chemical_formula_structural   LiSiBiO4
_chemical_formula_sum   'Li4 Si4 Bi4 O16'
_cell_volume   327.40328154
_cell_formula_units_Z   4
loop_
 _symmetry_equiv_pos_site_id
 _symmetry_equiv_pos_as_xyz
  1  'x, y, z'
loop_
 _atom_site_type_symbol
 _atom_site_label
 _atom_site_symmetry_multiplicity
 _atom_site_fract_x
 _atom_site_fract_y
 _atom_site_fract_z
 _atom_site_occupancy
  Li  Li0  1  0.000000  0.250000  0.236194  1
  Li  Li1  1  0.000000  0.750000  0.763806  1
  Li  Li2  1  0.500000  0.750000  0.263806  1
  Li  Li3  1  0.500000  0.250000  0.736194  1
  Si  Si4  1  0.000000  0.750000  0.384296  1
  Si  Si5  1  0.000000  0.250000  0.615704  1
  Si  Si6  1  0.500000  0.750000  0.884296  1
  Si  Si7  1  0.500000  0.250000  0.115704  1
  Bi  Bi8  1  0.000000  0.750000  0.100066  1
  Bi  Bi9  1  0.000000  0.250000  0.899934  1
  Bi  Bi10  1  0.500000  0.750000  0.600066  1
  Bi  Bi11  1  0.500000  0.250000  0.399934  1
  O  O12  1  0.837093  0.545165  0.308501  1
  O  O13  1  0.837093  0.045165  0.691499  1
  O  O14  1  0.744815  0.394738  0.045882  1
  O  O15  1  0.744815  0.894738  0.954118  1
  O  O16  1  0.755185  0.894738  0.454118  1
  O  O17  1  0.755185  0.394738  0.545882  1
  O  O18  1  0.662907  0.045165  0.191499  1
  O  O19  1  0.662907  0.545165  0.808501  1
  O  O20  1  0.337093  0.454835  0.191499  1
  O  O21  1  0.337093  0.954835  0.808501  1
  O  O22  1  0.244815  0.605262  0.454118  1
  O  O23  1  0.244815  0.105262  0.545882  1
  O  O24  1  0.255185  0.105262  0.045882  1
  O  O25  1  0.255185  0.605262  0.954118  1
  O  O26  1  0.162907  0.954835  0.308501  1
  O  O27  1  0.162907  0.454835  0.691499  1
