# generated using pymatgen
data_Ta2MnO6
_symmetry_space_group_name_H-M   'P 1'
_cell_length_a   7.57045185
_cell_length_b   7.57045185
_cell_length_c   15.55375296
_cell_angle_alpha   89.36287765
_cell_angle_beta   90.63712235
_cell_angle_gamma   79.15270798
_symmetry_Int_Tables_number   1
_chemical_formula_structural   Ta2MnO6
_chemical_formula_sum   'Ta16 Mn8 O48'
_cell_volume   875.35177101
_cell_formula_units_Z   8
loop_
 _symmetry_equiv_pos_site_id
 _symmetry_equiv_pos_as_xyz
  1  'x, y, z'
loop_
 _atom_site_type_symbol
 _atom_site_label
 _atom_site_symmetry_multiplicity
 _atom_site_fract_x
 _atom_site_fract_y
 _atom_site_fract_z
 _atom_site_occupancy
  Ta  Ta0  1  0.659036  0.161925  0.083080  1
  Ta  Ta1  1  0.830761  0.335872  0.251633  1
  Ta  Ta2  1  0.662303  0.164997  0.413033  1
  Ta  Ta3  1  0.838075  0.340964  0.583080  1
  Ta  Ta4  1  0.664128  0.169239  0.751633  1
  Ta  Ta5  1  0.835003  0.337697  0.913033  1
  Ta  Ta6  1  0.166205  0.166638  0.084092  1
  Ta  Ta7  1  0.166638  0.166205  0.415908  1
  Ta  Ta8  1  0.833362  0.833795  0.584092  1
  Ta  Ta9  1  0.833795  0.833362  0.915908  1
  Ta  Ta10  1  0.164997  0.662303  0.086967  1
  Ta  Ta11  1  0.335872  0.830761  0.248367  1
  Ta  Ta12  1  0.161925  0.659036  0.416920  1
  Ta  Ta13  1  0.337697  0.835003  0.586967  1
  Ta  Ta14  1  0.169239  0.664128  0.748367  1
  Ta  Ta15  1  0.340964  0.838075  0.916920  1
  Mn  Mn16  1  0.666515  0.656950  0.085025  1
  Mn  Mn17  1  0.830601  0.830601  0.250000  1
  Mn  Mn18  1  0.341717  0.341717  0.250000  1
  Mn  Mn19  1  0.656950  0.666515  0.414975  1
  Mn  Mn20  1  0.343050  0.333485  0.585025  1
  Mn  Mn21  1  0.169399  0.169399  0.750000  1
  Mn  Mn22  1  0.658283  0.658283  0.750000  1
  Mn  Mn23  1  0.333485  0.343050  0.914975  1
  O  O24  1  0.931984  0.191333  0.138684  1
  O  O25  1  0.801553  0.086463  0.311605  1
  O  O26  1  0.932625  0.195640  0.471436  1
  O  O27  1  0.808667  0.068016  0.638684  1
  O  O28  1  0.913537  0.198447  0.811605  1
  O  O29  1  0.804360  0.067375  0.971436  1
  O  O30  1  0.698542  0.397389  0.019047  1
  O  O31  1  0.599308  0.298812  0.187725  1
  O  O32  1  0.693267  0.408234  0.355057  1
  O  O33  1  0.602611  0.301458  0.519047  1
  O  O34  1  0.701188  0.400692  0.687725  1
  O  O35  1  0.419233  0.189202  0.037744  1
  O  O36  1  0.591766  0.306733  0.855057  1
  O  O37  1  0.934925  0.703392  0.022996  1
  O  O38  1  0.815937  0.559503  0.199790  1
  O  O39  1  0.295769  0.071680  0.192057  1
  O  O40  1  0.421835  0.185689  0.369374  1
  O  O41  1  0.932160  0.692907  0.369710  1
  O  O42  1  0.810798  0.580767  0.537744  1
  O  O43  1  0.296608  0.065075  0.522996  1
  O  O44  1  0.440497  0.184063  0.699790  1
  O  O45  1  0.928320  0.704231  0.692057  1
  O  O46  1  0.814311  0.578165  0.869374  1
  O  O47  1  0.307093  0.067840  0.869710  1
  O  O48  1  0.692907  0.932160  0.130290  1
  O  O49  1  0.185689  0.421835  0.130626  1
  O  O50  1  0.071680  0.295769  0.307943  1
  O  O51  1  0.559503  0.815937  0.300210  1
  O  O52  1  0.703392  0.934925  0.477004  1
  O  O53  1  0.189202  0.419233  0.462256  1
  O  O54  1  0.067840  0.307093  0.630290  1
  O  O55  1  0.578165  0.814311  0.630626  1
  O  O56  1  0.704231  0.928320  0.807943  1
  O  O57  1  0.184063  0.440497  0.800210  1
  O  O58  1  0.065075  0.296608  0.977004  1
  O  O59  1  0.408234  0.693267  0.144943  1
  O  O60  1  0.580767  0.810798  0.962256  1
  O  O61  1  0.298812  0.599308  0.312275  1
  O  O62  1  0.397389  0.698542  0.480953  1
  O  O63  1  0.306733  0.591766  0.644943  1
  O  O64  1  0.400692  0.701188  0.812275  1
  O  O65  1  0.301458  0.602611  0.980953  1
  O  O66  1  0.195640  0.932625  0.028564  1
  O  O67  1  0.086463  0.801553  0.188395  1
  O  O68  1  0.191333  0.931984  0.361316  1
  O  O69  1  0.067375  0.804360  0.528564  1
  O  O70  1  0.198447  0.913537  0.688395  1
  O  O71  1  0.068016  0.808667  0.861316  1
