# generated using pymatgen
data_Li2MnF4
_symmetry_space_group_name_H-M   'P 1'
_cell_length_a   5.11512135
_cell_length_b   10.24213431
_cell_length_c   12.62980055
_cell_angle_alpha   90.00000000
_cell_angle_beta   90.00000000
_cell_angle_gamma   90.00000000
_symmetry_Int_Tables_number   1
_chemical_formula_structural   Li2MnF4
_chemical_formula_sum   'Li16 Mn8 F32'
_cell_volume   661.67221813
_cell_formula_units_Z   8
loop_
 _symmetry_equiv_pos_site_id
 _symmetry_equiv_pos_as_xyz
  1  'x, y, z'
loop_
 _atom_site_type_symbol
 _atom_site_label
 _atom_site_symmetry_multiplicity
 _atom_site_fract_x
 _atom_site_fract_y
 _atom_site_fract_z
 _atom_site_occupancy
  Li  Li0  1  0.000000  0.000000  0.327643  1
  Li  Li1  1  0.000000  0.000000  0.688422  1
  Li  Li2  1  0.500000  0.000000  0.555197  1
  Li  Li3  1  0.000000  0.000000  0.968160  1
  Li  Li4  1  0.968793  0.296821  0.845559  1
  Li  Li5  1  0.006821  0.248643  0.191723  1
  Li  Li6  1  0.506821  0.251357  0.691723  1
  Li  Li7  1  0.468793  0.203179  0.345559  1
  Li  Li8  1  0.500000  0.500000  0.468160  1
  Li  Li9  1  0.000000  0.500000  0.055197  1
  Li  Li10  1  0.500000  0.500000  0.188422  1
  Li  Li11  1  0.500000  0.500000  0.827643  1
  Li  Li12  1  0.531207  0.796821  0.345559  1
  Li  Li13  1  0.493179  0.748643  0.691723  1
  Li  Li14  1  0.993179  0.751357  0.191723  1
  Li  Li15  1  0.031207  0.703179  0.845559  1
  Mn  Mn16  1  0.500000  0.000000  0.137853  1
  Mn  Mn17  1  0.500000  0.000000  0.845622  1
  Mn  Mn18  1  0.008874  0.225624  0.501118  1
  Mn  Mn19  1  0.508874  0.274376  0.001118  1
  Mn  Mn20  1  0.000000  0.500000  0.345622  1
  Mn  Mn21  1  0.000000  0.500000  0.637853  1
  Mn  Mn22  1  0.491126  0.725624  0.001118  1
  Mn  Mn23  1  0.991126  0.774376  0.501118  1
  F  F24  1  0.288141  0.104721  0.734030  1
  F  F25  1  0.261933  0.112840  0.236430  1
  F  F26  1  0.306438  0.093987  0.994497  1
  F  F27  1  0.757265  0.156198  0.106267  1
  F  F28  1  0.801400  0.131931  0.877276  1
  F  F29  1  0.306579  0.105053  0.462292  1
  F  F30  1  0.771635  0.127983  0.612013  1
  F  F31  1  0.824344  0.161764  0.360064  1
  F  F32  1  0.324344  0.338236  0.860064  1
  F  F33  1  0.271635  0.372017  0.112013  1
  F  F34  1  0.806579  0.394947  0.962292  1
  F  F35  1  0.301400  0.368069  0.377276  1
  F  F36  1  0.257265  0.343802  0.606267  1
  F  F37  1  0.806438  0.406013  0.494497  1
  F  F38  1  0.761933  0.387160  0.736430  1
  F  F39  1  0.788141  0.395279  0.234030  1
  F  F40  1  0.211859  0.604721  0.234030  1
  F  F41  1  0.238067  0.612840  0.736430  1
  F  F42  1  0.193562  0.593987  0.494497  1
  F  F43  1  0.698600  0.631931  0.377276  1
  F  F44  1  0.742735  0.656198  0.606267  1
  F  F45  1  0.193421  0.605053  0.962292  1
  F  F46  1  0.728365  0.627983  0.112013  1
  F  F47  1  0.675656  0.661764  0.860064  1
  F  F48  1  0.175656  0.838236  0.360064  1
  F  F49  1  0.228365  0.872017  0.612013  1
  F  F50  1  0.693421  0.894947  0.462292  1
  F  F51  1  0.242735  0.843802  0.106267  1
  F  F52  1  0.198600  0.868069  0.877276  1
  F  F53  1  0.693562  0.906013  0.994497  1
  F  F54  1  0.738067  0.887160  0.236430  1
  F  F55  1  0.711859  0.895279  0.734030  1
