# generated using pymatgen
data_Li4Ti5Cr3O16
_symmetry_space_group_name_H-M   'P 1'
_cell_length_a   5.92530910
_cell_length_b   5.92530910
_cell_length_c   9.55997837
_cell_angle_alpha   89.91443873
_cell_angle_beta   90.08556127
_cell_angle_gamma   119.98597279
_symmetry_Int_Tables_number   1
_chemical_formula_structural   Li4Ti5Cr3O16
_chemical_formula_sum   'Li4 Ti5 Cr3 O16'
_cell_volume   290.71690480
_cell_formula_units_Z   1
loop_
 _symmetry_equiv_pos_site_id
 _symmetry_equiv_pos_as_xyz
  1  'x, y, z'
loop_
 _atom_site_type_symbol
 _atom_site_label
 _atom_site_symmetry_multiplicity
 _atom_site_fract_x
 _atom_site_fract_y
 _atom_site_fract_z
 _atom_site_occupancy
  Li  Li0  1  0.664297  0.335703  0.105478  1
  Li  Li1  1  0.999041  0.000959  0.006859  1
  Li  Li2  1  0.999320  0.000680  0.503496  1
  Li  Li3  1  0.333668  0.666332  0.601649  1
  Ti  Ti4  1  0.173926  0.826074  0.276617  1
  Ti  Ti5  1  0.834617  0.656514  0.781426  1
  Ti  Ti6  1  0.667600  0.332400  0.502582  1
  Ti  Ti7  1  0.343486  0.165383  0.781426  1
  Ti  Ti8  1  0.340577  0.659423  0.008193  1
  Cr  Cr9  1  0.829155  0.170845  0.788726  1
  Cr  Cr10  1  0.659627  0.829945  0.288048  1
  Cr  Cr11  1  0.170055  0.340373  0.288048  1
  O  O12  1  0.834330  0.663488  0.404154  1
  O  O13  1  0.519520  0.480480  0.658930  1
  O  O14  1  0.662675  0.337325  0.896993  1
  O  O15  1  0.998853  0.001147  0.691227  1
  O  O16  1  0.001843  0.998157  0.193212  1
  O  O17  1  0.336512  0.165670  0.404154  1
  O  O18  1  0.960085  0.483891  0.660675  1
  O  O19  1  0.516109  0.039915  0.660675  1
  O  O20  1  0.167425  0.832575  0.902701  1
  O  O21  1  0.831724  0.168276  0.405734  1
  O  O22  1  0.476202  0.963233  0.158749  1
  O  O23  1  0.036767  0.523798  0.158749  1
  O  O24  1  0.327568  0.672432  0.396103  1
  O  O25  1  0.666382  0.829164  0.904592  1
  O  O26  1  0.477475  0.522525  0.158351  1
  O  O27  1  0.170836  0.333618  0.904592  1
