# generated using pymatgen
data_Li14Fe2S9
_symmetry_space_group_name_H-M   'P 1'
_cell_length_a   7.04094604
_cell_length_b   7.04094604
_cell_length_c   9.85976443
_cell_angle_alpha   90.00000000
_cell_angle_beta   90.00000000
_cell_angle_gamma   120.00000000
_symmetry_Int_Tables_number   1
_chemical_formula_structural   Li14Fe2S9
_chemical_formula_sum   'Li14 Fe2 S9'
_cell_volume   423.31065786
_cell_formula_units_Z   1
loop_
 _symmetry_equiv_pos_site_id
 _symmetry_equiv_pos_as_xyz
  1  'x, y, z'
loop_
 _atom_site_type_symbol
 _atom_site_label
 _atom_site_symmetry_multiplicity
 _atom_site_fract_x
 _atom_site_fract_y
 _atom_site_fract_z
 _atom_site_occupancy
  Li  Li0  1  0.671737  0.656168  0.909199  1
  Li  Li1  1  0.963986  0.640393  0.590895  1
  Li  Li2  1  0.359607  0.323592  0.590895  1
  Li  Li3  1  0.000000  0.000000  0.250757  1
  Li  Li4  1  0.000000  0.000000  0.749243  1
  Li  Li5  1  0.343832  0.015569  0.909199  1
  Li  Li6  1  0.984431  0.328263  0.909199  1
  Li  Li7  1  0.323592  0.963986  0.409105  1
  Li  Li8  1  0.676408  0.036014  0.590895  1
  Li  Li9  1  0.015569  0.671737  0.090801  1
  Li  Li10  1  0.656168  0.984431  0.090801  1
  Li  Li11  1  0.640393  0.676408  0.409105  1
  Li  Li12  1  0.036014  0.359607  0.409105  1
  Li  Li13  1  0.328263  0.343832  0.090801  1
  Fe  Fe14  1  0.666667  0.333333  0.255581  1
  Fe  Fe15  1  0.333333  0.666667  0.744419  1
  S  S16  1  0.967408  0.658612  0.336628  1
  S  S17  1  0.341388  0.308796  0.336628  1
  S  S18  1  0.666667  0.333333  0.018068  1
  S  S19  1  0.000000  0.000000  0.000000  1
  S  S20  1  0.308796  0.967408  0.663372  1
  S  S21  1  0.691204  0.032592  0.336628  1
  S  S22  1  0.333333  0.666667  0.981932  1
  S  S23  1  0.658612  0.691204  0.663372  1
  S  S24  1  0.032592  0.341388  0.663372  1
