# generated using pymatgen
data_Li3Mn2P2(CO7)2
_symmetry_space_group_name_H-M   'P 1'
_cell_length_a   8.20153494
_cell_length_b   8.27185490
_cell_length_c   9.40746040
_cell_angle_alpha   106.17155301
_cell_angle_beta   107.60812114
_cell_angle_gamma   104.13594304
_symmetry_Int_Tables_number   1
_chemical_formula_structural   Li3Mn2P2(CO7)2
_chemical_formula_sum   'Li6 Mn4 P4 C4 O28'
_cell_volume   545.34133546
_cell_formula_units_Z   2
loop_
 _symmetry_equiv_pos_site_id
 _symmetry_equiv_pos_as_xyz
  1  'x, y, z'
loop_
 _atom_site_type_symbol
 _atom_site_label
 _atom_site_symmetry_multiplicity
 _atom_site_fract_x
 _atom_site_fract_y
 _atom_site_fract_z
 _atom_site_occupancy
  Li  Li0  1  0.006607  0.496794  0.248444  1
  Li  Li1  1  0.235951  0.255751  0.254060  1
  Li  Li2  1  0.525845  0.977200  0.269881  1
  Li  Li3  1  0.474155  0.022800  0.730119  1
  Li  Li4  1  0.764049  0.744249  0.745940  1
  Li  Li5  1  0.993393  0.503206  0.751556  1
  Mn  Mn6  1  0.688296  0.440793  0.332799  1
  Mn  Mn7  1  0.180012  0.933474  0.332874  1
  Mn  Mn8  1  0.819988  0.066526  0.667126  1
  Mn  Mn9  1  0.311704  0.559207  0.667201  1
  P  P10  1  0.942870  0.209508  0.419758  1
  P  P11  1  0.454374  0.695398  0.422932  1
  P  P12  1  0.057130  0.790492  0.580242  1
  P  P13  1  0.545626  0.304602  0.577068  1
  C  C14  1  0.507925  0.249815  0.049518  1
  C  C15  1  0.008027  0.751360  0.047657  1
  C  C16  1  0.991973  0.248640  0.952343  1
  C  C17  1  0.492075  0.750185  0.950482  1
  O  O18  1  0.141844  0.908110  0.107257  1
  O  O19  1  0.648971  0.399716  0.103281  1
  O  O20  1  0.083006  0.337710  0.100980  1
  O  O21  1  0.470350  0.225717  0.172825  1
  O  O22  1  0.577771  0.856169  0.091352  1
  O  O23  1  0.979966  0.700475  0.160881  1
  O  O24  1  0.040001  0.117954  0.328158  1
  O  O25  1  0.536084  0.580994  0.325114  1
  O  O26  1  0.368283  0.791141  0.321639  1
  O  O27  1  0.837623  0.293336  0.309904  1
  O  O28  1  0.400059  0.166256  0.409588  1
  O  O29  1  0.304592  0.563923  0.454160  1
  O  O30  1  0.801842  0.080602  0.456036  1
  O  O31  1  0.919575  0.640724  0.413750  1
  O  O32  1  0.080425  0.359276  0.586250  1
  O  O33  1  0.198158  0.919398  0.543964  1
  O  O34  1  0.695408  0.436077  0.545840  1
  O  O35  1  0.599941  0.833744  0.590412  1
  O  O36  1  0.162377  0.706664  0.690096  1
  O  O37  1  0.463916  0.419006  0.674886  1
  O  O38  1  0.631717  0.208859  0.678361  1
  O  O39  1  0.959999  0.882046  0.671842  1
  O  O40  1  0.020034  0.299525  0.839119  1
  O  O41  1  0.422229  0.143831  0.908648  1
  O  O42  1  0.529650  0.774283  0.827175  1
  O  O43  1  0.916994  0.662290  0.899020  1
  O  O44  1  0.858156  0.091890  0.892743  1
  O  O45  1  0.351029  0.600284  0.896719  1
