# generated using pymatgen
data_Zr2N2O
_symmetry_space_group_name_H-M   'P 1'
_cell_length_a   7.04354995
_cell_length_b   7.04354995
_cell_length_c   16.67824321
_cell_angle_alpha   79.55875731
_cell_angle_beta   100.44124269
_cell_angle_gamma   152.43831372
_symmetry_Int_Tables_number   1
_chemical_formula_structural   Zr2N2O
_chemical_formula_sum   'Zr12 N12 O6'
_cell_volume   376.13218940
_cell_formula_units_Z   6
loop_
 _symmetry_equiv_pos_site_id
 _symmetry_equiv_pos_as_xyz
  1  'x, y, z'
loop_
 _atom_site_type_symbol
 _atom_site_label
 _atom_site_symmetry_multiplicity
 _atom_site_fract_x
 _atom_site_fract_y
 _atom_site_fract_z
 _atom_site_occupancy
  Zr  Zr0  1  0.030174  0.969826  0.154547  1
  Zr  Zr1  1  0.036620  0.963380  0.652180  1
  Zr  Zr2  1  0.628434  0.371566  0.987496  1
  Zr  Zr3  1  0.695327  0.304673  0.817141  1
  Zr  Zr4  1  0.634591  0.365409  0.496501  1
  Zr  Zr5  1  0.304673  0.695327  0.182859  1
  Zr  Zr6  1  0.697040  0.302960  0.315358  1
  Zr  Zr7  1  0.371566  0.628434  0.012504  1
  Zr  Zr8  1  0.302960  0.697040  0.684642  1
  Zr  Zr9  1  0.365409  0.634591  0.503499  1
  Zr  Zr10  1  0.969826  0.030174  0.845453  1
  Zr  Zr11  1  0.963380  0.036620  0.347820  1
  N  N12  1  0.533776  0.466224  0.078922  1
  N  N13  1  0.525615  0.474385  0.577878  1
  N  N14  1  0.173453  0.826547  0.233977  1
  N  N15  1  0.127639  0.872361  0.894409  1
  N  N16  1  0.171648  0.828352  0.735563  1
  N  N17  1  0.204090  0.795910  0.562425  1
  N  N18  1  0.872361  0.127639  0.105591  1
  N  N19  1  0.826547  0.173453  0.766023  1
  N  N20  1  0.795910  0.204090  0.437575  1
  N  N21  1  0.828352  0.171648  0.264437  1
  N  N22  1  0.466224  0.533776  0.921078  1
  N  N23  1  0.474385  0.525615  0.422122  1
  O  O24  1  0.208021  0.791979  0.059780  1
  O  O25  1  0.125760  0.874240  0.386960  1
  O  O26  1  0.791979  0.208021  0.940220  1
  O  O27  1  0.874240  0.125760  0.613040  1
  O  O28  1  0.500227  0.499773  0.749846  1
  O  O29  1  0.499773  0.500227  0.250154  1
