# generated using pymatgen
data_Li7Fe3O8
_symmetry_space_group_name_H-M   'P 1'
_cell_length_a   5.55052105
_cell_length_b   7.75152219
_cell_length_c   10.46267927
_cell_angle_alpha   111.12979479
_cell_angle_beta   86.04107918
_cell_angle_gamma   109.13975299
_symmetry_Int_Tables_number   1
_chemical_formula_structural   Li7Fe3O8
_chemical_formula_sum   'Li14 Fe6 O16'
_cell_volume   396.06248821
_cell_formula_units_Z   2
loop_
 _symmetry_equiv_pos_site_id
 _symmetry_equiv_pos_as_xyz
  1  'x, y, z'
loop_
 _atom_site_type_symbol
 _atom_site_label
 _atom_site_symmetry_multiplicity
 _atom_site_fract_x
 _atom_site_fract_y
 _atom_site_fract_z
 _atom_site_occupancy
  Li  Li0  1  0.284799  0.116435  0.933373  1
  Li  Li1  1  0.317121  0.567752  0.946348  1
  Li  Li2  1  0.143627  0.202622  0.665605  1
  Li  Li3  1  0.467551  0.547839  0.722355  1
  Li  Li4  1  0.580780  0.360338  0.561039  1
  Li  Li5  1  0.460050  0.967522  0.779627  1
  Li  Li6  1  0.284016  0.063142  0.483844  1
  Li  Li7  1  0.715984  0.936858  0.516156  1
  Li  Li8  1  0.539950  0.032478  0.220373  1
  Li  Li9  1  0.419220  0.639662  0.438961  1
  Li  Li10  1  0.532449  0.452161  0.277645  1
  Li  Li11  1  0.856373  0.797378  0.334395  1
  Li  Li12  1  0.682879  0.432248  0.053652  1
  Li  Li13  1  0.715201  0.883565  0.066627  1
  Fe  Fe14  1  0.808185  0.273904  0.854205  1
  Fe  Fe15  1  0.947612  0.828881  0.838064  1
  Fe  Fe16  1  0.059887  0.690122  0.621800  1
  Fe  Fe17  1  0.940113  0.309878  0.378200  1
  Fe  Fe18  1  0.052388  0.171119  0.161936  1
  Fe  Fe19  1  0.191815  0.726096  0.145795  1
  O  O20  1  0.909667  0.063488  0.845410  1
  O  O21  1  0.486221  0.251501  0.763008  1
  O  O22  1  0.266249  0.813796  0.953340  1
  O  O23  1  0.649327  0.636009  0.875845  1
  O  O24  1  0.100053  0.489961  0.796864  1
  O  O25  1  0.076474  0.928724  0.658963  1
  O  O26  1  0.632392  0.214304  0.460153  1
  O  O27  1  0.235648  0.368249  0.481860  1
  O  O28  1  0.764352  0.631751  0.518140  1
  O  O29  1  0.367608  0.785696  0.539847  1
  O  O30  1  0.923526  0.071276  0.341037  1
  O  O31  1  0.899947  0.510039  0.203136  1
  O  O32  1  0.350673  0.363991  0.124155  1
  O  O33  1  0.733751  0.186204  0.046660  1
  O  O34  1  0.513779  0.748499  0.236992  1
  O  O35  1  0.090333  0.936512  0.154590  1
