# generated using pymatgen
data_La4Al6O15
_symmetry_space_group_name_H-M   'P 1'
_cell_length_a   6.96862349
_cell_length_b   6.96862349
_cell_length_c   21.22022844
_cell_angle_alpha   86.58393297
_cell_angle_beta   93.41606703
_cell_angle_gamma   137.46581389
_symmetry_Int_Tables_number   1
_chemical_formula_structural   La4Al6O15
_chemical_formula_sum   'La8 Al12 O30'
_cell_volume   695.21704700
_cell_formula_units_Z   2
loop_
 _symmetry_equiv_pos_site_id
 _symmetry_equiv_pos_as_xyz
  1  'x, y, z'
loop_
 _atom_site_type_symbol
 _atom_site_label
 _atom_site_symmetry_multiplicity
 _atom_site_fract_x
 _atom_site_fract_y
 _atom_site_fract_z
 _atom_site_occupancy
  La  La0  1  0.942748  0.663724  0.049616  1
  La  La1  1  0.937886  0.642498  0.852664  1
  La  La2  1  0.325164  0.040098  0.548931  1
  La  La3  1  0.356204  0.062565  0.351972  1
  La  La4  1  0.642498  0.937886  0.147336  1
  La  La5  1  0.663724  0.942748  0.950384  1
  La  La6  1  0.062565  0.356204  0.648028  1
  La  La7  1  0.050013  0.317892  0.451217  1
  Al  Al8  1  0.378670  0.205174  0.164544  1
  Al  Al9  1  0.349147  0.185390  0.945192  1
  Al  Al10  1  0.979694  0.648589  0.225092  1
  Al  Al11  1  0.790022  0.612249  0.664853  1
  Al  Al12  1  0.806006  0.640657  0.444893  1
  Al  Al13  1  0.346629  0.013141  0.724511  1
  Al  Al14  1  0.648589  0.979694  0.774908  1
  Al  Al15  1  0.185390  0.349147  0.054808  1
  Al  Al16  1  0.205174  0.378670  0.835456  1
  Al  Al17  1  0.013141  0.346629  0.275489  1
  Al  Al18  1  0.648383  0.798178  0.555298  1
  Al  Al19  1  0.612249  0.790022  0.335147  1
  O  O20  1  0.191397  0.125570  0.870047  1
  O  O21  1  0.721046  0.561475  0.171656  1
  O  O22  1  0.692551  0.534708  0.947926  1
  O  O23  1  0.261621  0.018672  0.238176  1
  O  O24  1  0.867698  0.799790  0.369717  1
  O  O25  1  0.432541  0.271505  0.671315  1
  O  O26  1  0.387761  0.022604  0.111906  1
  O  O27  1  0.453888  0.299026  0.447551  1
  O  O28  1  0.976502  0.730899  0.738403  1
  O  O29  1  0.313012  0.908420  0.957898  1
  O  O30  1  0.508529  0.089221  0.802467  1
  O  O31  1  0.089221  0.508529  0.197533  1
  O  O32  1  0.977666  0.606144  0.613174  1
  O  O33  1  0.081983  0.675422  0.459130  1
  O  O34  1  0.908420  0.313012  0.042102  1
  O  O35  1  0.022604  0.387761  0.888094  1
  O  O36  1  0.903321  0.484510  0.302795  1
  O  O37  1  0.484510  0.903321  0.697205  1
  O  O38  1  0.684847  0.075193  0.541400  1
  O  O39  1  0.018672  0.261621  0.761824  1
  O  O40  1  0.534708  0.692551  0.052074  1
  O  O41  1  0.609862  0.965951  0.388002  1
  O  O42  1  0.561475  0.721046  0.828344  1
  O  O43  1  0.125570  0.191397  0.129953  1
  O  O44  1  0.117597  0.117597  0.000000  1
  O  O45  1  0.730899  0.976502  0.261597  1
  O  O46  1  0.299026  0.453888  0.552449  1
  O  O47  1  0.271505  0.432541  0.328685  1
  O  O48  1  0.799790  0.867698  0.630283  1
  O  O49  1  0.875638  0.866953  0.500247  1
