# generated using pymatgen
data_LaBO3
_symmetry_space_group_name_H-M   'P 1'
_cell_length_a   4.18818543
_cell_length_b   5.13066477
_cell_length_c   6.42761677
_cell_angle_alpha   90.00000000
_cell_angle_beta   108.31448852
_cell_angle_gamma   90.00000000
_symmetry_Int_Tables_number   1
_chemical_formula_structural   LaBO3
_chemical_formula_sum   'La2 B2 O6'
_cell_volume   131.12154664
_cell_formula_units_Z   2
loop_
 _symmetry_equiv_pos_site_id
 _symmetry_equiv_pos_as_xyz
  1  'x, y, z'
loop_
 _atom_site_type_symbol
 _atom_site_label
 _atom_site_symmetry_multiplicity
 _atom_site_fract_x
 _atom_site_fract_y
 _atom_site_fract_z
 _atom_site_occupancy
  La  La0  1  0.383346  0.750000  0.223809  1
  La  La1  1  0.616654  0.250000  0.776191  1
  B  B2  1  0.001236  0.750000  0.746247  1
  B  B3  1  0.998764  0.250000  0.253753  1
  O  O4  1  0.157003  0.982732  0.828795  1
  O  O5  1  0.842997  0.482732  0.171205  1
  O  O6  1  0.328487  0.250000  0.388627  1
  O  O7  1  0.671513  0.750000  0.611373  1
  O  O8  1  0.842997  0.017268  0.171205  1
  O  O9  1  0.157003  0.517268  0.828795  1
