# generated using pymatgen
data_Mn(SO4)2
_symmetry_space_group_name_H-M   'P 1'
_cell_length_a   8.85318515
_cell_length_b   8.85318515
_cell_length_c   8.85318515
_cell_angle_alpha   55.78006970
_cell_angle_beta   55.78006970
_cell_angle_gamma   55.78006970
_symmetry_Int_Tables_number   1
_chemical_formula_structural   Mn(SO4)2
_chemical_formula_sum   'Mn3 S6 O24'
_cell_volume   442.64728150
_cell_formula_units_Z   3
loop_
 _symmetry_equiv_pos_site_id
 _symmetry_equiv_pos_as_xyz
  1  'x, y, z'
loop_
 _atom_site_type_symbol
 _atom_site_label
 _atom_site_symmetry_multiplicity
 _atom_site_fract_x
 _atom_site_fract_y
 _atom_site_fract_z
 _atom_site_occupancy
  Mn  Mn0  1  0.647892  0.647892  0.647892  1
  Mn  Mn1  1  0.355862  0.355862  0.355862  1
  Mn  Mn2  1  0.151854  0.151854  0.151854  1
  S  S3  1  0.252549  0.532955  0.964341  1
  S  S4  1  0.964341  0.252549  0.532955  1
  S  S5  1  0.532955  0.964341  0.252549  1
  S  S6  1  0.463835  0.045429  0.745895  1
  S  S7  1  0.045429  0.745895  0.463835  1
  S  S8  1  0.745895  0.463835  0.045429  1
  O  O9  1  0.704636  0.476429  0.894064  1
  O  O10  1  0.476429  0.894064  0.704636  1
  O  O11  1  0.052305  0.660768  0.994974  1
  O  O12  1  0.894064  0.704636  0.476429  1
  O  O13  1  0.292524  0.335551  0.977532  1
  O  O14  1  0.386687  0.615094  0.764079  1
  O  O15  1  0.764079  0.386687  0.615094  1
  O  O16  1  0.994974  0.052305  0.660768  1
  O  O17  1  0.615094  0.764079  0.386687  1
  O  O18  1  0.318974  0.021613  0.952201  1
  O  O19  1  0.648820  0.031063  0.710429  1
  O  O20  1  0.031063  0.710429  0.648820  1
  O  O21  1  0.977532  0.292524  0.335551  1
  O  O22  1  0.335551  0.977532  0.292524  1
  O  O23  1  0.660768  0.994974  0.052305  1
  O  O24  1  0.357651  0.243821  0.620443  1
  O  O25  1  0.021613  0.952201  0.318974  1
  O  O26  1  0.243821  0.620443  0.357651  1
  O  O27  1  0.620443  0.357651  0.243821  1
  O  O28  1  0.710429  0.648820  0.031063  1
  O  O29  1  0.105313  0.320738  0.501322  1
  O  O30  1  0.952201  0.318974  0.021613  1
  O  O31  1  0.501322  0.105313  0.320738  1
  O  O32  1  0.320738  0.501322  0.105313  1
