# generated using pymatgen
data_Al2(SeO4)3
_symmetry_space_group_name_H-M   'P 1'
_cell_length_a   8.70960925
_cell_length_b   8.78209279
_cell_length_c   12.20260047
_cell_angle_alpha   90.00000000
_cell_angle_beta   90.00000000
_cell_angle_gamma   90.00000000
_symmetry_Int_Tables_number   1
_chemical_formula_structural   Al2(SeO4)3
_chemical_formula_sum   'Al8 Se12 O48'
_cell_volume   933.35978480
_cell_formula_units_Z   4
loop_
 _symmetry_equiv_pos_site_id
 _symmetry_equiv_pos_as_xyz
  1  'x, y, z'
loop_
 _atom_site_type_symbol
 _atom_site_label
 _atom_site_symmetry_multiplicity
 _atom_site_fract_x
 _atom_site_fract_y
 _atom_site_fract_z
 _atom_site_occupancy
  Al  Al0  1  0.248724  0.964185  0.115568  1
  Al  Al1  1  0.751276  0.464185  0.115568  1
  Al  Al2  1  0.251276  0.464185  0.384432  1
  Al  Al3  1  0.748724  0.964185  0.384432  1
  Al  Al4  1  0.251276  0.035815  0.615568  1
  Al  Al5  1  0.748724  0.535815  0.615568  1
  Al  Al6  1  0.248724  0.535815  0.884432  1
  Al  Al7  1  0.751276  0.035815  0.884432  1
  Se  Se8  1  0.476158  0.250000  0.000000  1
  Se  Se9  1  0.523842  0.750000  0.000000  1
  Se  Se10  1  0.103671  0.617482  0.147998  1
  Se  Se11  1  0.896329  0.117482  0.147998  1
  Se  Se12  1  0.396329  0.117482  0.352002  1
  Se  Se13  1  0.603671  0.617482  0.352002  1
  Se  Se14  1  0.023842  0.750000  0.500000  1
  Se  Se15  1  0.976158  0.250000  0.500000  1
  Se  Se16  1  0.396329  0.382518  0.647998  1
  Se  Se17  1  0.603671  0.882518  0.647998  1
  Se  Se18  1  0.103671  0.882518  0.852002  1
  Se  Se19  1  0.896329  0.382518  0.852002  1
  O  O20  1  0.817822  0.069171  0.029822  1
  O  O21  1  0.182178  0.569171  0.029822  1
  O  O22  1  0.632361  0.630897  0.068939  1
  O  O23  1  0.367639  0.130897  0.068939  1
  O  O24  1  0.580139  0.330927  0.098719  1
  O  O25  1  0.419861  0.830927  0.098719  1
  O  O26  1  0.086379  0.103771  0.144337  1
  O  O27  1  0.913621  0.603771  0.144337  1
  O  O28  1  0.130817  0.801598  0.176194  1
  O  O29  1  0.869183  0.301598  0.176194  1
  O  O30  1  0.182894  0.498213  0.236901  1
  O  O31  1  0.817106  0.998213  0.236901  1
  O  O32  1  0.317106  0.998213  0.263099  1
  O  O33  1  0.682894  0.498213  0.263099  1
  O  O34  1  0.369183  0.301598  0.323806  1
  O  O35  1  0.630817  0.801598  0.323806  1
  O  O36  1  0.413621  0.603771  0.355663  1
  O  O37  1  0.586379  0.103771  0.355663  1
  O  O38  1  0.080139  0.330927  0.401281  1
  O  O39  1  0.919861  0.830927  0.401281  1
  O  O40  1  0.132361  0.630897  0.431061  1
  O  O41  1  0.867639  0.130897  0.431061  1
  O  O42  1  0.317822  0.069171  0.470178  1
  O  O43  1  0.682178  0.569171  0.470178  1
  O  O44  1  0.317822  0.430829  0.529822  1
  O  O45  1  0.682178  0.930829  0.529822  1
  O  O46  1  0.132361  0.869103  0.568939  1
  O  O47  1  0.867639  0.369103  0.568939  1
  O  O48  1  0.080139  0.169073  0.598719  1
  O  O49  1  0.919861  0.669073  0.598719  1
  O  O50  1  0.413621  0.896229  0.644337  1
  O  O51  1  0.586379  0.396229  0.644337  1
  O  O52  1  0.369183  0.198402  0.676194  1
  O  O53  1  0.630817  0.698402  0.676194  1
  O  O54  1  0.317106  0.501787  0.736901  1
  O  O55  1  0.682894  0.001787  0.736901  1
  O  O56  1  0.182894  0.001787  0.763099  1
  O  O57  1  0.817106  0.501787  0.763099  1
  O  O58  1  0.130817  0.698402  0.823806  1
  O  O59  1  0.869183  0.198402  0.823806  1
  O  O60  1  0.086379  0.396229  0.855663  1
  O  O61  1  0.913621  0.896229  0.855663  1
  O  O62  1  0.419861  0.669073  0.901281  1
  O  O63  1  0.580139  0.169073  0.901281  1
  O  O64  1  0.367639  0.369103  0.931061  1
  O  O65  1  0.632361  0.869103  0.931061  1
  O  O66  1  0.182178  0.930829  0.970178  1
  O  O67  1  0.817822  0.430829  0.970178  1
