# generated using pymatgen
data_Li5FeOF5
_symmetry_space_group_name_H-M   'P 1'
_cell_length_a   5.14354516
_cell_length_b   5.14354516
_cell_length_c   9.82462316
_cell_angle_alpha   85.39333189
_cell_angle_beta   94.60666811
_cell_angle_gamma   60.57181620
_symmetry_Int_Tables_number   1
_chemical_formula_structural   Li5FeOF5
_chemical_formula_sum   'Li10 Fe2 O2 F10'
_cell_volume   223.49454713
_cell_formula_units_Z   2
loop_
 _symmetry_equiv_pos_site_id
 _symmetry_equiv_pos_as_xyz
  1  'x, y, z'
loop_
 _atom_site_type_symbol
 _atom_site_label
 _atom_site_symmetry_multiplicity
 _atom_site_fract_x
 _atom_site_fract_y
 _atom_site_fract_z
 _atom_site_occupancy
  Li  Li0  1  0.422658  0.439646  0.259623  1
  Li  Li1  1  0.737317  0.749572  0.253367  1
  Li  Li2  1  0.105682  0.056889  0.255285  1
  Li  Li3  1  0.816176  0.353361  0.492515  1
  Li  Li4  1  0.174444  0.670104  0.491437  1
  Li  Li5  1  0.943111  0.894318  0.755285  1
  Li  Li6  1  0.560354  0.577342  0.759623  1
  Li  Li7  1  0.250428  0.262683  0.753367  1
  Li  Li8  1  0.329896  0.825556  0.991437  1
  Li  Li9  1  0.646639  0.183824  0.992515  1
  Fe  Fe10  1  0.497905  0.981458  0.493189  1
  Fe  Fe11  1  0.018542  0.502095  0.993189  1
  O  O12  1  0.461585  0.712609  0.378360  1
  O  O13  1  0.287391  0.538415  0.878360  1
  F  F14  1  0.385104  0.114926  0.128911  1
  F  F15  1  0.799093  0.054334  0.373138  1
  F  F16  1  0.885074  0.614896  0.628911  1
  F  F17  1  0.945666  0.200907  0.873138  1
  F  F18  1  0.038243  0.801812  0.130739  1
  F  F19  1  0.727653  0.459646  0.119945  1
  F  F20  1  0.118792  0.390295  0.373490  1
  F  F21  1  0.540354  0.272347  0.619945  1
  F  F22  1  0.198188  0.961757  0.630739  1
  F  F23  1  0.609705  0.881208  0.873490  1
