# generated using pymatgen
data_BaCa2I6
_symmetry_space_group_name_H-M   'P 1'
_cell_length_a   8.65773467
_cell_length_b   7.76948166
_cell_length_c   23.97326312
_cell_angle_alpha   90.00000000
_cell_angle_beta   93.31039477
_cell_angle_gamma   90.00000000
_symmetry_Int_Tables_number   1
_chemical_formula_structural   BaCa2I6
_chemical_formula_sum   'Ba4 Ca8 I24'
_cell_volume   1609.89733639
_cell_formula_units_Z   4
loop_
 _symmetry_equiv_pos_site_id
 _symmetry_equiv_pos_as_xyz
  1  'x, y, z'
loop_
 _atom_site_type_symbol
 _atom_site_label
 _atom_site_symmetry_multiplicity
 _atom_site_fract_x
 _atom_site_fract_y
 _atom_site_fract_z
 _atom_site_occupancy
  Ba  Ba0  1  0.145209  0.031262  0.403676  1
  Ba  Ba1  1  0.145209  0.468738  0.903676  1
  Ba  Ba2  1  0.854791  0.531262  0.096324  1
  Ba  Ba3  1  0.854791  0.968738  0.596324  1
  Ca  Ca4  1  0.253380  0.487763  0.247432  1
  Ca  Ca5  1  0.375309  0.968335  0.088545  1
  Ca  Ca6  1  0.253380  0.012237  0.747432  1
  Ca  Ca7  1  0.375309  0.531665  0.588545  1
  Ca  Ca8  1  0.624691  0.468335  0.411455  1
  Ca  Ca9  1  0.746620  0.987763  0.252568  1
  Ca  Ca10  1  0.624691  0.031665  0.911455  1
  Ca  Ca11  1  0.746620  0.512237  0.752568  1
  I  I12  1  0.036581  0.790835  0.200471  1
  I  I13  1  0.176830  0.275431  0.140975  1
  I  I14  1  0.134016  0.735981  0.023358  1
  I  I15  1  0.036581  0.709165  0.700471  1
  I  I16  1  0.176830  0.224569  0.640975  1
  I  I17  1  0.134016  0.764019  0.523358  1
  I  I18  1  0.384636  0.283714  0.485299  1
  I  I19  1  0.343674  0.681794  0.356035  1
  I  I20  1  0.476038  0.207685  0.312037  1
  I  I21  1  0.523962  0.707685  0.187963  1
  I  I22  1  0.384636  0.216286  0.985299  1
  I  I23  1  0.656326  0.181794  0.143965  1
  I  I24  1  0.343674  0.818206  0.856035  1
  I  I25  1  0.615364  0.783714  0.014701  1
  I  I26  1  0.476038  0.292315  0.812037  1
  I  I27  1  0.523962  0.792315  0.687963  1
  I  I28  1  0.656326  0.318206  0.643965  1
  I  I29  1  0.615364  0.716286  0.514701  1
  I  I30  1  0.865984  0.235981  0.476642  1
  I  I31  1  0.823170  0.775431  0.359025  1
  I  I32  1  0.963419  0.290835  0.299529  1
  I  I33  1  0.865984  0.264019  0.976642  1
  I  I34  1  0.823170  0.724569  0.859025  1
  I  I35  1  0.963419  0.209165  0.799529  1
