# generated using pymatgen
data_SrBi5O9
_symmetry_space_group_name_H-M   'P 1'
_cell_length_a   3.90348913
_cell_length_b   7.00828356
_cell_length_c   10.70225417
_cell_angle_alpha   97.10007328
_cell_angle_beta   99.68495458
_cell_angle_gamma   89.86728272
_symmetry_Int_Tables_number   1
_chemical_formula_structural   SrBi5O9
_chemical_formula_sum   'Sr1 Bi5 O9'
_cell_volume   286.34201051
_cell_formula_units_Z   1
loop_
 _symmetry_equiv_pos_site_id
 _symmetry_equiv_pos_as_xyz
  1  'x, y, z'
loop_
 _atom_site_type_symbol
 _atom_site_label
 _atom_site_symmetry_multiplicity
 _atom_site_fract_x
 _atom_site_fract_y
 _atom_site_fract_z
 _atom_site_occupancy
  Sr  Sr0  1  0.007020  0.997352  0.007866  1
  Bi  Bi1  1  0.650572  0.893569  0.314223  1
  Bi  Bi2  1  0.857434  0.613197  0.696030  1
  Bi  Bi3  1  0.494083  0.493818  0.976792  1
  Bi  Bi4  1  0.368431  0.125316  0.694615  1
  Bi  Bi5  1  0.144646  0.392974  0.298087  1
  O  O6  1  0.831430  0.159863  0.613563  1
  O  O7  1  0.557779  0.845626  0.115409  1
  O  O8  1  0.961116  0.652433  0.899458  1
  O  O9  1  0.644644  0.223791  0.295170  1
  O  O10  1  0.395668  0.450307  0.750512  1
  O  O11  1  0.373960  0.816114  0.700891  1
  O  O12  1  0.051400  0.365847  0.097870  1
  O  O13  1  0.154666  0.724585  0.324781  1
  O  O14  1  0.456178  0.157077  0.899434  1
