# generated using pymatgen
data_Li2V2Si2O9
_symmetry_space_group_name_H-M   'P 1'
_cell_length_a   5.26541970
_cell_length_b   8.41531121
_cell_length_c   14.17530631
_cell_angle_alpha   90.00000000
_cell_angle_beta   90.00000000
_cell_angle_gamma   90.00000000
_symmetry_Int_Tables_number   1
_chemical_formula_structural   Li2V2Si2O9
_chemical_formula_sum   'Li8 V8 Si8 O36'
_cell_volume   628.10988426
_cell_formula_units_Z   4
loop_
 _symmetry_equiv_pos_site_id
 _symmetry_equiv_pos_as_xyz
  1  'x, y, z'
loop_
 _atom_site_type_symbol
 _atom_site_label
 _atom_site_symmetry_multiplicity
 _atom_site_fract_x
 _atom_site_fract_y
 _atom_site_fract_z
 _atom_site_occupancy
  Li  Li0  1  0.400989  0.963395  0.156853  1
  Li  Li1  1  0.900989  0.536605  0.156853  1
  Li  Li2  1  0.900989  0.463395  0.343147  1
  Li  Li3  1  0.400989  0.036605  0.343147  1
  Li  Li4  1  0.599011  0.963395  0.656853  1
  Li  Li5  1  0.099011  0.536605  0.656853  1
  Li  Li6  1  0.099011  0.463395  0.843147  1
  Li  Li7  1  0.599011  0.036605  0.843147  1
  V  V8  1  0.375305  0.341434  0.172376  1
  V  V9  1  0.875305  0.158566  0.172376  1
  V  V10  1  0.875305  0.841434  0.327624  1
  V  V11  1  0.375305  0.658566  0.327624  1
  V  V12  1  0.624695  0.341434  0.672376  1
  V  V13  1  0.124695  0.158566  0.672376  1
  V  V14  1  0.124695  0.841434  0.827624  1
  V  V15  1  0.624695  0.658566  0.827624  1
  Si  Si16  1  0.785277  0.844730  0.027054  1
  Si  Si17  1  0.285277  0.655270  0.027054  1
  Si  Si18  1  0.285277  0.344730  0.472946  1
  Si  Si19  1  0.785277  0.155270  0.472946  1
  Si  Si20  1  0.214723  0.844730  0.527054  1
  Si  Si21  1  0.714723  0.655270  0.527054  1
  Si  Si22  1  0.714723  0.344730  0.972946  1
  Si  Si23  1  0.214723  0.155270  0.972946  1
  O  O24  1  0.545079  0.738216  0.067929  1
  O  O25  1  0.045079  0.761784  0.067929  1
  O  O26  1  0.241698  0.483738  0.076176  1
  O  O27  1  0.741698  0.016262  0.076176  1
  O  O28  1  0.711404  0.348270  0.088630  1
  O  O29  1  0.211404  0.151730  0.088630  1
  O  O30  1  0.544216  0.171493  0.228662  1
  O  O31  1  0.044216  0.328507  0.228662  1
  O  O32  1  0.010501  0.000000  0.250000  1
  O  O33  1  0.510501  0.500000  0.250000  1
  O  O34  1  0.544216  0.828507  0.271338  1
  O  O35  1  0.044216  0.671493  0.271338  1
  O  O36  1  0.211404  0.848270  0.411370  1
  O  O37  1  0.711404  0.651730  0.411370  1
  O  O38  1  0.741698  0.983738  0.423824  1
  O  O39  1  0.241698  0.516262  0.423824  1
  O  O40  1  0.545079  0.261784  0.432071  1
  O  O41  1  0.045079  0.238216  0.432071  1
  O  O42  1  0.954921  0.761784  0.567929  1
  O  O43  1  0.454921  0.738216  0.567929  1
  O  O44  1  0.758302  0.483738  0.576176  1
  O  O45  1  0.258302  0.016262  0.576176  1
  O  O46  1  0.288596  0.348270  0.588630  1
  O  O47  1  0.788596  0.151730  0.588630  1
  O  O48  1  0.955784  0.328507  0.728662  1
  O  O49  1  0.455784  0.171493  0.728662  1
  O  O50  1  0.989499  0.000000  0.750000  1
  O  O51  1  0.489499  0.500000  0.750000  1
  O  O52  1  0.455784  0.828507  0.771338  1
  O  O53  1  0.955784  0.671493  0.771338  1
  O  O54  1  0.788596  0.848270  0.911370  1
  O  O55  1  0.288596  0.651730  0.911370  1
  O  O56  1  0.258302  0.983738  0.923824  1
  O  O57  1  0.758302  0.516262  0.923824  1
  O  O58  1  0.454921  0.261784  0.932071  1
  O  O59  1  0.954921  0.238216  0.932071  1
