# generated using pymatgen
data_Li2Ti3VO8
_symmetry_space_group_name_H-M   'P 1'
_cell_length_a   5.94801549
_cell_length_b   5.94801549
_cell_length_c   9.81210977
_cell_angle_alpha   90.00000000
_cell_angle_beta   90.00000000
_cell_angle_gamma   120.00000000
_symmetry_Int_Tables_number   1
_chemical_formula_structural   Li2Ti3VO8
_chemical_formula_sum   'Li4 Ti6 V2 O16'
_cell_volume   300.63338822
_cell_formula_units_Z   2
loop_
 _symmetry_equiv_pos_site_id
 _symmetry_equiv_pos_as_xyz
  1  'x, y, z'
loop_
 _atom_site_type_symbol
 _atom_site_label
 _atom_site_symmetry_multiplicity
 _atom_site_fract_x
 _atom_site_fract_y
 _atom_site_fract_z
 _atom_site_occupancy
  Li  Li0  1  0.333333  0.666667  0.892233  1
  Li  Li1  1  0.000000  0.000000  0.998766  1
  Li  Li2  1  0.000000  0.000000  0.498766  1
  Li  Li3  1  0.666667  0.333333  0.392233  1
  Ti  Ti4  1  0.168156  0.831844  0.215265  1
  Ti  Ti5  1  0.168156  0.336312  0.215265  1
  Ti  Ti6  1  0.663688  0.831844  0.215265  1
  Ti  Ti7  1  0.336312  0.168156  0.715265  1
  Ti  Ti8  1  0.831844  0.663688  0.715265  1
  Ti  Ti9  1  0.831844  0.168156  0.715265  1
  V  V10  1  0.333333  0.666667  0.485593  1
  V  V11  1  0.666667  0.333333  0.985593  1
  O  O12  1  0.157978  0.842022  0.607242  1
  O  O13  1  0.035102  0.517551  0.329310  1
  O  O14  1  0.333333  0.666667  0.106079  1
  O  O15  1  0.000000  0.000000  0.315238  1
  O  O16  1  0.000000  0.000000  0.815238  1
  O  O17  1  0.157978  0.315956  0.607242  1
  O  O18  1  0.482449  0.964898  0.329310  1
  O  O19  1  0.482449  0.517551  0.329310  1
  O  O20  1  0.315956  0.157978  0.107242  1
  O  O21  1  0.684044  0.842022  0.607242  1
  O  O22  1  0.517551  0.482449  0.829310  1
  O  O23  1  0.517551  0.035102  0.829310  1
  O  O24  1  0.666667  0.333333  0.606079  1
  O  O25  1  0.842022  0.684044  0.107242  1
  O  O26  1  0.964898  0.482449  0.829310  1
  O  O27  1  0.842022  0.157978  0.107242  1
