# generated using pymatgen
data_Li3Fe(BO3)2
_symmetry_space_group_name_H-M   'P 1'
_cell_length_a   5.22351577
_cell_length_b   6.88393804
_cell_length_c   7.87452703
_cell_angle_alpha   108.04591217
_cell_angle_beta   96.57862709
_cell_angle_gamma   88.38520087
_symmetry_Int_Tables_number   1
_chemical_formula_structural   Li3Fe(BO3)2
_chemical_formula_sum   'Li6 Fe2 B4 O12'
_cell_volume   267.44556047
_cell_formula_units_Z   2
loop_
 _symmetry_equiv_pos_site_id
 _symmetry_equiv_pos_as_xyz
  1  'x, y, z'
loop_
 _atom_site_type_symbol
 _atom_site_label
 _atom_site_symmetry_multiplicity
 _atom_site_fract_x
 _atom_site_fract_y
 _atom_site_fract_z
 _atom_site_occupancy
  Li  Li0  1  0.989909  0.740911  0.267000  1
  Li  Li1  1  0.699471  0.438681  0.411440  1
  Li  Li2  1  0.764163  0.599400  0.781789  1
  Li  Li3  1  0.235837  0.400600  0.218211  1
  Li  Li4  1  0.300529  0.561319  0.588560  1
  Li  Li5  1  0.010091  0.259089  0.733000  1
  Fe  Fe6  1  0.582862  0.998341  0.805443  1
  Fe  Fe7  1  0.417138  0.001659  0.194557  1
  B  B8  1  0.573276  0.780570  0.442312  1
  B  B9  1  0.754387  0.296482  0.079832  1
  B  B10  1  0.245613  0.703518  0.920168  1
  B  B11  1  0.426724  0.219430  0.557688  1
  O  O12  1  0.659788  0.889932  0.336061  1
  O  O13  1  0.142782  0.807574  0.078568  1
  O  O14  1  0.725484  0.795412  0.606833  1
  O  O15  1  0.368697  0.649597  0.390144  1
  O  O16  1  0.871298  0.452345  0.212387  1
  O  O17  1  0.489616  0.785121  0.907663  1
  O  O18  1  0.510384  0.214879  0.092337  1
  O  O19  1  0.128702  0.547655  0.787613  1
  O  O20  1  0.631303  0.350403  0.609856  1
  O  O21  1  0.274516  0.204588  0.393167  1
  O  O22  1  0.857218  0.192426  0.921432  1
  O  O23  1  0.340212  0.110068  0.663939  1
