# generated using pymatgen
data_Li2CoH8(CO5)2
_symmetry_space_group_name_H-M   'P 1'
_cell_length_a   6.16084428
_cell_length_b   5.98839590
_cell_length_c   12.07168957
_cell_angle_alpha   90.00000000
_cell_angle_beta   112.29404462
_cell_angle_gamma   90.00000000
_symmetry_Int_Tables_number   1
_chemical_formula_structural   Li2CoH8(CO5)2
_chemical_formula_sum   'Li4 Co2 H16 C4 O20'
_cell_volume   412.07616189
_cell_formula_units_Z   2
loop_
 _symmetry_equiv_pos_site_id
 _symmetry_equiv_pos_as_xyz
  1  'x, y, z'
loop_
 _atom_site_type_symbol
 _atom_site_label
 _atom_site_symmetry_multiplicity
 _atom_site_fract_x
 _atom_site_fract_y
 _atom_site_fract_z
 _atom_site_occupancy
  Li  Li0  1  0.801439  0.254986  0.187817  1
  Li  Li1  1  0.198561  0.754986  0.312183  1
  Li  Li2  1  0.801439  0.245014  0.687817  1
  Li  Li3  1  0.198561  0.745014  0.812183  1
  Co  Co4  1  0.000000  0.000000  0.000000  1
  Co  Co5  1  0.000000  0.500000  0.500000  1
  H  H6  1  0.331441  0.673068  0.069229  1
  H  H7  1  0.774650  0.682333  0.019029  1
  H  H8  1  0.451277  0.908330  0.102552  1
  H  H9  1  0.807960  0.830844  0.137921  1
  H  H10  1  0.548723  0.408330  0.397448  1
  H  H11  1  0.192040  0.330844  0.362079  1
  H  H12  1  0.668559  0.173068  0.430771  1
  H  H13  1  0.225350  0.182333  0.480971  1
  H  H14  1  0.774650  0.817667  0.519029  1
  H  H15  1  0.331441  0.826932  0.569229  1
  H  H16  1  0.807960  0.669156  0.637921  1
  H  H17  1  0.451277  0.591670  0.602552  1
  H  H18  1  0.192040  0.169156  0.862079  1
  H  H19  1  0.548723  0.091670  0.897448  1
  H  H20  1  0.225350  0.317667  0.980971  1
  H  H21  1  0.668559  0.326932  0.930771  1
  C  C22  1  0.261723  0.360865  0.182226  1
  C  C23  1  0.738277  0.860865  0.317774  1
  C  C24  1  0.261723  0.139135  0.682226  1
  C  C25  1  0.738277  0.639135  0.817774  1
  O  O26  1  0.319784  0.830149  0.038390  1
  O  O27  1  0.380044  0.403508  0.116353  1
  O  O28  1  0.895361  0.751873  0.093674  1
  O  O29  1  0.097705  0.209897  0.152705  1
  O  O30  1  0.695534  0.971270  0.218324  1
  O  O31  1  0.304466  0.471270  0.281676  1
  O  O32  1  0.902295  0.709897  0.347295  1
  O  O33  1  0.619956  0.903508  0.383647  1
  O  O34  1  0.680216  0.330149  0.461610  1
  O  O35  1  0.104639  0.251873  0.406326  1
  O  O36  1  0.895361  0.748127  0.593674  1
  O  O37  1  0.319784  0.669851  0.538390  1
  O  O38  1  0.380044  0.096492  0.616353  1
  O  O39  1  0.097705  0.290103  0.652705  1
  O  O40  1  0.695534  0.528730  0.718324  1
  O  O41  1  0.304466  0.028730  0.781676  1
  O  O42  1  0.902295  0.790103  0.847295  1
  O  O43  1  0.104639  0.248127  0.906326  1
  O  O44  1  0.619956  0.596492  0.883647  1
  O  O45  1  0.680216  0.169851  0.961610  1
