# generated using pymatgen
data_Mn2PO5
_symmetry_space_group_name_H-M   'P 1'
_cell_length_a   6.27040359
_cell_length_b   7.84756730
_cell_length_c   8.17985184
_cell_angle_alpha   90.00000000
_cell_angle_beta   90.00000000
_cell_angle_gamma   90.00000000
_symmetry_Int_Tables_number   1
_chemical_formula_structural   Mn2PO5
_chemical_formula_sum   'Mn8 P4 O20'
_cell_volume   402.50935735
_cell_formula_units_Z   4
loop_
 _symmetry_equiv_pos_site_id
 _symmetry_equiv_pos_as_xyz
  1  'x, y, z'
loop_
 _atom_site_type_symbol
 _atom_site_label
 _atom_site_symmetry_multiplicity
 _atom_site_fract_x
 _atom_site_fract_y
 _atom_site_fract_z
 _atom_site_occupancy
  Mn  Mn0  1  0.000000  0.000000  0.000000  1
  Mn  Mn1  1  0.500000  0.000000  0.000000  1
  Mn  Mn2  1  0.250000  0.130336  0.344256  1
  Mn  Mn3  1  0.250000  0.369664  0.844256  1
  Mn  Mn4  1  0.000000  0.500000  0.500000  1
  Mn  Mn5  1  0.500000  0.500000  0.500000  1
  Mn  Mn6  1  0.750000  0.630336  0.155744  1
  Mn  Mn7  1  0.750000  0.869664  0.655744  1
  P  P8  1  0.750000  0.160309  0.328102  1
  P  P9  1  0.750000  0.339691  0.828102  1
  P  P10  1  0.250000  0.660309  0.171898  1
  P  P11  1  0.250000  0.839691  0.671898  1
  O  O12  1  0.750000  0.048748  0.478584  1
  O  O13  1  0.954069  0.129590  0.221831  1
  O  O14  1  0.545931  0.129590  0.221831  1
  O  O15  1  0.750000  0.146671  0.877174  1
  O  O16  1  0.250000  0.138606  0.959152  1
  O  O17  1  0.250000  0.361394  0.459152  1
  O  O18  1  0.750000  0.353329  0.377174  1
  O  O19  1  0.545931  0.370410  0.721831  1
  O  O20  1  0.954069  0.370410  0.721831  1
  O  O21  1  0.750000  0.451252  0.978584  1
  O  O22  1  0.250000  0.548748  0.021416  1
  O  O23  1  0.045931  0.629590  0.278169  1
  O  O24  1  0.454069  0.629590  0.278169  1
  O  O25  1  0.250000  0.646671  0.622826  1
  O  O26  1  0.750000  0.638606  0.540848  1
  O  O27  1  0.750000  0.861394  0.040848  1
  O  O28  1  0.250000  0.853329  0.122826  1
  O  O29  1  0.045931  0.870410  0.778169  1
  O  O30  1  0.454069  0.870410  0.778169  1
  O  O31  1  0.250000  0.951252  0.521416  1
