# generated using pymatgen
data_KTi16O32
_symmetry_space_group_name_H-M   'P 1'
_cell_length_a   8.53661746
_cell_length_b   8.53623375
_cell_length_c   10.41363410
_cell_angle_alpha   102.64098602
_cell_angle_beta   112.04457747
_cell_angle_gamma   105.95426584
_symmetry_Int_Tables_number   1
_chemical_formula_structural   KTi16O32
_chemical_formula_sum   'K1 Ti16 O32'
_cell_volume   630.58794901
_cell_formula_units_Z   1
loop_
 _symmetry_equiv_pos_site_id
 _symmetry_equiv_pos_as_xyz
  1  'x, y, z'
loop_
 _atom_site_type_symbol
 _atom_site_label
 _atom_site_symmetry_multiplicity
 _atom_site_fract_x
 _atom_site_fract_y
 _atom_site_fract_z
 _atom_site_occupancy
  K  K0  1  0.000000  0.500000  0.500000  1
  Ti  Ti1  1  0.476109  0.815014  0.996891  1
  Ti  Ti2  1  0.475571  0.064833  0.246180  1
  Ti  Ti3  1  0.181571  0.365658  0.889748  1
  Ti  Ti4  1  0.817666  0.884433  0.359523  1
  Ti  Ti5  1  0.818429  0.634342  0.110252  1
  Ti  Ti6  1  0.816537  0.130500  0.611745  1
  Ti  Ti7  1  0.523891  0.184986  0.003109  1
  Ti  Ti8  1  0.518509  0.434498  0.250469  1
  Ti  Ti9  1  0.476090  0.314527  0.496635  1
  Ti  Ti10  1  0.481491  0.565502  0.749531  1
  Ti  Ti11  1  0.182334  0.115567  0.640477  1
  Ti  Ti12  1  0.181557  0.615982  0.138891  1
  Ti  Ti13  1  0.183463  0.869500  0.388255  1
  Ti  Ti14  1  0.818443  0.384018  0.861109  1
  Ti  Ti15  1  0.523910  0.685473  0.503365  1
  Ti  Ti16  1  0.524429  0.935167  0.753820  1
  O  O17  1  0.365644  0.980000  0.031753  1
  O  O18  1  0.295492  0.625871  0.001959  1
  O  O19  1  0.623966  0.674690  0.970054  1
  O  O20  1  0.625853  0.175859  0.470349  1
  O  O21  1  0.623809  0.924074  0.219824  1
  O  O22  1  0.376034  0.325310  0.029946  1
  O  O23  1  0.948354  0.877677  0.242662  1
  O  O24  1  0.948360  0.627424  0.992929  1
  O  O25  1  0.948597  0.129375  0.492267  1
  O  O26  1  0.948482  0.378195  0.740816  1
  O  O27  1  0.705751  0.623583  0.249598  1
  O  O28  1  0.704761  0.874003  0.498288  1
  O  O29  1  0.704508  0.374129  0.998041  1
  O  O30  1  0.365175  0.229835  0.281505  1
  O  O31  1  0.363056  0.479556  0.530912  1
  O  O32  1  0.362696  0.727942  0.779505  1
  O  O33  1  0.637304  0.272058  0.220495  1
  O  O34  1  0.636944  0.520444  0.469088  1
  O  O35  1  0.634356  0.020000  0.968247  1
  O  O36  1  0.295239  0.125997  0.501712  1
  O  O37  1  0.294249  0.376417  0.750402  1
  O  O38  1  0.295260  0.875563  0.251631  1
  O  O39  1  0.051403  0.870625  0.507733  1
  O  O40  1  0.051640  0.372576  0.007071  1
  O  O41  1  0.051518  0.621805  0.259184  1
  O  O42  1  0.051646  0.122323  0.757338  1
  O  O43  1  0.624407  0.424576  0.719740  1
  O  O44  1  0.375593  0.575424  0.280260  1
  O  O45  1  0.376191  0.075926  0.780176  1
  O  O46  1  0.374147  0.824141  0.529651  1
  O  O47  1  0.704740  0.124437  0.748369  1
  O  O48  1  0.634825  0.770165  0.718495  1
