# generated using pymatgen
data_Li3Mn3(PO4)4
_symmetry_space_group_name_H-M   'P 1'
_cell_length_a   9.93831397
_cell_length_b   9.93831397
_cell_length_c   10.49105642
_cell_angle_alpha   89.56858969
_cell_angle_beta   90.43141031
_cell_angle_gamma   140.31387932
_symmetry_Int_Tables_number   1
_chemical_formula_structural   Li3Mn3(PO4)4
_chemical_formula_sum   'Li6 Mn6 P8 O32'
_cell_volume   661.67848201
_cell_formula_units_Z   2
loop_
 _symmetry_equiv_pos_site_id
 _symmetry_equiv_pos_as_xyz
  1  'x, y, z'
loop_
 _atom_site_type_symbol
 _atom_site_label
 _atom_site_symmetry_multiplicity
 _atom_site_fract_x
 _atom_site_fract_y
 _atom_site_fract_z
 _atom_site_occupancy
  Li  Li0  1  0.955323  0.815873  0.800430  1
  Li  Li1  1  0.443734  0.443734  0.000000  1
  Li  Li2  1  0.815873  0.955323  0.199570  1
  Li  Li3  1  0.210408  0.064490  0.300598  1
  Li  Li4  1  0.064490  0.210408  0.699402  1
  Li  Li5  1  0.554212  0.554212  0.500000  1
  Mn  Mn6  1  0.634014  0.320607  0.497254  1
  Mn  Mn7  1  0.678898  0.365640  0.996671  1
  Mn  Mn8  1  0.498985  0.999407  0.750209  1
  Mn  Mn9  1  0.320607  0.634014  0.502746  1
  Mn  Mn10  1  0.365640  0.678898  0.003329  1
  Mn  Mn11  1  0.999407  0.498985  0.249791  1
  P  P12  1  0.416441  0.254683  0.752568  1
  P  P13  1  0.743108  0.581539  0.251931  1
  P  P14  1  0.826578  0.220282  0.999670  1
  P  P15  1  0.172230  0.779435  0.500144  1
  P  P16  1  0.779435  0.172230  0.499856  1
  P  P17  1  0.254683  0.416441  0.247432  1
  P  P18  1  0.220282  0.826578  0.000330  1
  P  P19  1  0.581539  0.743108  0.748069  1
  O  O20  1  0.584102  0.413084  0.359629  1
  O  O21  1  0.232517  0.722159  0.108343  1
  O  O22  1  0.357879  0.050866  0.035468  1
  O  O23  1  0.815589  0.779413  0.276239  1
  O  O24  1  0.766821  0.277459  0.392642  1
  O  O25  1  0.681705  0.197099  0.607563  1
  O  O26  1  0.582694  0.412384  0.860148  1
  O  O27  1  0.050866  0.357879  0.964532  1
  O  O28  1  0.215481  0.178089  0.777670  1
  O  O29  1  0.947624  0.640496  0.534195  1
  O  O30  1  0.367600  0.522051  0.379123  1
  O  O31  1  0.476220  0.630440  0.879255  1
  O  O32  1  0.998422  0.696855  0.958758  1
  O  O33  1  0.413084  0.584102  0.640371  1
  O  O34  1  0.178089  0.215481  0.222330  1
  O  O35  1  0.522051  0.367600  0.620877  1
  O  O36  1  0.277459  0.766821  0.607358  1
  O  O37  1  0.197099  0.681705  0.392437  1
  O  O38  1  0.722159  0.232517  0.891657  1
  O  O39  1  0.802294  0.317880  0.107120  1
  O  O40  1  0.000895  0.303423  0.542527  1
  O  O41  1  0.642618  0.942712  0.746545  1
  O  O42  1  0.640496  0.947624  0.465805  1
  O  O43  1  0.054291  0.354524  0.246934  1
  O  O44  1  0.779413  0.815589  0.723761  1
  O  O45  1  0.317880  0.802294  0.892880  1
  O  O46  1  0.630440  0.476220  0.120745  1
  O  O47  1  0.354524  0.054291  0.753066  1
  O  O48  1  0.942712  0.642618  0.253455  1
  O  O49  1  0.412384  0.582694  0.139852  1
  O  O50  1  0.696855  0.998422  0.041242  1
  O  O51  1  0.303423  0.000895  0.457473  1
