# generated using pymatgen
data_Li2V4CrCuO12
_symmetry_space_group_name_H-M   'P 1'
_cell_length_a   6.87422632
_cell_length_b   6.87422632
_cell_length_c   5.81327855
_cell_angle_alpha   74.27718033
_cell_angle_beta   105.72281967
_cell_angle_gamma   97.41757905
_symmetry_Int_Tables_number   1
_chemical_formula_structural   Li2V4CrCuO12
_chemical_formula_sum   'Li2 V4 Cr1 Cu1 O12'
_cell_volume   254.07430820
_cell_formula_units_Z   1
loop_
 _symmetry_equiv_pos_site_id
 _symmetry_equiv_pos_as_xyz
  1  'x, y, z'
loop_
 _atom_site_type_symbol
 _atom_site_label
 _atom_site_symmetry_multiplicity
 _atom_site_fract_x
 _atom_site_fract_y
 _atom_site_fract_z
 _atom_site_occupancy
  Li  Li0  1  0.765239  0.765239  0.500000  1
  Li  Li1  1  0.249504  0.249504  0.000000  1
  V  V2  1  0.394309  0.805392  0.017306  1
  V  V3  1  0.200434  0.608711  0.512051  1
  V  V4  1  0.805392  0.394309  0.982694  1
  V  V5  1  0.608711  0.200434  0.487949  1
  Cr  Cr6  1  0.916968  0.916968  0.000000  1
  Cu  Cu7  1  0.097695  0.097695  0.500000  1
  O  O8  1  0.195611  0.977288  0.916984  1
  O  O9  1  0.645581  0.900074  0.080643  1
  O  O10  1  0.016763  0.792266  0.375593  1
  O  O11  1  0.342140  0.631446  0.808023  1
  O  O12  1  0.900074  0.645581  0.919357  1
  O  O13  1  0.366542  0.634617  0.319049  1
  O  O14  1  0.631446  0.342140  0.191977  1
  O  O15  1  0.089623  0.369793  0.562524  1
  O  O16  1  0.634617  0.366542  0.680951  1
  O  O17  1  0.977288  0.195611  0.083016  1
  O  O18  1  0.369793  0.089623  0.437476  1
  O  O19  1  0.792266  0.016763  0.624407  1
