# generated using pymatgen
data_Na2P2H4N2O5
_symmetry_space_group_name_H-M   'P 1'
_cell_length_a   11.50515553
_cell_length_b   11.50515553
_cell_length_c   15.70976995
_cell_angle_alpha   47.45073520
_cell_angle_beta   132.54926480
_cell_angle_gamma   153.53218135
_symmetry_Int_Tables_number   1
_chemical_formula_structural   Na2P2H4N2O5
_chemical_formula_sum   'Na8 P8 H16 N8 O20'
_cell_volume   666.68221138
_cell_formula_units_Z   4
loop_
 _symmetry_equiv_pos_site_id
 _symmetry_equiv_pos_as_xyz
  1  'x, y, z'
loop_
 _atom_site_type_symbol
 _atom_site_label
 _atom_site_symmetry_multiplicity
 _atom_site_fract_x
 _atom_site_fract_y
 _atom_site_fract_z
 _atom_site_occupancy
  Na  Na0  1  0.562537  0.753849  0.896670  1
  Na  Na1  1  0.179802  0.686181  0.594796  1
  Na  Na2  1  0.686181  0.179802  0.905204  1
  Na  Na3  1  0.753849  0.562537  0.603330  1
  Na  Na4  1  0.246151  0.437463  0.396670  1
  Na  Na5  1  0.313819  0.820198  0.094796  1
  Na  Na6  1  0.820198  0.313819  0.405204  1
  Na  Na7  1  0.437463  0.246151  0.103330  1
  P  P8  1  0.156141  0.919456  0.310536  1
  P  P9  1  0.106288  0.214730  0.077504  1
  P  P10  1  0.214730  0.106288  0.422496  1
  P  P11  1  0.919456  0.156141  0.189464  1
  P  P12  1  0.080544  0.843859  0.810536  1
  P  P13  1  0.785270  0.893712  0.577504  1
  P  P14  1  0.893712  0.785270  0.922496  1
  P  P15  1  0.843859  0.080544  0.689464  1
  H  H16  1  0.782384  0.757953  0.155405  1
  H  H17  1  0.532036  0.326365  0.362815  1
  H  H18  1  0.045674  0.390935  0.843811  1
  H  H19  1  0.635061  0.136742  0.712609  1
  H  H20  1  0.136742  0.635061  0.787391  1
  H  H21  1  0.390935  0.045674  0.656189  1
  H  H22  1  0.326365  0.532036  0.137185  1
  H  H23  1  0.757953  0.782384  0.344595  1
  H  H24  1  0.242047  0.217616  0.655405  1
  H  H25  1  0.673635  0.467964  0.862815  1
  H  H26  1  0.609065  0.954326  0.343811  1
  H  H27  1  0.863258  0.364939  0.212609  1
  H  H28  1  0.364939  0.863258  0.287391  1
  H  H29  1  0.954326  0.609065  0.156189  1
  H  H30  1  0.467964  0.673635  0.637185  1
  H  H31  1  0.217616  0.242047  0.844595  1
  N  N32  1  0.985588  0.934941  0.173901  1
  N  N33  1  0.336553  0.141235  0.370746  1
  N  N34  1  0.141235  0.336553  0.129254  1
  N  N35  1  0.934941  0.985588  0.326099  1
  N  N36  1  0.065059  0.014412  0.673901  1
  N  N37  1  0.858765  0.663447  0.870746  1
  N  N38  1  0.663447  0.858765  0.629254  1
  N  N39  1  0.014412  0.065059  0.826099  1
  O  O40  1  0.643331  0.984691  0.700887  1
  O  O41  1  0.949696  0.641469  0.382535  1
  O  O42  1  0.383392  0.427333  0.071675  1
  O  O43  1  0.893311  0.127778  0.962719  1
  O  O44  1  0.154112  0.566166  0.786500  1
  O  O45  1  0.566166  0.154112  0.713500  1
  O  O46  1  0.127778  0.893311  0.537281  1
  O  O47  1  0.427333  0.383392  0.428325  1
  O  O48  1  0.641469  0.949696  0.117465  1
  O  O49  1  0.984691  0.643331  0.799113  1
  O  O50  1  0.015309  0.356669  0.200887  1
  O  O51  1  0.358531  0.050304  0.882535  1
  O  O52  1  0.572667  0.616608  0.571675  1
  O  O53  1  0.872222  0.106689  0.462719  1
  O  O54  1  0.433834  0.845888  0.286500  1
  O  O55  1  0.845888  0.433834  0.213500  1
  O  O56  1  0.106689  0.872222  0.037281  1
  O  O57  1  0.616608  0.572667  0.928325  1
  O  O58  1  0.050304  0.358531  0.617465  1
  O  O59  1  0.356669  0.015309  0.299113  1
