# generated using pymatgen
data_Li4Ti2Mn3Sn3O16
_symmetry_space_group_name_H-M   'P 1'
_cell_length_a   6.17065540
_cell_length_b   6.17065540
_cell_length_c   9.73753217
_cell_angle_alpha   89.14713326
_cell_angle_beta   90.85286674
_cell_angle_gamma   120.10915175
_symmetry_Int_Tables_number   1
_chemical_formula_structural   Li4Ti2Mn3Sn3O16
_chemical_formula_sum   'Li4 Ti2 Mn3 Sn3 O16'
_cell_volume   320.70026089
_cell_formula_units_Z   1
loop_
 _symmetry_equiv_pos_site_id
 _symmetry_equiv_pos_as_xyz
  1  'x, y, z'
loop_
 _atom_site_type_symbol
 _atom_site_label
 _atom_site_symmetry_multiplicity
 _atom_site_fract_x
 _atom_site_fract_y
 _atom_site_fract_z
 _atom_site_occupancy
  Li  Li0  1  0.676007  0.323993  0.103137  1
  Li  Li1  1  0.987032  0.012968  0.011512  1
  Li  Li2  1  0.992270  0.007730  0.500142  1
  Li  Li3  1  0.332482  0.667518  0.601876  1
  Ti  Ti4  1  0.672139  0.327861  0.500819  1
  Ti  Ti5  1  0.349890  0.650110  0.017805  1
  Mn  Mn6  1  0.825762  0.174238  0.780588  1
  Mn  Mn7  1  0.661851  0.826111  0.288025  1
  Mn  Mn8  1  0.173889  0.338149  0.288025  1
  Sn  Sn9  1  0.829355  0.666059  0.788588  1
  Sn  Sn10  1  0.333941  0.170645  0.788588  1
  Sn  Sn11  1  0.172700  0.827300  0.284284  1
  O  O12  1  0.839307  0.662943  0.408992  1
  O  O13  1  0.514196  0.485804  0.657560  1
  O  O14  1  0.658897  0.341103  0.904647  1
  O  O15  1  0.001719  0.998281  0.683164  1
  O  O16  1  0.996261  0.003739  0.198282  1
  O  O17  1  0.337057  0.160693  0.408992  1
  O  O18  1  0.951624  0.472048  0.660502  1
  O  O19  1  0.527952  0.048376  0.660502  1
  O  O20  1  0.157483  0.842517  0.908078  1
  O  O21  1  0.820738  0.179262  0.416322  1
  O  O22  1  0.479024  0.954015  0.151700  1
  O  O23  1  0.045985  0.520976  0.151700  1
  O  O24  1  0.339164  0.660836  0.395349  1
  O  O25  1  0.666464  0.849412  0.900152  1
  O  O26  1  0.483569  0.516431  0.133862  1
  O  O27  1  0.150588  0.333536  0.900152  1
