# generated using pymatgen
data_Na7Cu7O13
_symmetry_space_group_name_H-M   'P 1'
_cell_length_a   6.76004783
_cell_length_b   6.80648050
_cell_length_c   7.68995333
_cell_angle_alpha   99.25589235
_cell_angle_beta   99.71917052
_cell_angle_gamma   101.25067347
_symmetry_Int_Tables_number   1
_chemical_formula_structural   Na7Cu7O13
_chemical_formula_sum   'Na7 Cu7 O13'
_cell_volume   335.10802060
_cell_formula_units_Z   1
loop_
 _symmetry_equiv_pos_site_id
 _symmetry_equiv_pos_as_xyz
  1  'x, y, z'
loop_
 _atom_site_type_symbol
 _atom_site_label
 _atom_site_symmetry_multiplicity
 _atom_site_fract_x
 _atom_site_fract_y
 _atom_site_fract_z
 _atom_site_occupancy
  Na  Na0  1  0.713505  0.214676  0.573169  1
  Na  Na1  1  0.851759  0.336323  0.275093  1
  Na  Na2  1  0.568496  0.071612  0.854278  1
  Na  Na3  1  0.428901  0.928961  0.140288  1
  Na  Na4  1  0.301023  0.790312  0.426031  1
  Na  Na5  1  0.145786  0.639439  0.726351  1
  Na  Na6  1  0.998792  0.500784  0.000908  1
  Cu  Cu7  1  0.853432  0.857075  0.285026  1
  Cu  Cu8  1  0.710781  0.716775  0.569552  1
  Cu  Cu9  1  0.574377  0.573595  0.856768  1
  Cu  Cu10  1  0.429956  0.431359  0.145405  1
  Cu  Cu11  1  0.285060  0.288105  0.429411  1
  Cu  Cu12  1  0.140619  0.143078  0.713231  1
  Cu  Cu13  1  0.998738  0.995770  0.000098  1
  O  O14  1  0.794599  0.565232  0.739526  1
  O  O15  1  0.216488  0.989535  0.881268  1
  O  O16  1  0.924424  0.150120  0.830244  1
  O  O17  1  0.484391  0.720584  0.691028  1
  O  O18  1  0.354508  0.578269  0.974167  1
  O  O19  1  0.644525  0.861031  0.400861  1
  O  O20  1  0.506141  0.280820  0.315881  1
  O  O21  1  0.649762  0.423672  0.030097  1
  O  O22  1  0.357888  0.132117  0.596036  1
  O  O23  1  0.078956  0.847712  0.174610  1
  O  O24  1  0.776653  0.009383  0.105139  1
  O  O25  1  0.065053  0.298682  0.543700  1
  O  O26  1  0.208794  0.441653  0.261866  1
