# generated using pymatgen
data_Co3OF5
_symmetry_space_group_name_H-M   'P 1'
_cell_length_a   5.68296339
_cell_length_b   5.68296339
_cell_length_c   7.37626796
_cell_angle_alpha   73.07463720
_cell_angle_beta   106.92536280
_cell_angle_gamma   105.88775944
_symmetry_Int_Tables_number   1
_chemical_formula_structural   Co3OF5
_chemical_formula_sum   'Co6 O2 F10'
_cell_volume   213.33452775
_cell_formula_units_Z   2
loop_
 _symmetry_equiv_pos_site_id
 _symmetry_equiv_pos_as_xyz
  1  'x, y, z'
loop_
 _atom_site_type_symbol
 _atom_site_label
 _atom_site_symmetry_multiplicity
 _atom_site_fract_x
 _atom_site_fract_y
 _atom_site_fract_z
 _atom_site_occupancy
  Co  Co0  1  0.663418  0.336582  0.167282  1
  Co  Co1  1  0.690689  0.309311  0.659502  1
  Co  Co2  1  0.000000  0.000000  0.000000  1
  Co  Co3  1  0.000000  0.000000  0.500000  1
  Co  Co4  1  0.336582  0.663418  0.832718  1
  Co  Co5  1  0.309311  0.690689  0.340498  1
  O  O6  1  0.101544  0.898456  0.303956  1
  O  O7  1  0.898456  0.101544  0.696044  1
  F  F8  1  0.973093  0.631438  0.664275  1
  F  F9  1  0.302298  0.302298  0.000000  1
  F  F10  1  0.761188  0.238812  0.958383  1
  F  F11  1  0.445317  0.554683  0.631678  1
  F  F12  1  0.554683  0.445317  0.368322  1
  F  F13  1  0.238812  0.761188  0.041617  1
  F  F14  1  0.368562  0.026907  0.664275  1
  F  F15  1  0.697702  0.697702  0.000000  1
  F  F16  1  0.026907  0.368562  0.335725  1
  F  F17  1  0.631438  0.973093  0.335725  1
