# generated using pymatgen
data_Zr2N2O
_symmetry_space_group_name_H-M   'P 1'
_cell_length_a   8.87558464
_cell_length_b   8.87927359
_cell_length_c   8.88080152
_cell_angle_alpha   109.44376151
_cell_angle_beta   109.60124919
_cell_angle_gamma   109.35556817
_symmetry_Int_Tables_number   1
_chemical_formula_structural   Zr2N2O
_chemical_formula_sum   'Zr16 N16 O8'
_cell_volume   538.85664899
_cell_formula_units_Z   8
loop_
 _symmetry_equiv_pos_site_id
 _symmetry_equiv_pos_as_xyz
  1  'x, y, z'
loop_
 _atom_site_type_symbol
 _atom_site_label
 _atom_site_symmetry_multiplicity
 _atom_site_fract_x
 _atom_site_fract_y
 _atom_site_fract_z
 _atom_site_occupancy
  Zr  Zr0  1  0.754594  0.222789  0.966820  1
  Zr  Zr1  1  0.009964  0.010653  0.003345  1
  Zr  Zr2  1  0.714142  0.464343  0.755655  1
  Zr  Zr3  1  0.006031  0.509041  0.497500  1
  Zr  Zr4  1  0.513716  0.508212  0.010206  1
  Zr  Zr5  1  0.788374  0.038022  0.249545  1
  Zr  Zr6  1  0.537958  0.247836  0.278744  1
  Zr  Zr7  1  0.024335  0.242457  0.789205  1
  Zr  Zr8  1  0.248304  0.286154  0.531563  1
  Zr  Zr9  1  0.745109  0.715095  0.458618  1
  Zr  Zr10  1  0.457499  0.736698  0.709593  1
  Zr  Zr11  1  0.967021  0.753248  0.221003  1
  Zr  Zr12  1  0.499579  0.987420  0.490528  1
  Zr  Zr13  1  0.287582  0.537426  0.254394  1
  Zr  Zr14  1  0.208853  0.958879  0.749983  1
  Zr  Zr15  1  0.258978  0.794370  0.041343  1
  N  N16  1  0.771447  0.238397  0.723955  1
  N  N17  1  0.511634  0.543756  0.771279  1
  N  N18  1  0.956395  0.967811  0.729070  1
  N  N19  1  0.761057  0.271550  0.228725  1
  N  N20  1  0.046286  0.035359  0.272738  1
  N  N21  1  0.545399  0.775390  0.515824  1
  N  N22  1  0.738818  0.466987  0.010943  1
  N  N23  1  0.237260  0.725507  0.772281  1
  N  N24  1  0.489459  0.454249  0.226133  1
  N  N25  1  0.269961  0.042464  0.035576  1
  N  N26  1  0.222966  0.484325  0.452534  1
  N  N27  1  0.722827  0.772930  0.236280  1
  N  N28  1  0.534878  0.988447  0.263741  1
  N  N29  1  0.031770  0.270793  0.044779  1
  N  N30  1  0.009039  0.736130  0.466003  1
  N  N31  1  0.227235  0.761011  0.268770  1
  O  O32  1  0.992407  0.261209  0.536084  1
  O  O33  1  0.960366  0.724684  0.948060  1
  O  O34  1  0.465797  0.015963  0.742051  1
  O  O35  1  0.772606  0.509105  0.548328  1
  O  O36  1  0.270409  0.226353  0.757680  1
  O  O37  1  0.724598  0.954464  0.965506  1
  O  O38  1  0.456735  0.231059  0.491513  1
  O  O39  1  0.258617  0.529412  0.984103  1
