# generated using pymatgen
data_V4(OF3)3
_symmetry_space_group_name_H-M   'P 1'
_cell_length_a   5.20720709
_cell_length_b   5.41086253
_cell_length_c   17.39592167
_cell_angle_alpha   89.34228375
_cell_angle_beta   98.28032034
_cell_angle_gamma   118.56167343
_symmetry_Int_Tables_number   1
_chemical_formula_structural   V4(OF3)3
_chemical_formula_sum   'V8 O6 F18'
_cell_volume   425.07312403
_cell_formula_units_Z   2
loop_
 _symmetry_equiv_pos_site_id
 _symmetry_equiv_pos_as_xyz
  1  'x, y, z'
loop_
 _atom_site_type_symbol
 _atom_site_label
 _atom_site_symmetry_multiplicity
 _atom_site_fract_x
 _atom_site_fract_y
 _atom_site_fract_z
 _atom_site_occupancy
  V  V0  1  0.749674  0.374521  0.125202  1
  V  V1  1  0.746020  0.895694  0.630394  1
  V  V2  1  0.522746  0.732039  0.249646  1
  V  V3  1  0.513056  0.253511  0.750630  1
  V  V4  1  0.214968  0.096772  0.373031  1
  V  V5  1  0.215124  0.612067  0.873173  1
  V  V6  1  0.977772  0.015690  0.001551  1
  V  V7  1  0.972076  0.472241  0.505065  1
  O  O8  1  0.799623  0.199152  0.559963  1
  O  O9  1  0.841392  0.200896  0.039922  1
  O  O10  1  0.853274  0.919282  0.335376  1
  O  O11  1  0.854333  0.424859  0.834546  1
  O  O12  1  0.658318  0.547507  0.209632  1
  O  O13  1  0.673380  0.044186  0.703808  1
  F  F14  1  0.324973  0.152411  0.085629  1
  F  F15  1  0.771918  0.679267  0.059424  1
  F  F16  1  0.724109  0.066730  0.189350  1
  F  F17  1  0.344345  0.956629  0.291082  1
  F  F18  1  0.327722  0.667479  0.585022  1
  F  F19  1  0.341354  0.473362  0.788532  1
  F  F20  1  0.172710  0.596260  0.164940  1
  F  F21  1  0.173769  0.086901  0.662823  1
  F  F22  1  0.180694  0.294508  0.461307  1
  F  F23  1  0.283485  0.437189  0.314806  1
  F  F24  1  0.727471  0.569579  0.684919  1
  F  F25  1  0.823298  0.715407  0.539686  1
  F  F26  1  0.169210  0.794915  0.962112  1
  F  F27  1  0.660719  0.328351  0.413377  1
  F  F28  1  0.282034  0.945536  0.815197  1
  F  F29  1  0.226075  0.312974  0.937283  1
  F  F30  1  0.211761  0.802368  0.440570  1
  F  F31  1  0.662594  0.831715  0.912003  1
