# generated using pymatgen
data_Li10Mn2Fe3Co3O16
_symmetry_space_group_name_H-M   'P 1'
_cell_length_a   5.87664148
_cell_length_b   6.03510502
_cell_length_c   9.86041643
_cell_angle_alpha   89.73430258
_cell_angle_beta   89.78379397
_cell_angle_gamma   61.07543664
_symmetry_Int_Tables_number   1
_chemical_formula_structural   Li10Mn2Fe3Co3O16
_chemical_formula_sum   'Li10 Mn2 Fe3 Co3 O16'
_cell_volume   306.08332622
_cell_formula_units_Z   1
loop_
 _symmetry_equiv_pos_site_id
 _symmetry_equiv_pos_as_xyz
  1  'x, y, z'
loop_
 _atom_site_type_symbol
 _atom_site_label
 _atom_site_symmetry_multiplicity
 _atom_site_fract_x
 _atom_site_fract_y
 _atom_site_fract_z
 _atom_site_occupancy
  Li  Li0  1  0.982483  0.030294  0.975133  1
  Li  Li1  1  0.005974  0.981475  0.485247  1
  Li  Li2  1  0.208315  0.592693  0.534354  1
  Li  Li3  1  0.188389  0.205697  0.554284  1
  Li  Li4  1  0.311329  0.378288  0.767488  1
  Li  Li5  1  0.378785  0.805517  0.051630  1
  Li  Li6  1  0.617711  0.211763  0.555984  1
  Li  Li7  1  0.824255  0.796228  0.048775  1
  Li  Li8  1  0.797310  0.414509  0.040123  1
  Li  Li9  1  0.674391  0.651196  0.269090  1
  Mn  Mn10  1  0.324942  0.340897  0.021342  1
  Mn  Mn11  1  0.653542  0.696008  0.526569  1
  Fe  Fe12  1  0.175704  0.154549  0.279266  1
  Fe  Fe13  1  0.670177  0.153743  0.277899  1
  Fe  Fe14  1  0.811062  0.376458  0.777971  1
  Co  Co15  1  0.173950  0.650792  0.279679  1
  Co  Co16  1  0.316864  0.866057  0.780163  1
  Co  Co17  1  0.809139  0.869364  0.781598  1
  O  O18  1  0.005934  0.989477  0.165459  1
  O  O19  1  0.961946  0.044612  0.673459  1
  O  O20  1  0.128271  0.713981  0.895661  1
  O  O21  1  0.027545  0.471493  0.153313  1
  O  O22  1  0.498949  0.471578  0.147407  1
  O  O23  1  0.344167  0.314366  0.398576  1
  O  O24  1  0.139588  0.212249  0.904061  1
  O  O25  1  0.502604  0.995753  0.162450  1
  O  O26  1  0.340610  0.826962  0.407017  1
  O  O27  1  0.648245  0.196761  0.895619  1
  O  O28  1  0.498965  0.020471  0.666911  1
  O  O29  1  0.502510  0.536507  0.648863  1
  O  O30  1  0.833818  0.822272  0.403771  1
  O  O31  1  0.662375  0.692746  0.894596  1
  O  O32  1  0.960399  0.553467  0.657126  1
  O  O33  1  0.851046  0.298213  0.395964  1
