# generated using pymatgen
data_LiNiPO4
_symmetry_space_group_name_H-M   'P 1'
_cell_length_a   5.43573112
_cell_length_b   5.43573112
_cell_length_c   6.49072597
_cell_angle_alpha   78.92764656
_cell_angle_beta   101.07235344
_cell_angle_gamma   128.41056985
_symmetry_Int_Tables_number   1
_chemical_formula_structural   LiNiPO4
_chemical_formula_sum   'Li2 Ni2 P2 O8'
_cell_volume   146.81836525
_cell_formula_units_Z   2
loop_
 _symmetry_equiv_pos_site_id
 _symmetry_equiv_pos_as_xyz
  1  'x, y, z'
loop_
 _atom_site_type_symbol
 _atom_site_label
 _atom_site_symmetry_multiplicity
 _atom_site_fract_x
 _atom_site_fract_y
 _atom_site_fract_z
 _atom_site_occupancy
  Li  Li0  1  0.023394  0.023394  0.000000  1
  Li  Li1  1  0.033698  0.033698  0.500000  1
  Ni  Ni2  1  0.601367  0.338193  0.208625  1
  Ni  Ni3  1  0.338193  0.601367  0.791375  1
  P  P4  1  0.677970  0.316006  0.725312  1
  P  P5  1  0.316006  0.677970  0.274688  1
  O  O6  1  0.061837  0.733822  0.190965  1
  O  O7  1  0.472197  0.302050  0.877302  1
  O  O8  1  0.499920  0.240439  0.505559  1
  O  O9  1  0.993435  0.653848  0.727415  1
  O  O10  1  0.653848  0.993435  0.272585  1
  O  O11  1  0.240439  0.499919  0.494441  1
  O  O12  1  0.302050  0.472197  0.122698  1
  O  O13  1  0.733822  0.061837  0.809035  1
