# generated using pymatgen
data_Li4MnFe3(BO3)4
_symmetry_space_group_name_H-M   'P 1'
_cell_length_a   5.16208628
_cell_length_b   6.18446414
_cell_length_c   8.08296305
_cell_angle_alpha   78.40415892
_cell_angle_beta   88.54469922
_cell_angle_gamma   87.94630661
_symmetry_Int_Tables_number   1
_chemical_formula_structural   Li4MnFe3(BO3)4
_chemical_formula_sum   'Li4 Mn1 Fe3 B4 O12'
_cell_volume   252.57370947
_cell_formula_units_Z   1
loop_
 _symmetry_equiv_pos_site_id
 _symmetry_equiv_pos_as_xyz
  1  'x, y, z'
loop_
 _atom_site_type_symbol
 _atom_site_label
 _atom_site_symmetry_multiplicity
 _atom_site_fract_x
 _atom_site_fract_y
 _atom_site_fract_z
 _atom_site_occupancy
  Li  Li0  1  0.914211  0.523572  0.147459  1
  Li  Li1  1  0.418658  0.026691  0.650043  1
  Li  Li2  1  0.583984  0.977541  0.350575  1
  Li  Li3  1  0.084077  0.474565  0.850691  1
  Mn  Mn4  1  0.096943  0.737950  0.490360  1
  Fe  Fe5  1  0.409248  0.759124  0.012126  1
  Fe  Fe6  1  0.906434  0.251878  0.509982  1
  Fe  Fe7  1  0.588137  0.241976  0.987847  1
  B  B8  1  0.093310  0.093119  0.168801  1
  B  B9  1  0.402235  0.409786  0.329899  1
  B  B10  1  0.598423  0.587663  0.669541  1
  B  B11  1  0.905266  0.910498  0.832445  1
  O  O12  1  0.979097  0.250531  0.044664  1
  O  O13  1  0.955028  0.002900  0.314958  1
  O  O14  1  0.355943  0.027952  0.152138  1
  O  O15  1  0.541749  0.506732  0.185618  1
  O  O16  1  0.518102  0.251049  0.452475  1
  O  O17  1  0.140366  0.472093  0.346059  1
  O  O18  1  0.856973  0.518668  0.652969  1
  O  O19  1  0.488445  0.752901  0.547764  1
  O  O20  1  0.456144  0.494627  0.813436  1
  O  O21  1  0.642762  0.973071  0.849017  1
  O  O22  1  0.044324  0.005298  0.687184  1
  O  O23  1  0.020141  0.749817  0.953946  1
