# generated using pymatgen
data_LiSnPCO7
_symmetry_space_group_name_H-M   'P 1'
_cell_length_a   5.09619137
_cell_length_b   6.58108604
_cell_length_c   8.51344356
_cell_angle_alpha   90.00000000
_cell_angle_beta   94.80325039
_cell_angle_gamma   90.00000000
_symmetry_Int_Tables_number   1
_chemical_formula_structural   LiSnPCO7
_chemical_formula_sum   'Li2 Sn2 P2 C2 O14'
_cell_volume   284.52516211
_cell_formula_units_Z   2
loop_
 _symmetry_equiv_pos_site_id
 _symmetry_equiv_pos_as_xyz
  1  'x, y, z'
loop_
 _atom_site_type_symbol
 _atom_site_label
 _atom_site_symmetry_multiplicity
 _atom_site_fract_x
 _atom_site_fract_y
 _atom_site_fract_z
 _atom_site_occupancy
  Li  Li0  1  0.757359  0.250000  0.907374  1
  Li  Li1  1  0.242641  0.750000  0.092626  1
  Sn  Sn2  1  0.801745  0.750000  0.676766  1
  Sn  Sn3  1  0.198255  0.250000  0.323234  1
  P  P4  1  0.719695  0.250000  0.580502  1
  P  P5  1  0.280305  0.750000  0.419498  1
  C  C6  1  0.698617  0.750000  0.965024  1
  C  C7  1  0.301383  0.250000  0.034976  1
  O  O8  1  0.948187  0.750000  0.923081  1
  O  O9  1  0.363343  0.250000  0.896659  1
  O  O10  1  0.521317  0.750000  0.841458  1
  O  O11  1  0.796010  0.067191  0.690133  1
  O  O12  1  0.796010  0.432809  0.690133  1
  O  O13  1  0.145076  0.750000  0.574821  1
  O  O14  1  0.419181  0.250000  0.533840  1
  O  O15  1  0.580819  0.750000  0.466160  1
  O  O16  1  0.854924  0.250000  0.425179  1
  O  O17  1  0.203990  0.567191  0.309867  1
  O  O18  1  0.203990  0.932809  0.309867  1
  O  O19  1  0.478683  0.250000  0.158542  1
  O  O20  1  0.636657  0.750000  0.103341  1
  O  O21  1  0.051813  0.250000  0.076919  1
