# generated using pymatgen
data_Tm2P4O13
_symmetry_space_group_name_H-M   'P 1'
_cell_length_a   9.40252982
_cell_length_b   9.40252982
_cell_length_c   8.54622458
_cell_angle_alpha   90.00000000
_cell_angle_beta   90.00000000
_cell_angle_gamma   136.27116890
_symmetry_Int_Tables_number   1
_chemical_formula_structural   Tm2P4O13
_chemical_formula_sum   'Tm4 P8 O26'
_cell_volume   522.27164295
_cell_formula_units_Z   2
loop_
 _symmetry_equiv_pos_site_id
 _symmetry_equiv_pos_as_xyz
  1  'x, y, z'
loop_
 _atom_site_type_symbol
 _atom_site_label
 _atom_site_symmetry_multiplicity
 _atom_site_fract_x
 _atom_site_fract_y
 _atom_site_fract_z
 _atom_site_occupancy
  Tm  Tm0  1  0.598805  0.893052  0.147899  1
  Tm  Tm1  1  0.106948  0.401195  0.352101  1
  Tm  Tm2  1  0.893052  0.598805  0.852101  1
  Tm  Tm3  1  0.401195  0.106948  0.647899  1
  P  P4  1  0.719486  0.835381  0.775606  1
  P  P5  1  0.164619  0.280514  0.724394  1
  P  P6  1  0.095020  0.415472  0.997814  1
  P  P7  1  0.584528  0.904980  0.502186  1
  P  P8  1  0.415472  0.095020  0.002186  1
  P  P9  1  0.904980  0.584528  0.497814  1
  P  P10  1  0.280514  0.164619  0.275606  1
  P  P11  1  0.835381  0.719486  0.224394  1
  O  O12  1  0.256669  0.304579  0.297340  1
  O  O13  1  0.695421  0.743331  0.202660  1
  O  O14  1  0.938387  0.061613  0.750000  1
  O  O15  1  0.214548  0.384989  0.891273  1
  O  O16  1  0.615011  0.785452  0.608727  1
  O  O17  1  0.158552  0.388137  0.599545  1
  O  O18  1  0.611863  0.841448  0.900455  1
  O  O19  1  0.930340  0.220467  0.098782  1
  O  O20  1  0.779533  0.069660  0.401218  1
  O  O21  1  0.417902  0.740319  0.384065  1
  O  O22  1  0.259681  0.582098  0.115935  1
  O  O23  1  0.526523  0.984563  0.608731  1
  O  O24  1  0.015437  0.473477  0.891269  1
  O  O25  1  0.473477  0.015437  0.108731  1
  O  O26  1  0.984563  0.526523  0.391269  1
  O  O27  1  0.582098  0.259681  0.884065  1
  O  O28  1  0.740319  0.417902  0.615935  1
  O  O29  1  0.069660  0.779533  0.598782  1
  O  O30  1  0.220467  0.930340  0.901218  1
  O  O31  1  0.841448  0.611863  0.099545  1
  O  O32  1  0.388137  0.158552  0.400455  1
  O  O33  1  0.384989  0.214548  0.108727  1
  O  O34  1  0.785452  0.615011  0.391273  1
  O  O35  1  0.061613  0.938387  0.250000  1
  O  O36  1  0.304579  0.256669  0.702660  1
  O  O37  1  0.743331  0.695421  0.797340  1
