# generated using pymatgen
data_Li3BiS3
_symmetry_space_group_name_H-M   'P 1'
_cell_length_a   5.87639548
_cell_length_b   16.14134387
_cell_length_c   8.34867229
_cell_angle_alpha   90.00000000
_cell_angle_beta   133.87883600
_cell_angle_gamma   90.00000000
_symmetry_Int_Tables_number   1
_chemical_formula_structural   Li3BiS3
_chemical_formula_sum   'Li12 Bi4 S12'
_cell_volume   570.80429316
_cell_formula_units_Z   4
loop_
 _symmetry_equiv_pos_site_id
 _symmetry_equiv_pos_as_xyz
  1  'x, y, z'
loop_
 _atom_site_type_symbol
 _atom_site_label
 _atom_site_symmetry_multiplicity
 _atom_site_fract_x
 _atom_site_fract_y
 _atom_site_fract_z
 _atom_site_occupancy
  Li  Li0  1  0.858957  0.691712  0.323825  1
  Li  Li1  1  0.207762  0.429293  0.407496  1
  Li  Li2  1  0.792238  0.929293  0.092504  1
  Li  Li3  1  0.141043  0.191712  0.176175  1
  Li  Li4  1  0.294044  0.688605  0.267954  1
  Li  Li5  1  0.705956  0.188605  0.232046  1
  Li  Li6  1  0.294044  0.811395  0.767954  1
  Li  Li7  1  0.705956  0.311395  0.732046  1
  Li  Li8  1  0.858957  0.808288  0.823825  1
  Li  Li9  1  0.207762  0.070707  0.907496  1
  Li  Li10  1  0.792238  0.570707  0.592504  1
  Li  Li11  1  0.141043  0.308288  0.676175  1
  Bi  Bi12  1  0.637185  0.911851  0.412823  1
  Bi  Bi13  1  0.362815  0.411851  0.087177  1
  Bi  Bi14  1  0.637185  0.588149  0.912823  1
  Bi  Bi15  1  0.362815  0.088149  0.587177  1
  S  S16  1  0.275874  0.910488  0.506840  1
  S  S17  1  0.206820  0.253835  0.458328  1
  S  S18  1  0.751003  0.418088  0.522176  1
  S  S19  1  0.793180  0.753835  0.041672  1
  S  S20  1  0.248997  0.918088  0.977824  1
  S  S21  1  0.724126  0.410488  0.993160  1
  S  S22  1  0.275874  0.589512  0.006840  1
  S  S23  1  0.751003  0.081912  0.022176  1
  S  S24  1  0.206820  0.246165  0.958328  1
  S  S25  1  0.248997  0.581912  0.477824  1
  S  S26  1  0.793180  0.746165  0.541672  1
  S  S27  1  0.724126  0.089512  0.493160  1
