# generated using pymatgen
data_CsCu4S3
_symmetry_space_group_name_H-M   'P 1'
_cell_length_a   3.96938198
_cell_length_b   3.96938198
_cell_length_c   9.68938671
_cell_angle_alpha   90.00000000
_cell_angle_beta   90.00000000
_cell_angle_gamma   90.00000000
_symmetry_Int_Tables_number   1
_chemical_formula_structural   CsCu4S3
_chemical_formula_sum   'Cs1 Cu4 S3'
_cell_volume   152.66591211
_cell_formula_units_Z   1
loop_
 _symmetry_equiv_pos_site_id
 _symmetry_equiv_pos_as_xyz
  1  'x, y, z'
loop_
 _atom_site_type_symbol
 _atom_site_label
 _atom_site_symmetry_multiplicity
 _atom_site_fract_x
 _atom_site_fract_y
 _atom_site_fract_z
 _atom_site_occupancy
  Cs  Cs0  1  0.000000  0.000000  0.500000  1
  Cu  Cu1  1  0.500000  0.000000  0.149303  1
  Cu  Cu2  1  0.500000  0.000000  0.850697  1
  Cu  Cu3  1  0.000000  0.500000  0.850697  1
  Cu  Cu4  1  0.000000  0.500000  0.149303  1
  S  S5  1  0.500000  0.500000  0.728953  1
  S  S6  1  0.500000  0.500000  0.271047  1
  S  S7  1  0.000000  0.000000  0.000000  1
