# generated using pymatgen
data_Li12Co3NiP4(CO7)4
_symmetry_space_group_name_H-M   'P 1'
_cell_length_a   8.39961485
_cell_length_b   6.43653530
_cell_length_c   9.98563820
_cell_angle_alpha   90.00000000
_cell_angle_beta   94.98735576
_cell_angle_gamma   90.00000000
_symmetry_Int_Tables_number   1
_chemical_formula_structural   Li12Co3NiP4(CO7)4
_chemical_formula_sum   'Li12 Co3 Ni1 P4 C4 O28'
_cell_volume   537.82372387
_cell_formula_units_Z   1
loop_
 _symmetry_equiv_pos_site_id
 _symmetry_equiv_pos_as_xyz
  1  'x, y, z'
loop_
 _atom_site_type_symbol
 _atom_site_label
 _atom_site_symmetry_multiplicity
 _atom_site_fract_x
 _atom_site_fract_y
 _atom_site_fract_z
 _atom_site_occupancy
  Li  Li0  1  0.902602  0.000000  0.382808  1
  Li  Li1  1  0.901850  0.000000  0.882572  1
  Li  Li2  1  0.722733  0.228688  0.125172  1
  Li  Li3  1  0.722733  0.771312  0.125172  1
  Li  Li4  1  0.723069  0.229896  0.624268  1
  Li  Li5  1  0.723069  0.770104  0.624268  1
  Li  Li6  1  0.277257  0.728654  0.377032  1
  Li  Li7  1  0.277257  0.271346  0.377032  1
  Li  Li8  1  0.277197  0.729411  0.875333  1
  Li  Li9  1  0.277197  0.270589  0.875333  1
  Li  Li10  1  0.097903  0.500000  0.117131  1
  Li  Li11  1  0.098099  0.500000  0.617190  1
  Co  Co12  1  0.668311  0.500000  0.395448  1
  Co  Co13  1  0.668359  0.500000  0.894837  1
  Co  Co14  1  0.330842  0.000000  0.105226  1
  Ni  Ni15  1  0.332047  0.000000  0.603332  1
  P  P16  1  0.585752  0.000000  0.361632  1
  P  P17  1  0.585131  0.000000  0.859779  1
  P  P18  1  0.412898  0.500000  0.139645  1
  P  P19  1  0.412581  0.500000  0.639289  1
  C  C20  1  0.962916  0.500000  0.350622  1
  C  C21  1  0.963439  0.500000  0.850712  1
  C  C22  1  0.036759  0.000000  0.149094  1
  C  C23  1  0.039902  0.000000  0.648993  1
  O  O24  1  0.927038  0.500000  0.473987  1
  O  O25  1  0.889818  0.000000  0.180063  1
  O  O26  1  0.926874  0.500000  0.973900  1
  O  O27  1  0.845358  0.500000  0.255711  1
  O  O28  1  0.892602  0.000000  0.679569  1
  O  O29  1  0.845836  0.500000  0.755701  1
  O  O30  1  0.691788  0.187311  0.413034  1
  O  O31  1  0.691788  0.812689  0.413034  1
  O  O32  1  0.691473  0.187543  0.911024  1
  O  O33  1  0.691473  0.812457  0.911024  1
  O  O34  1  0.580334  0.500000  0.085709  1
  O  O35  1  0.565323  0.000000  0.204936  1
  O  O36  1  0.580313  0.500000  0.586447  1
  O  O37  1  0.562979  0.000000  0.703295  1
  O  O38  1  0.433664  0.500000  0.296184  1
  O  O39  1  0.419080  0.000000  0.415156  1
  O  O40  1  0.433932  0.500000  0.796562  1
  O  O41  1  0.419745  0.000000  0.914984  1
  O  O42  1  0.307861  0.312686  0.087758  1
  O  O43  1  0.307861  0.687314  0.087758  1
  O  O44  1  0.308272  0.687228  0.586996  1
  O  O45  1  0.308272  0.312772  0.586996  1
  O  O46  1  0.153898  0.000000  0.243903  1
  O  O47  1  0.109430  0.500000  0.319585  1
  O  O48  1  0.156959  0.000000  0.743667  1
  O  O49  1  0.072414  0.000000  0.025698  1
  O  O50  1  0.109828  0.500000  0.819983  1
  O  O51  1  0.075885  0.000000  0.525416  1
