# generated using pymatgen
data_Ca5Ta4O15
_symmetry_space_group_name_H-M   'P 1'
_cell_length_a   5.53722993
_cell_length_b   5.53722993
_cell_length_c   23.45547820
_cell_angle_alpha   90.00000000
_cell_angle_beta   90.00000000
_cell_angle_gamma   120.00000000
_symmetry_Int_Tables_number   1
_chemical_formula_structural   Ca5Ta4O15
_chemical_formula_sum   'Ca10 Ta8 O30'
_cell_volume   622.81639792
_cell_formula_units_Z   2
loop_
 _symmetry_equiv_pos_site_id
 _symmetry_equiv_pos_as_xyz
  1  'x, y, z'
loop_
 _atom_site_type_symbol
 _atom_site_label
 _atom_site_symmetry_multiplicity
 _atom_site_fract_x
 _atom_site_fract_y
 _atom_site_fract_z
 _atom_site_occupancy
  Ca  Ca0  1  0.333333  0.666667  0.231004  1
  Ca  Ca1  1  0.333333  0.666667  0.381260  1
  Ca  Ca2  1  0.000000  0.000000  0.000000  1
  Ca  Ca3  1  0.000000  0.000000  0.500000  1
  Ca  Ca4  1  0.333333  0.666667  0.731004  1
  Ca  Ca5  1  0.333333  0.666667  0.881260  1
  Ca  Ca6  1  0.666667  0.333333  0.118740  1
  Ca  Ca7  1  0.666667  0.333333  0.268996  1
  Ca  Ca8  1  0.666667  0.333333  0.618740  1
  Ca  Ca9  1  0.666667  0.333333  0.768996  1
  Ta  Ta10  1  0.333333  0.666667  0.052233  1
  Ta  Ta11  1  0.000000  0.000000  0.156511  1
  Ta  Ta12  1  0.000000  0.000000  0.343489  1
  Ta  Ta13  1  0.000000  0.000000  0.656511  1
  Ta  Ta14  1  0.000000  0.000000  0.843489  1
  Ta  Ta15  1  0.333333  0.666667  0.552233  1
  Ta  Ta16  1  0.666667  0.333333  0.447767  1
  Ta  Ta17  1  0.666667  0.333333  0.947767  1
  O  O18  1  0.077990  0.739987  0.806575  1
  O  O19  1  0.099933  0.776533  0.095958  1
  O  O20  1  0.223467  0.900067  0.595958  1
  O  O21  1  0.000000  0.500000  0.000000  1
  O  O22  1  0.000000  0.500000  0.500000  1
  O  O23  1  0.260013  0.922010  0.306575  1
  O  O24  1  0.077990  0.338003  0.306575  1
  O  O25  1  0.099933  0.323400  0.595958  1
  O  O26  1  0.223467  0.323400  0.095958  1
  O  O27  1  0.260013  0.338003  0.806575  1
  O  O28  1  0.338003  0.260013  0.693425  1
  O  O29  1  0.661997  0.922010  0.806575  1
  O  O30  1  0.323400  0.223467  0.404042  1
  O  O31  1  0.323400  0.099933  0.904042  1
  O  O32  1  0.500000  0.500000  0.000000  1
  O  O33  1  0.500000  0.500000  0.500000  1
  O  O34  1  0.676600  0.900067  0.095958  1
  O  O35  1  0.676600  0.776533  0.595958  1
  O  O36  1  0.338003  0.077990  0.193425  1
  O  O37  1  0.661997  0.739987  0.306575  1
  O  O38  1  0.739987  0.661997  0.193425  1
  O  O39  1  0.776533  0.676600  0.904042  1
  O  O40  1  0.500000  0.000000  0.000000  1
  O  O41  1  0.500000  0.000000  0.500000  1
  O  O42  1  0.900067  0.676600  0.404042  1
  O  O43  1  0.922010  0.661997  0.693425  1
  O  O44  1  0.739987  0.077990  0.693425  1
  O  O45  1  0.776533  0.099933  0.404042  1
  O  O46  1  0.900067  0.223467  0.904042  1
  O  O47  1  0.922010  0.260013  0.193425  1
