# generated using pymatgen
data_K8Li3Cr4O16
_symmetry_space_group_name_H-M   'P 1'
_cell_length_a   5.67314960
_cell_length_b   8.29442103
_cell_length_c   11.12346680
_cell_angle_alpha   91.20526791
_cell_angle_beta   95.41378117
_cell_angle_gamma   90.20448510
_symmetry_Int_Tables_number   1
_chemical_formula_structural   K8Li3Cr4O16
_chemical_formula_sum   'K8 Li3 Cr4 O16'
_cell_volume   520.96197790
_cell_formula_units_Z   1
loop_
 _symmetry_equiv_pos_site_id
 _symmetry_equiv_pos_as_xyz
  1  'x, y, z'
loop_
 _atom_site_type_symbol
 _atom_site_label
 _atom_site_symmetry_multiplicity
 _atom_site_fract_x
 _atom_site_fract_y
 _atom_site_fract_z
 _atom_site_occupancy
  K  K0  1  0.210977  0.005451  0.838727  1
  K  K1  1  0.185740  0.737679  0.366527  1
  K  K2  1  0.283334  0.524261  0.671455  1
  K  K3  1  0.699855  0.764472  0.859437  1
  K  K4  1  0.297708  0.236081  0.128017  1
  K  K5  1  0.712429  0.498899  0.324864  1
  K  K6  1  0.815512  0.247690  0.621367  1
  K  K7  1  0.767058  0.988347  0.204369  1
  Li  Li8  1  0.286744  0.472884  0.931658  1
  Li  Li9  1  0.213329  0.973204  0.569756  1
  Li  Li10  1  0.709564  0.528024  0.067143  1
  Cr  Cr11  1  0.202187  0.720186  0.066371  1
  Cr  Cr12  1  0.301583  0.223615  0.435879  1
  Cr  Cr13  1  0.710354  0.784327  0.558959  1
  Cr  Cr14  1  0.790233  0.279452  0.935178  1
  O  O15  1  0.062391  0.304404  0.877371  1
  O  O16  1  0.169694  0.695203  0.909497  1
  O  O17  1  0.136406  0.066898  0.384370  1
  O  O18  1  0.176478  0.400201  0.403768  1
  O  O19  1  0.338973  0.204318  0.586789  1
  O  O20  1  0.439646  0.814446  0.620497  1
  O  O21  1  0.310598  0.909822  0.096830  1
  O  O22  1  0.609893  0.441994  0.891180  1
  O  O23  1  0.386705  0.559406  0.111233  1
  O  O24  1  0.682515  0.091355  0.901060  1
  O  O25  1  0.559017  0.214116  0.377226  1
  O  O26  1  0.667797  0.797373  0.403925  1
  O  O27  1  0.797730  0.587634  0.586553  1
  O  O28  1  0.914135  0.925971  0.623453  1
  O  O29  1  0.821229  0.301534  0.092970  1
  O  O30  1  0.935228  0.693846  0.127972  1
