# generated using pymatgen
data_Ba2YCl7
_symmetry_space_group_name_H-M   'P 1'
_cell_length_a   8.80460744
_cell_length_b   11.16274003
_cell_length_c   14.74555729
_cell_angle_alpha   90.00000000
_cell_angle_beta   117.10384219
_cell_angle_gamma   90.00000000
_symmetry_Int_Tables_number   1
_chemical_formula_structural   Ba2YCl7
_chemical_formula_sum   'Ba8 Y4 Cl28'
_cell_volume   1290.09273995
_cell_formula_units_Z   4
loop_
 _symmetry_equiv_pos_site_id
 _symmetry_equiv_pos_as_xyz
  1  'x, y, z'
loop_
 _atom_site_type_symbol
 _atom_site_label
 _atom_site_symmetry_multiplicity
 _atom_site_fract_x
 _atom_site_fract_y
 _atom_site_fract_z
 _atom_site_occupancy
  Ba  Ba0  1  0.766243  0.205743  0.531004  1
  Ba  Ba1  1  0.365890  0.283340  0.203745  1
  Ba  Ba2  1  0.634110  0.783340  0.296255  1
  Ba  Ba3  1  0.766243  0.294257  0.031004  1
  Ba  Ba4  1  0.233757  0.705743  0.968996  1
  Ba  Ba5  1  0.365890  0.216660  0.703745  1
  Ba  Ba6  1  0.634110  0.716660  0.796255  1
  Ba  Ba7  1  0.233757  0.794257  0.468996  1
  Y  Y8  1  0.954038  0.589083  0.631669  1
  Y  Y9  1  0.954038  0.910917  0.131669  1
  Y  Y10  1  0.045962  0.089083  0.868331  1
  Y  Y11  1  0.045962  0.410917  0.368331  1
  Cl  Cl12  1  0.933545  0.557316  0.808782  1
  Cl  Cl13  1  0.941303  0.866281  0.807241  1
  Cl  Cl14  1  0.748721  0.199418  0.739857  1
  Cl  Cl15  1  0.788785  0.467370  0.449482  1
  Cl  Cl16  1  0.933545  0.942684  0.308782  1
  Cl  Cl17  1  0.546623  0.054825  0.346216  1
  Cl  Cl18  1  0.924161  0.789006  0.523340  1
  Cl  Cl19  1  0.377207  0.341212  0.419556  1
  Cl  Cl20  1  0.941303  0.633719  0.307241  1
  Cl  Cl21  1  0.748721  0.300582  0.239857  1
  Cl  Cl22  1  0.622793  0.841212  0.080444  1
  Cl  Cl23  1  0.075839  0.289006  0.976660  1
  Cl  Cl24  1  0.453377  0.554825  0.153784  1
  Cl  Cl25  1  0.788785  0.032630  0.949482  1
  Cl  Cl26  1  0.211215  0.967370  0.050518  1
  Cl  Cl27  1  0.546623  0.445175  0.846216  1
  Cl  Cl28  1  0.924161  0.710994  0.023340  1
  Cl  Cl29  1  0.377207  0.158788  0.919556  1
  Cl  Cl30  1  0.251279  0.699418  0.760143  1
  Cl  Cl31  1  0.058697  0.366281  0.692759  1
  Cl  Cl32  1  0.622793  0.658788  0.580444  1
  Cl  Cl33  1  0.075839  0.210994  0.476660  1
  Cl  Cl34  1  0.453377  0.945175  0.653784  1
  Cl  Cl35  1  0.066455  0.057316  0.691218  1
  Cl  Cl36  1  0.211215  0.532630  0.550518  1
  Cl  Cl37  1  0.251279  0.800582  0.260143  1
  Cl  Cl38  1  0.058697  0.133719  0.192759  1
  Cl  Cl39  1  0.066455  0.442684  0.191218  1
