# generated using pymatgen
data_Li(Bi3O5)4
_symmetry_space_group_name_H-M   'P 1'
_cell_length_a   8.80141134
_cell_length_b   8.80141134
_cell_length_c   8.80141134
_cell_angle_alpha   109.47122063
_cell_angle_beta   109.47122063
_cell_angle_gamma   109.47122063
_symmetry_Int_Tables_number   1
_chemical_formula_structural   Li(Bi3O5)4
_chemical_formula_sum   'Li1 Bi12 O20'
_cell_volume   524.84983483
_cell_formula_units_Z   1
loop_
 _symmetry_equiv_pos_site_id
 _symmetry_equiv_pos_as_xyz
  1  'x, y, z'
loop_
 _atom_site_type_symbol
 _atom_site_label
 _atom_site_symmetry_multiplicity
 _atom_site_fract_x
 _atom_site_fract_y
 _atom_site_fract_z
 _atom_site_occupancy
  Li  Li0  1  0.000000  0.000000  0.000000  1
  Bi  Bi1  1  0.822135  0.139257  0.308860  1
  Bi  Bi2  1  0.860743  0.682877  0.169603  1
  Bi  Bi3  1  0.486725  0.317123  0.177865  1
  Bi  Bi4  1  0.317123  0.177865  0.486725  1
  Bi  Bi5  1  0.682877  0.169603  0.860743  1
  Bi  Bi6  1  0.830397  0.513275  0.691140  1
  Bi  Bi7  1  0.177865  0.486725  0.317123  1
  Bi  Bi8  1  0.691140  0.830397  0.513275  1
  Bi  Bi9  1  0.308860  0.822135  0.139257  1
  Bi  Bi10  1  0.139257  0.308860  0.822135  1
  Bi  Bi11  1  0.513275  0.691140  0.830397  1
  Bi  Bi12  1  0.169603  0.860743  0.682877  1
  O  O13  1  0.622056  0.000000  0.000000  1
  O  O14  1  0.758178  0.380346  0.118850  1
  O  O15  1  0.238525  1.000000  1.000000  1
  O  O16  1  0.622168  0.241822  0.360672  1
  O  O17  1  0.881150  0.261496  0.639328  1
  O  O18  1  1.000000  0.238525  0.000000  1
  O  O19  1  0.000000  0.000000  0.238525  1
  O  O20  1  0.738504  0.619654  0.377832  1
  O  O21  1  0.377944  0.377944  0.377944  1
  O  O22  1  0.360672  0.622168  0.241822  1
  O  O23  1  0.639328  0.881150  0.261496  1
  O  O24  1  0.380346  0.118850  0.758178  1
  O  O25  1  0.619654  0.377832  0.738504  1
  O  O26  1  0.000000  0.622056  0.000000  1
  O  O27  1  0.000000  0.000000  0.622056  1
  O  O28  1  0.241822  0.360672  0.622168  1
  O  O29  1  0.761475  0.761475  0.761475  1
  O  O30  1  0.377832  0.738504  0.619654  1
  O  O31  1  0.118850  0.758178  0.380346  1
  O  O32  1  0.261496  0.639328  0.881150  1
