# generated using pymatgen
data_Cr3Fe3(TeO8)2
_symmetry_space_group_name_H-M   'P 1'
_cell_length_a   6.02139032
_cell_length_b   6.02139032
_cell_length_c   9.20709147
_cell_angle_alpha   89.57257572
_cell_angle_beta   90.42742428
_cell_angle_gamma   119.94316339
_symmetry_Int_Tables_number   1
_chemical_formula_structural   Cr3Fe3(TeO8)2
_chemical_formula_sum   'Cr3 Fe3 Te2 O16'
_cell_volume   289.25373345
_cell_formula_units_Z   1
loop_
 _symmetry_equiv_pos_site_id
 _symmetry_equiv_pos_as_xyz
  1  'x, y, z'
loop_
 _atom_site_type_symbol
 _atom_site_label
 _atom_site_symmetry_multiplicity
 _atom_site_fract_x
 _atom_site_fract_y
 _atom_site_fract_z
 _atom_site_occupancy
  Cr  Cr0  1  0.167549  0.340936  0.786855  1
  Cr  Cr1  1  0.659064  0.832451  0.786855  1
  Cr  Cr2  1  0.827673  0.172327  0.282658  1
  Fe  Fe3  1  0.167885  0.832115  0.794916  1
  Fe  Fe4  1  0.336027  0.171655  0.294119  1
  Fe  Fe5  1  0.828345  0.663973  0.294119  1
  Te  Te6  1  0.331717  0.668283  0.512459  1
  Te  Te7  1  0.667575  0.332425  0.010049  1
  O  O8  1  0.174247  0.351310  0.401517  1
  O  O9  1  0.476927  0.523073  0.656231  1
  O  O10  1  0.337123  0.662877  0.890742  1
  O  O11  1  0.995205  0.004795  0.704837  1
  O  O12  1  0.992592  0.007408  0.205161  1
  O  O13  1  0.648690  0.825753  0.401517  1
  O  O14  1  0.044292  0.521101  0.653779  1
  O  O15  1  0.478899  0.955708  0.653779  1
  O  O16  1  0.826726  0.173274  0.900272  1
  O  O17  1  0.173409  0.826591  0.401376  1
  O  O18  1  0.531300  0.043288  0.153402  1
  O  O19  1  0.956712  0.468700  0.153402  1
  O  O20  1  0.675403  0.324597  0.392663  1
  O  O21  1  0.348109  0.172005  0.901389  1
  O  O22  1  0.525973  0.474027  0.150927  1
  O  O23  1  0.827995  0.651891  0.901389  1
