# generated using pymatgen
data_V6O5F19
_symmetry_space_group_name_H-M   'P 1'
_cell_length_a   5.37837679
_cell_length_b   5.62311408
_cell_length_c   14.83136265
_cell_angle_alpha   100.38171778
_cell_angle_beta   89.58446990
_cell_angle_gamma   93.35485410
_symmetry_Int_Tables_number   1
_chemical_formula_structural   V6O5F19
_chemical_formula_sum   'V6 O5 F19'
_cell_volume   440.44648921
_cell_formula_units_Z   1
loop_
 _symmetry_equiv_pos_site_id
 _symmetry_equiv_pos_as_xyz
  1  'x, y, z'
loop_
 _atom_site_type_symbol
 _atom_site_label
 _atom_site_symmetry_multiplicity
 _atom_site_fract_x
 _atom_site_fract_y
 _atom_site_fract_z
 _atom_site_occupancy
  V  V0  1  0.040389  0.941705  0.995872  1
  V  V1  1  0.543569  0.799483  0.670619  1
  V  V2  1  0.967819  0.735130  0.337183  1
  V  V3  1  0.510042  0.485715  0.001203  1
  V  V4  1  0.034661  0.288151  0.662698  1
  V  V5  1  0.515331  0.224223  0.334623  1
  O  O6  1  0.794420  0.970077  0.358276  1
  O  O7  1  0.771169  0.639632  0.689232  1
  O  O8  1  0.706099  0.469450  0.356038  1
  O  O9  1  0.210693  0.705373  0.976834  1
  O  O10  1  0.203747  0.056410  0.644060  1
  F  F11  1  0.726820  0.791711  0.022882  1
  F  F12  1  0.272216  0.864165  0.309626  1
  F  F13  1  0.915620  0.970712  0.888846  1
  F  F14  1  0.562936  0.808759  0.552049  1
  F  F15  1  0.912615  0.603868  0.221022  1
  F  F16  1  0.402871  0.881573  0.779350  1
  F  F17  1  0.071130  0.688245  0.445561  1
  F  F18  1  0.399556  0.554774  0.115005  1
  F  F19  1  0.778490  0.323318  0.024709  1
  F  F20  1  0.287426  0.536081  0.639823  1
  F  F21  1  0.234264  0.349555  0.306756  1
  F  F22  1  0.558899  0.469084  0.882043  1
  F  F23  1  0.903163  0.295985  0.554076  1
  F  F24  1  0.588117  0.094284  0.220729  1
  F  F25  1  0.070700  0.404915  0.781171  1
  F  F26  1  0.425836  0.185141  0.446304  1
  F  F27  1  0.070371  0.060269  0.113597  1
  F  F28  1  0.724831  0.118732  0.693173  1
  F  F29  1  0.296200  0.183479  0.976643  1
