# generated using pymatgen
data_Mg5Fe19O32
_symmetry_space_group_name_H-M   'P 1'
_cell_length_a   8.54368182
_cell_length_b   8.54368182
_cell_length_c   10.46046648
_cell_angle_alpha   65.79954935
_cell_angle_beta   114.20045065
_cell_angle_gamma   90.34268694
_symmetry_Int_Tables_number   1
_chemical_formula_structural   Mg5Fe19O32
_chemical_formula_sum   'Mg5 Fe19 O32'
_cell_volume   623.07745742
_cell_formula_units_Z   1
loop_
 _symmetry_equiv_pos_site_id
 _symmetry_equiv_pos_as_xyz
  1  'x, y, z'
loop_
 _atom_site_type_symbol
 _atom_site_label
 _atom_site_symmetry_multiplicity
 _atom_site_fract_x
 _atom_site_fract_y
 _atom_site_fract_z
 _atom_site_occupancy
  Mg  Mg0  1  0.250031  0.749969  0.499436  1
  Mg  Mg1  1  0.500000  0.500000  0.500000  1
  Mg  Mg2  1  0.749969  0.250031  0.500564  1
  Mg  Mg3  1  0.000000  0.500000  0.000000  1
  Mg  Mg4  1  0.500000  1.000000  0.000000  1
  Fe  Fe5  1  0.377985  0.874297  0.251582  1
  Fe  Fe6  1  0.125703  0.622015  0.251582  1
  Fe  Fe7  1  0.872681  0.372815  0.250808  1
  Fe  Fe8  1  0.627185  0.127319  0.250808  1
  Fe  Fe9  1  0.312976  0.189663  0.378614  1
  Fe  Fe10  1  0.810337  0.687024  0.378614  1
  Fe  Fe11  1  0.000000  1.000000  0.500000  1
  Fe  Fe12  1  0.189663  0.312976  0.621386  1
  Fe  Fe13  1  0.687024  0.810337  0.621386  1
  Fe  Fe14  1  0.622015  0.125703  0.748418  1
  Fe  Fe15  1  0.127320  0.627185  0.749192  1
  Fe  Fe16  1  0.874297  0.377985  0.748418  1
  Fe  Fe17  1  0.372815  0.872681  0.749192  1
  Fe  Fe18  1  0.059720  0.940280  0.877241  1
  Fe  Fe19  1  0.562013  0.437987  0.875965  1
  Fe  Fe20  1  0.251362  0.251362  0.000000  1
  Fe  Fe21  1  0.748638  0.748638  0.000000  1
  Fe  Fe22  1  0.940280  0.059720  0.122759  1
  Fe  Fe23  1  0.437987  0.562013  0.124035  1
  O  O24  1  0.878965  0.121035  0.257272  1
  O  O25  1  0.367211  0.632789  0.252578  1
  O  O26  1  0.629333  0.370667  0.256660  1
  O  O27  1  0.136078  0.863922  0.252423  1
  O  O28  1  0.992820  0.242101  0.494849  1
  O  O29  1  0.757899  0.007180  0.494849  1
  O  O30  1  0.248294  0.511274  0.488516  1
  O  O31  1  0.488726  0.751706  0.488516  1
  O  O32  1  0.007180  0.757899  0.505151  1
  O  O33  1  0.511274  0.248294  0.511484  1
  O  O34  1  0.751706  0.488726  0.511484  1
  O  O35  1  0.242101  0.992820  0.505151  1
  O  O36  1  0.370667  0.629333  0.743340  1
  O  O37  1  0.863922  0.136078  0.747577  1
  O  O38  1  0.121035  0.878965  0.742728  1
  O  O39  1  0.632789  0.367211  0.747422  1
  O  O40  1  0.120867  0.369965  0.758049  1
  O  O41  1  0.878499  0.612037  0.754253  1
  O  O42  1  0.630035  0.879133  0.758049  1
  O  O43  1  0.387963  0.121501  0.754253  1
  O  O44  1  0.005296  0.259280  0.991376  1
  O  O45  1  0.506329  0.758027  0.993149  1
  O  O46  1  0.740720  0.994704  0.991376  1
  O  O47  1  0.241973  0.493671  0.993149  1
  O  O48  1  0.758027  0.506329  0.006851  1
  O  O49  1  0.493671  0.241973  0.006851  1
  O  O50  1  0.994704  0.740720  0.008624  1
  O  O51  1  0.259280  0.005296  0.008624  1
  O  O52  1  0.612037  0.878499  0.245747  1
  O  O53  1  0.121501  0.387963  0.245747  1
  O  O54  1  0.879133  0.630035  0.241951  1
  O  O55  1  0.369965  0.120867  0.241951  1
