# generated using pymatgen
data_Li3V3(BO5)2
_symmetry_space_group_name_H-M   'P 1'
_cell_length_a   3.03871779
_cell_length_b   9.26970468
_cell_length_c   12.22733491
_cell_angle_alpha   89.75167322
_cell_angle_beta   89.90915078
_cell_angle_gamma   89.41154954
_symmetry_Int_Tables_number   1
_chemical_formula_structural   Li3V3(BO5)2
_chemical_formula_sum   'Li6 V6 B4 O20'
_cell_volume   344.39796353
_cell_formula_units_Z   2
loop_
 _symmetry_equiv_pos_site_id
 _symmetry_equiv_pos_as_xyz
  1  'x, y, z'
loop_
 _atom_site_type_symbol
 _atom_site_label
 _atom_site_symmetry_multiplicity
 _atom_site_fract_x
 _atom_site_fract_y
 _atom_site_fract_z
 _atom_site_occupancy
  Li  Li0  1  0.001721  0.005201  0.998378  1
  Li  Li1  1  0.499934  0.977001  0.508708  1
  Li  Li2  1  0.002535  0.518063  0.506850  1
  Li  Li3  1  0.499290  0.498400  0.000208  1
  Li  Li4  1  0.499174  0.730504  0.400560  1
  Li  Li5  1  0.001569  0.985980  0.709639  1
  V  V6  1  0.000038  0.993347  0.290218  1
  V  V7  1  0.500715  0.238027  0.107350  1
  V  V8  1  0.520625  0.249403  0.611980  1
  V  V9  1  0.998007  0.500260  0.784146  1
  V  V10  1  0.999593  0.507907  0.219914  1
  V  V11  1  0.471034  0.765651  0.884688  1
  B  B12  1  0.498899  0.227893  0.857471  1
  B  B13  1  0.497179  0.274672  0.362309  1
  B  B14  1  0.501666  0.729695  0.633788  1
  B  B15  1  0.504072  0.779031  0.136531  1
  O  O16  1  0.000064  0.107167  0.154596  1
  O  O17  1  0.979943  0.133808  0.574512  1
  O  O18  1  0.496588  0.124250  0.346590  1
  O  O19  1  0.495287  0.157057  0.760023  1
  O  O20  1  0.499867  0.155729  0.956815  1
  O  O21  1  0.496839  0.339845  0.459381  1
  O  O22  1  0.500888  0.357644  0.262503  1
  O  O23  1  0.495877  0.381501  0.856484  1
  O  O24  1  0.002421  0.385610  0.085674  1
  O  O25  1  0.011372  0.384598  0.652031  1
  O  O26  1  0.998147  0.592666  0.341309  1
  O  O27  1  0.991313  0.622704  0.921123  1
  O  O28  1  0.496894  0.626373  0.149077  1
  O  O29  1  0.497378  0.646759  0.742524  1
  O  O30  1  0.498825  0.646132  0.545315  1
  O  O31  1  0.517304  0.841819  0.036881  1
  O  O32  1  0.502961  0.864565  0.230383  1
  O  O33  1  0.505946  0.873447  0.645451  1
  O  O34  1  0.000985  0.896929  0.411428  1
  O  O35  1  0.015053  0.880363  0.855163  1
