# generated using pymatgen
data_Li2MnV(P2O7)2
_symmetry_space_group_name_H-M   'P 1'
_cell_length_a   4.86305719
_cell_length_b   8.29630721
_cell_length_c   13.36461703
_cell_angle_alpha   90.00000000
_cell_angle_beta   91.47316722
_cell_angle_gamma   90.00000000
_symmetry_Int_Tables_number   1
_chemical_formula_structural   Li2MnV(P2O7)2
_chemical_formula_sum   'Li4 Mn2 V2 P8 O28'
_cell_volume   539.02281988
_cell_formula_units_Z   2
loop_
 _symmetry_equiv_pos_site_id
 _symmetry_equiv_pos_as_xyz
  1  'x, y, z'
loop_
 _atom_site_type_symbol
 _atom_site_label
 _atom_site_symmetry_multiplicity
 _atom_site_fract_x
 _atom_site_fract_y
 _atom_site_fract_z
 _atom_site_occupancy
  Li  Li0  1  0.414386  0.359471  0.587060  1
  Li  Li1  1  0.585614  0.859471  0.412940  1
  Li  Li2  1  0.910889  0.362350  0.087727  1
  Li  Li3  1  0.089111  0.862350  0.912273  1
  Mn  Mn4  1  0.401673  0.997676  0.615573  1
  Mn  Mn5  1  0.598327  0.497676  0.384427  1
  V  V6  1  0.898861  0.001084  0.113331  1
  V  V7  1  0.101139  0.501084  0.886669  1
  P  P8  1  0.389879  0.181364  0.988326  1
  P  P9  1  0.417931  0.787197  0.206333  1
  P  P10  1  0.582069  0.287197  0.793667  1
  P  P11  1  0.610121  0.681364  0.011674  1
  P  P12  1  0.891715  0.176461  0.491702  1
  P  P13  1  0.919231  0.784121  0.705648  1
  P  P14  1  0.080769  0.284121  0.294352  1
  P  P15  1  0.108285  0.676461  0.508298  1
  O  O16  1  0.247423  0.839359  0.497549  1
  O  O17  1  0.300968  0.532658  0.490804  1
  O  O18  1  0.344475  0.679188  0.947753  1
  O  O19  1  0.395055  0.436844  0.793619  1
  O  O20  1  0.380857  0.325063  0.322337  1
  O  O21  1  0.468971  0.154401  0.873187  1
  O  O22  1  0.433410  0.702644  0.307149  1
  O  O23  1  0.531029  0.654401  0.126813  1
  O  O24  1  0.566590  0.202644  0.692851  1
  O  O25  1  0.604945  0.936844  0.206381  1
  O  O26  1  0.619143  0.825063  0.677663  1
  O  O27  1  0.655525  0.179188  0.052247  1
  O  O28  1  0.699032  0.032658  0.509196  1
  O  O29  1  0.754850  0.845076  0.002943  1
  O  O30  1  0.752577  0.339359  0.502451  1
  O  O31  1  0.804294  0.539887  0.991693  1
  O  O32  1  0.837965  0.670822  0.445041  1
  O  O33  1  0.874498  0.326321  0.827332  1
  O  O34  1  0.894166  0.433620  0.292112  1
  O  O35  1  0.937541  0.695874  0.805850  1
  O  O36  1  0.972590  0.154097  0.375263  1
  O  O37  1  0.062459  0.195874  0.194150  1
  O  O38  1  0.027410  0.654097  0.624737  1
  O  O39  1  0.125502  0.826321  0.172668  1
  O  O40  1  0.105834  0.933620  0.707888  1
  O  O41  1  0.162035  0.170822  0.554959  1
  O  O42  1  0.195706  0.039887  0.008307  1
  O  O43  1  0.245150  0.345076  0.997057  1
