# generated using pymatgen
data_LiCuSi2O5
_symmetry_space_group_name_H-M   'P 1'
_cell_length_a   5.73663539
_cell_length_b   4.93629039
_cell_length_c   7.97171755
_cell_angle_alpha   90.00000000
_cell_angle_beta   106.98467179
_cell_angle_gamma   90.00000000
_symmetry_Int_Tables_number   1
_chemical_formula_structural   LiCuSi2O5
_chemical_formula_sum   'Li2 Cu2 Si4 O10'
_cell_volume   215.89454594
_cell_formula_units_Z   2
loop_
 _symmetry_equiv_pos_site_id
 _symmetry_equiv_pos_as_xyz
  1  'x, y, z'
loop_
 _atom_site_type_symbol
 _atom_site_label
 _atom_site_symmetry_multiplicity
 _atom_site_fract_x
 _atom_site_fract_y
 _atom_site_fract_z
 _atom_site_occupancy
  Li  Li0  1  0.057494  0.682505  0.823805  1
  Li  Li1  1  0.942506  0.182505  0.176195  1
  Cu  Cu2  1  0.985702  0.714332  0.372351  1
  Cu  Cu3  1  0.014298  0.214332  0.627649  1
  Si  Si4  1  0.352534  0.182205  0.015070  1
  Si  Si5  1  0.450424  0.668766  0.595533  1
  Si  Si6  1  0.549576  0.168766  0.404467  1
  Si  Si7  1  0.647466  0.682205  0.984930  1
  O  O8  1  0.105072  0.282842  0.874885  1
  O  O9  1  0.182598  0.739843  0.614273  1
  O  O10  1  0.327566  0.225451  0.215523  1
  O  O11  1  0.401666  0.853553  0.993570  1
  O  O12  1  0.468934  0.344159  0.552920  1
  O  O13  1  0.531066  0.844159  0.447080  1
  O  O14  1  0.598334  0.353553  0.006430  1
  O  O15  1  0.672434  0.725451  0.784477  1
  O  O16  1  0.817402  0.239843  0.385727  1
  O  O17  1  0.894928  0.782842  0.125115  1
