# generated using pymatgen
data_LiNi4(PO4)3
_symmetry_space_group_name_H-M   'P 1'
_cell_length_a   6.24392016
_cell_length_b   9.77029790
_cell_length_c   14.17130351
_cell_angle_alpha   90.00000000
_cell_angle_beta   90.00000000
_cell_angle_gamma   90.00000000
_symmetry_Int_Tables_number   1
_chemical_formula_structural   LiNi4(PO4)3
_chemical_formula_sum   'Li4 Ni16 P12 O48'
_cell_volume   864.51980416
_cell_formula_units_Z   4
loop_
 _symmetry_equiv_pos_site_id
 _symmetry_equiv_pos_as_xyz
  1  'x, y, z'
loop_
 _atom_site_type_symbol
 _atom_site_label
 _atom_site_symmetry_multiplicity
 _atom_site_fract_x
 _atom_site_fract_y
 _atom_site_fract_z
 _atom_site_occupancy
  Li  Li0  1  0.942765  0.253616  0.250000  1
  Li  Li1  1  0.557235  0.753616  0.750000  1
  Li  Li2  1  0.442765  0.246384  0.250000  1
  Li  Li3  1  0.057235  0.746384  0.750000  1
  Ni  Ni4  1  0.852929  0.542151  0.596298  1
  Ni  Ni5  1  0.852929  0.542151  0.903702  1
  Ni  Ni6  1  0.863529  0.148044  0.616366  1
  Ni  Ni7  1  0.863529  0.148044  0.883634  1
  Ni  Ni8  1  0.636471  0.648044  0.116366  1
  Ni  Ni9  1  0.636471  0.648044  0.383634  1
  Ni  Ni10  1  0.647071  0.042151  0.096298  1
  Ni  Ni11  1  0.647071  0.042151  0.403702  1
  Ni  Ni12  1  0.352929  0.957849  0.596298  1
  Ni  Ni13  1  0.352929  0.957849  0.903702  1
  Ni  Ni14  1  0.363529  0.351956  0.616366  1
  Ni  Ni15  1  0.363529  0.351956  0.883634  1
  Ni  Ni16  1  0.136471  0.851956  0.116366  1
  Ni  Ni17  1  0.136471  0.851956  0.383634  1
  Ni  Ni18  1  0.147071  0.457849  0.403702  1
  Ni  Ni19  1  0.147071  0.457849  0.096298  1
  P  P20  1  0.008105  0.597147  0.250000  1
  P  P21  1  0.862561  0.869158  0.574166  1
  P  P22  1  0.862561  0.869158  0.925834  1
  P  P23  1  0.637439  0.369158  0.074166  1
  P  P24  1  0.637439  0.369158  0.425834  1
  P  P25  1  0.491895  0.097147  0.750000  1
  P  P26  1  0.508105  0.902853  0.250000  1
  P  P27  1  0.362561  0.630842  0.574166  1
  P  P28  1  0.362561  0.630842  0.925834  1
  P  P29  1  0.137439  0.130842  0.425834  1
  P  P30  1  0.137439  0.130842  0.074166  1
  P  P31  1  0.991895  0.402853  0.750000  1
  O  O32  1  0.964873  0.033206  0.118106  1
  O  O33  1  0.964873  0.033206  0.381894  1
  O  O34  1  0.938924  0.556560  0.750000  1
  O  O35  1  0.894167  0.345398  0.657912  1
  O  O36  1  0.894167  0.345398  0.842088  1
  O  O37  1  0.939816  0.793645  0.013883  1
  O  O38  1  0.939816  0.793645  0.486117  1
  O  O39  1  0.821248  0.479035  0.050676  1
  O  O40  1  0.821248  0.479035  0.449324  1
  O  O41  1  0.787209  0.761796  0.644900  1
  O  O42  1  0.787209  0.761796  0.855100  1
  O  O43  1  0.762989  0.620410  0.250000  1
  O  O44  1  0.737011  0.120410  0.750000  1
  O  O45  1  0.712791  0.261796  0.355100  1
  O  O46  1  0.712791  0.261796  0.144900  1
  O  O47  1  0.678752  0.979035  0.550676  1
  O  O48  1  0.678752  0.979035  0.949324  1
  O  O49  1  0.560184  0.293645  0.513883  1
  O  O50  1  0.560184  0.293645  0.986117  1
  O  O51  1  0.605833  0.845398  0.157912  1
  O  O52  1  0.605833  0.845398  0.342088  1
  O  O53  1  0.561076  0.056560  0.250000  1
  O  O54  1  0.535127  0.533206  0.618106  1
  O  O55  1  0.535127  0.533206  0.881894  1
  O  O56  1  0.464873  0.466794  0.118106  1
  O  O57  1  0.464873  0.466794  0.381894  1
  O  O58  1  0.438924  0.943440  0.750000  1
  O  O59  1  0.394167  0.154602  0.657912  1
  O  O60  1  0.394167  0.154602  0.842088  1
  O  O61  1  0.439816  0.706355  0.013883  1
  O  O62  1  0.439816  0.706355  0.486117  1
  O  O63  1  0.321248  0.020965  0.449324  1
  O  O64  1  0.321248  0.020965  0.050676  1
  O  O65  1  0.287209  0.738204  0.644900  1
  O  O66  1  0.287209  0.738204  0.855100  1
  O  O67  1  0.262989  0.879590  0.250000  1
  O  O68  1  0.237011  0.379590  0.750000  1
  O  O69  1  0.212791  0.238204  0.144900  1
  O  O70  1  0.212791  0.238204  0.355100  1
  O  O71  1  0.178752  0.520965  0.550676  1
  O  O72  1  0.178752  0.520965  0.949324  1
  O  O73  1  0.060184  0.206355  0.513883  1
  O  O74  1  0.060184  0.206355  0.986117  1
  O  O75  1  0.105833  0.654602  0.157912  1
  O  O76  1  0.105833  0.654602  0.342088  1
  O  O77  1  0.061076  0.443440  0.250000  1
  O  O78  1  0.035127  0.966794  0.618106  1
  O  O79  1  0.035127  0.966794  0.881894  1
