# generated using pymatgen
data_Li3Fe4CuO8
_symmetry_space_group_name_H-M   'P 1'
_cell_length_a   5.98337711
_cell_length_b   5.98337711
_cell_length_c   6.03435378
_cell_angle_alpha   59.90042374
_cell_angle_beta   120.09957626
_cell_angle_gamma   120.28229549
_symmetry_Int_Tables_number   1
_chemical_formula_structural   Li3Fe4CuO8
_chemical_formula_sum   'Li3 Fe4 Cu1 O8'
_cell_volume   152.20218681
_cell_formula_units_Z   1
loop_
 _symmetry_equiv_pos_site_id
 _symmetry_equiv_pos_as_xyz
  1  'x, y, z'
loop_
 _atom_site_type_symbol
 _atom_site_label
 _atom_site_symmetry_multiplicity
 _atom_site_fract_x
 _atom_site_fract_y
 _atom_site_fract_z
 _atom_site_occupancy
  Li  Li0  1  0.000000  0.500000  0.000000  1
  Li  Li1  1  0.000000  1.000000  0.500000  1
  Li  Li2  1  0.500000  0.000000  0.000000  1
  Fe  Fe3  1  0.500000  0.500000  0.500000  1
  Fe  Fe4  1  0.000000  0.000000  0.000000  1
  Fe  Fe5  1  0.000000  0.500000  0.500000  1
  Fe  Fe6  1  0.500000  0.000000  0.500000  1
  Cu  Cu7  1  0.500000  0.500000  0.000000  1
  O  O8  1  0.262512  0.737488  0.743601  1
  O  O9  1  0.257670  0.241610  0.270914  1
  O  O10  1  0.758390  0.742330  0.270914  1
  O  O11  1  0.743071  0.256929  0.733450  1
  O  O12  1  0.256929  0.743071  0.266550  1
  O  O13  1  0.241610  0.257670  0.729086  1
  O  O14  1  0.742330  0.758390  0.729086  1
  O  O15  1  0.737488  0.262512  0.256399  1
