# generated using pymatgen
data_Li2Cr2Si5O13
_symmetry_space_group_name_H-M   'P 1'
_cell_length_a   7.65969180
_cell_length_b   7.95208042
_cell_length_c   9.85875754
_cell_angle_alpha   82.99732727
_cell_angle_beta   111.33292278
_cell_angle_gamma   111.03266411
_symmetry_Int_Tables_number   1
_chemical_formula_structural   Li2Cr2Si5O13
_chemical_formula_sum   'Li4 Cr4 Si10 O26'
_cell_volume   522.06431226
_cell_formula_units_Z   2
loop_
 _symmetry_equiv_pos_site_id
 _symmetry_equiv_pos_as_xyz
  1  'x, y, z'
loop_
 _atom_site_type_symbol
 _atom_site_label
 _atom_site_symmetry_multiplicity
 _atom_site_fract_x
 _atom_site_fract_y
 _atom_site_fract_z
 _atom_site_occupancy
  Li  Li0  1  0.219095  0.934151  0.147841  1
  Li  Li1  1  0.151705  0.600255  0.258816  1
  Li  Li2  1  0.848295  0.399745  0.741184  1
  Li  Li3  1  0.780905  0.065849  0.852159  1
  Cr  Cr4  1  0.037593  0.851038  0.399047  1
  Cr  Cr5  1  0.433079  0.163803  0.596085  1
  Cr  Cr6  1  0.566921  0.836197  0.403915  1
  Cr  Cr7  1  0.962407  0.148962  0.600953  1
  Si  Si8  1  0.167748  0.774434  0.737113  1
  Si  Si9  1  0.203399  0.303329  0.952039  1
  Si  Si10  1  0.316011  0.544708  0.594664  1
  Si  Si11  1  0.240853  0.245640  0.262938  1
  Si  Si12  1  0.617011  0.293978  0.953723  1
  Si  Si13  1  0.382989  0.706022  0.046277  1
  Si  Si14  1  0.759147  0.754360  0.737062  1
  Si  Si15  1  0.683989  0.455292  0.405336  1
  Si  Si16  1  0.796601  0.696671  0.047961  1
  Si  Si17  1  0.832252  0.225566  0.262887  1
  O  O18  1  0.007449  0.228389  0.810922  1
  O  O19  1  0.184079  0.941398  0.624351  1
  O  O20  1  0.320243  0.835394  0.904927  1
  O  O21  1  0.207428  0.606679  0.688652  1
  O  O22  1  0.059648  0.316951  0.252644  1
  O  O23  1  0.398951  0.302822  0.926028  1
  O  O24  1  0.212774  0.329368  0.570854  1
  O  O25  1  0.315795  0.672575  0.452809  1
  O  O26  1  0.554069  0.582724  0.699307  1
  O  O27  1  0.372728  0.781464  0.186755  1
  O  O28  1  0.220718  0.500601  0.000556  1
  O  O29  1  0.266796  0.080344  0.373318  1
  O  O30  1  0.185801  0.169982  0.095884  1
  O  O31  1  0.814199  0.830018  0.904116  1
  O  O32  1  0.733204  0.919656  0.626682  1
  O  O33  1  0.779282  0.499399  0.999444  1
  O  O34  1  0.627272  0.218536  0.813245  1
  O  O35  1  0.445931  0.417276  0.300693  1
  O  O36  1  0.684205  0.327425  0.547191  1
  O  O37  1  0.787226  0.670632  0.429146  1
  O  O38  1  0.601049  0.697178  0.073972  1
  O  O39  1  0.940352  0.683049  0.747356  1
  O  O40  1  0.792572  0.393321  0.311348  1
  O  O41  1  0.679757  0.164606  0.095073  1
  O  O42  1  0.815921  0.058602  0.375649  1
  O  O43  1  0.992551  0.771611  0.189078  1
