# generated using pymatgen
data_B10H13
_symmetry_space_group_name_H-M   'P 1'
_cell_length_a   10.72918424
_cell_length_b   10.86115272
_cell_length_c   14.80590194
_cell_angle_alpha   90.00000000
_cell_angle_beta   90.00000000
_cell_angle_gamma   90.00000000
_symmetry_Int_Tables_number   1
_chemical_formula_structural   B10H13
_chemical_formula_sum   'B80 H104'
_cell_volume   1725.35112795
_cell_formula_units_Z   8
loop_
 _symmetry_equiv_pos_site_id
 _symmetry_equiv_pos_as_xyz
  1  'x, y, z'
loop_
 _atom_site_type_symbol
 _atom_site_label
 _atom_site_symmetry_multiplicity
 _atom_site_fract_x
 _atom_site_fract_y
 _atom_site_fract_z
 _atom_site_occupancy
  B  B0  1  0.931981  0.991259  0.343551  1
  B  B1  1  0.568019  0.991259  0.843551  1
  B  B2  1  0.773425  0.986234  0.315296  1
  B  B3  1  0.726575  0.986234  0.815296  1
  B  B4  1  0.684325  0.976119  0.416562  1
  B  B5  1  0.815675  0.976119  0.916562  1
  B  B6  1  0.947847  0.966652  0.462673  1
  B  B7  1  0.552153  0.966652  0.962673  1
  B  B8  1  0.705195  0.943565  0.003168  1
  B  B9  1  0.794805  0.943565  0.503168  1
  B  B10  1  0.322064  0.943063  0.081559  1
  B  B11  1  0.177936  0.943063  0.581559  1
  B  B12  1  0.500313  0.852926  0.883156  1
  B  B13  1  0.999687  0.852926  0.383156  1
  B  B14  1  0.891250  0.851988  0.291722  1
  B  B15  1  0.608750  0.851988  0.791722  1
  B  B16  1  0.911808  0.809597  0.479870  1
  B  B17  1  0.588192  0.809597  0.979870  1
  B  B18  1  0.395701  0.767303  0.374001  1
  B  B19  1  0.104299  0.767303  0.874001  1
  B  B20  1  0.895701  0.732697  0.374001  1
  B  B21  1  0.604299  0.732697  0.874001  1
  B  B22  1  0.411808  0.690403  0.479870  1
  B  B23  1  0.088192  0.690403  0.979870  1
  B  B24  1  0.391250  0.648012  0.291722  1
  B  B25  1  0.108750  0.648012  0.791722  1
  B  B26  1  0.000313  0.647074  0.883156  1
  B  B27  1  0.499687  0.647074  0.383156  1
  B  B28  1  0.822064  0.556937  0.081559  1
  B  B29  1  0.677936  0.556937  0.581559  1
  B  B30  1  0.205195  0.556435  0.003168  1
  B  B31  1  0.294805  0.556435  0.503168  1
  B  B32  1  0.447847  0.533348  0.462673  1
  B  B33  1  0.052153  0.533348  0.962673  1
  B  B34  1  0.315675  0.523881  0.916562  1
  B  B35  1  0.184325  0.523881  0.416562  1
  B  B36  1  0.273425  0.513766  0.315296  1
  B  B37  1  0.226575  0.513766  0.815296  1
  B  B38  1  0.431981  0.508741  0.343551  1
  B  B39  1  0.068019  0.508741  0.843551  1
  B  B40  1  0.931981  0.491259  0.156449  1
  B  B41  1  0.568019  0.491259  0.656449  1
  B  B42  1  0.773425  0.486234  0.184704  1
  B  B43  1  0.726575  0.486234  0.684704  1
  B  B44  1  0.684325  0.476119  0.083438  1
  B  B45  1  0.815675  0.476119  0.583438  1
  B  B46  1  0.947847  0.466652  0.037327  1
  B  B47  1  0.552153  0.466652  0.537327  1
  B  B48  1  0.705195  0.443565  0.496832  1
  B  B49  1  0.794805  0.443565  0.996832  1
  B  B50  1  0.322064  0.443063  0.418441  1
  B  B51  1  0.177936  0.443063  0.918441  1
  B  B52  1  0.500313  0.352926  0.616844  1
  B  B53  1  0.999687  0.352926  0.116844  1
  B  B54  1  0.891250  0.351988  0.208278  1
  B  B55  1  0.608750  0.351988  0.708278  1
  B  B56  1  0.911808  0.309597  0.020130  1
  B  B57  1  0.588192  0.309597  0.520130  1
  B  B58  1  0.395701  0.267303  0.125999  1
  B  B59  1  0.104299  0.267303  0.625999  1
  B  B60  1  0.895701  0.232697  0.125999  1
  B  B61  1  0.604299  0.232697  0.625999  1
  B  B62  1  0.411808  0.190403  0.020130  1
  B  B63  1  0.088192  0.190403  0.520130  1
  B  B64  1  0.391250  0.148012  0.208278  1
  B  B65  1  0.108750  0.148012  0.708278  1
  B  B66  1  0.000313  0.147074  0.616844  1
  B  B67  1  0.499687  0.147074  0.116844  1
  B  B68  1  0.822064  0.056937  0.418441  1
  B  B69  1  0.677936  0.056937  0.918441  1
  B  B70  1  0.294805  0.056435  0.996832  1
  B  B71  1  0.205195  0.056435  0.496832  1
  B  B72  1  0.447847  0.033348  0.037327  1
  B  B73  1  0.052153  0.033348  0.537327  1
  B  B74  1  0.315675  0.023881  0.583438  1
  B  B75  1  0.184325  0.023881  0.083438  1
  B  B76  1  0.273425  0.013766  0.184704  1
  B  B77  1  0.226575  0.013766  0.684704  1
  B  B78  1  0.431981  0.008741  0.156449  1
  B  B79  1  0.068019  0.008741  0.656449  1
  H  H80  1  0.080154  0.989163  0.071437  1
  H  H81  1  0.419846  0.989163  0.571437  1
  H  H82  1  0.231234  0.962785  0.249246  1
  H  H83  1  0.268766  0.962785  0.749246  1
  H  H84  1  0.735506  0.961817  0.079701  1
  H  H85  1  0.764494  0.961817  0.579701  1
  H  H86  1  0.493979  0.941110  0.201681  1
  H  H87  1  0.006021  0.941110  0.701681  1
  H  H88  1  0.684077  0.908696  0.340291  1
  H  H89  1  0.815923  0.908696  0.840291  1
  H  H90  1  0.700543  0.878007  0.469905  1
  H  H91  1  0.799457  0.878007  0.969905  1
  H  H92  1  0.412159  0.873623  0.359346  1
  H  H93  1  0.087841  0.873623  0.859346  1
  H  H94  1  0.318998  0.834545  0.068793  1
  H  H95  1  0.181002  0.834545  0.568793  1
  H  H96  1  0.108419  0.833277  0.373175  1
  H  H97  1  0.391581  0.833277  0.873175  1
  H  H98  1  0.916540  0.828173  0.215059  1
  H  H99  1  0.583460  0.828173  0.715059  1
  H  H100  1  0.806950  0.768793  0.315287  1
  H  H101  1  0.693050  0.768793  0.815287  1
  H  H102  1  0.320976  0.760345  0.446152  1
  H  H103  1  0.179024  0.760345  0.946152  1
  H  H104  1  0.948592  0.751436  0.542927  1
  H  H105  1  0.551408  0.751436  0.042927  1
  H  H106  1  0.051408  0.748564  0.042927  1
  H  H107  1  0.448592  0.748564  0.542927  1
  H  H108  1  0.820976  0.739655  0.446152  1
  H  H109  1  0.679024  0.739655  0.946152  1
  H  H110  1  0.306950  0.731207  0.315287  1
  H  H111  1  0.193050  0.731207  0.815287  1
  H  H112  1  0.416540  0.671827  0.215059  1
  H  H113  1  0.083460  0.671827  0.715059  1
  H  H114  1  0.891581  0.666723  0.873175  1
  H  H115  1  0.608419  0.666723  0.373175  1
  H  H116  1  0.818998  0.665455  0.068793  1
  H  H117  1  0.681002  0.665455  0.568793  1
  H  H118  1  0.912159  0.626377  0.359346  1
  H  H119  1  0.587841  0.626377  0.859346  1
  H  H120  1  0.200543  0.621993  0.469905  1
  H  H121  1  0.299457  0.621993  0.969905  1
  H  H122  1  0.315923  0.591304  0.840291  1
  H  H123  1  0.184077  0.591304  0.340291  1
  H  H124  1  0.993979  0.558890  0.201681  1
  H  H125  1  0.506021  0.558890  0.701681  1
  H  H126  1  0.235506  0.538183  0.079701  1
  H  H127  1  0.264494  0.538183  0.579701  1
  H  H128  1  0.731234  0.537215  0.249246  1
  H  H129  1  0.768766  0.537215  0.749246  1
  H  H130  1  0.580154  0.510837  0.071437  1
  H  H131  1  0.919846  0.510837  0.571437  1
  H  H132  1  0.419846  0.489163  0.928563  1
  H  H133  1  0.080154  0.489163  0.428563  1
  H  H134  1  0.231234  0.462785  0.250754  1
  H  H135  1  0.268766  0.462785  0.750754  1
  H  H136  1  0.735506  0.461817  0.420299  1
  H  H137  1  0.764494  0.461817  0.920299  1
  H  H138  1  0.493979  0.441110  0.298319  1
  H  H139  1  0.006021  0.441110  0.798319  1
  H  H140  1  0.684077  0.408696  0.159709  1
  H  H141  1  0.815923  0.408696  0.659709  1
  H  H142  1  0.700543  0.378007  0.030095  1
  H  H143  1  0.799457  0.378007  0.530095  1
  H  H144  1  0.412159  0.373623  0.140654  1
  H  H145  1  0.087841  0.373623  0.640654  1
  H  H146  1  0.318998  0.334545  0.431207  1
  H  H147  1  0.181002  0.334545  0.931207  1
  H  H148  1  0.391581  0.333277  0.626825  1
  H  H149  1  0.108419  0.333277  0.126825  1
  H  H150  1  0.916540  0.328173  0.284941  1
  H  H151  1  0.583460  0.328173  0.784941  1
  H  H152  1  0.806950  0.268793  0.184713  1
  H  H153  1  0.693050  0.268793  0.684713  1
  H  H154  1  0.320976  0.260345  0.053848  1
  H  H155  1  0.179024  0.260345  0.553848  1
  H  H156  1  0.551408  0.251436  0.457073  1
  H  H157  1  0.948592  0.251436  0.957073  1
  H  H158  1  0.448592  0.248564  0.957073  1
  H  H159  1  0.051408  0.248564  0.457073  1
  H  H160  1  0.820976  0.239655  0.053848  1
  H  H161  1  0.679024  0.239655  0.553848  1
  H  H162  1  0.306950  0.231207  0.184713  1
  H  H163  1  0.193050  0.231207  0.684713  1
  H  H164  1  0.416540  0.171827  0.284941  1
  H  H165  1  0.083460  0.171827  0.784941  1
  H  H166  1  0.891581  0.166723  0.626825  1
  H  H167  1  0.608419  0.166723  0.126825  1
  H  H168  1  0.818998  0.165455  0.431207  1
  H  H169  1  0.681002  0.165455  0.931207  1
  H  H170  1  0.912159  0.126377  0.140654  1
  H  H171  1  0.587841  0.126377  0.640654  1
  H  H172  1  0.299457  0.121993  0.530095  1
  H  H173  1  0.200543  0.121993  0.030095  1
  H  H174  1  0.315923  0.091304  0.659709  1
  H  H175  1  0.184077  0.091304  0.159709  1
  H  H176  1  0.993979  0.058890  0.298319  1
  H  H177  1  0.506021  0.058890  0.798319  1
  H  H178  1  0.264494  0.038183  0.920299  1
  H  H179  1  0.235506  0.038183  0.420299  1
  H  H180  1  0.768766  0.037215  0.750754  1
  H  H181  1  0.731234  0.037215  0.250754  1
  H  H182  1  0.919846  0.010837  0.928563  1
  H  H183  1  0.580154  0.010837  0.428563  1
