# generated using pymatgen
data_MnCr2Ni3(PO4)6
_symmetry_space_group_name_H-M   'P 1'
_cell_length_a   8.35814544
_cell_length_b   8.35814544
_cell_length_c   8.35814544
_cell_angle_alpha   61.86949077
_cell_angle_beta   61.86949077
_cell_angle_gamma   61.86949077
_symmetry_Int_Tables_number   1
_chemical_formula_structural   MnCr2Ni3(PO4)6
_chemical_formula_sum   'Mn1 Cr2 Ni3 P6 O24'
_cell_volume   430.15226029
_cell_formula_units_Z   1
loop_
 _symmetry_equiv_pos_site_id
 _symmetry_equiv_pos_as_xyz
  1  'x, y, z'
loop_
 _atom_site_type_symbol
 _atom_site_label
 _atom_site_symmetry_multiplicity
 _atom_site_fract_x
 _atom_site_fract_y
 _atom_site_fract_z
 _atom_site_occupancy
  Mn  Mn0  1  0.142507  0.142507  0.142507  1
  Cr  Cr1  1  0.998340  0.998340  0.998340  1
  Cr  Cr2  1  0.499624  0.499624  0.499624  1
  Ni  Ni3  1  0.856863  0.856863  0.856863  1
  Ni  Ni4  1  0.641852  0.641852  0.641852  1
  Ni  Ni5  1  0.358090  0.358090  0.358090  1
  P  P6  1  0.749638  0.453509  0.049260  1
  P  P7  1  0.453509  0.049260  0.749638  1
  P  P8  1  0.049260  0.749638  0.453509  1
  P  P9  1  0.953915  0.251235  0.543795  1
  P  P10  1  0.543795  0.953915  0.251235  1
  P  P11  1  0.251235  0.543795  0.953915  1
  O  O12  1  0.895890  0.681078  0.484507  1
  O  O13  1  0.681078  0.484507  0.895890  1
  O  O14  1  0.946439  0.092512  0.744983  1
  O  O15  1  0.484507  0.895890  0.681078  1
  O  O16  1  0.997812  0.178790  0.383463  1
  O  O17  1  0.748070  0.398080  0.560947  1
  O  O18  1  0.744983  0.946439  0.092512  1
  O  O19  1  0.560947  0.748070  0.398080  1
  O  O20  1  0.821925  0.607006  0.012552  1
  O  O21  1  0.398080  0.560947  0.748070  1
  O  O22  1  0.911879  0.246568  0.061726  1
  O  O23  1  0.607006  0.012552  0.821925  1
  O  O24  1  0.383463  0.997812  0.178790  1
  O  O25  1  0.092512  0.744983  0.946439  1
  O  O26  1  0.601971  0.431667  0.254919  1
  O  O27  1  0.178790  0.383463  0.997812  1
  O  O28  1  0.431667  0.254919  0.601971  1
  O  O29  1  0.246568  0.061726  0.911879  1
  O  O30  1  0.254919  0.601971  0.431667  1
  O  O31  1  0.012552  0.821925  0.607006  1
  O  O32  1  0.506038  0.103083  0.329466  1
  O  O33  1  0.061726  0.911879  0.246568  1
  O  O34  1  0.329466  0.506038  0.103083  1
  O  O35  1  0.103083  0.329466  0.506038  1
