# generated using pymatgen
data_Li4Cr3NiO8
_symmetry_space_group_name_H-M   'P 1'
_cell_length_a   5.90068887
_cell_length_b   5.90068887
_cell_length_c   5.11837073
_cell_angle_alpha   73.23737648
_cell_angle_beta   106.76262352
_cell_angle_gamma   119.97722617
_symmetry_Int_Tables_number   1
_chemical_formula_structural   Li4Cr3NiO8
_chemical_formula_sum   'Li4 Cr3 Ni1 O8'
_cell_volume   145.55773612
_cell_formula_units_Z   1
loop_
 _symmetry_equiv_pos_site_id
 _symmetry_equiv_pos_as_xyz
  1  'x, y, z'
loop_
 _atom_site_type_symbol
 _atom_site_label
 _atom_site_symmetry_multiplicity
 _atom_site_fract_x
 _atom_site_fract_y
 _atom_site_fract_z
 _atom_site_occupancy
  Li  Li0  1  0.748129  0.251871  0.996740  1
  Li  Li1  1  0.251871  0.748129  0.003260  1
  Li  Li2  1  0.253872  0.253872  0.000000  1
  Li  Li3  1  0.746128  0.746128  0.000000  1
  Cr  Cr4  1  0.000000  0.500000  0.500000  1
  Cr  Cr5  1  0.500000  0.000000  0.500000  1
  Cr  Cr6  1  0.000000  0.000000  0.500000  1
  Ni  Ni7  1  0.500000  0.500000  0.500000  1
  O  O8  1  0.632617  0.367383  0.271886  1
  O  O9  1  0.879613  0.633182  0.727044  1
  O  O10  1  0.128793  0.871207  0.272536  1
  O  O11  1  0.366818  0.120387  0.727044  1
  O  O12  1  0.120387  0.366818  0.272956  1
  O  O13  1  0.367383  0.632617  0.728114  1
  O  O14  1  0.633182  0.879613  0.272956  1
  O  O15  1  0.871207  0.128793  0.727464  1
