# generated using pymatgen
data_Li3Mn2(PO3)7
_symmetry_space_group_name_H-M   'P 1'
_cell_length_a   6.79114773
_cell_length_b   7.15778055
_cell_length_c   19.32743293
_cell_angle_alpha   88.38031032
_cell_angle_beta   99.11863323
_cell_angle_gamma   114.02602161
_symmetry_Int_Tables_number   1
_chemical_formula_structural   Li3Mn2(PO3)7
_chemical_formula_sum   'Li6 Mn4 P14 O42'
_cell_volume   846.57071026
_cell_formula_units_Z   2
loop_
 _symmetry_equiv_pos_site_id
 _symmetry_equiv_pos_as_xyz
  1  'x, y, z'
loop_
 _atom_site_type_symbol
 _atom_site_label
 _atom_site_symmetry_multiplicity
 _atom_site_fract_x
 _atom_site_fract_y
 _atom_site_fract_z
 _atom_site_occupancy
  Li  Li0  1  0.255775  0.802061  0.750995  1
  Li  Li1  1  0.442244  0.239620  0.578836  1
  Li  Li2  1  0.828001  0.873746  0.871725  1
  Li  Li3  1  0.171999  0.126254  0.128275  1
  Li  Li4  1  0.557756  0.760380  0.421164  1
  Li  Li5  1  0.744225  0.197939  0.249005  1
  Mn  Mn6  1  0.601080  0.812014  0.616168  1
  Mn  Mn7  1  0.385975  0.149195  0.876990  1
  Mn  Mn8  1  0.614025  0.850805  0.123010  1
  Mn  Mn9  1  0.398920  0.187986  0.383832  1
  P  P10  1  0.297106  0.728645  0.962858  1
  P  P11  1  0.191102  0.772869  0.495989  1
  P  P12  1  0.021280  0.696401  0.068628  1
  P  P13  1  0.087260  0.423034  0.399756  1
  P  P14  1  0.044213  0.108954  0.720329  1
  P  P15  1  0.351150  0.828446  0.268225  1
  P  P16  1  0.466995  0.464578  0.751393  1
  P  P17  1  0.533005  0.535422  0.248607  1
  P  P18  1  0.648850  0.171554  0.731775  1
  P  P19  1  0.955787  0.891046  0.279671  1
  P  P20  1  0.912740  0.576966  0.600244  1
  P  P21  1  0.978720  0.303599  0.931372  1
  P  P22  1  0.808898  0.227131  0.504011  1
  P  P23  1  0.702894  0.271355  0.037142  1
  O  O24  1  0.096333  0.753767  0.991267  1
  O  O25  1  0.978791  0.716805  0.532973  1
  O  O26  1  0.308655  0.826677  0.892718  1
  O  O27  1  0.080480  0.659930  0.663459  1
  O  O28  1  0.218133  0.485328  0.952217  1
  O  O29  1  0.025266  0.127607  0.908481  1
  O  O30  1  0.086938  0.641551  0.422359  1
  O  O31  1  0.277718  0.997364  0.483412  1
  O  O32  1  0.092864  0.772122  0.255035  1
  O  O33  1  0.503208  0.796193  0.015606  1
  O  O34  1  0.106849  0.998191  0.781636  1
  O  O35  1  0.257753  0.297019  0.699889  1
  O  O36  1  0.339750  0.683358  0.536199  1
  O  O37  1  0.178001  0.626679  0.112409  1
  O  O38  1  0.324704  0.459309  0.400430  1
  O  O39  1  0.429112  0.432630  0.826031  1
  O  O40  1  0.453327  0.913124  0.343088  1
  O  O41  1  0.459001  0.958458  0.211229  1
  O  O42  1  0.071654  0.011697  0.346621  1
  O  O43  1  0.517261  0.673427  0.722863  1
  O  O44  1  0.339517  0.600723  0.261692  1
  O  O45  1  0.660483  0.399277  0.738308  1
  O  O46  1  0.482739  0.326573  0.277137  1
  O  O47  1  0.928346  0.988303  0.653379  1
  O  O48  1  0.540999  0.041542  0.788771  1
  O  O49  1  0.546673  0.086876  0.656912  1
  O  O50  1  0.570888  0.567370  0.173969  1
  O  O51  1  0.675296  0.540691  0.599570  1
  O  O52  1  0.821999  0.373321  0.887591  1
  O  O53  1  0.660250  0.316642  0.463801  1
  O  O54  1  0.742247  0.702981  0.300111  1
  O  O55  1  0.893151  0.001809  0.218364  1
  O  O56  1  0.496792  0.203807  0.984394  1
  O  O57  1  0.907136  0.227878  0.744965  1
  O  O58  1  0.722282  0.002636  0.516588  1
  O  O59  1  0.913062  0.358449  0.577641  1
  O  O60  1  0.974734  0.872393  0.091519  1
  O  O61  1  0.781867  0.514672  0.047783  1
  O  O62  1  0.919520  0.340070  0.336541  1
  O  O63  1  0.691345  0.173323  0.107282  1
  O  O64  1  0.021209  0.283195  0.467027  1
  O  O65  1  0.903667  0.246233  0.008733  1
