# generated using pymatgen
data_Li3Mn5F15
_symmetry_space_group_name_H-M   'P 1'
_cell_length_a   13.06308244
_cell_length_b   13.06308244
_cell_length_c   3.94268493
_cell_angle_alpha   90.00000000
_cell_angle_beta   90.00000000
_cell_angle_gamma   90.00000000
_symmetry_Int_Tables_number   1
_chemical_formula_structural   Li3Mn5F15
_chemical_formula_sum   'Li6 Mn10 F30'
_cell_volume   672.79601201
_cell_formula_units_Z   2
loop_
 _symmetry_equiv_pos_site_id
 _symmetry_equiv_pos_as_xyz
  1  'x, y, z'
loop_
 _atom_site_type_symbol
 _atom_site_label
 _atom_site_symmetry_multiplicity
 _atom_site_fract_x
 _atom_site_fract_y
 _atom_site_fract_z
 _atom_site_occupancy
  Li  Li0  1  0.000000  0.000000  0.326558  1
  Li  Li1  1  0.837879  0.337879  0.370293  1
  Li  Li2  1  0.662121  0.837879  0.370293  1
  Li  Li3  1  0.500000  0.500000  0.326558  1
  Li  Li4  1  0.337879  0.162121  0.370293  1
  Li  Li5  1  0.162121  0.662121  0.370293  1
  Mn  Mn6  1  0.000000  0.500000  0.416555  1
  Mn  Mn7  1  0.920077  0.787327  0.401751  1
  Mn  Mn8  1  0.787327  0.079923  0.401751  1
  Mn  Mn9  1  0.712673  0.579923  0.401751  1
  Mn  Mn10  1  0.579923  0.287327  0.401751  1
  Mn  Mn11  1  0.500000  0.000000  0.416555  1
  Mn  Mn12  1  0.420077  0.712673  0.401751  1
  Mn  Mn13  1  0.287327  0.420077  0.401751  1
  Mn  Mn14  1  0.212673  0.920077  0.401751  1
  Mn  Mn15  1  0.079923  0.212673  0.401751  1
  F  F16  1  0.000000  0.500000  0.915106  1
  F  F17  1  0.985040  0.340516  0.406190  1
  F  F18  1  0.937087  0.131964  0.387369  1
  F  F19  1  0.918231  0.784461  0.900822  1
  F  F20  1  0.868036  0.937087  0.387369  1
  F  F21  1  0.840516  0.485040  0.406190  1
  F  F22  1  0.784461  0.081769  0.900822  1
  F  F23  1  0.763916  0.736084  0.400139  1
  F  F24  1  0.736084  0.236084  0.400139  1
  F  F25  1  0.715539  0.581769  0.900822  1
  F  F26  1  0.659484  0.985040  0.406190  1
  F  F27  1  0.631964  0.437087  0.387369  1
  F  F28  1  0.581769  0.284461  0.900822  1
  F  F29  1  0.562913  0.631964  0.387369  1
  F  F30  1  0.514960  0.840516  0.406190  1
  F  F31  1  0.500000  0.000000  0.915106  1
  F  F32  1  0.485040  0.159484  0.406190  1
  F  F33  1  0.437087  0.368036  0.387369  1
  F  F34  1  0.418231  0.715539  0.900822  1
  F  F35  1  0.368036  0.562913  0.387369  1
  F  F36  1  0.340516  0.014960  0.406190  1
  F  F37  1  0.284461  0.418231  0.900822  1
  F  F38  1  0.263916  0.763916  0.400139  1
  F  F39  1  0.236084  0.263916  0.400139  1
  F  F40  1  0.215539  0.918231  0.900822  1
  F  F41  1  0.159484  0.514960  0.406190  1
  F  F42  1  0.131964  0.062913  0.387369  1
  F  F43  1  0.081769  0.215539  0.900822  1
  F  F44  1  0.062913  0.868036  0.387369  1
  F  F45  1  0.014960  0.659484  0.406190  1
