# generated using pymatgen
data_LiV2F7
_symmetry_space_group_name_H-M   'P 1'
_cell_length_a   7.46947673
_cell_length_b   7.46947673
_cell_length_c   7.46947673
_cell_angle_alpha   123.02226174
_cell_angle_beta   119.38968584
_cell_angle_gamma   87.95343144
_symmetry_Int_Tables_number   1
_chemical_formula_structural   LiV2F7
_chemical_formula_sum   'Li2 V4 F14'
_cell_volume   288.73158556
_cell_formula_units_Z   2
loop_
 _symmetry_equiv_pos_site_id
 _symmetry_equiv_pos_as_xyz
  1  'x, y, z'
loop_
 _atom_site_type_symbol
 _atom_site_label
 _atom_site_symmetry_multiplicity
 _atom_site_fract_x
 _atom_site_fract_y
 _atom_site_fract_z
 _atom_site_occupancy
  Li  Li0  1  0.000000  0.500000  0.000000  1
  Li  Li1  1  0.500000  1.000000  1.000000  1
  V  V2  1  0.000000  0.000000  0.000000  1
  V  V3  1  0.500000  0.000000  0.500000  1
  V  V4  1  0.500000  0.500000  0.500000  1
  V  V5  1  1.000000  1.000000  0.500000  1
  F  F6  1  0.549885  0.294363  0.244478  1
  F  F7  1  0.076422  0.942633  0.761261  1
  F  F8  1  0.681373  0.942633  0.366211  1
  F  F9  1  0.049885  0.305407  0.755522  1
  F  F10  1  0.750000  0.094536  0.844536  1
  F  F11  1  0.576422  0.315161  0.633789  1
  F  F12  1  0.181373  0.315161  0.238739  1
  F  F13  1  0.818627  0.684839  0.761261  1
  F  F14  1  0.423578  0.684839  0.366211  1
  F  F15  1  0.250000  0.905464  0.155464  1
  F  F16  1  0.950115  0.694593  0.244478  1
  F  F17  1  0.318627  0.057367  0.633789  1
  F  F18  1  0.923578  0.057367  0.238739  1
  F  F19  1  0.450115  0.705637  0.755522  1
