# generated using pymatgen
data_NaTiO2
_symmetry_space_group_name_H-M   'P 1'
_cell_length_a   6.23480127
_cell_length_b   6.23480127
_cell_length_c   6.23480127
_cell_angle_alpha   60.00000000
_cell_angle_beta   60.00000000
_cell_angle_gamma   60.00000000
_symmetry_Int_Tables_number   1
_chemical_formula_structural   NaTiO2
_chemical_formula_sum   'Na4 Ti4 O8'
_cell_volume   171.37712328
_cell_formula_units_Z   4
loop_
 _symmetry_equiv_pos_site_id
 _symmetry_equiv_pos_as_xyz
  1  'x, y, z'
loop_
 _atom_site_type_symbol
 _atom_site_label
 _atom_site_symmetry_multiplicity
 _atom_site_fract_x
 _atom_site_fract_y
 _atom_site_fract_z
 _atom_site_occupancy
  Na  Na0  1  0.625000  0.625000  0.125000  1
  Na  Na1  1  0.125000  0.625000  0.625000  1
  Na  Na2  1  0.625000  0.625000  0.625000  1
  Na  Na3  1  0.625000  0.125000  0.625000  1
  Ti  Ti4  1  0.125000  0.625000  0.125000  1
  Ti  Ti5  1  0.625000  0.125000  0.125000  1
  Ti  Ti6  1  0.125000  0.125000  0.125000  1
  Ti  Ti7  1  0.125000  0.125000  0.625000  1
  O  O8  1  0.361234  0.916299  0.361234  1
  O  O9  1  0.888766  0.888766  0.333701  1
  O  O10  1  0.361234  0.361234  0.361234  1
  O  O11  1  0.916299  0.361234  0.361234  1
  O  O12  1  0.333701  0.888766  0.888766  1
  O  O13  1  0.888766  0.888766  0.888766  1
  O  O14  1  0.361234  0.361234  0.916299  1
  O  O15  1  0.888766  0.333701  0.888766  1
