# generated using pymatgen
data_NaCr4O8
_symmetry_space_group_name_H-M   'P 1'
_cell_length_a   7.12621035
_cell_length_b   7.12621035
_cell_length_c   7.12621035
_cell_angle_alpha   92.51966568
_cell_angle_beta   92.51966568
_cell_angle_gamma   155.79375377
_symmetry_Int_Tables_number   1
_chemical_formula_structural   NaCr4O8
_chemical_formula_sum   'Na1 Cr4 O8'
_cell_volume   145.08452088
_cell_formula_units_Z   1
loop_
 _symmetry_equiv_pos_site_id
 _symmetry_equiv_pos_as_xyz
  1  'x, y, z'
loop_
 _atom_site_type_symbol
 _atom_site_label
 _atom_site_symmetry_multiplicity
 _atom_site_fract_x
 _atom_site_fract_y
 _atom_site_fract_z
 _atom_site_occupancy
  Na  Na0  1  0.500000  0.500000  0.000000  1
  Cr  Cr1  1  0.347875  0.165488  0.513363  1
  Cr  Cr2  1  0.834512  0.347875  0.182387  1
  Cr  Cr3  1  0.165488  0.652125  0.817613  1
  Cr  Cr4  1  0.652125  0.834512  0.486637  1
  O  O5  1  0.848140  0.801186  0.649326  1
  O  O6  1  0.837132  0.540072  0.377204  1
  O  O7  1  0.198815  0.848140  0.046955  1
  O  O8  1  0.540072  0.162868  0.702939  1
  O  O9  1  0.459928  0.837132  0.297061  1
  O  O10  1  0.801186  0.151860  0.953045  1
  O  O11  1  0.162868  0.459928  0.622796  1
  O  O12  1  0.151860  0.198815  0.350674  1
