# generated using pymatgen
data_Li2Mn2F7
_symmetry_space_group_name_H-M   'P 1'
_cell_length_a   7.43576053
_cell_length_b   7.89825206
_cell_length_c   11.05671677
_cell_angle_alpha   90.00000000
_cell_angle_beta   90.00000000
_cell_angle_gamma   90.00000000
_symmetry_Int_Tables_number   1
_chemical_formula_structural   Li2Mn2F7
_chemical_formula_sum   'Li8 Mn8 F28'
_cell_volume   649.35556822
_cell_formula_units_Z   4
loop_
 _symmetry_equiv_pos_site_id
 _symmetry_equiv_pos_as_xyz
  1  'x, y, z'
loop_
 _atom_site_type_symbol
 _atom_site_label
 _atom_site_symmetry_multiplicity
 _atom_site_fract_x
 _atom_site_fract_y
 _atom_site_fract_z
 _atom_site_occupancy
  Li  Li0  1  0.822760  0.070002  0.762541  1
  Li  Li1  1  0.839235  0.946982  0.525232  1
  Li  Li2  1  0.160765  0.446982  0.974768  1
  Li  Li3  1  0.177240  0.570002  0.737459  1
  Li  Li4  1  0.322760  0.429998  0.237459  1
  Li  Li5  1  0.339235  0.553018  0.474768  1
  Li  Li6  1  0.660765  0.053018  0.025232  1
  Li  Li7  1  0.677240  0.929998  0.262541  1
  Mn  Mn8  1  0.864825  0.368238  0.203600  1
  Mn  Mn9  1  0.898645  0.399627  0.551570  1
  Mn  Mn10  1  0.101355  0.899627  0.948430  1
  Mn  Mn11  1  0.135175  0.868238  0.296400  1
  Mn  Mn12  1  0.364825  0.131762  0.796400  1
  Mn  Mn13  1  0.398645  0.100373  0.448430  1
  Mn  Mn14  1  0.601355  0.600373  0.051570  1
  Mn  Mn15  1  0.635175  0.631762  0.703600  1
  F  F16  1  0.851500  0.455205  0.041926  1
  F  F17  1  0.767009  0.852584  0.680204  1
  F  F18  1  0.846042  0.501414  0.729533  1
  F  F19  1  0.870513  0.159901  0.604556  1
  F  F20  1  0.869031  0.025382  0.932374  1
  F  F21  1  0.896690  0.811238  0.330758  1
  F  F22  1  0.907882  0.348760  0.370334  1
  F  F23  1  0.092118  0.848760  0.129666  1
  F  F24  1  0.103310  0.311238  0.169242  1
  F  F25  1  0.130969  0.525382  0.567626  1
  F  F26  1  0.129487  0.659901  0.895444  1
  F  F27  1  0.153958  0.001414  0.770467  1
  F  F28  1  0.232991  0.352584  0.819796  1
  F  F29  1  0.148500  0.955205  0.458074  1
  F  F30  1  0.351500  0.044795  0.958074  1
  F  F31  1  0.267009  0.647416  0.319796  1
  F  F32  1  0.346042  0.998586  0.270467  1
  F  F33  1  0.370513  0.340099  0.395444  1
  F  F34  1  0.369031  0.474618  0.067626  1
  F  F35  1  0.396690  0.688762  0.669242  1
  F  F36  1  0.407882  0.151240  0.629666  1
  F  F37  1  0.592118  0.651240  0.870334  1
  F  F38  1  0.603310  0.188762  0.830758  1
  F  F39  1  0.630969  0.974618  0.432374  1
  F  F40  1  0.629487  0.840099  0.104556  1
  F  F41  1  0.653958  0.498586  0.229533  1
  F  F42  1  0.732991  0.147416  0.180204  1
  F  F43  1  0.648500  0.544795  0.541926  1
