# generated using pymatgen
data_Li3Mn4(PO4)6
_symmetry_space_group_name_H-M   'P 1'
_cell_length_a   8.61139383
_cell_length_b   8.61139383
_cell_length_c   6.23925497
_cell_angle_alpha   74.98447276
_cell_angle_beta   105.01552724
_cell_angle_gamma   85.24762733
_symmetry_Int_Tables_number   1
_chemical_formula_structural   Li3Mn4(PO4)6
_chemical_formula_sum   'Li3 Mn4 P6 O24'
_cell_volume   426.00839775
_cell_formula_units_Z   1
loop_
 _symmetry_equiv_pos_site_id
 _symmetry_equiv_pos_as_xyz
  1  'x, y, z'
loop_
 _atom_site_type_symbol
 _atom_site_label
 _atom_site_symmetry_multiplicity
 _atom_site_fract_x
 _atom_site_fract_y
 _atom_site_fract_z
 _atom_site_occupancy
  Li  Li0  1  0.499828  0.500222  0.750889  1
  Li  Li1  1  0.500222  0.499828  0.249111  1
  Li  Li2  1  0.993288  0.993288  0.000000  1
  Mn  Mn3  1  0.942364  0.377798  0.615412  1
  Mn  Mn4  1  0.625129  0.058185  0.117434  1
  Mn  Mn5  1  0.377798  0.942364  0.384588  1
  Mn  Mn6  1  0.058185  0.625129  0.882566  1
  P  P7  1  0.723135  0.723135  0.500000  1
  P  P8  1  0.848568  0.341785  0.110028  1
  P  P9  1  0.657860  0.152946  0.613324  1
  P  P10  1  0.341785  0.848568  0.889972  1
  P  P11  1  0.152946  0.657860  0.386676  1
  P  P12  1  0.277770  0.277770  0.000000  1
  O  O13  1  0.971564  0.349934  0.336288  1
  O  O14  1  0.940369  0.404756  0.920553  1
  O  O15  1  0.744364  0.839882  0.277572  1
  O  O16  1  0.839882  0.744364  0.722428  1
  O  O17  1  0.842601  0.167482  0.657781  1
  O  O18  1  0.746473  0.546169  0.479202  1
  O  O19  1  0.835516  0.159260  0.130175  1
  O  O20  1  0.683933  0.442539  0.048619  1
  O  O21  1  0.546169  0.746473  0.520798  1
  O  O22  1  0.600360  0.061599  0.422137  1
  O  O23  1  0.649535  0.025084  0.836863  1
  O  O24  1  0.554164  0.316061  0.546700  1
  O  O25  1  0.442539  0.683933  0.951381  1
  O  O26  1  0.349934  0.971564  0.663712  1
  O  O27  1  0.404756  0.940369  0.079447  1
  O  O28  1  0.454379  0.254200  0.978979  1
  O  O29  1  0.316061  0.554164  0.453300  1
  O  O30  1  0.167482  0.842601  0.342219  1
  O  O31  1  0.254200  0.454379  0.021021  1
  O  O32  1  0.159260  0.835516  0.869825  1
  O  O33  1  0.158480  0.254691  0.780489  1
  O  O34  1  0.254691  0.158480  0.219511  1
  O  O35  1  0.061599  0.600360  0.577863  1
  O  O36  1  0.025084  0.649535  0.163137  1
