# generated using pymatgen
data_Ho2P4O13
_symmetry_space_group_name_H-M   'P 1'
_cell_length_a   8.86007414
_cell_length_b   9.60698627
_cell_length_c   13.96089288
_cell_angle_alpha   90.00000000
_cell_angle_beta   106.43259521
_cell_angle_gamma   90.00000000
_symmetry_Int_Tables_number   1
_chemical_formula_structural   Ho2P4O13
_chemical_formula_sum   'Ho8 P16 O52'
_cell_volume   1139.79225001
_cell_formula_units_Z   4
loop_
 _symmetry_equiv_pos_site_id
 _symmetry_equiv_pos_as_xyz
  1  'x, y, z'
loop_
 _atom_site_type_symbol
 _atom_site_label
 _atom_site_symmetry_multiplicity
 _atom_site_fract_x
 _atom_site_fract_y
 _atom_site_fract_z
 _atom_site_occupancy
  Ho  Ho0  1  0.973567  0.996250  0.278383  1
  Ho  Ho1  1  0.973567  0.503750  0.778383  1
  Ho  Ho2  1  0.552727  0.001064  0.262472  1
  Ho  Ho3  1  0.447273  0.501064  0.237528  1
  Ho  Ho4  1  0.552727  0.498936  0.762472  1
  Ho  Ho5  1  0.447273  0.998936  0.737528  1
  Ho  Ho6  1  0.026433  0.496250  0.221617  1
  Ho  Ho7  1  0.026433  0.003750  0.721617  1
  P  P8  1  0.852500  0.760176  0.062874  1
  P  P9  1  0.711365  0.268837  0.153687  1
  P  P10  1  0.783289  0.705999  0.343307  1
  P  P11  1  0.852500  0.739824  0.562874  1
  P  P12  1  0.505071  0.750615  0.060018  1
  P  P13  1  0.711365  0.231163  0.653687  1
  P  P14  1  0.783289  0.794001  0.843307  1
  P  P15  1  0.494929  0.250615  0.439982  1
  P  P16  1  0.505071  0.749385  0.560018  1
  P  P17  1  0.216711  0.205999  0.156693  1
  P  P18  1  0.288635  0.768837  0.346313  1
  P  P19  1  0.494929  0.249385  0.939982  1
  P  P20  1  0.147500  0.260176  0.437126  1
  P  P21  1  0.216711  0.294001  0.656693  1
  P  P22  1  0.288635  0.731163  0.846313  1
  P  P23  1  0.147500  0.239824  0.937126  1
  O  O24  1  0.955882  0.633055  0.088173  1
  O  O25  1  0.887749  0.877715  0.136662  1
  O  O26  1  0.859972  0.335137  0.141149  1
  O  O27  1  0.881110  0.629959  0.286718  1
  O  O28  1  0.955882  0.866945  0.588173  1
  O  O29  1  0.869664  0.678109  0.460251  1
  O  O30  1  0.671038  0.707633  0.038946  1
  O  O31  1  0.747282  0.134982  0.219341  1
  O  O32  1  0.781180  0.866965  0.327038  1
  O  O33  1  0.887749  0.622285  0.636662  1
  O  O34  1  0.606870  0.207639  0.046885  1
  O  O35  1  0.859972  0.164863  0.641149  1
  O  O36  1  0.881110  0.870041  0.786718  1
  O  O37  1  0.611088  0.370388  0.191849  1
  O  O38  1  0.529674  0.879727  0.123093  1
  O  O39  1  0.617397  0.650173  0.323521  1
  O  O40  1  0.869664  0.821891  0.960251  1
  O  O41  1  0.671038  0.792367  0.538946  1
  O  O42  1  0.747282  0.365018  0.719341  1
  O  O43  1  0.781180  0.633035  0.827038  1
  O  O44  1  0.560031  0.124753  0.400896  1
  O  O45  1  0.606870  0.292361  0.546885  1
  O  O46  1  0.439969  0.624753  0.099104  1
  O  O47  1  0.382603  0.150173  0.176479  1
  O  O48  1  0.470326  0.379727  0.376907  1
  O  O49  1  0.611088  0.129612  0.691849  1
  O  O50  1  0.388912  0.870388  0.308151  1
  O  O51  1  0.529674  0.620273  0.623093  1
  O  O52  1  0.617397  0.849827  0.823521  1
  O  O53  1  0.560031  0.375247  0.900896  1
  O  O54  1  0.393130  0.707639  0.453115  1
  O  O55  1  0.439969  0.875247  0.599104  1
  O  O56  1  0.218820  0.366965  0.172962  1
  O  O57  1  0.252718  0.634982  0.280659  1
  O  O58  1  0.328962  0.207633  0.461054  1
  O  O59  1  0.130336  0.178109  0.039749  1
  O  O60  1  0.382603  0.349827  0.676479  1
  O  O61  1  0.470326  0.120273  0.876907  1
  O  O62  1  0.388912  0.629612  0.808151  1
  O  O63  1  0.118890  0.129959  0.213282  1
  O  O64  1  0.140028  0.835137  0.358851  1
  O  O65  1  0.393130  0.792361  0.953115  1
  O  O66  1  0.112251  0.377715  0.363338  1
  O  O67  1  0.218820  0.133035  0.672962  1
  O  O68  1  0.252718  0.865018  0.780659  1
  O  O69  1  0.328962  0.292367  0.961054  1
  O  O70  1  0.130336  0.321891  0.539749  1
  O  O71  1  0.044118  0.133055  0.411827  1
  O  O72  1  0.118890  0.370041  0.713282  1
  O  O73  1  0.140028  0.664863  0.858851  1
  O  O74  1  0.112251  0.122285  0.863338  1
  O  O75  1  0.044118  0.366945  0.911827  1
