# generated using pymatgen
data_Li3V2(O2F)2
_symmetry_space_group_name_H-M   'P 1'
_cell_length_a   5.17996625
_cell_length_b   5.93517641
_cell_length_c   7.93215965
_cell_angle_alpha   100.35138052
_cell_angle_beta   107.57728116
_cell_angle_gamma   90.87318473
_symmetry_Int_Tables_number   1
_chemical_formula_structural   Li3V2(O2F)2
_chemical_formula_sum   'Li6 V4 O8 F4'
_cell_volume   228.06769034
_cell_formula_units_Z   2
loop_
 _symmetry_equiv_pos_site_id
 _symmetry_equiv_pos_as_xyz
  1  'x, y, z'
loop_
 _atom_site_type_symbol
 _atom_site_label
 _atom_site_symmetry_multiplicity
 _atom_site_fract_x
 _atom_site_fract_y
 _atom_site_fract_z
 _atom_site_occupancy
  Li  Li0  1  0.360016  0.821027  0.376268  1
  Li  Li1  1  0.130906  0.904148  0.646381  1
  Li  Li2  1  0.823768  0.587059  0.372566  1
  Li  Li3  1  0.176232  0.412941  0.627434  1
  Li  Li4  1  0.869094  0.095852  0.353619  1
  Li  Li5  1  0.639984  0.178973  0.623732  1
  V  V6  1  0.000000  0.000000  0.000000  1
  V  V7  1  0.502114  0.750743  0.986509  1
  V  V8  1  0.000000  0.500000  0.000000  1
  V  V9  1  0.497886  0.249257  0.013491  1
  O  O10  1  0.582848  0.969703  0.858677  1
  O  O11  1  0.895978  0.783626  0.140431  1
  O  O12  1  0.118037  0.723966  0.856391  1
  O  O13  1  0.407060  0.545042  0.139003  1
  O  O14  1  0.592940  0.454958  0.860997  1
  O  O15  1  0.881963  0.276034  0.143609  1
  O  O16  1  0.104022  0.216374  0.859569  1
  O  O17  1  0.417152  0.030297  0.141323  1
  F  F18  1  0.744822  0.890184  0.487985  1
  F  F19  1  0.207838  0.642595  0.497730  1
  F  F20  1  0.792162  0.357405  0.502270  1
  F  F21  1  0.255178  0.109816  0.512015  1
