# generated using pymatgen
data_Y4Ga2O9
_symmetry_space_group_name_H-M   'P 1'
_cell_length_a   7.46960179
_cell_length_b   10.72178979
_cell_length_c   11.41510579
_cell_angle_alpha   90.00000000
_cell_angle_beta   108.15750971
_cell_angle_gamma   90.00000000
_symmetry_Int_Tables_number   1
_chemical_formula_structural   Y4Ga2O9
_chemical_formula_sum   'Y16 Ga8 O36'
_cell_volume   868.68288805
_cell_formula_units_Z   4
loop_
 _symmetry_equiv_pos_site_id
 _symmetry_equiv_pos_as_xyz
  1  'x, y, z'
loop_
 _atom_site_type_symbol
 _atom_site_label
 _atom_site_symmetry_multiplicity
 _atom_site_fract_x
 _atom_site_fract_y
 _atom_site_fract_z
 _atom_site_occupancy
  Y  Y0  1  0.978635  0.900899  0.198334  1
  Y  Y1  1  0.978635  0.599101  0.698334  1
  Y  Y2  1  0.835637  0.119040  0.411079  1
  Y  Y3  1  0.662403  0.622596  0.063977  1
  Y  Y4  1  0.835637  0.380960  0.911079  1
  Y  Y5  1  0.662403  0.877404  0.563977  1
  Y  Y6  1  0.522154  0.388094  0.279193  1
  Y  Y7  1  0.477846  0.888094  0.220807  1
  Y  Y8  1  0.522154  0.111906  0.779193  1
  Y  Y9  1  0.477846  0.611906  0.720807  1
  Y  Y10  1  0.337597  0.122596  0.436023  1
  Y  Y11  1  0.164363  0.619040  0.088921  1
  Y  Y12  1  0.337597  0.377404  0.936023  1
  Y  Y13  1  0.164363  0.880960  0.588921  1
  Y  Y14  1  0.021365  0.400899  0.301666  1
  Y  Y15  1  0.021365  0.099101  0.801666  1
  Ga  Ga16  1  0.790374  0.678004  0.375024  1
  Ga  Ga17  1  0.657795  0.174339  0.107806  1
  Ga  Ga18  1  0.790374  0.821996  0.875024  1
  Ga  Ga19  1  0.657795  0.325661  0.607806  1
  Ga  Ga20  1  0.342205  0.674339  0.392194  1
  Ga  Ga21  1  0.209626  0.178004  0.124976  1
  Ga  Ga22  1  0.342205  0.825661  0.892194  1
  Ga  Ga23  1  0.209626  0.321996  0.624976  1
  O  O24  1  0.933943  0.765155  0.026687  1
  O  O25  1  0.921890  0.491711  0.105227  1
  O  O26  1  0.791288  0.262513  0.247808  1
  O  O27  1  0.763073  0.760888  0.226422  1
  O  O28  1  0.933943  0.734845  0.526687  1
  O  O29  1  0.921890  0.008289  0.605227  1
  O  O30  1  0.700726  0.014399  0.170340  1
  O  O31  1  0.788072  0.511058  0.343357  1
  O  O32  1  0.791288  0.237487  0.747808  1
  O  O33  1  0.763073  0.739112  0.726422  1
  O  O34  1  0.637491  0.269776  0.452666  1
  O  O35  1  0.700726  0.485601  0.670340  1
  O  O36  1  0.569231  0.750659  0.390196  1
  O  O37  1  0.435742  0.509885  0.106599  1
  O  O38  1  0.788072  0.988942  0.843357  1
  O  O39  1  0.564258  0.009885  0.393401  1
  O  O40  1  0.430769  0.250659  0.109804  1
  O  O41  1  0.362509  0.769776  0.047334  1
  O  O42  1  0.637491  0.230224  0.952666  1
  O  O43  1  0.569231  0.749341  0.890196  1
  O  O44  1  0.435742  0.990115  0.606599  1
  O  O45  1  0.211928  0.011058  0.156643  1
  O  O46  1  0.564258  0.490115  0.893401  1
  O  O47  1  0.430769  0.249341  0.609804  1
  O  O48  1  0.299274  0.514399  0.329660  1
  O  O49  1  0.362509  0.730224  0.547334  1
  O  O50  1  0.236927  0.260888  0.273578  1
  O  O51  1  0.208712  0.762513  0.252192  1
  O  O52  1  0.211928  0.488942  0.656643  1
  O  O53  1  0.299274  0.985601  0.829660  1
  O  O54  1  0.078110  0.991711  0.394773  1
  O  O55  1  0.066057  0.265155  0.473313  1
  O  O56  1  0.236927  0.239112  0.773578  1
  O  O57  1  0.208712  0.737487  0.752192  1
  O  O58  1  0.078110  0.508289  0.894773  1
  O  O59  1  0.066057  0.234845  0.973313  1
