# generated using pymatgen
data_Gd2W2O9
_symmetry_space_group_name_H-M   'P 1'
_cell_length_a   7.71717115
_cell_length_b   9.82959932
_cell_length_c   9.28450062
_cell_angle_alpha   90.00000000
_cell_angle_beta   108.14753038
_cell_angle_gamma   90.00000000
_symmetry_Int_Tables_number   1
_chemical_formula_structural   Gd2W2O9
_chemical_formula_sum   'Gd8 W8 O36'
_cell_volume   669.25848308
_cell_formula_units_Z   4
loop_
 _symmetry_equiv_pos_site_id
 _symmetry_equiv_pos_as_xyz
  1  'x, y, z'
loop_
 _atom_site_type_symbol
 _atom_site_label
 _atom_site_symmetry_multiplicity
 _atom_site_fract_x
 _atom_site_fract_y
 _atom_site_fract_z
 _atom_site_occupancy
  Gd  Gd0  1  0.226888  0.055955  0.654363  1
  Gd  Gd1  1  0.288918  0.450011  0.570923  1
  Gd  Gd2  1  0.226888  0.444045  0.154363  1
  Gd  Gd3  1  0.288918  0.049989  0.070923  1
  Gd  Gd4  1  0.711082  0.950011  0.929077  1
  Gd  Gd5  1  0.773112  0.555955  0.845637  1
  Gd  Gd6  1  0.711082  0.549989  0.429077  1
  Gd  Gd7  1  0.773112  0.944045  0.345637  1
  W  W8  1  0.070947  0.748523  0.737242  1
  W  W9  1  0.070947  0.751477  0.237242  1
  W  W10  1  0.574410  0.272485  0.963908  1
  W  W11  1  0.425590  0.772485  0.536092  1
  W  W12  1  0.574410  0.227515  0.463908  1
  W  W13  1  0.425590  0.727515  0.036092  1
  W  W14  1  0.929053  0.248523  0.762758  1
  W  W15  1  0.929053  0.251477  0.262758  1
  O  O16  1  0.005905  0.384043  0.906293  1
  O  O17  1  0.056870  0.088653  0.849343  1
  O  O18  1  0.104560  0.281682  0.664383  1
  O  O19  1  0.005905  0.115957  0.406293  1
  O  O20  1  0.056870  0.411347  0.349343  1
  O  O21  1  0.227059  0.618504  0.919763  1
  O  O22  1  0.268310  0.864848  0.861004  1
  O  O23  1  0.104560  0.218318  0.164383  1
  O  O24  1  0.258560  0.682088  0.638998  1
  O  O25  1  0.227059  0.881496  0.419763  1
  O  O26  1  0.441221  0.102953  0.890788  1
  O  O27  1  0.268310  0.635152  0.361004  1
  O  O28  1  0.495970  0.406154  0.818075  1
  O  O29  1  0.258560  0.817912  0.138998  1
  O  O30  1  0.403298  0.204483  0.567024  1
  O  O31  1  0.596702  0.704483  0.932976  1
  O  O32  1  0.504030  0.906154  0.681925  1
  O  O33  1  0.441221  0.397047  0.390788  1
  O  O34  1  0.558779  0.602953  0.609212  1
  O  O35  1  0.495970  0.093846  0.318075  1
  O  O36  1  0.403298  0.295517  0.067024  1
  O  O37  1  0.596702  0.795517  0.432976  1
  O  O38  1  0.741440  0.182088  0.861002  1
  O  O39  1  0.504030  0.593846  0.181925  1
  O  O40  1  0.731690  0.364848  0.638996  1
  O  O41  1  0.558779  0.897047  0.109212  1
  O  O42  1  0.772941  0.118504  0.580237  1
  O  O43  1  0.741440  0.317912  0.361002  1
  O  O44  1  0.895440  0.781682  0.835617  1
  O  O45  1  0.731690  0.135152  0.138996  1
  O  O46  1  0.772941  0.381496  0.080237  1
  O  O47  1  0.943130  0.588653  0.650657  1
  O  O48  1  0.994095  0.884043  0.593707  1
  O  O49  1  0.895440  0.718318  0.335617  1
  O  O50  1  0.943130  0.911347  0.150657  1
  O  O51  1  0.994095  0.615957  0.093707  1
