# generated using pymatgen
data_Li13Mn8O24
_symmetry_space_group_name_H-M   'P 1'
_cell_length_a   4.99490928
_cell_length_b   8.60629848
_cell_length_c   9.72288549
_cell_angle_alpha   90.00000000
_cell_angle_beta   99.41482000
_cell_angle_gamma   90.00000000
_symmetry_Int_Tables_number   1
_chemical_formula_structural   Li13Mn8O24
_chemical_formula_sum   'Li13 Mn8 O24'
_cell_volume   412.33426377
_cell_formula_units_Z   1
loop_
 _symmetry_equiv_pos_site_id
 _symmetry_equiv_pos_as_xyz
  1  'x, y, z'
loop_
 _atom_site_type_symbol
 _atom_site_label
 _atom_site_symmetry_multiplicity
 _atom_site_fract_x
 _atom_site_fract_y
 _atom_site_fract_z
 _atom_site_occupancy
  Li  Li0  1  0.000000  0.500000  0.000000  1
  Li  Li1  1  0.753280  0.847095  0.250611  1
  Li  Li2  1  0.745831  0.347167  0.745979  1
  Li  Li3  1  0.749392  0.000000  0.749911  1
  Li  Li4  1  0.745831  0.652833  0.745979  1
  Li  Li5  1  0.753280  0.152905  0.250611  1
  Li  Li6  1  0.742204  0.500000  0.251432  1
  Li  Li7  1  0.254169  0.347167  0.254021  1
  Li  Li8  1  0.246720  0.847095  0.749389  1
  Li  Li9  1  0.257796  0.500000  0.748568  1
  Li  Li10  1  0.246720  0.152905  0.749389  1
  Li  Li11  1  0.254169  0.652833  0.254021  1
  Li  Li12  1  0.250608  0.000000  0.250089  1
  Mn  Mn13  1  0.000000  0.667311  0.500000  1
  Mn  Mn14  1  0.000000  0.332689  0.500000  1
  Mn  Mn15  1  0.000000  0.169436  0.000000  1
  Mn  Mn16  1  0.000000  0.830564  0.000000  1
  Mn  Mn17  1  0.500000  0.167038  0.500000  1
  Mn  Mn18  1  0.500000  0.832962  0.500000  1
  Mn  Mn19  1  0.500000  0.675259  0.000000  1
  Mn  Mn20  1  0.500000  0.324741  0.000000  1
  O  O21  1  0.910444  0.500000  0.616469  1
  O  O22  1  0.851285  0.814722  0.613928  1
  O  O23  1  0.851285  0.185278  0.613928  1
  O  O24  1  0.908032  0.000000  0.116991  1
  O  O25  1  0.648700  0.686006  0.385486  1
  O  O26  1  0.648700  0.313994  0.385486  1
  O  O27  1  0.856352  0.684696  0.112090  1
  O  O28  1  0.856352  0.315304  0.112090  1
  O  O29  1  0.590036  0.000000  0.383741  1
  O  O30  1  0.648257  0.820646  0.885855  1
  O  O31  1  0.648257  0.179354  0.885855  1
  O  O32  1  0.605638  0.500000  0.886440  1
  O  O33  1  0.409964  0.000000  0.616259  1
  O  O34  1  0.351300  0.313994  0.614514  1
  O  O35  1  0.351300  0.686006  0.614514  1
  O  O36  1  0.394362  0.500000  0.113560  1
  O  O37  1  0.148715  0.185278  0.386072  1
  O  O38  1  0.148715  0.814722  0.386072  1
  O  O39  1  0.351743  0.179354  0.114145  1
  O  O40  1  0.351743  0.820646  0.114145  1
  O  O41  1  0.089556  0.500000  0.383531  1
  O  O42  1  0.143648  0.315304  0.887910  1
  O  O43  1  0.143648  0.684696  0.887910  1
  O  O44  1  0.091968  0.000000  0.883009  1
