# generated using pymatgen
data_LiMn(CO3)2
_symmetry_space_group_name_H-M   'P 1'
_cell_length_a   5.82249398
_cell_length_b   5.82249398
_cell_length_c   5.82249398
_cell_angle_alpha   47.86760592
_cell_angle_beta   47.86760592
_cell_angle_gamma   47.86760592
_symmetry_Int_Tables_number   1
_chemical_formula_structural   LiMn(CO3)2
_chemical_formula_sum   'Li1 Mn1 C2 O6'
_cell_volume   99.42398238
_cell_formula_units_Z   1
loop_
 _symmetry_equiv_pos_site_id
 _symmetry_equiv_pos_as_xyz
  1  'x, y, z'
loop_
 _atom_site_type_symbol
 _atom_site_label
 _atom_site_symmetry_multiplicity
 _atom_site_fract_x
 _atom_site_fract_y
 _atom_site_fract_z
 _atom_site_occupancy
  Li  Li0  1  0.000000  0.000000  0.000000  1
  Mn  Mn1  1  0.500000  0.500000  0.500000  1
  C  C2  1  0.754634  0.754634  0.754634  1
  C  C3  1  0.245366  0.245366  0.245366  1
  O  O4  1  0.254002  0.515605  0.968295  1
  O  O5  1  0.031705  0.745998  0.484395  1
  O  O6  1  0.484395  0.031705  0.745998  1
  O  O7  1  0.515605  0.968295  0.254002  1
  O  O8  1  0.968295  0.254002  0.515605  1
  O  O9  1  0.745998  0.484395  0.031705  1
