# generated using pymatgen
data_LiFe4(PO4)3
_symmetry_space_group_name_H-M   'P 1'
_cell_length_a   9.03534912
_cell_length_b   9.03534912
_cell_length_c   10.34205392
_cell_angle_alpha   64.61397941
_cell_angle_beta   115.38602059
_cell_angle_gamma   120.43736372
_symmetry_Int_Tables_number   1
_chemical_formula_structural   LiFe4(PO4)3
_chemical_formula_sum   'Li2 Fe8 P6 O24'
_cell_volume   632.93699850
_cell_formula_units_Z   2
loop_
 _symmetry_equiv_pos_site_id
 _symmetry_equiv_pos_as_xyz
  1  'x, y, z'
loop_
 _atom_site_type_symbol
 _atom_site_label
 _atom_site_symmetry_multiplicity
 _atom_site_fract_x
 _atom_site_fract_y
 _atom_site_fract_z
 _atom_site_occupancy
  Li  Li0  1  0.993019  0.509425  0.967207  1
  Li  Li1  1  0.490575  0.006981  0.467207  1
  Fe  Fe2  1  0.966308  0.145446  0.006916  1
  Fe  Fe3  1  0.352298  0.811587  0.007926  1
  Fe  Fe4  1  0.843300  0.650770  0.541034  1
  Fe  Fe5  1  0.465259  0.305951  0.509675  1
  Fe  Fe6  1  0.694049  0.534741  0.009675  1
  Fe  Fe7  1  0.854554  0.033692  0.506916  1
  Fe  Fe8  1  0.188413  0.647702  0.507926  1
  Fe  Fe9  1  0.349230  0.156700  0.041034  1
  P  P10  1  0.357160  0.436404  0.139777  1
  P  P11  1  0.854705  0.281884  0.639557  1
  P  P12  1  0.216820  0.931039  0.642228  1
  P  P13  1  0.718116  0.145295  0.139557  1
  P  P14  1  0.068961  0.783180  0.142228  1
  P  P15  1  0.563596  0.642840  0.639777  1
  O  O16  1  0.811731  0.044924  0.137265  1
  O  O17  1  0.455409  0.633270  0.139931  1
  O  O18  1  0.939508  0.490799  0.556439  1
  O  O19  1  0.877700  0.269175  0.799380  1
  O  O20  1  0.157935  0.389324  0.051835  1
  O  O21  1  0.873110  0.684017  0.146214  1
  O  O22  1  0.655364  0.212623  0.551782  1
  O  O23  1  0.379919  0.312533  0.298324  1
  O  O24  1  0.315983  0.126890  0.646214  1
  O  O25  1  0.443137  0.399318  0.054453  1
  O  O26  1  0.009519  0.893150  0.556093  1
  O  O27  1  0.955076  0.188269  0.637265  1
  O  O28  1  0.787377  0.344636  0.051782  1
  O  O29  1  0.730825  0.122300  0.299380  1
  O  O30  1  0.223193  0.803716  0.799629  1
  O  O31  1  0.286558  0.890912  0.552961  1
  O  O32  1  0.106850  0.990481  0.056093  1
  O  O33  1  0.509201  0.060492  0.056439  1
  O  O34  1  0.610676  0.842065  0.551835  1
  O  O35  1  0.196284  0.776807  0.299629  1
  O  O36  1  0.687467  0.620081  0.798324  1
  O  O37  1  0.366730  0.544591  0.639931  1
  O  O38  1  0.109088  0.713442  0.052961  1
  O  O39  1  0.600682  0.556863  0.554453  1
