# generated using pymatgen
data_Tb2Zr2O7
_symmetry_space_group_name_H-M   'P 1'
_cell_length_a   7.35064465
_cell_length_b   7.35064465
_cell_length_c   12.68643510
_cell_angle_alpha   90.00000000
_cell_angle_beta   90.00000000
_cell_angle_gamma   90.00000000
_symmetry_Int_Tables_number   1
_chemical_formula_structural   Tb2Zr2O7
_chemical_formula_sum   'Tb8 Zr8 O28'
_cell_volume   685.47316656
_cell_formula_units_Z   4
loop_
 _symmetry_equiv_pos_site_id
 _symmetry_equiv_pos_as_xyz
  1  'x, y, z'
loop_
 _atom_site_type_symbol
 _atom_site_label
 _atom_site_symmetry_multiplicity
 _atom_site_fract_x
 _atom_site_fract_y
 _atom_site_fract_z
 _atom_site_occupancy
  Tb  Tb0  1  0.137718  0.627128  0.134916  1
  Tb  Tb1  1  0.127128  0.362282  0.884916  1
  Tb  Tb2  1  0.372872  0.862282  0.365084  1
  Tb  Tb3  1  0.362282  0.127128  0.115084  1
  Tb  Tb4  1  0.637718  0.872872  0.615084  1
  Tb  Tb5  1  0.627128  0.137718  0.865084  1
  Tb  Tb6  1  0.872872  0.637718  0.384916  1
  Tb  Tb7  1  0.862282  0.372872  0.634916  1
  Zr  Zr8  1  0.100154  0.870018  0.595032  1
  Zr  Zr9  1  0.129982  0.899846  0.904968  1
  Zr  Zr10  1  0.370018  0.399846  0.345032  1
  Zr  Zr11  1  0.399846  0.370018  0.654968  1
  Zr  Zr12  1  0.600154  0.629982  0.154968  1
  Zr  Zr13  1  0.629982  0.600154  0.845032  1
  Zr  Zr14  1  0.870018  0.100154  0.404968  1
  Zr  Zr15  1  0.899846  0.129982  0.095032  1
  O  O16  1  0.069258  0.906848  0.414994  1
  O  O17  1  0.085437  0.327156  0.073794  1
  O  O18  1  0.093152  0.930742  0.085006  1
  O  O19  1  0.155815  0.638168  0.954923  1
  O  O20  1  0.172844  0.585437  0.323794  1
  O  O21  1  0.138168  0.344185  0.704923  1
  O  O22  1  0.150927  0.849073  0.750000  1
  O  O23  1  0.349073  0.349073  0.500000  1
  O  O24  1  0.361832  0.844185  0.545077  1
  O  O25  1  0.327156  0.085437  0.926206  1
  O  O26  1  0.344185  0.138168  0.295077  1
  O  O27  1  0.406848  0.430742  0.164994  1
  O  O28  1  0.414563  0.827156  0.176206  1
  O  O29  1  0.430742  0.406848  0.835006  1
  O  O30  1  0.569258  0.593152  0.335006  1
  O  O31  1  0.585437  0.172844  0.676206  1
  O  O32  1  0.593152  0.569258  0.664994  1
  O  O33  1  0.655815  0.861832  0.795077  1
  O  O34  1  0.672844  0.914563  0.426206  1
  O  O35  1  0.638168  0.155815  0.045077  1
  O  O36  1  0.650927  0.650927  0.000000  1
  O  O37  1  0.849073  0.150927  0.250000  1
  O  O38  1  0.861832  0.655815  0.204923  1
  O  O39  1  0.827156  0.414563  0.823794  1
  O  O40  1  0.844185  0.361832  0.454923  1
  O  O41  1  0.906848  0.069258  0.585006  1
  O  O42  1  0.914563  0.672844  0.573794  1
  O  O43  1  0.930742  0.093152  0.914994  1
