# generated using pymatgen
data_Li5Fe2Ni3O10
_symmetry_space_group_name_H-M   'P 1'
_cell_length_a   5.08320061
_cell_length_b   5.09981246
_cell_length_c   7.71509212
_cell_angle_alpha   70.97136210
_cell_angle_beta   71.49269351
_cell_angle_gamma   81.26228633
_symmetry_Int_Tables_number   1
_chemical_formula_structural   Li5Fe2Ni3O10
_chemical_formula_sum   'Li5 Fe2 Ni3 O10'
_cell_volume   179.03235650
_cell_formula_units_Z   1
loop_
 _symmetry_equiv_pos_site_id
 _symmetry_equiv_pos_as_xyz
  1  'x, y, z'
loop_
 _atom_site_type_symbol
 _atom_site_label
 _atom_site_symmetry_multiplicity
 _atom_site_fract_x
 _atom_site_fract_y
 _atom_site_fract_z
 _atom_site_occupancy
  Li  Li0  1  0.503444  0.787311  0.408485  1
  Li  Li1  1  0.500977  0.600433  0.791190  1
  Li  Li2  1  0.000000  0.500000  0.500000  1
  Li  Li3  1  0.499023  0.399567  0.208810  1
  Li  Li4  1  0.496556  0.212689  0.591515  1
  Fe  Fe5  1  0.006026  0.898995  0.692464  1
  Fe  Fe6  1  0.993974  0.101005  0.307536  1
  Ni  Ni7  1  0.500000  0.000000  0.000000  1
  Ni  Ni8  1  0.998976  0.302061  0.898844  1
  Ni  Ni9  1  0.001024  0.697939  0.101156  1
  O  O10  1  0.233172  0.939023  0.864920  1
  O  O11  1  0.766387  0.660862  0.955507  1
  O  O12  1  0.757631  0.867469  0.551014  1
  O  O13  1  0.228672  0.764652  0.237165  1
  O  O14  1  0.224564  0.544501  0.669600  1
  O  O15  1  0.775436  0.455499  0.330400  1
  O  O16  1  0.771328  0.235348  0.762835  1
  O  O17  1  0.242369  0.132531  0.448986  1
  O  O18  1  0.233613  0.339138  0.044493  1
  O  O19  1  0.766828  0.060977  0.135080  1
