# generated using pymatgen
data_Li5Fe8(BO3)8
_symmetry_space_group_name_H-M   'P 1'
_cell_length_a   5.26413425
_cell_length_b   9.10420465
_cell_length_c   11.36040909
_cell_angle_alpha   113.27510960
_cell_angle_beta   102.86607861
_cell_angle_gamma   90.06367615
_symmetry_Int_Tables_number   1
_chemical_formula_structural   Li5Fe8(BO3)8
_chemical_formula_sum   'Li5 Fe8 B8 O24'
_cell_volume   485.17101610
_cell_formula_units_Z   1
loop_
 _symmetry_equiv_pos_site_id
 _symmetry_equiv_pos_as_xyz
  1  'x, y, z'
loop_
 _atom_site_type_symbol
 _atom_site_label
 _atom_site_symmetry_multiplicity
 _atom_site_fract_x
 _atom_site_fract_y
 _atom_site_fract_z
 _atom_site_occupancy
  Li  Li0  1  0.025798  0.039832  0.402852  1
  Li  Li1  1  0.485341  0.509636  0.664653  1
  Li  Li2  1  0.269908  0.249646  0.167544  1
  Li  Li3  1  0.987390  0.012026  0.668205  1
  Li  Li4  1  0.770004  0.743383  0.158844  1
  Fe  Fe5  1  0.019069  0.359800  0.381491  1
  Fe  Fe6  1  0.272317  0.934154  0.881642  1
  Fe  Fe7  1  0.469250  0.157518  0.633158  1
  Fe  Fe8  1  0.249901  0.557422  0.126130  1
  Fe  Fe9  1  0.772548  0.435267  0.883383  1
  Fe  Fe10  1  0.520089  0.848324  0.382419  1
  Fe  Fe11  1  0.962865  0.656485  0.627605  1
  Fe  Fe12  1  0.749660  0.061264  0.128219  1
  B  B13  1  0.020485  0.693192  0.378569  1
  B  B14  1  0.264596  0.600618  0.874058  1
  B  B15  1  0.476549  0.816930  0.630983  1
  B  B16  1  0.241098  0.896778  0.131503  1
  B  B17  1  0.516195  0.175072  0.372864  1
  B  B18  1  0.765814  0.101012  0.876056  1
  B  B19  1  0.976452  0.316254  0.626347  1
  B  B20  1  0.732980  0.393117  0.126174  1
  O  O21  1  0.014318  0.074135  0.859034  1
  O  O22  1  0.142022  0.717502  0.839786  1
  O  O23  1  0.134782  0.512122  0.921572  1
  O  O24  1  0.081088  0.171322  0.609369  1
  O  O25  1  0.096488  0.428419  0.596828  1
  O  O26  1  0.245697  0.856852  0.674307  1
  O  O27  1  0.255180  0.679324  0.338371  1
  O  O28  1  0.514442  0.572423  0.859650  1
  O  O29  1  0.640595  0.217107  0.839791  1
  O  O30  1  0.422106  0.065985  0.419192  1
  O  O31  1  0.362780  0.286813  0.355905  1
  O  O32  1  0.636580  0.010981  0.921696  1
  O  O33  1  0.337394  0.000567  0.083067  1
  O  O34  1  0.592891  0.685855  0.633176  1
  O  O35  1  0.587212  0.920340  0.584914  1
  O  O36  1  0.412739  0.797218  0.171779  1
  O  O37  1  0.476358  0.387910  0.128182  1
  O  O38  1  0.746223  0.348140  0.672002  1
  O  O39  1  0.759479  0.159390  0.344079  1
  O  O40  1  0.935256  0.590774  0.424415  1
  O  O41  1  0.874908  0.817104  0.365354  1
  O  O42  1  0.836018  0.506004  0.085548  1
  O  O43  1  0.899001  0.292391  0.162472  1
  O  O44  1  0.989877  0.896593  0.143164  1
