# generated using pymatgen
data_CoH12(BrO6)2
_symmetry_space_group_name_H-M   'P 1'
_cell_length_a   10.81313566
_cell_length_b   10.81313566
_cell_length_c   10.81313566
_cell_angle_alpha   90.00000000
_cell_angle_beta   90.00000000
_cell_angle_gamma   90.00000000
_symmetry_Int_Tables_number   1
_chemical_formula_structural   CoH12(BrO6)2
_chemical_formula_sum   'Co4 H48 Br8 O48'
_cell_volume   1264.31402289
_cell_formula_units_Z   4
loop_
 _symmetry_equiv_pos_site_id
 _symmetry_equiv_pos_as_xyz
  1  'x, y, z'
loop_
 _atom_site_type_symbol
 _atom_site_label
 _atom_site_symmetry_multiplicity
 _atom_site_fract_x
 _atom_site_fract_y
 _atom_site_fract_z
 _atom_site_occupancy
  Co  Co0  1  0.500000  0.500000  0.000000  1
  Co  Co1  1  0.500000  0.000000  0.500000  1
  Co  Co2  1  0.000000  0.500000  0.500000  1
  Co  Co3  1  0.000000  0.000000  0.000000  1
  H  H4  1  0.032073  0.580863  0.263910  1
  H  H5  1  0.967927  0.080863  0.236090  1
  H  H6  1  0.467927  0.419137  0.763910  1
  H  H7  1  0.532073  0.919137  0.736090  1
  H  H8  1  0.263910  0.032073  0.580863  1
  H  H9  1  0.236090  0.967927  0.080863  1
  H  H10  1  0.763910  0.467927  0.419137  1
  H  H11  1  0.736090  0.532073  0.919137  1
  H  H12  1  0.580863  0.263910  0.032073  1
  H  H13  1  0.080863  0.236090  0.967927  1
  H  H14  1  0.419137  0.763910  0.467927  1
  H  H15  1  0.919137  0.736090  0.532073  1
  H  H16  1  0.967927  0.419137  0.736090  1
  H  H17  1  0.032073  0.919137  0.763910  1
  H  H18  1  0.532073  0.580863  0.236090  1
  H  H19  1  0.467927  0.080863  0.263910  1
  H  H20  1  0.736090  0.967927  0.419137  1
  H  H21  1  0.763910  0.032073  0.919137  1
  H  H22  1  0.236090  0.532073  0.580863  1
  H  H23  1  0.263910  0.467927  0.080863  1
  H  H24  1  0.419137  0.736090  0.967927  1
  H  H25  1  0.919137  0.763910  0.032073  1
  H  H26  1  0.580863  0.236090  0.532073  1
  H  H27  1  0.080863  0.263910  0.467927  1
  H  H28  1  0.265489  0.433199  0.941638  1
  H  H29  1  0.734511  0.933199  0.558362  1
  H  H30  1  0.234511  0.566801  0.441638  1
  H  H31  1  0.765489  0.066801  0.058362  1
  H  H32  1  0.941638  0.265489  0.433199  1
  H  H33  1  0.558362  0.734511  0.933199  1
  H  H34  1  0.441638  0.234511  0.566801  1
  H  H35  1  0.058362  0.765489  0.066801  1
  H  H36  1  0.433199  0.941638  0.265489  1
  H  H37  1  0.933199  0.558362  0.734511  1
  H  H38  1  0.566801  0.441638  0.234511  1
  H  H39  1  0.066801  0.058362  0.765489  1
  H  H40  1  0.734511  0.566801  0.058362  1
  H  H41  1  0.265489  0.066801  0.441638  1
  H  H42  1  0.765489  0.433199  0.558362  1
  H  H43  1  0.234511  0.933199  0.941638  1
  H  H44  1  0.058362  0.734511  0.566801  1
  H  H45  1  0.441638  0.265489  0.066801  1
  H  H46  1  0.558362  0.765489  0.433199  1
  H  H47  1  0.941638  0.234511  0.933199  1
  H  H48  1  0.566801  0.058362  0.734511  1
  H  H49  1  0.066801  0.441638  0.265489  1
  H  H50  1  0.433199  0.558362  0.765489  1
  H  H51  1  0.933199  0.941638  0.234511  1
  Br  Br52  1  0.226371  0.773629  0.273629  1
  Br  Br53  1  0.773629  0.273629  0.226371  1
  Br  Br54  1  0.273629  0.226371  0.773629  1
  Br  Br55  1  0.726371  0.726371  0.726371  1
  Br  Br56  1  0.773629  0.226371  0.726371  1
  Br  Br57  1  0.226371  0.726371  0.773629  1
  Br  Br58  1  0.726371  0.773629  0.226371  1
  Br  Br59  1  0.273629  0.273629  0.273629  1
  O  O60  1  0.327097  0.646459  0.684891  1
  O  O61  1  0.672903  0.146459  0.815109  1
  O  O62  1  0.172903  0.353541  0.184891  1
  O  O63  1  0.827097  0.853541  0.315109  1
  O  O64  1  0.684891  0.327097  0.646459  1
  O  O65  1  0.815109  0.672903  0.146459  1
  O  O66  1  0.184891  0.172903  0.353541  1
  O  O67  1  0.315109  0.827097  0.853541  1
  O  O68  1  0.646459  0.684891  0.327097  1
  O  O69  1  0.146459  0.815109  0.672903  1
  O  O70  1  0.353541  0.184891  0.172903  1
  O  O71  1  0.853541  0.315109  0.827097  1
  O  O72  1  0.672903  0.353541  0.315109  1
  O  O73  1  0.327097  0.853541  0.184891  1
  O  O74  1  0.827097  0.646459  0.815109  1
  O  O75  1  0.172903  0.146459  0.684891  1
  O  O76  1  0.315109  0.672903  0.353541  1
  O  O77  1  0.184891  0.327097  0.853541  1
  O  O78  1  0.815109  0.827097  0.646459  1
  O  O79  1  0.684891  0.172903  0.146459  1
  O  O80  1  0.353541  0.315109  0.672903  1
  O  O81  1  0.853541  0.184891  0.327097  1
  O  O82  1  0.646459  0.815109  0.827097  1
  O  O83  1  0.146459  0.684891  0.172903  1
  O  O84  1  0.491593  0.498102  0.803535  1
  O  O85  1  0.508407  0.998102  0.696465  1
  O  O86  1  0.008407  0.501898  0.303535  1
  O  O87  1  0.991593  0.001898  0.196465  1
  O  O88  1  0.803535  0.491593  0.498102  1
  O  O89  1  0.696465  0.508407  0.998102  1
  O  O90  1  0.303535  0.008407  0.501898  1
  O  O91  1  0.196465  0.991593  0.001898  1
  O  O92  1  0.498102  0.803535  0.491593  1
  O  O93  1  0.998102  0.696465  0.508407  1
  O  O94  1  0.501898  0.303535  0.008407  1
  O  O95  1  0.001898  0.196465  0.991593  1
  O  O96  1  0.508407  0.501898  0.196465  1
  O  O97  1  0.491593  0.001898  0.303535  1
  O  O98  1  0.991593  0.498102  0.696465  1
  O  O99  1  0.008407  0.998102  0.803535  1
  O  O100  1  0.196465  0.508407  0.501898  1
  O  O101  1  0.303535  0.491593  0.001898  1
  O  O102  1  0.696465  0.991593  0.498102  1
  O  O103  1  0.803535  0.008407  0.998102  1
  O  O104  1  0.501898  0.196465  0.508407  1
  O  O105  1  0.001898  0.303535  0.491593  1
  O  O106  1  0.498102  0.696465  0.991593  1
  O  O107  1  0.998102  0.803535  0.008407  1
