# generated using pymatgen
data_Li8BiO6
_symmetry_space_group_name_H-M   'P 1'
_cell_length_a   5.83885778
_cell_length_b   5.83885778
_cell_length_c   11.01716422
_cell_angle_alpha   90.00000000
_cell_angle_beta   90.00000000
_cell_angle_gamma   120.00000000
_symmetry_Int_Tables_number   1
_chemical_formula_structural   Li8BiO6
_chemical_formula_sum   'Li16 Bi2 O12'
_cell_volume   325.27916627
_cell_formula_units_Z   2
loop_
 _symmetry_equiv_pos_site_id
 _symmetry_equiv_pos_as_xyz
  1  'x, y, z'
loop_
 _atom_site_type_symbol
 _atom_site_label
 _atom_site_symmetry_multiplicity
 _atom_site_fract_x
 _atom_site_fract_y
 _atom_site_fract_z
 _atom_site_occupancy
  Li  Li0  1  0.000000  0.676090  0.767768  1
  Li  Li1  1  0.000000  0.588197  0.127848  1
  Li  Li2  1  0.000000  0.411803  0.627848  1
  Li  Li3  1  0.000000  0.323910  0.267768  1
  Li  Li4  1  0.333333  0.666667  0.403484  1
  Li  Li5  1  0.333333  0.666667  0.903484  1
  Li  Li6  1  0.323910  0.323910  0.767768  1
  Li  Li7  1  0.411803  0.411803  0.127848  1
  Li  Li8  1  0.588197  0.588197  0.627848  1
  Li  Li9  1  0.323910  0.000000  0.267768  1
  Li  Li10  1  0.676090  0.676090  0.267768  1
  Li  Li11  1  0.411803  0.000000  0.627848  1
  Li  Li12  1  0.666667  0.333333  0.903484  1
  Li  Li13  1  0.666667  0.333333  0.403484  1
  Li  Li14  1  0.588197  0.000000  0.127848  1
  Li  Li15  1  0.676090  0.000000  0.767768  1
  Bi  Bi16  1  0.000000  0.000000  0.989589  1
  Bi  Bi17  1  0.000000  0.000000  0.489589  1
  O  O18  1  0.000000  0.642483  0.949453  1
  O  O19  1  0.000000  0.357517  0.449453  1
  O  O20  1  0.333333  0.666667  0.213795  1
  O  O21  1  0.000000  0.000000  0.186306  1
  O  O22  1  0.000000  0.000000  0.686306  1
  O  O23  1  0.333333  0.666667  0.713795  1
  O  O24  1  0.357517  0.357517  0.949453  1
  O  O25  1  0.357517  0.000000  0.449453  1
  O  O26  1  0.642483  0.642483  0.449453  1
  O  O27  1  0.666667  0.333333  0.713795  1
  O  O28  1  0.666667  0.333333  0.213795  1
  O  O29  1  0.642483  0.000000  0.949453  1
