# generated using pymatgen
data_Ca(LaI4)2
_symmetry_space_group_name_H-M   'P 1'
_cell_length_a   10.79583385
_cell_length_b   10.79583385
_cell_length_c   12.46123158
_cell_angle_alpha   67.78921567
_cell_angle_beta   112.21078433
_cell_angle_gamma   117.39905232
_symmetry_Int_Tables_number   1
_chemical_formula_structural   Ca(LaI4)2
_chemical_formula_sum   'Ca2 La4 I16'
_cell_volume   1156.38582743
_cell_formula_units_Z   2
loop_
 _symmetry_equiv_pos_site_id
 _symmetry_equiv_pos_as_xyz
  1  'x, y, z'
loop_
 _atom_site_type_symbol
 _atom_site_label
 _atom_site_symmetry_multiplicity
 _atom_site_fract_x
 _atom_site_fract_y
 _atom_site_fract_z
 _atom_site_occupancy
  Ca  Ca0  1  0.009390  0.009390  0.750000  1
  Ca  Ca1  1  0.990610  0.990610  0.250000  1
  La  La2  1  0.998272  0.487149  0.717314  1
  La  La3  1  0.512851  0.001728  0.217314  1
  La  La4  1  0.487149  0.998272  0.782686  1
  La  La5  1  0.001728  0.512851  0.282686  1
  I  I6  1  0.328039  0.653969  0.827814  1
  I  I7  1  0.039274  0.208493  0.903159  1
  I  I8  1  0.676178  0.932221  0.690084  1
  I  I9  1  0.037932  0.324890  0.560114  1
  I  I10  1  0.346031  0.671961  0.327814  1
  I  I11  1  0.791507  0.960726  0.403159  1
  I  I12  1  0.067779  0.323822  0.190084  1
  I  I13  1  0.675110  0.962068  0.060114  1
  I  I14  1  0.324890  0.037932  0.939886  1
  I  I15  1  0.932221  0.676178  0.809916  1
  I  I16  1  0.208493  0.039274  0.596841  1
  I  I17  1  0.653969  0.328039  0.672186  1
  I  I18  1  0.962068  0.675110  0.439886  1
  I  I19  1  0.323822  0.067779  0.309916  1
  I  I20  1  0.960726  0.791507  0.096841  1
  I  I21  1  0.671961  0.346031  0.172186  1
