# generated using pymatgen
data_TiO2
_symmetry_space_group_name_H-M   'P 1'
_cell_length_a   4.61023728
_cell_length_b   5.56601043
_cell_length_c   14.96758265
_cell_angle_alpha   90.00000000
_cell_angle_beta   90.00000000
_cell_angle_gamma   90.00000000
_symmetry_Int_Tables_number   1
_chemical_formula_structural   TiO2
_chemical_formula_sum   'Ti12 O24'
_cell_volume   384.07758219
_cell_formula_units_Z   12
loop_
 _symmetry_equiv_pos_site_id
 _symmetry_equiv_pos_as_xyz
  1  'x, y, z'
loop_
 _atom_site_type_symbol
 _atom_site_label
 _atom_site_symmetry_multiplicity
 _atom_site_fract_x
 _atom_site_fract_y
 _atom_site_fract_z
 _atom_site_occupancy
  Ti  Ti0  1  0.001562  0.349796  0.083497  1
  Ti  Ti1  1  0.000000  0.036121  0.250000  1
  Ti  Ti2  1  0.998438  0.349796  0.416503  1
  Ti  Ti3  1  0.000000  0.963879  0.750000  1
  Ti  Ti4  1  0.001562  0.650204  0.583497  1
  Ti  Ti5  1  0.998438  0.650204  0.916503  1
  Ti  Ti6  1  0.498438  0.150204  0.583497  1
  Ti  Ti7  1  0.500000  0.536121  0.250000  1
  Ti  Ti8  1  0.500000  0.463879  0.750000  1
  Ti  Ti9  1  0.501562  0.150204  0.916503  1
  Ti  Ti10  1  0.501562  0.849796  0.416503  1
  Ti  Ti11  1  0.498438  0.849796  0.083497  1
  O  O12  1  0.205518  0.632201  0.030133  1
  O  O13  1  0.205518  0.367799  0.530133  1
  O  O14  1  0.274605  0.166139  0.695861  1
  O  O15  1  0.274605  0.833861  0.195861  1
  O  O16  1  0.211477  0.086751  0.363336  1
  O  O17  1  0.211477  0.913249  0.863336  1
  O  O18  1  0.288523  0.586751  0.363336  1
  O  O19  1  0.288523  0.413249  0.863336  1
  O  O20  1  0.225395  0.333861  0.195861  1
  O  O21  1  0.225395  0.666139  0.695861  1
  O  O22  1  0.294482  0.867799  0.530133  1
  O  O23  1  0.294482  0.132201  0.030133  1
  O  O24  1  0.705518  0.132201  0.469867  1
  O  O25  1  0.705518  0.867799  0.969867  1
  O  O26  1  0.774605  0.333861  0.304139  1
  O  O27  1  0.774605  0.666139  0.804139  1
  O  O28  1  0.711477  0.586751  0.136664  1
  O  O29  1  0.711477  0.413249  0.636664  1
  O  O30  1  0.788523  0.086751  0.136664  1
  O  O31  1  0.788523  0.913249  0.636664  1
  O  O32  1  0.725395  0.166139  0.804139  1
  O  O33  1  0.725395  0.833861  0.304139  1
  O  O34  1  0.794482  0.367799  0.969867  1
  O  O35  1  0.794482  0.632201  0.469867  1
