# generated using pymatgen
data_CdH8(NO5)2
_symmetry_space_group_name_H-M   'P 1'
_cell_length_a   13.29075063
_cell_length_b   13.29075063
_cell_length_c   6.32205167
_cell_angle_alpha   84.05312821
_cell_angle_beta   95.94687179
_cell_angle_gamma   25.68780082
_symmetry_Int_Tables_number   1
_chemical_formula_structural   CdH8(NO5)2
_chemical_formula_sum   'Cd2 H16 N4 O20'
_cell_volume   428.28391072
_cell_formula_units_Z   2
loop_
 _symmetry_equiv_pos_site_id
 _symmetry_equiv_pos_as_xyz
  1  'x, y, z'
loop_
 _atom_site_type_symbol
 _atom_site_label
 _atom_site_symmetry_multiplicity
 _atom_site_fract_x
 _atom_site_fract_y
 _atom_site_fract_z
 _atom_site_occupancy
  Cd  Cd0  1  0.246085  0.008028  0.487790  1
  Cd  Cd1  1  0.991972  0.753915  0.987790  1
  H  H2  1  0.989715  0.649731  0.616834  1
  H  H3  1  0.622942  0.244638  0.622610  1
  H  H4  1  0.755362  0.377058  0.122610  1
  H  H5  1  0.350269  0.010285  0.116834  1
  H  H6  1  0.057798  0.699943  0.562791  1
  H  H7  1  0.503572  0.245699  0.561450  1
  H  H8  1  0.754301  0.496428  0.061450  1
  H  H9  1  0.300057  0.942202  0.062791  1
  H  H10  1  0.631160  0.791906  0.813387  1
  H  H11  1  0.180710  0.904603  0.813470  1
  H  H12  1  0.106866  0.815364  0.318669  1
  H  H13  1  0.208094  0.368840  0.313387  1
  H  H14  1  0.769255  0.588084  0.733759  1
  H  H15  1  0.967434  0.186023  0.734717  1
  H  H16  1  0.823328  0.033817  0.236977  1
  H  H17  1  0.419145  0.232014  0.237276  1
  N  N18  1  0.019053  0.414344  0.506936  1
  N  N19  1  0.491902  0.583301  0.507213  1
  N  N20  1  0.419816  0.513166  0.007501  1
  N  N21  1  0.591043  0.983219  0.009069  1
  O  O22  1  0.007169  0.342958  0.625180  1
  O  O23  1  0.621920  0.536653  0.625497  1
  O  O24  1  0.463347  0.378080  0.125497  1
  O  O25  1  0.657042  0.992831  0.125180  1
  O  O26  1  0.151081  0.293134  0.390775  1
  O  O27  1  0.245299  0.819899  0.387240  1
  O  O28  1  0.183855  0.760670  0.886112  1
  O  O29  1  0.710676  0.854062  0.890516  1
  O  O30  1  0.901344  0.600093  0.504030  1
  O  O31  1  0.607137  0.399048  0.509091  1
  O  O32  1  0.600952  0.392863  0.009091  1
  O  O33  1  0.399907  0.098656  0.004030  1
  O  O34  1  0.080879  0.626148  0.693182  1
  O  O35  1  0.616508  0.181987  0.693914  1
  O  O36  1  0.818013  0.383492  0.193914  1
  O  O37  1  0.373852  0.919121  0.193182  1
  O  O38  1  0.635962  0.714976  0.790713  1
  O  O39  1  0.156939  0.001046  0.790420  1
  O  O40  1  0.006381  0.843816  0.294615  1
  O  O41  1  0.285024  0.364038  0.290713  1
