# generated using pymatgen
data_Li4MnFe3(BO3)4
_symmetry_space_group_name_H-M   'P 1'
_cell_length_a   5.18081326
_cell_length_b   6.00452980
_cell_length_c   9.12871758
_cell_angle_alpha   104.74440586
_cell_angle_beta   89.83055566
_cell_angle_gamma   113.33714396
_symmetry_Int_Tables_number   1
_chemical_formula_structural   Li4MnFe3(BO3)4
_chemical_formula_sum   'Li4 Mn1 Fe3 B4 O12'
_cell_volume   250.62457063
_cell_formula_units_Z   1
loop_
 _symmetry_equiv_pos_site_id
 _symmetry_equiv_pos_as_xyz
  1  'x, y, z'
loop_
 _atom_site_type_symbol
 _atom_site_label
 _atom_site_symmetry_multiplicity
 _atom_site_fract_x
 _atom_site_fract_y
 _atom_site_fract_z
 _atom_site_occupancy
  Li  Li0  1  0.250057  0.671964  0.183671  1
  Li  Li1  1  0.755775  0.679856  0.687171  1
  Li  Li2  1  0.243669  0.323403  0.313389  1
  Li  Li3  1  0.747260  0.325624  0.814518  1
  Mn  Mn4  1  0.787360  0.767095  0.376045  1
  Fe  Fe5  1  0.292674  0.766349  0.876621  1
  Fe  Fe6  1  0.712371  0.233606  0.127678  1
  Fe  Fe7  1  0.212536  0.243943  0.629392  1
  B  B8  1  0.775959  0.738008  0.036011  1
  B  B9  1  0.273300  0.742034  0.539660  1
  B  B10  1  0.726023  0.260359  0.462523  1
  B  B11  1  0.225949  0.256643  0.961380  1
  O  O12  1  0.555688  0.820973  0.060284  1
  O  O13  1  0.059521  0.829861  0.567139  1
  O  O14  1  0.362463  0.702547  0.395083  1
  O  O15  1  0.882537  0.678986  0.153541  1
  O  O16  1  0.383664  0.681896  0.655661  1
  O  O17  1  0.125961  0.290016  0.101946  1
  O  O18  1  0.873391  0.706493  0.894451  1
  O  O19  1  0.612087  0.309271  0.341176  1
  O  O20  1  0.117696  0.316676  0.843549  1
  O  O21  1  0.630343  0.297683  0.603434  1
  O  O22  1  0.948419  0.181375  0.439011  1
  O  O23  1  0.445297  0.175338  0.936669  1
