# generated using pymatgen
data_Li4VCr3O8
_symmetry_space_group_name_H-M   'P 1'
_cell_length_a   5.15659611
_cell_length_b   5.96221586
_cell_length_c   10.71702929
_cell_angle_alpha   105.90492459
_cell_angle_beta   94.61416177
_cell_angle_gamma   107.03157945
_symmetry_Int_Tables_number   1
_chemical_formula_structural   Li4VCr3O8
_chemical_formula_sum   'Li8 V2 Cr6 O16'
_cell_volume   298.31805061
_cell_formula_units_Z   2
loop_
 _symmetry_equiv_pos_site_id
 _symmetry_equiv_pos_as_xyz
  1  'x, y, z'
loop_
 _atom_site_type_symbol
 _atom_site_label
 _atom_site_symmetry_multiplicity
 _atom_site_fract_x
 _atom_site_fract_y
 _atom_site_fract_z
 _atom_site_occupancy
  Li  Li0  1  0.000000  0.500000  0.000000  1
  Li  Li1  1  0.251237  0.875749  0.748620  1
  Li  Li2  1  0.748763  0.124251  0.251380  1
  Li  Li3  1  0.499958  0.749371  0.500525  1
  Li  Li4  1  0.000000  0.000000  0.000000  1
  Li  Li5  1  0.248033  0.373402  0.749266  1
  Li  Li6  1  0.751967  0.626598  0.250734  1
  Li  Li7  1  0.500042  0.250629  0.499475  1
  V  V8  1  0.623778  0.684628  0.875980  1
  V  V9  1  0.376222  0.315372  0.124020  1
  Cr  Cr10  1  0.125192  0.938654  0.375147  1
  Cr  Cr11  1  0.624906  0.184827  0.874474  1
  Cr  Cr12  1  0.874972  0.561172  0.625022  1
  Cr  Cr13  1  0.375094  0.815173  0.125526  1
  Cr  Cr14  1  0.125028  0.438828  0.374978  1
  Cr  Cr15  1  0.874808  0.061346  0.624853  1
  O  O16  1  0.836544  0.099030  0.439420  1
  O  O17  1  0.414365  0.278288  0.310786  1
  O  O18  1  0.332174  0.344550  0.938160  1
  O  O19  1  0.916369  0.522006  0.809914  1
  O  O20  1  0.163456  0.900970  0.560580  1
  O  O21  1  0.585635  0.721712  0.689214  1
  O  O22  1  0.086154  0.975138  0.189879  1
  O  O23  1  0.668344  0.151691  0.058786  1
  O  O24  1  0.836472  0.599395  0.439674  1
  O  O25  1  0.413775  0.778378  0.311046  1
  O  O26  1  0.331656  0.848309  0.941214  1
  O  O27  1  0.913846  0.024862  0.810121  1
  O  O28  1  0.586225  0.221622  0.688954  1
  O  O29  1  0.083631  0.477994  0.190086  1
  O  O30  1  0.163528  0.400605  0.560326  1
  O  O31  1  0.667826  0.655450  0.061840  1
