# generated using pymatgen
data_Li2Mn3VO8
_symmetry_space_group_name_H-M   'P 1'
_cell_length_a   5.94515321
_cell_length_b   5.94515321
_cell_length_c   5.94515321
_cell_angle_alpha   60.07287788
_cell_angle_beta   60.07287788
_cell_angle_gamma   60.07287788
_symmetry_Int_Tables_number   1
_chemical_formula_structural   Li2Mn3VO8
_chemical_formula_sum   'Li2 Mn3 V1 O8'
_cell_volume   148.83011913
_cell_formula_units_Z   1
loop_
 _symmetry_equiv_pos_site_id
 _symmetry_equiv_pos_as_xyz
  1  'x, y, z'
loop_
 _atom_site_type_symbol
 _atom_site_label
 _atom_site_symmetry_multiplicity
 _atom_site_fract_x
 _atom_site_fract_y
 _atom_site_fract_z
 _atom_site_occupancy
  Li  Li0  1  0.878598  0.878598  0.878598  1
  Li  Li1  1  0.121402  0.121402  0.121402  1
  Mn  Mn2  1  0.500000  0.000000  0.500000  1
  Mn  Mn3  1  0.500000  0.500000  1.000000  1
  Mn  Mn4  1  1.000000  0.500000  0.500000  1
  V  V5  1  0.500000  0.500000  0.500000  1
  O  O6  1  0.739462  0.739462  0.739462  1
  O  O7  1  0.292102  0.742022  0.742022  1
  O  O8  1  0.742022  0.742022  0.292102  1
  O  O9  1  0.742022  0.292102  0.742022  1
  O  O10  1  0.257978  0.707898  0.257978  1
  O  O11  1  0.257978  0.257978  0.707898  1
  O  O12  1  0.707898  0.257978  0.257978  1
  O  O13  1  0.260538  0.260538  0.260538  1
