# generated using pymatgen
data_Ho2Sb2O7
_symmetry_space_group_name_H-M   'P 1'
_cell_length_a   7.53854337
_cell_length_b   7.53854337
_cell_length_c   7.53854337
_cell_angle_alpha   121.21489776
_cell_angle_beta   118.52242320
_cell_angle_gamma   90.24339001
_symmetry_Int_Tables_number   1
_chemical_formula_structural   Ho2Sb2O7
_chemical_formula_sum   'Ho4 Sb4 O14'
_cell_volume   303.32352425
_cell_formula_units_Z   2
loop_
 _symmetry_equiv_pos_site_id
 _symmetry_equiv_pos_as_xyz
  1  'x, y, z'
loop_
 _atom_site_type_symbol
 _atom_site_label
 _atom_site_symmetry_multiplicity
 _atom_site_fract_x
 _atom_site_fract_y
 _atom_site_fract_z
 _atom_site_occupancy
  Ho  Ho0  1  0.500000  1.000000  1.000000  1
  Ho  Ho1  1  0.500000  0.500000  0.000000  1
  Ho  Ho2  1  0.000000  0.500000  1.000000  1
  Ho  Ho3  1  0.000000  0.500000  0.500000  1
  Sb  Sb4  1  0.500000  1.000000  0.500000  1
  Sb  Sb5  1  0.500000  0.500000  0.500000  1
  Sb  Sb6  1  0.000000  0.000000  1.000000  1
  Sb  Sb7  1  0.000000  1.000000  0.500000  1
  O  O8  1  0.628841  0.925715  0.300650  1
  O  O9  1  0.619030  0.365896  0.246866  1
  O  O10  1  0.871159  0.671809  0.796874  1
  O  O11  1  0.625065  0.328191  0.699350  1
  O  O12  1  0.125065  0.925715  0.796874  1
  O  O13  1  0.880970  0.627835  0.246866  1
  O  O14  1  0.250000  0.968406  0.218406  1
  O  O15  1  0.750000  0.031594  0.781594  1
  O  O16  1  0.119030  0.372165  0.753134  1
  O  O17  1  0.128841  0.328191  0.203126  1
  O  O18  1  0.374935  0.671809  0.300650  1
  O  O19  1  0.874935  0.074285  0.203126  1
  O  O20  1  0.380970  0.634104  0.753134  1
  O  O21  1  0.371159  0.074285  0.699350  1
