# generated using pymatgen
data_LiCu3F10
_symmetry_space_group_name_H-M   'P 1'
_cell_length_a   3.77875735
_cell_length_b   7.22649730
_cell_length_c   14.38420949
_cell_angle_alpha   90.00000000
_cell_angle_beta   90.23600547
_cell_angle_gamma   90.00000000
_symmetry_Int_Tables_number   1
_chemical_formula_structural   LiCu3F10
_chemical_formula_sum   'Li2 Cu6 F20'
_cell_volume   392.78886226
_cell_formula_units_Z   2
loop_
 _symmetry_equiv_pos_site_id
 _symmetry_equiv_pos_as_xyz
  1  'x, y, z'
loop_
 _atom_site_type_symbol
 _atom_site_label
 _atom_site_symmetry_multiplicity
 _atom_site_fract_x
 _atom_site_fract_y
 _atom_site_fract_z
 _atom_site_occupancy
  Li  Li0  1  0.039918  0.417172  0.571878  1
  Li  Li1  1  0.039918  0.582828  0.071878  1
  Cu  Cu2  1  0.018567  0.095521  0.971789  1
  Cu  Cu3  1  0.016108  0.002336  0.718556  1
  Cu  Cu4  1  0.022165  0.590368  0.870212  1
  Cu  Cu5  1  0.018567  0.904479  0.471789  1
  Cu  Cu6  1  0.016108  0.997664  0.218556  1
  Cu  Cu7  1  0.022165  0.409632  0.370212  1
  F  F8  1  0.011079  0.226281  0.656478  1
  F  F9  1  0.016652  0.096469  0.845210  1
  F  F10  1  0.018613  0.771830  0.772223  1
  F  F11  1  0.024376  0.402257  0.972084  1
  F  F12  1  0.024455  0.763611  0.966506  1
  F  F13  1  0.020863  0.429704  0.776193  1
  F  F14  1  0.011079  0.773719  0.156478  1
  F  F15  1  0.018391  0.873204  0.598854  1
  F  F16  1  0.016652  0.903531  0.345210  1
  F  F17  1  0.018613  0.228170  0.272223  1
  F  F18  1  0.024376  0.597743  0.472084  1
  F  F19  1  0.024455  0.236389  0.466506  1
  F  F20  1  0.020863  0.570296  0.276193  1
  F  F21  1  0.018391  0.126796  0.098854  1
  F  F22  1  0.518760  0.070627  0.975462  1
  F  F23  1  0.516009  0.006154  0.718633  1
  F  F24  1  0.522209  0.589245  0.875352  1
  F  F25  1  0.518760  0.929373  0.475462  1
  F  F26  1  0.516009  0.993846  0.218633  1
  F  F27  1  0.522209  0.410755  0.375352  1
