# generated using pymatgen
data_LiMn2(BO3)2
_symmetry_space_group_name_H-M   'P 1'
_cell_length_a   9.10563217
_cell_length_b   9.13810723
_cell_length_c   10.32021068
_cell_angle_alpha   91.91283350
_cell_angle_beta   89.56139644
_cell_angle_gamma   119.73450341
_symmetry_Int_Tables_number   1
_chemical_formula_structural   LiMn2(BO3)2
_chemical_formula_sum   'Li6 Mn12 B12 O36'
_cell_volume   745.20593643
_cell_formula_units_Z   6
loop_
 _symmetry_equiv_pos_site_id
 _symmetry_equiv_pos_as_xyz
  1  'x, y, z'
loop_
 _atom_site_type_symbol
 _atom_site_label
 _atom_site_symmetry_multiplicity
 _atom_site_fract_x
 _atom_site_fract_y
 _atom_site_fract_z
 _atom_site_occupancy
  Li  Li0  1  0.279825  0.581467  0.327171  1
  Li  Li1  1  0.966020  0.896739  0.890258  1
  Li  Li2  1  0.271244  0.577037  0.837698  1
  Li  Li3  1  0.054444  0.094317  0.598779  1
  Li  Li4  1  0.639638  0.242615  0.322441  1
  Li  Li5  1  0.596271  0.219999  0.847597  1
  Mn  Mn6  1  0.734136  0.780841  0.121855  1
  Mn  Mn7  1  0.638442  0.903477  0.865013  1
  Mn  Mn8  1  0.257291  0.910071  0.378366  1
  Mn  Mn9  1  0.392360  0.463158  0.617694  1
  Mn  Mn10  1  0.062081  0.744476  0.624130  1
  Mn  Mn11  1  0.031262  0.422677  0.121246  1
  Mn  Mn12  1  0.924243  0.546249  0.876720  1
  Mn  Mn13  1  0.617531  0.583080  0.367676  1
  Mn  Mn14  1  0.949560  0.192538  0.360955  1
  Mn  Mn15  1  0.704659  0.110091  0.608884  1
  Mn  Mn16  1  0.390490  0.104751  0.116918  1
  Mn  Mn17  1  0.286754  0.242688  0.873512  1
  B  B18  1  0.739277  0.789447  0.621685  1
  B  B19  1  0.593983  0.896734  0.367325  1
  B  B20  1  0.283701  0.889284  0.859355  1
  B  B21  1  0.064975  0.781185  0.119637  1
  B  B22  1  0.392059  0.445641  0.131022  1
  B  B23  1  0.942089  0.543921  0.368813  1
  B  B24  1  0.040071  0.428630  0.628660  1
  B  B25  1  0.601913  0.553418  0.870885  1
  B  B26  1  0.946086  0.221282  0.879664  1
  B  B27  1  0.730601  0.106094  0.111644  1
  B  B28  1  0.293999  0.226997  0.383948  1
  B  B29  1  0.366139  0.110534  0.638663  1
  O  O30  1  0.657648  0.944453  0.052036  1
  O  O31  1  0.691135  0.821664  0.324999  1
  O  O32  1  0.655842  0.871772  0.678387  1
  O  O33  1  0.697068  0.725908  0.901337  1
  O  O34  1  0.423985  0.811064  0.375546  1
  O  O35  1  0.267053  0.957629  0.568151  1
  O  O36  1  0.380886  0.816762  0.858859  1
  O  O37  1  0.213644  0.868377  0.194132  1
  O  O38  1  0.431633  0.488420  0.832711  1
  O  O39  1  0.112449  0.800321  0.813049  1
  O  O40  1  0.979471  0.857458  0.079524  1
  O  O41  1  0.283898  0.502540  0.153635  1
  O  O42  1  0.376029  0.399866  0.413067  1
  O  O43  1  0.907576  0.854623  0.632896  1
  O  O44  1  0.052817  0.698428  0.434185  1
  O  O45  1  0.208639  0.521785  0.652063  1
  O  O46  1  0.013442  0.617663  0.075010  1
  O  O47  1  0.022458  0.458779  0.313316  1
  O  O48  1  0.940182  0.504610  0.661938  1
  O  O49  1  0.032483  0.391816  0.925750  1
  O  O50  1  0.632780  0.637555  0.553865  1
  O  O51  1  0.125976  0.125556  0.403019  1
  O  O52  1  0.774515  0.482409  0.361984  1
  O  O53  1  0.961496  0.264994  0.577503  1
  O  O54  1  0.670476  0.452853  0.878513  1
  O  O55  1  0.027579  0.131428  0.867299  1
  O  O56  1  0.559442  0.527974  0.182039  1
  O  O57  1  0.902032  0.179009  0.150046  1
  O  O58  1  0.775119  0.154752  0.845202  1
  O  O59  1  0.641876  0.185594  0.136522  1
  O  O60  1  0.689374  0.069109  0.402938  1
  O  O61  1  0.529772  0.170509  0.664464  1
  O  O62  1  0.347118  0.297329  0.056157  1
  O  O63  1  0.391532  0.153849  0.340420  1
  O  O64  1  0.281426  0.197161  0.682588  1
  O  O65  1  0.343495  0.054296  0.908774  1
