# generated using pymatgen
data_KPrPCO7
_symmetry_space_group_name_H-M   'P 1'
_cell_length_a   5.77213447
_cell_length_b   7.23414643
_cell_length_c   10.49537400
_cell_angle_alpha   90.00000000
_cell_angle_beta   90.60592745
_cell_angle_gamma   90.00000000
_symmetry_Int_Tables_number   1
_chemical_formula_structural   KPrPCO7
_chemical_formula_sum   'K2 Pr2 P2 C2 O14'
_cell_volume   438.22522080
_cell_formula_units_Z   2
loop_
 _symmetry_equiv_pos_site_id
 _symmetry_equiv_pos_as_xyz
  1  'x, y, z'
loop_
 _atom_site_type_symbol
 _atom_site_label
 _atom_site_symmetry_multiplicity
 _atom_site_fract_x
 _atom_site_fract_y
 _atom_site_fract_z
 _atom_site_occupancy
  K  K0  1  0.241456  0.447800  0.232537  1
  K  K1  1  0.758544  0.947800  0.767463  1
  Pr  Pr2  1  0.780658  0.780966  0.369585  1
  Pr  Pr3  1  0.219342  0.280966  0.630415  1
  P  P4  1  0.715427  0.271924  0.428962  1
  P  P5  1  0.284573  0.771924  0.571038  1
  C  C6  1  0.725883  0.726720  0.085805  1
  C  C7  1  0.274117  0.226720  0.914195  1
  O  O8  1  0.305495  0.228418  0.034428  1
  O  O9  1  0.932131  0.725764  0.133351  1
  O  O10  1  0.552889  0.727945  0.162586  1
  O  O11  1  0.772625  0.099398  0.348861  1
  O  O12  1  0.791789  0.449277  0.358480  1
  O  O13  1  0.161020  0.757426  0.437626  1
  O  O14  1  0.449315  0.282211  0.453215  1
  O  O15  1  0.550685  0.782211  0.546785  1
  O  O16  1  0.838980  0.257426  0.562374  1
  O  O17  1  0.208211  0.949277  0.641520  1
  O  O18  1  0.227375  0.599398  0.651139  1
  O  O19  1  0.447111  0.227945  0.837414  1
  O  O20  1  0.067869  0.225764  0.866649  1
  O  O21  1  0.694505  0.728418  0.965572  1
