# generated using pymatgen
data_FeOF
_symmetry_space_group_name_H-M   'P 1'
_cell_length_a   9.44445789
_cell_length_b   3.10437248
_cell_length_c   9.48155587
_cell_angle_alpha   90.00000000
_cell_angle_beta   90.08517059
_cell_angle_gamma   90.00000000
_symmetry_Int_Tables_number   1
_chemical_formula_structural   FeOF
_chemical_formula_sum   'Fe8 O8 F8'
_cell_volume   277.99052104
_cell_formula_units_Z   8
loop_
 _symmetry_equiv_pos_site_id
 _symmetry_equiv_pos_as_xyz
  1  'x, y, z'
loop_
 _atom_site_type_symbol
 _atom_site_label
 _atom_site_symmetry_multiplicity
 _atom_site_fract_x
 _atom_site_fract_y
 _atom_site_fract_z
 _atom_site_occupancy
  Fe  Fe0  1  0.980459  0.000000  0.004116  1
  Fe  Fe1  1  0.988530  0.000000  0.510004  1
  Fe  Fe2  1  0.771978  0.500000  0.750901  1
  Fe  Fe3  1  0.775460  0.500000  0.259562  1
  Fe  Fe4  1  0.481017  0.000000  0.504828  1
  Fe  Fe5  1  0.487888  0.000000  0.009757  1
  Fe  Fe6  1  0.240483  0.500000  0.724684  1
  Fe  Fe7  1  0.268318  0.500000  0.254284  1
  O  O8  1  0.900049  0.500000  0.595115  1
  O  O9  1  0.904036  0.500000  0.098540  1
  O  O10  1  0.846723  0.000000  0.848019  1
  O  O11  1  0.850121  0.000000  0.350234  1
  O  O12  1  0.405676  0.500000  0.600801  1
  O  O13  1  0.401820  0.500000  0.092660  1
  O  O14  1  0.349459  0.000000  0.345560  1
  O  O15  1  0.149268  0.000000  0.647965  1
  F  F16  1  0.652264  0.000000  0.651219  1
  F  F17  1  0.651184  0.000000  0.151530  1
  F  F18  1  0.593686  0.500000  0.900731  1
  F  F19  1  0.598635  0.500000  0.402180  1
  F  F20  1  0.346590  0.000000  0.846751  1
  F  F21  1  0.153907  0.000000  0.150588  1
  F  F22  1  0.102859  0.500000  0.905370  1
  F  F23  1  0.099590  0.500000  0.394599  1
