# generated using pymatgen
data_NbFe3Cu2(PO4)6
_symmetry_space_group_name_H-M   'P 1'
_cell_length_a   8.65130358
_cell_length_b   8.65130358
_cell_length_c   8.65130358
_cell_angle_alpha   60.19655669
_cell_angle_beta   60.19655669
_cell_angle_gamma   60.19655669
_symmetry_Int_Tables_number   1
_chemical_formula_structural   NbFe3Cu2(PO4)6
_chemical_formula_sum   'Nb1 Fe3 Cu2 P6 O24'
_cell_volume   459.89465293
_cell_formula_units_Z   1
loop_
 _symmetry_equiv_pos_site_id
 _symmetry_equiv_pos_as_xyz
  1  'x, y, z'
loop_
 _atom_site_type_symbol
 _atom_site_label
 _atom_site_symmetry_multiplicity
 _atom_site_fract_x
 _atom_site_fract_y
 _atom_site_fract_z
 _atom_site_occupancy
  Nb  Nb0  1  0.141865  0.141865  0.141865  1
  Fe  Fe1  1  0.854528  0.854528  0.854528  1
  Fe  Fe2  1  0.644052  0.644052  0.644052  1
  Fe  Fe3  1  0.355267  0.355267  0.355267  1
  Cu  Cu4  1  0.993934  0.993934  0.993934  1
  Cu  Cu5  1  0.499528  0.499528  0.499528  1
  P  P6  1  0.954446  0.252292  0.548831  1
  P  P7  1  0.548831  0.954446  0.252292  1
  P  P8  1  0.252292  0.548831  0.954446  1
  P  P9  1  0.742805  0.463768  0.043253  1
  P  P10  1  0.463768  0.043253  0.742805  1
  P  P11  1  0.043253  0.742805  0.463768  1
  O  O12  1  0.884051  0.690609  0.494355  1
  O  O13  1  0.690609  0.494355  0.884051  1
  O  O14  1  0.940616  0.085536  0.737446  1
  O  O15  1  0.494355  0.884051  0.690609  1
  O  O16  1  0.002680  0.190187  0.382310  1
  O  O17  1  0.762789  0.413929  0.554184  1
  O  O18  1  0.737446  0.940616  0.085536  1
  O  O19  1  0.554184  0.762789  0.413929  1
  O  O20  1  0.808275  0.616879  0.005742  1
  O  O21  1  0.413929  0.554184  0.762789  1
  O  O22  1  0.910951  0.267056  0.061281  1
  O  O23  1  0.616879  0.005742  0.808275  1
  O  O24  1  0.382310  0.002680  0.190187  1
  O  O25  1  0.085536  0.737446  0.940616  1
  O  O26  1  0.584145  0.443273  0.238322  1
  O  O27  1  0.190187  0.382310  0.002680  1
  O  O28  1  0.443273  0.238322  0.584145  1
  O  O29  1  0.267056  0.061281  0.910951  1
  O  O30  1  0.238322  0.584145  0.443273  1
  O  O31  1  0.005742  0.808275  0.616879  1
  O  O32  1  0.506069  0.115535  0.309211  1
  O  O33  1  0.061281  0.910951  0.267056  1
  O  O34  1  0.309211  0.506069  0.115535  1
  O  O35  1  0.115535  0.309211  0.506069  1
