# generated using pymatgen
data_Sr3La4O9
_symmetry_space_group_name_H-M   'P 1'
_cell_length_a   6.97616818
_cell_length_b   6.97616818
_cell_length_c   13.53559918
_cell_angle_alpha   68.58225450
_cell_angle_beta   111.41774550
_cell_angle_gamma   116.45989516
_symmetry_Int_Tables_number   1
_chemical_formula_structural   Sr3La4O9
_chemical_formula_sum   'Sr6 La8 O18'
_cell_volume   532.56062304
_cell_formula_units_Z   2
loop_
 _symmetry_equiv_pos_site_id
 _symmetry_equiv_pos_as_xyz
  1  'x, y, z'
loop_
 _atom_site_type_symbol
 _atom_site_label
 _atom_site_symmetry_multiplicity
 _atom_site_fract_x
 _atom_site_fract_y
 _atom_site_fract_z
 _atom_site_occupancy
  Sr  Sr0  1  0.415221  0.458655  0.446860  1
  Sr  Sr1  1  0.216507  0.455972  0.171624  1
  Sr  Sr2  1  0.541345  0.584779  0.946860  1
  Sr  Sr3  1  0.880976  0.292359  0.502339  1
  Sr  Sr4  1  0.544028  0.783493  0.671624  1
  Sr  Sr5  1  0.707641  0.119024  0.002339  1
  La  La6  1  0.053469  0.707791  0.882310  1
  La  La7  1  0.432645  0.196389  0.721784  1
  La  La8  1  0.292209  0.946531  0.382310  1
  La  La9  1  0.015290  0.260012  0.790496  1
  La  La10  1  0.803611  0.567355  0.221784  1
  La  La11  1  0.231987  0.029038  0.086524  1
  La  La12  1  0.739988  0.984710  0.290496  1
  La  La13  1  0.970962  0.768013  0.586524  1
  O  O14  1  0.296333  0.088208  0.903978  1
  O  O15  1  0.001822  0.314558  0.339049  1
  O  O16  1  0.540176  0.720211  0.095526  1
  O  O17  1  0.320460  0.030871  0.551961  1
  O  O18  1  0.114065  0.345932  0.976631  1
  O  O19  1  0.015227  0.020936  0.197330  1
  O  O20  1  0.217953  0.657311  0.767028  1
  O  O21  1  0.685442  0.998178  0.839049  1
  O  O22  1  0.513282  0.319104  0.325813  1
  O  O23  1  0.279789  0.459824  0.595526  1
  O  O24  1  0.969129  0.679540  0.051961  1
  O  O25  1  0.615836  0.247433  0.128512  1
  O  O26  1  0.654068  0.885935  0.476631  1
  O  O27  1  0.979064  0.984773  0.697330  1
  O  O28  1  0.342689  0.782047  0.267028  1
  O  O29  1  0.680896  0.486718  0.825813  1
  O  O30  1  0.752567  0.384164  0.628512  1
  O  O31  1  0.911792  0.703667  0.403978  1
