# generated using pymatgen
data_FeOF
_symmetry_space_group_name_H-M   'P 1'
_cell_length_a   4.75330955
_cell_length_b   12.26487478
_cell_length_c   4.76836867
_cell_angle_alpha   90.00000000
_cell_angle_beta   90.09027268
_cell_angle_gamma   90.00000000
_symmetry_Int_Tables_number   1
_chemical_formula_structural   FeOF
_chemical_formula_sum   'Fe8 O8 F8'
_cell_volume   277.98957058
_cell_formula_units_Z   8
loop_
 _symmetry_equiv_pos_site_id
 _symmetry_equiv_pos_as_xyz
  1  'x, y, z'
loop_
 _atom_site_type_symbol
 _atom_site_label
 _atom_site_symmetry_multiplicity
 _atom_site_fract_x
 _atom_site_fract_y
 _atom_site_fract_z
 _atom_site_occupancy
  Fe  Fe0  1  0.952587  0.125369  0.992024  1
  Fe  Fe1  1  0.027646  0.375526  0.029303  1
  Fe  Fe2  1  0.027646  0.624474  0.029303  1
  Fe  Fe3  1  0.952587  0.874631  0.992024  1
  Fe  Fe4  1  0.445226  0.500000  0.519157  1
  Fe  Fe5  1  0.538368  0.000000  0.501490  1
  Fe  Fe6  1  0.527260  0.250373  0.473989  1
  Fe  Fe7  1  0.527260  0.749627  0.473989  1
  O  O8  1  0.812123  0.253611  0.183772  1
  O  O9  1  0.812123  0.746389  0.183772  1
  O  O10  1  0.799069  0.000000  0.181344  1
  O  O11  1  0.688849  0.871408  0.679502  1
  O  O12  1  0.688849  0.128592  0.679502  1
  O  O13  1  0.310565  0.373046  0.322003  1
  O  O14  1  0.310565  0.626954  0.322003  1
  O  O15  1  0.182762  0.500000  0.830539  1
  F  F16  1  0.801125  0.500000  0.219754  1
  F  F17  1  0.699831  0.377608  0.706231  1
  F  F18  1  0.699831  0.622392  0.706231  1
  F  F19  1  0.299903  0.876044  0.290185  1
  F  F20  1  0.299903  0.123956  0.290185  1
  F  F21  1  0.202310  0.751397  0.801164  1
  F  F22  1  0.191303  0.000000  0.791368  1
  F  F23  1  0.202310  0.248603  0.801164  1
