# generated using pymatgen
data_La(ClO4)3
_symmetry_space_group_name_H-M   'P 1'
_cell_length_a   9.55605249
_cell_length_b   9.55605249
_cell_length_c   5.96292236
_cell_angle_alpha   90.00000000
_cell_angle_beta   90.00000000
_cell_angle_gamma   120.00000000
_symmetry_Int_Tables_number   1
_chemical_formula_structural   La(ClO4)3
_chemical_formula_sum   'La2 Cl6 O24'
_cell_volume   471.57072877
_cell_formula_units_Z   2
loop_
 _symmetry_equiv_pos_site_id
 _symmetry_equiv_pos_as_xyz
  1  'x, y, z'
loop_
 _atom_site_type_symbol
 _atom_site_label
 _atom_site_symmetry_multiplicity
 _atom_site_fract_x
 _atom_site_fract_y
 _atom_site_fract_z
 _atom_site_occupancy
  La  La0  1  0.333333  0.666667  0.750000  1
  La  La1  1  0.666667  0.333333  0.250000  1
  Cl  Cl2  1  0.091588  0.710050  0.250000  1
  Cl  Cl3  1  0.289950  0.381537  0.250000  1
  Cl  Cl4  1  0.618463  0.908412  0.250000  1
  Cl  Cl5  1  0.381537  0.091588  0.750000  1
  Cl  Cl6  1  0.710050  0.618463  0.750000  1
  Cl  Cl7  1  0.908412  0.289950  0.750000  1
  O  O8  1  0.019452  0.808759  0.250000  1
  O  O9  1  0.029116  0.463745  0.750000  1
  O  O10  1  0.194961  0.743272  0.051195  1
  O  O11  1  0.194961  0.743272  0.448805  1
  O  O12  1  0.434629  0.970884  0.750000  1
  O  O13  1  0.256728  0.451689  0.448805  1
  O  O14  1  0.256728  0.451689  0.051195  1
  O  O15  1  0.191241  0.210693  0.250000  1
  O  O16  1  0.548311  0.805039  0.051195  1
  O  O17  1  0.548311  0.805039  0.448805  1
  O  O18  1  0.210693  0.019452  0.750000  1
  O  O19  1  0.463745  0.434629  0.250000  1
  O  O20  1  0.536255  0.565371  0.750000  1
  O  O21  1  0.789307  0.980548  0.250000  1
  O  O22  1  0.451689  0.194961  0.551195  1
  O  O23  1  0.451689  0.194961  0.948805  1
  O  O24  1  0.808759  0.789307  0.750000  1
  O  O25  1  0.743272  0.548311  0.948805  1
  O  O26  1  0.743272  0.548311  0.551195  1
  O  O27  1  0.565371  0.029116  0.250000  1
  O  O28  1  0.805039  0.256728  0.948805  1
  O  O29  1  0.805039  0.256728  0.551195  1
  O  O30  1  0.970884  0.536255  0.250000  1
  O  O31  1  0.980548  0.191241  0.750000  1
