# generated using pymatgen
data_Li3NbS4
_symmetry_space_group_name_H-M   'P 1'
_cell_length_a   10.09484668
_cell_length_b   11.24561734
_cell_length_c   12.52552999
_cell_angle_alpha   90.00000000
_cell_angle_beta   90.00000000
_cell_angle_gamma   90.00000000
_symmetry_Int_Tables_number   1
_chemical_formula_structural   Li3NbS4
_chemical_formula_sum   'Li24 Nb8 S32'
_cell_volume   1421.93302138
_cell_formula_units_Z   8
loop_
 _symmetry_equiv_pos_site_id
 _symmetry_equiv_pos_as_xyz
  1  'x, y, z'
loop_
 _atom_site_type_symbol
 _atom_site_label
 _atom_site_symmetry_multiplicity
 _atom_site_fract_x
 _atom_site_fract_y
 _atom_site_fract_z
 _atom_site_occupancy
  Li  Li0  1  0.874698  0.954880  0.107314  1
  Li  Li1  1  0.625302  0.954880  0.607314  1
  Li  Li2  1  0.496592  0.871249  0.101179  1
  Li  Li3  1  0.003408  0.871249  0.601179  1
  Li  Li4  1  0.798496  0.830646  0.864420  1
  Li  Li5  1  0.701504  0.830646  0.364420  1
  Li  Li6  1  0.298496  0.669354  0.864420  1
  Li  Li7  1  0.201504  0.669354  0.364420  1
  Li  Li8  1  0.503408  0.628751  0.601179  1
  Li  Li9  1  0.996592  0.628751  0.101179  1
  Li  Li10  1  0.374698  0.545120  0.107314  1
  Li  Li11  1  0.125302  0.545120  0.607314  1
  Li  Li12  1  0.874698  0.454880  0.392686  1
  Li  Li13  1  0.625302  0.454880  0.892686  1
  Li  Li14  1  0.003408  0.371249  0.898821  1
  Li  Li15  1  0.496592  0.371249  0.398821  1
  Li  Li16  1  0.701504  0.330646  0.135580  1
  Li  Li17  1  0.798496  0.330646  0.635580  1
  Li  Li18  1  0.298496  0.169354  0.635580  1
  Li  Li19  1  0.201504  0.169354  0.135580  1
  Li  Li20  1  0.503408  0.128751  0.898821  1
  Li  Li21  1  0.996592  0.128751  0.398821  1
  Li  Li22  1  0.125302  0.045120  0.892686  1
  Li  Li23  1  0.374698  0.045120  0.392686  1
  Nb  Nb24  1  0.179848  0.895565  0.117166  1
  Nb  Nb25  1  0.320152  0.895565  0.617166  1
  Nb  Nb26  1  0.679848  0.604435  0.117166  1
  Nb  Nb27  1  0.820152  0.604435  0.617166  1
  Nb  Nb28  1  0.320152  0.395565  0.882834  1
  Nb  Nb29  1  0.179848  0.395565  0.382834  1
  Nb  Nb30  1  0.820152  0.104435  0.882834  1
  Nb  Nb31  1  0.679848  0.104435  0.382834  1
  S  S32  1  0.565881  0.989365  0.265332  1
  S  S33  1  0.934119  0.989365  0.765332  1
  S  S34  1  0.820615  0.981211  0.475769  1
  S  S35  1  0.679385  0.981211  0.975769  1
  S  S36  1  0.033110  0.819417  0.995987  1
  S  S37  1  0.466890  0.819417  0.495987  1
  S  S38  1  0.197976  0.752072  0.701304  1
  S  S39  1  0.302024  0.752072  0.201304  1
  S  S40  1  0.802024  0.747928  0.201304  1
  S  S41  1  0.697976  0.747928  0.701304  1
  S  S42  1  0.966890  0.680583  0.495987  1
  S  S43  1  0.533110  0.680583  0.995987  1
  S  S44  1  0.320615  0.518789  0.475769  1
  S  S45  1  0.179385  0.518789  0.975769  1
  S  S46  1  0.434119  0.510635  0.765332  1
  S  S47  1  0.065881  0.510635  0.265332  1
  S  S48  1  0.565881  0.489365  0.234668  1
  S  S49  1  0.934119  0.489365  0.734668  1
  S  S50  1  0.820615  0.481211  0.024231  1
  S  S51  1  0.679385  0.481211  0.524231  1
  S  S52  1  0.466890  0.319417  0.004013  1
  S  S53  1  0.033110  0.319417  0.504013  1
  S  S54  1  0.302024  0.252072  0.298696  1
  S  S55  1  0.197976  0.252072  0.798696  1
  S  S56  1  0.697976  0.247928  0.798696  1
  S  S57  1  0.802024  0.247928  0.298696  1
  S  S58  1  0.966890  0.180583  0.004013  1
  S  S59  1  0.533110  0.180583  0.504013  1
  S  S60  1  0.320615  0.018789  0.024231  1
  S  S61  1  0.179385  0.018789  0.524231  1
  S  S62  1  0.434119  0.010635  0.734668  1
  S  S63  1  0.065881  0.010635  0.234668  1
