# generated using pymatgen
data_Li2MnV(P2O7)2
_symmetry_space_group_name_H-M   'P 1'
_cell_length_a   4.87032930
_cell_length_b   7.07510128
_cell_length_c   24.83438919
_cell_angle_alpha   89.52362011
_cell_angle_beta   89.75643027
_cell_angle_gamma   71.19348080
_symmetry_Int_Tables_number   1
_chemical_formula_structural   Li2MnV(P2O7)2
_chemical_formula_sum   'Li6 Mn3 V3 P12 O42'
_cell_volume   810.03006041
_cell_formula_units_Z   3
loop_
 _symmetry_equiv_pos_site_id
 _symmetry_equiv_pos_as_xyz
  1  'x, y, z'
loop_
 _atom_site_type_symbol
 _atom_site_label
 _atom_site_symmetry_multiplicity
 _atom_site_fract_x
 _atom_site_fract_y
 _atom_site_fract_z
 _atom_site_occupancy
  Li  Li0  1  0.174287  0.326823  0.620496  1
  Li  Li1  1  0.172259  0.325136  0.953344  1
  Li  Li2  1  0.176905  0.325979  0.287055  1
  Li  Li3  1  0.823821  0.675013  0.119994  1
  Li  Li4  1  0.821923  0.674235  0.453644  1
  Li  Li5  1  0.827211  0.674617  0.786524  1
  Mn  Mn6  1  0.212395  0.272253  0.832927  1
  Mn  Mn7  1  0.787155  0.730906  0.665978  1
  Mn  Mn8  1  0.785559  0.727297  0.999978  1
  V  V9  1  0.215588  0.274004  0.166729  1
  V  V10  1  0.213276  0.270851  0.499545  1
  V  V11  1  0.784604  0.728516  0.333170  1
  P  P12  1  0.402031  0.477173  0.059050  1
  P  P13  1  0.400419  0.476430  0.393399  1
  P  P14  1  0.401700  0.483574  0.725639  1
  P  P15  1  0.213677  0.914185  0.261183  1
  P  P16  1  0.214844  0.910524  0.595161  1
  P  P17  1  0.213863  0.908462  0.929153  1
  P  P18  1  0.789060  0.087011  0.095672  1
  P  P19  1  0.786697  0.085755  0.428159  1
  P  P20  1  0.786773  0.091307  0.762767  1
  P  P21  1  0.599634  0.524088  0.226758  1
  P  P22  1  0.600379  0.517948  0.560157  1
  P  P23  1  0.599241  0.516367  0.892490  1
  O  O24  1  0.048760  0.154362  0.108570  1
  O  O25  1  0.055085  0.150174  0.776331  1
  O  O26  1  0.049759  0.147583  0.441414  1
  O  O27  1  0.128470  0.109842  0.900918  1
  O  O28  1  0.133775  0.114798  0.232067  1
  O  O29  1  0.132271  0.110365  0.565509  1
  O  O30  1  0.187165  0.517580  0.011901  1
  O  O31  1  0.191275  0.519703  0.677712  1
  O  O32  1  0.187226  0.517447  0.345995  1
  O  O33  1  0.249499  0.506670  0.779810  1
  O  O34  1  0.250372  0.494731  0.113975  1
  O  O35  1  0.247119  0.492418  0.447684  1
  O  O36  1  0.396583  0.397335  0.225924  1
  O  O37  1  0.392156  0.394725  0.558350  1
  O  O38  1  0.392002  0.391108  0.890372  1
  O  O39  1  0.600283  0.087678  0.145582  1
  O  O40  1  0.600668  0.083288  0.478060  1
  O  O41  1  0.597166  0.091148  0.812428  1
  O  O42  1  0.597245  0.247512  0.051109  1
  O  O43  1  0.596274  0.247304  0.384366  1
  O  O44  1  0.599096  0.252443  0.718522  1
  O  O45  1  0.404683  0.754010  0.217738  1
  O  O46  1  0.402925  0.748602  0.885277  1
  O  O47  1  0.403695  0.749549  0.552083  1
  O  O48  1  0.398028  0.915713  0.311139  1
  O  O49  1  0.398974  0.913744  0.644860  1
  O  O50  1  0.401786  0.907883  0.978985  1
  O  O51  1  0.603453  0.606510  0.058067  1
  O  O52  1  0.603038  0.603790  0.392433  1
  O  O53  1  0.607900  0.610030  0.723655  1
  O  O54  1  0.752183  0.506784  0.281273  1
  O  O55  1  0.755123  0.495034  0.613859  1
  O  O56  1  0.750188  0.491868  0.946789  1
  O  O57  1  0.812888  0.484904  0.179433  1
  O  O58  1  0.810195  0.482392  0.511929  1
  O  O59  1  0.810623  0.481814  0.844514  1
  O  O60  1  0.873102  0.886295  0.068050  1
  O  O61  1  0.872140  0.891073  0.734581  1
  O  O62  1  0.866408  0.886175  0.399062  1
  O  O63  1  0.949619  0.852112  0.274586  1
  O  O64  1  0.943047  0.855401  0.608918  1
  O  O65  1  0.944452  0.849650  0.942784  1
