# generated using pymatgen
data_Ba6Ca11I34
_symmetry_space_group_name_H-M   'P 1'
_cell_length_a   11.57552807
_cell_length_b   14.90644817
_cell_length_c   15.04720908
_cell_angle_alpha   81.82438786
_cell_angle_beta   70.77797686
_cell_angle_gamma   71.77072756
_symmetry_Int_Tables_number   1
_chemical_formula_structural   Ba6Ca11I34
_chemical_formula_sum   'Ba6 Ca11 I34'
_cell_volume   2326.37695553
_cell_formula_units_Z   1
loop_
 _symmetry_equiv_pos_site_id
 _symmetry_equiv_pos_as_xyz
  1  'x, y, z'
loop_
 _atom_site_type_symbol
 _atom_site_label
 _atom_site_symmetry_multiplicity
 _atom_site_fract_x
 _atom_site_fract_y
 _atom_site_fract_z
 _atom_site_occupancy
  Ba  Ba0  1  0.341980  0.341056  0.026339  1
  Ba  Ba1  1  0.234974  0.659538  0.322055  1
  Ba  Ba2  1  0.401713  0.066766  0.773890  1
  Ba  Ba3  1  0.598287  0.933234  0.226110  1
  Ba  Ba4  1  0.765026  0.340462  0.677945  1
  Ba  Ba5  1  0.658020  0.658944  0.973661  1
  Ca  Ca6  1  0.000000  0.000000  0.500000  1
  Ca  Ca7  1  0.194513  0.997693  0.185726  1
  Ca  Ca8  1  0.105489  0.752100  0.014382  1
  Ca  Ca9  1  0.276550  0.261653  0.380238  1
  Ca  Ca10  1  0.192517  0.491411  0.703587  1
  Ca  Ca11  1  0.312639  0.754946  0.695218  1
  Ca  Ca12  1  0.687361  0.245054  0.304782  1
  Ca  Ca13  1  0.807483  0.508589  0.296413  1
  Ca  Ca14  1  0.723450  0.738347  0.619762  1
  Ca  Ca15  1  0.894511  0.247900  0.985618  1
  Ca  Ca16  1  0.805487  0.002307  0.814274  1
  I  I17  1  0.166453  0.125344  0.006013  1
  I  I18  1  0.105290  0.401406  0.261083  1
  I  I19  1  0.101185  0.156449  0.530517  1
  I  I20  1  0.352057  0.134829  0.204545  1
  I  I21  1  0.049380  0.848731  0.197177  1
  I  I22  1  0.074152  0.376289  0.885149  1
  I  I23  1  0.177767  0.388601  0.550372  1
  I  I24  1  0.345597  0.611428  0.069250  1
  I  I25  1  0.448986  0.387507  0.257967  1
  I  I26  1  0.043018  0.874826  0.677906  1
  I  I27  1  0.524016  0.112699  0.417708  1
  I  I28  1  0.169297  0.629206  0.848305  1
  I  I29  1  0.274868  0.886111  0.364277  1
  I  I30  1  0.314763  0.626642  0.541478  1
  I  I31  1  0.459729  0.876189  0.074152  1
  I  I32  1  0.747561  0.117917  0.133253  1
  I  I33  1  0.437827  0.353971  0.758042  1
  I  I34  1  0.562173  0.646029  0.241958  1
  I  I35  1  0.252439  0.882083  0.866747  1
  I  I36  1  0.540271  0.123811  0.925848  1
  I  I37  1  0.685237  0.373358  0.458522  1
  I  I38  1  0.725132  0.113889  0.635723  1
  I  I39  1  0.830703  0.370794  0.151695  1
  I  I40  1  0.475984  0.887301  0.582292  1
  I  I41  1  0.956982  0.125174  0.322094  1
  I  I42  1  0.551014  0.612493  0.742033  1
  I  I43  1  0.654403  0.388572  0.930750  1
  I  I44  1  0.822233  0.611399  0.449628  1
  I  I45  1  0.925848  0.623711  0.114851  1
  I  I46  1  0.950620  0.151269  0.802823  1
  I  I47  1  0.647943  0.865171  0.795455  1
  I  I48  1  0.898815  0.843551  0.469483  1
  I  I49  1  0.894710  0.598594  0.738917  1
  I  I50  1  0.833547  0.874656  0.993987  1
