# generated using pymatgen
data_BaLaCl5
_symmetry_space_group_name_H-M   'P 1'
_cell_length_a   5.94825499
_cell_length_b   7.31273858
_cell_length_c   19.13588157
_cell_angle_alpha   90.00000000
_cell_angle_beta   90.00000000
_cell_angle_gamma   90.00000000
_symmetry_Int_Tables_number   1
_chemical_formula_structural   BaLaCl5
_chemical_formula_sum   'Ba4 La4 Cl20'
_cell_volume   832.37322235
_cell_formula_units_Z   4
loop_
 _symmetry_equiv_pos_site_id
 _symmetry_equiv_pos_as_xyz
  1  'x, y, z'
loop_
 _atom_site_type_symbol
 _atom_site_label
 _atom_site_symmetry_multiplicity
 _atom_site_fract_x
 _atom_site_fract_y
 _atom_site_fract_z
 _atom_site_occupancy
  Ba  Ba0  1  0.218315  0.750000  0.056437  1
  Ba  Ba1  1  0.718315  0.250000  0.443563  1
  Ba  Ba2  1  0.281685  0.750000  0.556437  1
  Ba  Ba3  1  0.781685  0.250000  0.943563  1
  La  La4  1  0.566762  0.250000  0.178686  1
  La  La5  1  0.066762  0.750000  0.321314  1
  La  La6  1  0.933238  0.250000  0.678686  1
  La  La7  1  0.433238  0.750000  0.821314  1
  Cl  Cl8  1  0.277038  0.250000  0.062978  1
  Cl  Cl9  1  0.757007  0.506407  0.085972  1
  Cl  Cl10  1  0.757007  0.993593  0.085972  1
  Cl  Cl11  1  0.236492  0.522634  0.207352  1
  Cl  Cl12  1  0.236492  0.977366  0.207352  1
  Cl  Cl13  1  0.736492  0.022634  0.292648  1
  Cl  Cl14  1  0.736492  0.477366  0.292648  1
  Cl  Cl15  1  0.257007  0.006407  0.414028  1
  Cl  Cl16  1  0.257007  0.493593  0.414028  1
  Cl  Cl17  1  0.777038  0.750000  0.437022  1
  Cl  Cl18  1  0.222962  0.250000  0.562978  1
  Cl  Cl19  1  0.742993  0.506407  0.585972  1
  Cl  Cl20  1  0.742993  0.993593  0.585972  1
  Cl  Cl21  1  0.263508  0.522634  0.707352  1
  Cl  Cl22  1  0.263508  0.977366  0.707352  1
  Cl  Cl23  1  0.763508  0.022634  0.792648  1
  Cl  Cl24  1  0.763508  0.477366  0.792648  1
  Cl  Cl25  1  0.242993  0.006407  0.914028  1
  Cl  Cl26  1  0.242993  0.493593  0.914028  1
  Cl  Cl27  1  0.722962  0.750000  0.937022  1
