# generated using pymatgen
data_Li5Mn2P2(CO7)2
_symmetry_space_group_name_H-M   'P 1'
_cell_length_a   5.03060818
_cell_length_b   6.47285433
_cell_length_c   8.56513344
_cell_angle_alpha   89.27372716
_cell_angle_beta   86.79112568
_cell_angle_gamma   89.91656046
_symmetry_Int_Tables_number   1
_chemical_formula_structural   Li5Mn2P2(CO7)2
_chemical_formula_sum   'Li5 Mn2 P2 C2 O14'
_cell_volume   278.44151307
_cell_formula_units_Z   1
loop_
 _symmetry_equiv_pos_site_id
 _symmetry_equiv_pos_as_xyz
  1  'x, y, z'
loop_
 _atom_site_type_symbol
 _atom_site_label
 _atom_site_symmetry_multiplicity
 _atom_site_fract_x
 _atom_site_fract_y
 _atom_site_fract_z
 _atom_site_occupancy
  Li  Li0  1  0.244353  0.761972  0.896952  1
  Li  Li1  1  0.761975  0.534430  0.729017  1
  Li  Li2  1  0.242116  0.479374  0.264308  1
  Li  Li3  1  0.243905  0.022931  0.265874  1
  Li  Li4  1  0.739392  0.246687  0.086956  1
  Mn  Mn5  1  0.204828  0.241748  0.663855  1
  Mn  Mn6  1  0.789761  0.752490  0.343892  1
  P  P7  1  0.289321  0.742065  0.584339  1
  P  P8  1  0.719847  0.255493  0.414113  1
  C  C9  1  0.269935  0.259489  0.964579  1
  C  C10  1  0.720541  0.741536  0.040669  1
  O  O11  1  0.024142  0.259187  0.931259  1
  O  O12  1  0.637686  0.710318  0.905854  1
  O  O13  1  0.453356  0.261391  0.851369  1
  O  O14  1  0.212511  0.931184  0.685394  1
  O  O15  1  0.167456  0.559980  0.685457  1
  O  O16  1  0.593434  0.712762  0.562543  1
  O  O17  1  0.828477  0.265575  0.577398  1
  O  O18  1  0.178442  0.752778  0.417761  1
  O  O19  1  0.409712  0.252255  0.428111  1
  O  O20  1  0.821786  0.437994  0.304665  1
  O  O21  1  0.826368  0.066619  0.316919  1
  O  O22  1  0.540877  0.761009  0.159900  1
  O  O23  1  0.343729  0.254651  0.108227  1
  O  O24  1  0.969859  0.753682  0.071371  1
