# generated using pymatgen
data_Hf2N2O
_symmetry_space_group_name_H-M   'P 1'
_cell_length_a   4.27311824
_cell_length_b   3.43708351
_cell_length_c   8.67900652
_cell_angle_alpha   90.00000000
_cell_angle_beta   100.14622999
_cell_angle_gamma   90.00000000
_symmetry_Int_Tables_number   1
_chemical_formula_structural   Hf2N2O
_chemical_formula_sum   'Hf4 N4 O2'
_cell_volume   125.47568282
_cell_formula_units_Z   2
loop_
 _symmetry_equiv_pos_site_id
 _symmetry_equiv_pos_as_xyz
  1  'x, y, z'
loop_
 _atom_site_type_symbol
 _atom_site_label
 _atom_site_symmetry_multiplicity
 _atom_site_fract_x
 _atom_site_fract_y
 _atom_site_fract_z
 _atom_site_occupancy
  Hf  Hf0  1  0.788187  0.250000  0.106197  1
  Hf  Hf1  1  0.625288  0.250000  0.670710  1
  Hf  Hf2  1  0.374712  0.750000  0.329290  1
  Hf  Hf3  1  0.211813  0.750000  0.893803  1
  N  N4  1  0.828356  0.750000  0.248900  1
  N  N5  1  0.716028  0.750000  0.902811  1
  N  N6  1  0.283972  0.250000  0.097189  1
  N  N7  1  0.171644  0.250000  0.751100  1
  O  O8  1  0.312260  0.250000  0.439076  1
  O  O9  1  0.687740  0.750000  0.560924  1
