# generated using pymatgen
data_CaMn7O8
_symmetry_space_group_name_H-M   'P 1'
_cell_length_a   6.43080695
_cell_length_b   6.43080695
_cell_length_c   5.56749308
_cell_angle_alpha   73.06517930
_cell_angle_beta   106.93482070
_cell_angle_gamma   120.07631247
_symmetry_Int_Tables_number   1
_chemical_formula_structural   CaMn7O8
_chemical_formula_sum   'Ca1 Mn7 O8'
_cell_volume   187.64564219
_cell_formula_units_Z   1
loop_
 _symmetry_equiv_pos_site_id
 _symmetry_equiv_pos_as_xyz
  1  'x, y, z'
loop_
 _atom_site_type_symbol
 _atom_site_label
 _atom_site_symmetry_multiplicity
 _atom_site_fract_x
 _atom_site_fract_y
 _atom_site_fract_z
 _atom_site_occupancy
  Ca  Ca0  1  1.000000  0.000000  0.500000  1
  Mn  Mn1  1  0.252742  0.252742  0.000000  1
  Mn  Mn2  1  0.749163  0.250837  0.998115  1
  Mn  Mn3  1  0.250837  0.749163  0.001885  1
  Mn  Mn4  1  1.000000  0.500000  0.500000  1
  Mn  Mn5  1  0.500000  0.000000  0.500000  1
  Mn  Mn6  1  0.747258  0.747258  0.000000  1
  Mn  Mn7  1  0.500000  0.500000  0.500000  1
  O  O8  1  0.126992  0.873008  0.242272  1
  O  O9  1  0.129647  0.384289  0.245207  1
  O  O10  1  0.615711  0.870353  0.245207  1
  O  O11  1  0.625007  0.374993  0.253620  1
  O  O12  1  0.873008  0.126992  0.757728  1
  O  O13  1  0.384289  0.129647  0.754793  1
  O  O14  1  0.870353  0.615711  0.754793  1
  O  O15  1  0.374993  0.625007  0.746380  1
