# generated using pymatgen
data_Li4Mn3V3(SbO8)2
_symmetry_space_group_name_H-M   'P 1'
_cell_length_a   5.93637020
_cell_length_b   6.06861200
_cell_length_c   9.79082308
_cell_angle_alpha   91.67736155
_cell_angle_beta   89.93457621
_cell_angle_gamma   119.28604876
_symmetry_Int_Tables_number   1
_chemical_formula_structural   Li4Mn3V3(SbO8)2
_chemical_formula_sum   'Li4 Mn3 V3 Sb2 O16'
_cell_volume   307.47096964
_cell_formula_units_Z   1
loop_
 _symmetry_equiv_pos_site_id
 _symmetry_equiv_pos_as_xyz
  1  'x, y, z'
loop_
 _atom_site_type_symbol
 _atom_site_label
 _atom_site_symmetry_multiplicity
 _atom_site_fract_x
 _atom_site_fract_y
 _atom_site_fract_z
 _atom_site_occupancy
  Li  Li0  1  0.340999  0.319302  0.902240  1
  Li  Li1  1  0.994918  0.005416  0.989032  1
  Li  Li2  1  0.992555  0.013051  0.487754  1
  Li  Li3  1  0.670683  0.662213  0.403040  1
  Mn  Mn4  1  0.165987  0.667143  0.210121  1
  Mn  Mn5  1  0.338456  0.829219  0.711963  1
  Mn  Mn6  1  0.832247  0.828920  0.711973  1
  V  V7  1  0.171759  0.174459  0.213554  1
  V  V8  1  0.649729  0.174555  0.217461  1
  V  V9  1  0.829222  0.341072  0.717175  1
  Sb  Sb10  1  0.331185  0.337377  0.488233  1
  Sb  Sb11  1  0.667641  0.661857  0.988087  1
  O  O12  1  0.159655  0.179104  0.592309  1
  O  O13  1  0.491360  0.034396  0.344901  1
  O  O14  1  0.361674  0.307725  0.106315  1
  O  O15  1  0.976244  0.027963  0.300258  1
  O  O16  1  0.000362  0.998863  0.799590  1
  O  O17  1  0.660264  0.180830  0.593321  1
  O  O18  1  0.040278  0.466619  0.348646  1
  O  O19  1  0.495751  0.466038  0.349290  1
  O  O20  1  0.826547  0.338352  0.098440  1
  O  O21  1  0.159895  0.679729  0.590241  1
  O  O22  1  0.526584  0.501363  0.852278  1
  O  O23  1  0.972054  0.499396  0.853437  1
  O  O24  1  0.668086  0.663739  0.615116  1
  O  O25  1  0.328879  0.846925  0.089697  1
  O  O26  1  0.525596  0.949292  0.842666  1
  O  O27  1  0.821088  0.845082  0.090701  1
