# generated using pymatgen
data_GeO2
_symmetry_space_group_name_H-M   'P 1'
_cell_length_a   5.08727224
_cell_length_b   5.08727224
_cell_length_c   7.29155021
_cell_angle_alpha   90.00000000
_cell_angle_beta   90.00000000
_cell_angle_gamma   90.00000000
_symmetry_Int_Tables_number   1
_chemical_formula_structural   GeO2
_chemical_formula_sum   'Ge4 O8'
_cell_volume   188.70779013
_cell_formula_units_Z   4
loop_
 _symmetry_equiv_pos_site_id
 _symmetry_equiv_pos_as_xyz
  1  'x, y, z'
loop_
 _atom_site_type_symbol
 _atom_site_label
 _atom_site_symmetry_multiplicity
 _atom_site_fract_x
 _atom_site_fract_y
 _atom_site_fract_z
 _atom_site_occupancy
  Ge  Ge0  1  0.681211  0.681211  0.500000  1
  Ge  Ge1  1  0.818789  0.181211  0.750000  1
  Ge  Ge2  1  0.181211  0.818789  0.250000  1
  Ge  Ge3  1  0.318789  0.318789  0.000000  1
  O  O4  1  0.843320  0.772049  0.295871  1
  O  O5  1  0.156680  0.227951  0.795871  1
  O  O6  1  0.772049  0.843320  0.704129  1
  O  O7  1  0.272049  0.656680  0.045871  1
  O  O8  1  0.227951  0.156680  0.204129  1
  O  O9  1  0.343320  0.727951  0.454129  1
  O  O10  1  0.656680  0.272049  0.954129  1
  O  O11  1  0.727951  0.343320  0.545871  1
