# generated using pymatgen
data_Li6MnFe5(BO3)6
_symmetry_space_group_name_H-M   'P 1'
_cell_length_a   8.25288950
_cell_length_b   3.13674132
_cell_length_c   14.26019778
_cell_angle_alpha   90.00000000
_cell_angle_beta   90.06203762
_cell_angle_gamma   90.00000000
_symmetry_Int_Tables_number   1
_chemical_formula_structural   Li6MnFe5(BO3)6
_chemical_formula_sum   'Li6 Mn1 Fe5 B6 O18'
_cell_volume   369.15608342
_cell_formula_units_Z   1
loop_
 _symmetry_equiv_pos_site_id
 _symmetry_equiv_pos_as_xyz
  1  'x, y, z'
loop_
 _atom_site_type_symbol
 _atom_site_label
 _atom_site_symmetry_multiplicity
 _atom_site_fract_x
 _atom_site_fract_y
 _atom_site_fract_z
 _atom_site_occupancy
  Li  Li0  1  0.706282  0.500000  0.009672  1
  Li  Li1  1  0.659204  0.500000  0.642513  1
  Li  Li2  1  0.633930  0.500000  0.348826  1
  Li  Li3  1  0.206666  0.500000  0.508092  1
  Li  Li4  1  0.159908  0.500000  0.142754  1
  Li  Li5  1  0.134866  0.500000  0.849251  1
  Mn  Mn6  1  0.808207  0.000000  0.820201  1
  Fe  Fe7  1  0.863119  0.000000  0.495700  1
  Fe  Fe8  1  0.824984  0.000000  0.183890  1
  Fe  Fe9  1  0.362228  0.000000  0.996163  1
  Fe  Fe10  1  0.324553  0.000000  0.683493  1
  Fe  Fe11  1  0.311516  0.000000  0.320064  1
  B  B12  1  0.000087  0.500000  0.333411  1
  B  B13  1  0.001500  0.000000  0.000219  1
  B  B14  1  0.001116  0.500000  0.665454  1
  B  B15  1  0.497692  0.500000  0.833784  1
  B  B16  1  0.500093  0.000000  0.499842  1
  B  B17  1  0.500144  0.500000  0.166660  1
  O  O18  1  0.989639  0.500000  0.568203  1
  O  O19  1  0.982490  0.500000  0.236109  1
  O  O20  1  0.863330  0.500000  0.390597  1
  O  O21  1  0.861135  0.500000  0.719330  1
  O  O22  1  0.848251  0.000000  0.041830  1
  O  O23  1  0.651403  0.500000  0.874829  1
  O  O24  1  0.652117  0.500000  0.209094  1
  O  O25  1  0.639151  0.000000  0.555134  1
  O  O26  1  0.512933  0.000000  0.402536  1
  O  O27  1  0.487537  0.500000  0.069453  1
  O  O28  1  0.482273  0.500000  0.736515  1
  O  O29  1  0.361191  0.500000  0.890813  1
  O  O30  1  0.360764  0.500000  0.221516  1
  O  O31  1  0.347963  0.000000  0.541875  1
  O  O32  1  0.154650  0.500000  0.373003  1
  O  O33  1  0.152357  0.500000  0.708817  1
  O  O34  1  0.139480  0.000000  0.056744  1
  O  O35  1  0.017236  0.000000  0.903608  1
