# generated using pymatgen
data_Li5Fe2(BO4)2
_symmetry_space_group_name_H-M   'P 1'
_cell_length_a   6.68222786
_cell_length_b   5.20760429
_cell_length_c   10.70702883
_cell_angle_alpha   90.00000000
_cell_angle_beta   97.51207532
_cell_angle_gamma   90.00000000
_symmetry_Int_Tables_number   1
_chemical_formula_structural   Li5Fe2(BO4)2
_chemical_formula_sum   'Li10 Fe4 B4 O16'
_cell_volume   369.38966042
_cell_formula_units_Z   2
loop_
 _symmetry_equiv_pos_site_id
 _symmetry_equiv_pos_as_xyz
  1  'x, y, z'
loop_
 _atom_site_type_symbol
 _atom_site_label
 _atom_site_symmetry_multiplicity
 _atom_site_fract_x
 _atom_site_fract_y
 _atom_site_fract_z
 _atom_site_occupancy
  Li  Li0  1  0.866967  0.847838  0.211376  1
  Li  Li1  1  0.866967  0.152162  0.711376  1
  Li  Li2  1  0.780303  0.080415  0.420257  1
  Li  Li3  1  0.780303  0.919585  0.920257  1
  Li  Li4  1  0.225596  0.586952  0.080802  1
  Li  Li5  1  0.225596  0.413048  0.580802  1
  Li  Li6  1  0.112383  0.156441  0.162821  1
  Li  Li7  1  0.102209  0.429379  0.314675  1
  Li  Li8  1  0.112383  0.843559  0.662821  1
  Li  Li9  1  0.102209  0.570621  0.814675  1
  Fe  Fe10  1  0.509451  0.102264  0.139874  1
  Fe  Fe11  1  0.500844  0.597195  0.345174  1
  Fe  Fe12  1  0.509451  0.897736  0.639874  1
  Fe  Fe13  1  0.500844  0.402805  0.845174  1
  B  B14  1  0.814796  0.413352  0.061867  1
  B  B15  1  0.814796  0.586648  0.561867  1
  B  B16  1  0.186304  0.934995  0.430475  1
  B  B17  1  0.186304  0.065005  0.930475  1
  O  O18  1  0.960758  0.521967  0.147859  1
  O  O19  1  0.960758  0.478033  0.647859  1
  O  O20  1  0.780077  0.146504  0.070776  1
  O  O21  1  0.709316  0.439627  0.465799  1
  O  O22  1  0.780077  0.853496  0.570776  1
  O  O23  1  0.624176  0.882459  0.286237  1
  O  O24  1  0.709316  0.560373  0.965799  1
  O  O25  1  0.624176  0.117541  0.786237  1
  O  O26  1  0.366185  0.386636  0.218783  1
  O  O27  1  0.250621  0.942459  0.044011  1
  O  O28  1  0.366185  0.613364  0.718783  1
  O  O29  1  0.252297  0.676862  0.422729  1
  O  O30  1  0.250621  0.057541  0.544011  1
  O  O31  1  0.252297  0.323138  0.922729  1
  O  O32  1  0.058594  0.050143  0.336240  1
  O  O33  1  0.058594  0.949857  0.836240  1
