# generated using pymatgen
data_Li2V2OF6
_symmetry_space_group_name_H-M   'P 1'
_cell_length_a   6.43781774
_cell_length_b   6.66016512
_cell_length_c   7.54799196
_cell_angle_alpha   112.27484959
_cell_angle_beta   96.79666571
_cell_angle_gamma   107.97851436
_symmetry_Int_Tables_number   1
_chemical_formula_structural   Li2V2OF6
_chemical_formula_sum   'Li4 V4 O2 F12'
_cell_volume   274.48948689
_cell_formula_units_Z   2
loop_
 _symmetry_equiv_pos_site_id
 _symmetry_equiv_pos_as_xyz
  1  'x, y, z'
loop_
 _atom_site_type_symbol
 _atom_site_label
 _atom_site_symmetry_multiplicity
 _atom_site_fract_x
 _atom_site_fract_y
 _atom_site_fract_z
 _atom_site_occupancy
  Li  Li0  1  0.334460  0.648956  0.117827  1
  Li  Li1  1  0.087450  0.350996  0.814622  1
  Li  Li2  1  0.912550  0.649004  0.185378  1
  Li  Li3  1  0.665540  0.351044  0.882173  1
  V  V4  1  0.203633  0.147821  0.568157  1
  V  V5  1  0.336188  0.066046  0.270044  1
  V  V6  1  0.663812  0.933954  0.729956  1
  V  V7  1  0.796367  0.852179  0.431843  1
  O  O8  1  0.099899  0.983068  0.388788  1
  O  O9  1  0.900101  0.016932  0.611212  1
  F  F10  1  0.116556  0.430678  0.337141  1
  F  F11  1  0.331261  0.308559  0.746055  1
  F  F12  1  0.363430  0.875631  0.794633  1
  F  F13  1  0.269178  0.367066  0.062839  1
  F  F14  1  0.191658  0.876751  0.112638  1
  F  F15  1  0.504875  0.208695  0.492045  1
  F  F16  1  0.495125  0.791305  0.507955  1
  F  F17  1  0.808342  0.123249  0.887362  1
  F  F18  1  0.730822  0.632934  0.937161  1
  F  F19  1  0.636570  0.124369  0.205367  1
  F  F20  1  0.668739  0.691441  0.253945  1
  F  F21  1  0.883444  0.569322  0.662859  1
