# generated using pymatgen
data_Li4Nb2Cr3Fe3O16
_symmetry_space_group_name_H-M   'P 1'
_cell_length_a   5.99735072
_cell_length_b   5.99735072
_cell_length_c   9.70454633
_cell_angle_alpha   89.50973344
_cell_angle_beta   90.49026656
_cell_angle_gamma   120.04751645
_symmetry_Int_Tables_number   1
_chemical_formula_structural   Li4Nb2Cr3Fe3O16
_chemical_formula_sum   'Li4 Nb2 Cr3 Fe3 O16'
_cell_volume   302.13109926
_cell_formula_units_Z   1
loop_
 _symmetry_equiv_pos_site_id
 _symmetry_equiv_pos_as_xyz
  1  'x, y, z'
loop_
 _atom_site_type_symbol
 _atom_site_label
 _atom_site_symmetry_multiplicity
 _atom_site_fract_x
 _atom_site_fract_y
 _atom_site_fract_z
 _atom_site_occupancy
  Li  Li0  1  0.333777  0.666223  0.096999  1
  Li  Li1  1  0.999877  0.000123  0.008639  1
  Li  Li2  1  0.999614  0.000386  0.508714  1
  Li  Li3  1  0.667136  0.332864  0.599502  1
  Nb  Nb4  1  0.334446  0.665554  0.507654  1
  Nb  Nb5  1  0.668235  0.331765  0.005398  1
  Cr  Cr6  1  0.169919  0.340671  0.785627  1
  Cr  Cr7  1  0.659329  0.830081  0.785627  1
  Cr  Cr8  1  0.829145  0.170855  0.286384  1
  Fe  Fe9  1  0.170918  0.829082  0.780949  1
  Fe  Fe10  1  0.342001  0.171647  0.282204  1
  Fe  Fe11  1  0.828353  0.657999  0.282204  1
  O  O12  1  0.164937  0.335132  0.407109  1
  O  O13  1  0.480062  0.519938  0.661051  1
  O  O14  1  0.331019  0.668981  0.891402  1
  O  O15  1  0.000726  0.999274  0.694190  1
  O  O16  1  0.000045  0.999955  0.195021  1
  O  O17  1  0.664868  0.835063  0.407109  1
  O  O18  1  0.037974  0.515672  0.657027  1
  O  O19  1  0.484328  0.962026  0.657027  1
  O  O20  1  0.833146  0.166854  0.904720  1
  O  O21  1  0.167610  0.832390  0.410493  1
  O  O22  1  0.521954  0.038415  0.157439  1
  O  O23  1  0.961585  0.478046  0.157439  1
  O  O24  1  0.664501  0.335499  0.392203  1
  O  O25  1  0.335056  0.170068  0.908068  1
  O  O26  1  0.518868  0.481132  0.153920  1
  O  O27  1  0.829932  0.664944  0.908068  1
