# generated using pymatgen
data_Li2VOF5
_symmetry_space_group_name_H-M   'P 1'
_cell_length_a   5.09713957
_cell_length_b   5.29367231
_cell_length_c   9.00672970
_cell_angle_alpha   90.00000000
_cell_angle_beta   122.66134713
_cell_angle_gamma   90.00000000
_symmetry_Int_Tables_number   1
_chemical_formula_structural   Li2VOF5
_chemical_formula_sum   'Li4 V2 O2 F10'
_cell_volume   204.59656876
_cell_formula_units_Z   2
loop_
 _symmetry_equiv_pos_site_id
 _symmetry_equiv_pos_as_xyz
  1  'x, y, z'
loop_
 _atom_site_type_symbol
 _atom_site_label
 _atom_site_symmetry_multiplicity
 _atom_site_fract_x
 _atom_site_fract_y
 _atom_site_fract_z
 _atom_site_occupancy
  Li  Li0  1  0.742008  0.813479  0.752838  1
  Li  Li1  1  0.512592  0.754455  0.002151  1
  Li  Li2  1  0.742008  0.186521  0.252838  1
  Li  Li3  1  0.512592  0.245545  0.502151  1
  V  V4  1  0.026647  0.735972  0.502699  1
  V  V5  1  0.026647  0.264028  0.002699  1
  O  O6  1  0.344791  0.583191  0.553851  1
  O  O7  1  0.344791  0.416809  0.053851  1
  F  F8  1  0.080664  0.295879  0.225477  1
  F  F9  1  0.760900  0.546786  0.920978  1
  F  F10  1  0.657221  0.055166  0.951281  1
  F  F11  1  0.227773  0.048244  0.561978  1
  F  F12  1  0.874032  0.814436  0.267415  1
  F  F13  1  0.080664  0.704121  0.725477  1
  F  F14  1  0.760900  0.453214  0.420978  1
  F  F15  1  0.657221  0.944834  0.451281  1
  F  F16  1  0.227773  0.951756  0.061978  1
  F  F17  1  0.874032  0.185564  0.767415  1
