# generated using pymatgen
data_Li3MnV2O6
_symmetry_space_group_name_H-M   'P 1'
_cell_length_a   6.87053380
_cell_length_b   6.87053380
_cell_length_c   5.93622765
_cell_angle_alpha   78.26738116
_cell_angle_beta   101.73261884
_cell_angle_gamma   155.24295893
_symmetry_Int_Tables_number   1
_chemical_formula_structural   Li3MnV2O6
_chemical_formula_sum   'Li3 Mn1 V2 O6'
_cell_volume   114.77494398
_cell_formula_units_Z   1
loop_
 _symmetry_equiv_pos_site_id
 _symmetry_equiv_pos_as_xyz
  1  'x, y, z'
loop_
 _atom_site_type_symbol
 _atom_site_label
 _atom_site_symmetry_multiplicity
 _atom_site_fract_x
 _atom_site_fract_y
 _atom_site_fract_z
 _atom_site_occupancy
  Li  Li0  1  0.500000  0.500000  0.500000  1
  Li  Li1  1  0.171368  0.828632  0.840802  1
  Li  Li2  1  0.828632  0.171368  0.159198  1
  Mn  Mn3  1  0.500000  0.500000  0.000000  1
  V  V4  1  0.168865  0.831135  0.331698  1
  V  V5  1  0.831135  0.168865  0.668302  1
  O  O6  1  0.668220  0.331780  0.097918  1
  O  O7  1  0.328745  0.671255  0.428171  1
  O  O8  1  0.331780  0.668220  0.902082  1
  O  O9  1  0.989934  0.010066  0.765633  1
  O  O10  1  0.010066  0.989934  0.234367  1
  O  O11  1  0.671255  0.328745  0.571829  1
