# generated using pymatgen
data_BaRe2(H2O3)4
_symmetry_space_group_name_H-M   'P 1'
_cell_length_a   7.49871423
_cell_length_b   12.65177343
_cell_length_c   14.39722140
_cell_angle_alpha   90.00000000
_cell_angle_beta   119.85374860
_cell_angle_gamma   90.00000000
_symmetry_Int_Tables_number   1
_chemical_formula_structural   BaRe2(H2O3)4
_chemical_formula_sum   'Ba4 Re8 H32 O48'
_cell_volume   1184.63802977
_cell_formula_units_Z   4
loop_
 _symmetry_equiv_pos_site_id
 _symmetry_equiv_pos_as_xyz
  1  'x, y, z'
loop_
 _atom_site_type_symbol
 _atom_site_label
 _atom_site_symmetry_multiplicity
 _atom_site_fract_x
 _atom_site_fract_y
 _atom_site_fract_z
 _atom_site_occupancy
  Ba  Ba0  1  0.178418  0.750186  0.930358  1
  Ba  Ba1  1  0.178418  0.749814  0.430358  1
  Ba  Ba2  1  0.821582  0.249814  0.069642  1
  Ba  Ba3  1  0.821582  0.250186  0.569642  1
  Re  Re4  1  0.836429  0.885894  0.591937  1
  Re  Re5  1  0.836429  0.614106  0.091937  1
  Re  Re6  1  0.163571  0.114106  0.408063  1
  Re  Re7  1  0.163571  0.385894  0.908063  1
  Re  Re8  1  0.713674  0.572519  0.462362  1
  Re  Re9  1  0.713674  0.927481  0.962362  1
  Re  Re10  1  0.286326  0.427481  0.537638  1
  Re  Re11  1  0.286326  0.072519  0.037638  1
  H  H12  1  0.311073  0.593623  0.781656  1
  H  H13  1  0.311073  0.906377  0.281656  1
  H  H14  1  0.688927  0.406377  0.218344  1
  H  H15  1  0.688927  0.093623  0.718344  1
  H  H16  1  0.104113  0.645978  0.698105  1
  H  H17  1  0.104113  0.854022  0.198105  1
  H  H18  1  0.895887  0.354022  0.301895  1
  H  H19  1  0.895887  0.145978  0.801895  1
  H  H20  1  0.806836  0.613231  0.714535  1
  H  H21  1  0.806836  0.886769  0.214535  1
  H  H22  1  0.193164  0.386769  0.285465  1
  H  H23  1  0.193164  0.113231  0.785465  1
  H  H24  1  0.691592  0.698321  0.742233  1
  H  H25  1  0.691592  0.801679  0.242233  1
  H  H26  1  0.308408  0.301679  0.257767  1
  H  H27  1  0.308408  0.198321  0.757767  1
  H  H28  1  0.363353  0.775700  0.199390  1
  H  H29  1  0.363353  0.724300  0.699390  1
  H  H30  1  0.636647  0.224300  0.800610  1
  H  H31  1  0.636647  0.275700  0.300610  1
  H  H32  1  0.440179  0.665462  0.186419  1
  H  H33  1  0.440179  0.834538  0.686419  1
  H  H34  1  0.559821  0.334538  0.813581  1
  H  H35  1  0.559821  0.165462  0.313581  1
  H  H36  1  0.390027  0.508231  0.103542  1
  H  H37  1  0.390027  0.991769  0.603542  1
  H  H38  1  0.609973  0.491769  0.896458  1
  H  H39  1  0.609973  0.008231  0.396458  1
  H  H40  1  0.363177  0.457445  0.194473  1
  H  H41  1  0.363177  0.042555  0.694473  1
  H  H42  1  0.636823  0.542555  0.805527  1
  H  H43  1  0.636823  0.957445  0.305527  1
  O  O44  1  0.951053  0.861723  0.729610  1
  O  O45  1  0.951053  0.638277  0.229610  1
  O  O46  1  0.048947  0.138277  0.270390  1
  O  O47  1  0.048947  0.361723  0.770390  1
  O  O48  1  0.609097  0.812544  0.523323  1
  O  O49  1  0.609097  0.687456  0.023323  1
  O  O50  1  0.390903  0.187456  0.476677  1
  O  O51  1  0.390903  0.312544  0.976677  1
  O  O52  1  0.774658  0.020766  0.562334  1
  O  O53  1  0.774658  0.479234  0.062334  1
  O  O54  1  0.225342  0.979234  0.437666  1
  O  O55  1  0.225342  0.520766  0.937666  1
  O  O56  1  0.003488  0.847365  0.545789  1
  O  O57  1  0.003488  0.652635  0.045789  1
  O  O58  1  0.996512  0.152635  0.454211  1
  O  O59  1  0.996512  0.347365  0.954211  1
  O  O60  1  0.449891  0.597833  0.409974  1
  O  O61  1  0.449891  0.902167  0.909974  1
  O  O62  1  0.550109  0.402167  0.590026  1
  O  O63  1  0.550109  0.097833  0.090026  1
  O  O64  1  0.808774  0.650318  0.396617  1
  O  O65  1  0.808774  0.849682  0.896617  1
  O  O66  1  0.191226  0.349682  0.603383  1
  O  O67  1  0.191226  0.150318  0.103383  1
  O  O68  1  0.750646  0.438462  0.444942  1
  O  O69  1  0.750646  0.061538  0.944942  1
  O  O70  1  0.249354  0.561538  0.555058  1
  O  O71  1  0.249354  0.938462  0.055058  1
  O  O72  1  0.848548  0.602024  0.600014  1
  O  O73  1  0.848548  0.897976  0.100014  1
  O  O74  1  0.151452  0.397976  0.399986  1
  O  O75  1  0.151452  0.102024  0.899986  1
  O  O76  1  0.236682  0.661821  0.763020  1
  O  O77  1  0.236682  0.838179  0.263020  1
  O  O78  1  0.763318  0.338179  0.236980  1
  O  O79  1  0.763318  0.161821  0.736980  1
  O  O80  1  0.796127  0.641278  0.775608  1
  O  O81  1  0.796127  0.858722  0.275608  1
  O  O82  1  0.203873  0.358722  0.224392  1
  O  O83  1  0.203873  0.141278  0.724392  1
  O  O84  1  0.432874  0.739647  0.164542  1
  O  O85  1  0.432874  0.760353  0.664542  1
  O  O86  1  0.567126  0.260353  0.835458  1
  O  O87  1  0.567126  0.239647  0.335458  1
  O  O88  1  0.457001  0.503175  0.181761  1
  O  O89  1  0.457001  0.996825  0.681761  1
  O  O90  1  0.542999  0.496825  0.818239  1
  O  O91  1  0.542999  0.003175  0.318239  1
