# generated using pymatgen
data_CoSnO3
_symmetry_space_group_name_H-M   'P 1'
_cell_length_a   5.39492197
_cell_length_b   5.42276583
_cell_length_c   7.81052971
_cell_angle_alpha   90.00000000
_cell_angle_beta   90.00000000
_cell_angle_gamma   90.00000000
_symmetry_Int_Tables_number   1
_chemical_formula_structural   CoSnO3
_chemical_formula_sum   'Co4 Sn4 O12'
_cell_volume   228.50015947
_cell_formula_units_Z   4
loop_
 _symmetry_equiv_pos_site_id
 _symmetry_equiv_pos_as_xyz
  1  'x, y, z'
loop_
 _atom_site_type_symbol
 _atom_site_label
 _atom_site_symmetry_multiplicity
 _atom_site_fract_x
 _atom_site_fract_y
 _atom_site_fract_z
 _atom_site_occupancy
  Co  Co0  1  0.027422  0.013487  0.750000  1
  Co  Co1  1  0.527422  0.486513  0.750000  1
  Co  Co2  1  0.472578  0.513487  0.250000  1
  Co  Co3  1  0.972578  0.986513  0.250000  1
  Sn  Sn4  1  0.500000  0.000000  0.000000  1
  Sn  Sn5  1  0.500000  0.000000  0.500000  1
  Sn  Sn6  1  0.000000  0.500000  0.000000  1
  Sn  Sn7  1  0.000000  0.500000  0.500000  1
  O  O8  1  0.593919  0.875068  0.250000  1
  O  O9  1  0.831827  0.834778  0.566755  1
  O  O10  1  0.831827  0.834778  0.933245  1
  O  O11  1  0.331827  0.665222  0.566755  1
  O  O12  1  0.331827  0.665222  0.933245  1
  O  O13  1  0.093919  0.624932  0.250000  1
  O  O14  1  0.906081  0.375068  0.750000  1
  O  O15  1  0.668173  0.334778  0.066755  1
  O  O16  1  0.668173  0.334778  0.433245  1
  O  O17  1  0.168173  0.165222  0.066755  1
  O  O18  1  0.168173  0.165222  0.433245  1
  O  O19  1  0.406081  0.124932  0.750000  1
