# generated using pymatgen
data_H13ClO6
_symmetry_space_group_name_H-M   'P 1'
_cell_length_a   6.38380009
_cell_length_b   6.53489351
_cell_length_c   18.04711149
_cell_angle_alpha   90.00000000
_cell_angle_beta   90.00000000
_cell_angle_gamma   90.00000000
_symmetry_Int_Tables_number   1
_chemical_formula_structural   H13ClO6
_chemical_formula_sum   'H52 Cl4 O24'
_cell_volume   752.87953940
_cell_formula_units_Z   4
loop_
 _symmetry_equiv_pos_site_id
 _symmetry_equiv_pos_as_xyz
  1  'x, y, z'
loop_
 _atom_site_type_symbol
 _atom_site_label
 _atom_site_symmetry_multiplicity
 _atom_site_fract_x
 _atom_site_fract_y
 _atom_site_fract_z
 _atom_site_occupancy
  H  H0  1  0.100963  0.517872  0.705632  1
  H  H1  1  0.899037  0.482128  0.205632  1
  H  H2  1  0.100963  0.982128  0.294368  1
  H  H3  1  0.899037  0.017872  0.794368  1
  H  H4  1  0.899037  0.482128  0.294368  1
  H  H5  1  0.100963  0.517872  0.794368  1
  H  H6  1  0.899037  0.017872  0.705632  1
  H  H7  1  0.100963  0.982128  0.205632  1
  H  H8  1  0.275334  0.287975  0.750000  1
  H  H9  1  0.724666  0.712025  0.250000  1
  H  H10  1  0.275334  0.212025  0.250000  1
  H  H11  1  0.724666  0.787975  0.750000  1
  H  H12  1  0.398126  0.093325  0.702295  1
  H  H13  1  0.601874  0.906675  0.202295  1
  H  H14  1  0.398126  0.406675  0.297705  1
  H  H15  1  0.601874  0.593325  0.797705  1
  H  H16  1  0.601874  0.906675  0.297705  1
  H  H17  1  0.398126  0.093325  0.797705  1
  H  H18  1  0.601874  0.593325  0.702295  1
  H  H19  1  0.398126  0.406675  0.202295  1
  H  H20  1  0.622893  0.558414  0.589371  1
  H  H21  1  0.377107  0.441586  0.089371  1
  H  H22  1  0.622893  0.941586  0.410629  1
  H  H23  1  0.377107  0.058414  0.910629  1
  H  H24  1  0.377107  0.441586  0.410629  1
  H  H25  1  0.622893  0.558414  0.910629  1
  H  H26  1  0.377107  0.058414  0.589371  1
  H  H27  1  0.622893  0.941586  0.089371  1
  H  H28  1  0.682447  0.350616  0.629611  1
  H  H29  1  0.317553  0.649384  0.129611  1
  H  H30  1  0.682447  0.149384  0.370389  1
  H  H31  1  0.317553  0.850616  0.870389  1
  H  H32  1  0.317553  0.649384  0.370389  1
  H  H33  1  0.682447  0.350616  0.870389  1
  H  H34  1  0.317553  0.850616  0.629611  1
  H  H35  1  0.682447  0.149384  0.129611  1
  H  H36  1  0.963118  0.181609  0.582114  1
  H  H37  1  0.036882  0.818391  0.082114  1
  H  H38  1  0.963118  0.318391  0.417886  1
  H  H39  1  0.036882  0.681609  0.917886  1
  H  H40  1  0.036882  0.818391  0.417886  1
  H  H41  1  0.963118  0.181609  0.917886  1
  H  H42  1  0.036882  0.681609  0.582114  1
  H  H43  1  0.963118  0.318391  0.082114  1
  H  H44  1  0.772717  0.032748  0.589012  1
  H  H45  1  0.227283  0.967252  0.089012  1
  H  H46  1  0.772717  0.467252  0.410988  1
  H  H47  1  0.227283  0.532748  0.910988  1
  H  H48  1  0.227283  0.967252  0.410988  1
  H  H49  1  0.772717  0.032748  0.910988  1
  H  H50  1  0.227283  0.532748  0.589012  1
  H  H51  1  0.772717  0.467252  0.089012  1
  Cl  Cl52  1  0.227810  0.250000  0.500000  1
  Cl  Cl53  1  0.772190  0.750000  0.000000  1
  Cl  Cl54  1  0.772190  0.750000  0.500000  1
  Cl  Cl55  1  0.227810  0.250000  0.000000  1
  O  O56  1  0.094983  0.428737  0.750000  1
  O  O57  1  0.905017  0.571263  0.250000  1
  O  O58  1  0.094983  0.071263  0.250000  1
  O  O59  1  0.905017  0.928737  0.750000  1
  O  O60  1  0.400785  0.183723  0.750000  1
  O  O61  1  0.599215  0.816277  0.250000  1
  O  O62  1  0.400785  0.316277  0.250000  1
  O  O63  1  0.599215  0.683723  0.750000  1
  O  O64  1  0.411378  0.973091  0.867313  1
  O  O65  1  0.588622  0.026909  0.367313  1
  O  O66  1  0.411378  0.526909  0.132687  1
  O  O67  1  0.588622  0.473091  0.632687  1
  O  O68  1  0.588622  0.026909  0.132687  1
  O  O69  1  0.411378  0.973091  0.632687  1
  O  O70  1  0.588622  0.473091  0.867313  1
  O  O71  1  0.411378  0.526909  0.367313  1
  O  O72  1  0.151834  0.641111  0.884091  1
  O  O73  1  0.848166  0.358889  0.384091  1
  O  O74  1  0.151834  0.858889  0.115909  1
  O  O75  1  0.848166  0.141111  0.615909  1
  O  O76  1  0.848166  0.358889  0.115909  1
  O  O77  1  0.151834  0.641111  0.615909  1
  O  O78  1  0.848166  0.141111  0.884091  1
  O  O79  1  0.151834  0.858889  0.384091  1
