# generated using pymatgen
data_Li4Co5SbO12
_symmetry_space_group_name_H-M   'P 1'
_cell_length_a   5.01212878
_cell_length_b   5.01212878
_cell_length_c   9.88437608
_cell_angle_alpha   87.72992242
_cell_angle_beta   92.27007758
_cell_angle_gamma   59.72967817
_symmetry_Int_Tables_number   1
_chemical_formula_structural   Li4Co5SbO12
_chemical_formula_sum   'Li4 Co5 Sb1 O12'
_cell_volume   213.77481354
_cell_formula_units_Z   1
loop_
 _symmetry_equiv_pos_site_id
 _symmetry_equiv_pos_as_xyz
  1  'x, y, z'
loop_
 _atom_site_type_symbol
 _atom_site_label
 _atom_site_symmetry_multiplicity
 _atom_site_fract_x
 _atom_site_fract_y
 _atom_site_fract_z
 _atom_site_occupancy
  Li  Li0  1  0.468422  0.197283  0.283406  1
  Li  Li1  1  0.197283  0.468422  0.716594  1
  Li  Li2  1  0.802717  0.531578  0.283406  1
  Li  Li3  1  0.531578  0.802717  0.716594  1
  Co  Co4  1  0.164712  0.164712  0.500000  1
  Co  Co5  1  0.666120  0.666120  0.000000  1
  Co  Co6  1  0.333880  0.333880  0.000000  1
  Co  Co7  1  0.835288  0.835288  0.500000  1
  Co  Co8  1  0.500000  0.500000  0.500000  1
  Sb  Sb9  1  0.000000  0.000000  0.000000  1
  O  O10  1  0.329976  0.015901  0.895661  1
  O  O11  1  0.015901  0.329976  0.104339  1
  O  O12  1  0.509066  0.151018  0.602248  1
  O  O13  1  0.848982  0.490934  0.602248  1
  O  O14  1  0.151018  0.509066  0.397752  1
  O  O15  1  0.810764  0.189236  0.396475  1
  O  O16  1  0.490934  0.848982  0.397752  1
  O  O17  1  0.984099  0.670025  0.895661  1
  O  O18  1  0.634944  0.365056  0.896642  1
  O  O19  1  0.670025  0.984099  0.104339  1
  O  O20  1  0.365056  0.634944  0.103358  1
  O  O21  1  0.189236  0.810764  0.603525  1
