# generated using pymatgen
data_Li11V6O5F19
_symmetry_space_group_name_H-M   'P 1'
_cell_length_a   5.13056402
_cell_length_b   5.46044414
_cell_length_c   16.20455721
_cell_angle_alpha   98.98120791
_cell_angle_beta   90.06980347
_cell_angle_gamma   91.47255472
_symmetry_Int_Tables_number   1
_chemical_formula_structural   Li11V6O5F19
_chemical_formula_sum   'Li11 V6 O5 F19'
_cell_volume   448.25296337
_cell_formula_units_Z   1
loop_
 _symmetry_equiv_pos_site_id
 _symmetry_equiv_pos_as_xyz
  1  'x, y, z'
loop_
 _atom_site_type_symbol
 _atom_site_label
 _atom_site_symmetry_multiplicity
 _atom_site_fract_x
 _atom_site_fract_y
 _atom_site_fract_z
 _atom_site_occupancy
  Li  Li0  1  0.491024  0.240420  0.558673  1
  Li  Li1  1  0.002495  0.398000  0.899297  1
  Li  Li2  1  0.514255  0.280234  0.795376  1
  Li  Li3  1  0.988242  0.090965  0.228778  1
  Li  Li4  1  0.490499  0.118162  0.109663  1
  Li  Li5  1  0.001290  0.249178  0.431447  1
  Li  Li6  1  0.002214  0.715709  0.556325  1
  Li  Li7  1  0.501603  0.856566  0.886422  1
  Li  Li8  1  0.010605  0.580201  0.100522  1
  Li  Li9  1  0.501052  0.549439  0.221974  1
  Li  Li10  1  0.491968  0.795614  0.441805  1
  V  V11  1  0.987383  0.351317  0.666407  1
  V  V12  1  0.498784  0.168218  0.334843  1
  V  V13  1  0.518271  0.817353  0.664092  1
  V  V14  1  0.504415  0.491122  0.001971  1
  V  V15  1  0.004554  0.992085  0.001032  1
  V  V16  1  0.000375  0.666930  0.333485  1
  O  O17  1  0.805748  0.352911  0.306607  1
  O  O18  1  0.694494  0.517259  0.629545  1
  O  O19  1  0.809244  0.677579  0.972165  1
  O  O20  1  0.203020  0.305268  0.035179  1
  O  O21  1  0.199658  0.976531  0.365929  1
  F  F22  1  0.824685  0.008935  0.621553  1
  F  F23  1  0.689148  0.165065  0.953536  1
  F  F24  1  0.326543  0.176181  0.689492  1
  F  F25  1  0.644217  0.150551  0.450797  1
  F  F26  1  0.872495  0.358959  0.781684  1
  F  F27  1  0.351605  0.190022  0.220472  1
  F  F28  1  0.851565  0.005468  0.118069  1
  F  F29  1  0.137064  0.346990  0.548882  1
  F  F30  1  0.364810  0.501471  0.884236  1
  F  F31  1  0.310832  0.492730  0.382592  1
  F  F32  1  0.182422  0.670872  0.697669  1
  F  F33  1  0.850342  0.682631  0.449488  1
  F  F34  1  0.142759  0.655726  0.217466  1
  F  F35  1  0.654508  0.474043  0.116600  1
  F  F36  1  0.602931  0.918956  0.779948  1
  F  F37  1  0.158954  0.994240  0.890951  1
  F  F38  1  0.360137  0.847800  0.553389  1
  F  F39  1  0.683309  0.839305  0.288319  1
  F  F40  1  0.314591  0.815815  0.049588  1
