# generated using pymatgen
data_LiAlVO4
_symmetry_space_group_name_H-M   'P 1'
_cell_length_a   5.21897861
_cell_length_b   5.79362408
_cell_length_c   7.63284337
_cell_angle_alpha   100.87018806
_cell_angle_beta   107.94901983
_cell_angle_gamma   91.08654976
_symmetry_Int_Tables_number   1
_chemical_formula_structural   LiAlVO4
_chemical_formula_sum   'Li3 Al3 V3 O12'
_cell_volume   214.88566796
_cell_formula_units_Z   3
loop_
 _symmetry_equiv_pos_site_id
 _symmetry_equiv_pos_as_xyz
  1  'x, y, z'
loop_
 _atom_site_type_symbol
 _atom_site_label
 _atom_site_symmetry_multiplicity
 _atom_site_fract_x
 _atom_site_fract_y
 _atom_site_fract_z
 _atom_site_occupancy
  Li  Li0  1  0.003169  0.512584  0.998095  1
  Li  Li1  1  0.999990  0.350650  0.344762  1
  Li  Li2  1  0.987158  0.158478  0.663603  1
  Al  Al3  1  0.521027  0.581686  0.341736  1
  Al  Al4  1  0.506124  0.415593  0.666124  1
  Al  Al5  1  0.508327  0.253500  0.996737  1
  V  V6  1  0.510985  0.748365  0.003401  1
  V  V7  1  0.467184  0.081503  0.323352  1
  V  V8  1  0.490785  0.909473  0.666010  1
  O  O9  1  0.693781  0.044079  0.147868  1
  O  O10  1  0.713169  0.530699  0.160516  1
  O  O11  1  0.693695  0.886880  0.489584  1
  O  O12  1  0.709421  0.364824  0.486694  1
  O  O13  1  0.707365  0.700452  0.822962  1
  O  O14  1  0.706808  0.222155  0.820491  1
  O  O15  1  0.294465  0.297086  0.180571  1
  O  O16  1  0.302320  0.769671  0.179570  1
  O  O17  1  0.313890  0.610401  0.509831  1
  O  O18  1  0.277724  0.140409  0.512818  1
  O  O19  1  0.297140  0.456992  0.852280  1
  O  O20  1  0.298619  0.971439  0.838083  1
