# generated using pymatgen
data_LiPW4O13
_symmetry_space_group_name_H-M   'P 1'
_cell_length_a   10.05416401
_cell_length_b   10.17700256
_cell_length_c   10.47855714
_cell_angle_alpha   90.00000000
_cell_angle_beta   90.00000000
_cell_angle_gamma   90.00000000
_symmetry_Int_Tables_number   1
_chemical_formula_structural   LiPW4O13
_chemical_formula_sum   'Li4 P4 W16 O52'
_cell_volume   1072.17909482
_cell_formula_units_Z   4
loop_
 _symmetry_equiv_pos_site_id
 _symmetry_equiv_pos_as_xyz
  1  'x, y, z'
loop_
 _atom_site_type_symbol
 _atom_site_label
 _atom_site_symmetry_multiplicity
 _atom_site_fract_x
 _atom_site_fract_y
 _atom_site_fract_z
 _atom_site_occupancy
  Li  Li0  1  0.551990  0.260364  0.500000  1
  Li  Li1  1  0.048281  0.296833  0.000000  1
  Li  Li2  1  0.448010  0.760364  0.500000  1
  Li  Li3  1  0.951719  0.796833  0.000000  1
  P  P4  1  0.824752  0.250371  0.500000  1
  P  P5  1  0.323214  0.253664  0.000000  1
  P  P6  1  0.175248  0.750371  0.500000  1
  P  P7  1  0.676786  0.753664  0.000000  1
  W  W8  1  0.000661  0.000707  0.337782  1
  W  W9  1  0.000661  0.000707  0.662218  1
  W  W10  1  0.785834  0.248291  0.824102  1
  W  W11  1  0.785834  0.248291  0.175898  1
  W  W12  1  0.285356  0.252175  0.323637  1
  W  W13  1  0.285356  0.252175  0.676363  1
  W  W14  1  0.502376  0.500390  0.837984  1
  W  W15  1  0.502376  0.500390  0.162016  1
  W  W16  1  0.999339  0.500707  0.337782  1
  W  W17  1  0.999339  0.500707  0.662218  1
  W  W18  1  0.214166  0.748291  0.824102  1
  W  W19  1  0.214166  0.748291  0.175898  1
  W  W20  1  0.714644  0.752175  0.323637  1
  W  W21  1  0.714644  0.752175  0.676363  1
  W  W22  1  0.497624  0.000390  0.837984  1
  W  W23  1  0.497624  0.000390  0.162016  1
  O  O24  1  0.650117  0.115556  0.853658  1
  O  O25  1  0.650117  0.115556  0.146342  1
  O  O26  1  0.151259  0.111792  0.351878  1
  O  O27  1  0.151259  0.111792  0.648122  1
  O  O28  1  0.916239  0.123345  0.500000  1
  O  O29  1  0.412170  0.125192  0.000000  1
  O  O30  1  0.913279  0.108761  0.786567  1
  O  O31  1  0.913279  0.108761  0.213433  1
  O  O32  1  0.412490  0.115681  0.716273  1
  O  O33  1  0.412490  0.115681  0.283727  1
  O  O34  1  0.732732  0.250867  0.381844  1
  O  O35  1  0.732732  0.250867  0.618156  1
  O  O36  1  0.856003  0.250778  0.000000  1
  O  O37  1  0.354841  0.251305  0.500000  1
  O  O38  1  0.231422  0.257342  0.881675  1
  O  O39  1  0.231422  0.257342  0.118325  1
  O  O40  1  0.912524  0.383828  0.784597  1
  O  O41  1  0.912524  0.383828  0.215403  1
  O  O42  1  0.411939  0.390620  0.285805  1
  O  O43  1  0.411939  0.390620  0.714195  1
  O  O44  1  0.914104  0.378436  0.500000  1
  O  O45  1  0.415549  0.380490  0.000000  1
  O  O46  1  0.649171  0.390022  0.854430  1
  O  O47  1  0.649171  0.390022  0.145570  1
  O  O48  1  0.148706  0.387904  0.355886  1
  O  O49  1  0.148706  0.387904  0.644114  1
  O  O50  1  0.349883  0.615556  0.853658  1
  O  O51  1  0.349883  0.615556  0.146342  1
  O  O52  1  0.848741  0.611792  0.351878  1
  O  O53  1  0.848741  0.611792  0.648122  1
  O  O54  1  0.083761  0.623345  0.500000  1
  O  O55  1  0.587830  0.625192  0.000000  1
  O  O56  1  0.086721  0.608761  0.786567  1
  O  O57  1  0.086721  0.608761  0.213433  1
  O  O58  1  0.587510  0.615681  0.716273  1
  O  O59  1  0.587510  0.615681  0.283727  1
  O  O60  1  0.267268  0.750867  0.618156  1
  O  O61  1  0.267268  0.750867  0.381844  1
  O  O62  1  0.143997  0.750778  0.000000  1
  O  O63  1  0.645159  0.751305  0.500000  1
  O  O64  1  0.768578  0.757342  0.881675  1
  O  O65  1  0.768578  0.757342  0.118325  1
  O  O66  1  0.087476  0.883828  0.784597  1
  O  O67  1  0.087476  0.883828  0.215403  1
  O  O68  1  0.588061  0.890620  0.285805  1
  O  O69  1  0.588061  0.890620  0.714195  1
  O  O70  1  0.085896  0.878436  0.500000  1
  O  O71  1  0.584451  0.880490  0.000000  1
  O  O72  1  0.350829  0.890022  0.854430  1
  O  O73  1  0.350829  0.890022  0.145570  1
  O  O74  1  0.851294  0.887904  0.644114  1
  O  O75  1  0.851294  0.887904  0.355886  1
