# generated using pymatgen
data_Li2VCr(P2O7)2
_symmetry_space_group_name_H-M   'P 1'
_cell_length_a   7.02177420
_cell_length_b   8.22326458
_cell_length_c   14.03942006
_cell_angle_alpha   90.05547224
_cell_angle_beta   99.56847976
_cell_angle_gamma   90.07942259
_symmetry_Int_Tables_number   1
_chemical_formula_structural   Li2VCr(P2O7)2
_chemical_formula_sum   'Li6 V3 Cr3 P12 O42'
_cell_volume   799.38329032
_cell_formula_units_Z   3
loop_
 _symmetry_equiv_pos_site_id
 _symmetry_equiv_pos_as_xyz
  1  'x, y, z'
loop_
 _atom_site_type_symbol
 _atom_site_label
 _atom_site_symmetry_multiplicity
 _atom_site_fract_x
 _atom_site_fract_y
 _atom_site_fract_z
 _atom_site_occupancy
  Li  Li0  1  0.382764  0.862825  0.059018  1
  Li  Li1  1  0.951291  0.362937  0.274525  1
  Li  Li2  1  0.715432  0.862896  0.392042  1
  Li  Li3  1  0.284188  0.362593  0.607889  1
  Li  Li4  1  0.048903  0.863174  0.725699  1
  Li  Li5  1  0.617155  0.362868  0.940917  1
  V  V6  1  0.990082  0.999482  0.261169  1
  V  V7  1  0.676400  0.499591  0.405264  1
  V  V8  1  0.009473  0.499674  0.739105  1
  Cr  Cr9  1  0.343443  0.500039  0.071197  1
  Cr  Cr10  1  0.322726  0.999959  0.595618  1
  Cr  Cr11  1  0.656470  0.999986  0.928612  1
  P  P12  1  0.609920  0.180691  0.132940  1
  P  P13  1  0.984787  0.783092  0.070156  1
  P  P14  1  0.347814  0.284913  0.261835  1
  P  P15  1  0.721134  0.679582  0.199505  1
  P  P16  1  0.318960  0.785100  0.404603  1
  P  P17  1  0.056801  0.680779  0.533321  1
  P  P18  1  0.945598  0.179835  0.466993  1
  P  P19  1  0.680526  0.282340  0.595777  1
  P  P20  1  0.279029  0.179492  0.800022  1
  P  P21  1  0.650930  0.785686  0.737401  1
  P  P22  1  0.015383  0.282718  0.929586  1
  P  P23  1  0.390337  0.680551  0.866933  1
  O  O24  1  0.163530  0.323136  0.017934  1
  O  O25  1  0.159769  0.693094  0.043619  1
  O  O26  1  0.051584  0.933542  0.131948  1
  O  O27  1  0.580182  0.037981  0.061866  1
  O  O28  1  0.573017  0.346230  0.082435  1
  O  O29  1  0.525611  0.678374  0.132297  1
  O  O30  1  0.284312  0.434809  0.199905  1
  O  O31  1  0.444666  0.151924  0.198153  1
  O  O32  1  0.888495  0.651823  0.134835  1
  O  O33  1  0.174288  0.197001  0.289720  1
  O  O34  1  0.167992  0.823396  0.316485  1
  O  O35  1  0.805933  0.179840  0.200230  1
  O  O36  1  0.755894  0.843970  0.250622  1
  O  O37  1  0.753672  0.536938  0.270803  1
  O  O38  1  0.498717  0.323371  0.350058  1
  O  O39  1  0.492342  0.696863  0.376853  1
  O  O40  1  0.221959  0.652033  0.468193  1
  O  O41  1  0.382728  0.934937  0.466783  1
  O  O42  1  0.140787  0.178659  0.534324  1
  O  O43  1  0.912968  0.037170  0.395543  1
  O  O44  1  0.910394  0.344166  0.416087  1
  O  O45  1  0.093571  0.846125  0.584092  1
  O  O46  1  0.086893  0.538471  0.604751  1
  O  O47  1  0.860720  0.679682  0.466203  1
  O  O48  1  0.614668  0.433153  0.534644  1
  O  O49  1  0.777959  0.151664  0.531594  1
  O  O50  1  0.506324  0.192756  0.622963  1
  O  O51  1  0.501780  0.824134  0.649014  1
  O  O52  1  0.247015  0.036514  0.728982  1
  O  O53  1  0.244173  0.344112  0.749262  1
  O  O54  1  0.193903  0.679577  0.799824  1
  O  O55  1  0.830668  0.322448  0.683808  1
  O  O56  1  0.825053  0.697145  0.710106  1
  O  O57  1  0.111489  0.151608  0.864747  1
  O  O58  1  0.555290  0.652046  0.801710  1
  O  O59  1  0.715641  0.935063  0.800010  1
  O  O60  1  0.474313  0.178453  0.867556  1
  O  O61  1  0.426910  0.846177  0.917615  1
  O  O62  1  0.419791  0.538013  0.938032  1
  O  O63  1  0.948754  0.433266  0.868098  1
  O  O64  1  0.840235  0.192999  0.956217  1
  O  O65  1  0.836470  0.823275  0.981954  1
