# generated using pymatgen
data_Co3(OF2)2
_symmetry_space_group_name_H-M   'P 1'
_cell_length_a   4.56444825
_cell_length_b   4.50781053
_cell_length_c   10.36925037
_cell_angle_alpha   90.00000000
_cell_angle_beta   114.95250105
_cell_angle_gamma   90.00000000
_symmetry_Int_Tables_number   1
_chemical_formula_structural   Co3(OF2)2
_chemical_formula_sum   'Co6 O4 F8'
_cell_volume   193.43930342
_cell_formula_units_Z   2
loop_
 _symmetry_equiv_pos_site_id
 _symmetry_equiv_pos_as_xyz
  1  'x, y, z'
loop_
 _atom_site_type_symbol
 _atom_site_label
 _atom_site_symmetry_multiplicity
 _atom_site_fract_x
 _atom_site_fract_y
 _atom_site_fract_z
 _atom_site_occupancy
  Co  Co0  1  0.137668  0.022872  0.173911  1
  Co  Co1  1  0.500000  0.000000  0.500000  1
  Co  Co2  1  0.862332  0.977128  0.826089  1
  Co  Co3  1  0.862332  0.522872  0.326089  1
  Co  Co4  1  0.500000  0.500000  0.000000  1
  Co  Co5  1  0.137668  0.477128  0.673911  1
  O  O6  1  0.863867  0.173221  0.668167  1
  O  O7  1  0.136133  0.673221  0.831833  1
  O  O8  1  0.863867  0.326779  0.168167  1
  O  O9  1  0.136133  0.826779  0.331833  1
  F  F10  1  0.555787  0.227601  0.338395  1
  F  F11  1  0.199733  0.197783  0.008941  1
  F  F12  1  0.800267  0.697783  0.491059  1
  F  F13  1  0.444213  0.727601  0.161605  1
  F  F14  1  0.555787  0.272399  0.838395  1
  F  F15  1  0.199733  0.302217  0.508941  1
  F  F16  1  0.800267  0.802217  0.991059  1
  F  F17  1  0.444213  0.772399  0.661605  1
