# generated using pymatgen
data_CrFe3Cu2(PO4)6
_symmetry_space_group_name_H-M   'P 1'
_cell_length_a   8.58136179
_cell_length_b   8.58136179
_cell_length_c   8.58136179
_cell_angle_alpha   60.34596483
_cell_angle_beta   60.34596483
_cell_angle_gamma   60.34596483
_symmetry_Int_Tables_number   1
_chemical_formula_structural   CrFe3Cu2(PO4)6
_chemical_formula_sum   'Cr1 Fe3 Cu2 P6 O24'
_cell_volume   450.33889077
_cell_formula_units_Z   1
loop_
 _symmetry_equiv_pos_site_id
 _symmetry_equiv_pos_as_xyz
  1  'x, y, z'
loop_
 _atom_site_type_symbol
 _atom_site_label
 _atom_site_symmetry_multiplicity
 _atom_site_fract_x
 _atom_site_fract_y
 _atom_site_fract_z
 _atom_site_occupancy
  Cr  Cr0  1  0.141273  0.141273  0.141273  1
  Fe  Fe1  1  0.856107  0.856107  0.856107  1
  Fe  Fe2  1  0.644324  0.644324  0.644324  1
  Fe  Fe3  1  0.355722  0.355722  0.355722  1
  Cu  Cu4  1  0.999311  0.999311  0.999311  1
  Cu  Cu5  1  0.499868  0.499868  0.499868  1
  P  P6  1  0.957285  0.249651  0.541944  1
  P  P7  1  0.541944  0.957285  0.249651  1
  P  P8  1  0.249651  0.541944  0.957285  1
  P  P9  1  0.751157  0.456161  0.044734  1
  P  P10  1  0.456161  0.044734  0.751157  1
  P  P11  1  0.044734  0.751157  0.456161  1
  O  O12  1  0.886902  0.690775  0.490795  1
  O  O13  1  0.690775  0.490795  0.886902  1
  O  O14  1  0.943859  0.086254  0.737398  1
  O  O15  1  0.490795  0.886902  0.690775  1
  O  O16  1  0.998139  0.187722  0.380800  1
  O  O17  1  0.760107  0.413541  0.552848  1
  O  O18  1  0.737398  0.943859  0.086254  1
  O  O19  1  0.552848  0.760107  0.413541  1
  O  O20  1  0.813460  0.613443  0.007373  1
  O  O21  1  0.413541  0.552848  0.760107  1
  O  O22  1  0.916555  0.258995  0.060187  1
  O  O23  1  0.613443  0.007373  0.813460  1
  O  O24  1  0.380800  0.998139  0.187722  1
  O  O25  1  0.086254  0.737398  0.943859  1
  O  O26  1  0.588778  0.439017  0.243378  1
  O  O27  1  0.187722  0.380800  0.998139  1
  O  O28  1  0.439017  0.243378  0.588778  1
  O  O29  1  0.258995  0.060187  0.916555  1
  O  O30  1  0.243378  0.588778  0.439017  1
  O  O31  1  0.007373  0.813460  0.613443  1
  O  O32  1  0.504955  0.113625  0.313557  1
  O  O33  1  0.060187  0.916555  0.258995  1
  O  O34  1  0.313557  0.504955  0.113625  1
  O  O35  1  0.113625  0.313557  0.504955  1
