# generated using pymatgen
data_Li4Ti3V2Cr3O16
_symmetry_space_group_name_H-M   'P 1'
_cell_length_a   5.91251391
_cell_length_b   5.91251391
_cell_length_c   9.55518995
_cell_angle_alpha   89.24106558
_cell_angle_beta   90.75893442
_cell_angle_gamma   119.76796556
_symmetry_Int_Tables_number   1
_chemical_formula_structural   Li4Ti3V2Cr3O16
_chemical_formula_sum   'Li4 Ti3 V2 Cr3 O16'
_cell_volume   289.91726828
_cell_formula_units_Z   1
loop_
 _symmetry_equiv_pos_site_id
 _symmetry_equiv_pos_as_xyz
  1  'x, y, z'
loop_
 _atom_site_type_symbol
 _atom_site_label
 _atom_site_symmetry_multiplicity
 _atom_site_fract_x
 _atom_site_fract_y
 _atom_site_fract_z
 _atom_site_occupancy
  Li  Li0  1  0.333732  0.666268  0.108695  1
  Li  Li1  1  0.003851  0.996149  0.006848  1
  Li  Li2  1  0.002125  0.997875  0.502083  1
  Li  Li3  1  0.665724  0.334276  0.602057  1
  Ti  Ti4  1  0.165522  0.336364  0.785472  1
  Ti  Ti5  1  0.663636  0.834478  0.785472  1
  Ti  Ti6  1  0.826771  0.173229  0.280895  1
  V  V7  1  0.328551  0.671449  0.506928  1
  V  V8  1  0.662339  0.337661  0.013636  1
  Cr  Cr9  1  0.170649  0.829351  0.787538  1
  Cr  Cr10  1  0.340627  0.176217  0.286869  1
  Cr  Cr11  1  0.823783  0.659373  0.286869  1
  O  O12  1  0.165899  0.334477  0.403772  1
  O  O13  1  0.477764  0.522236  0.659648  1
  O  O14  1  0.340753  0.659247  0.896476  1
  O  O15  1  0.998681  0.001319  0.688320  1
  O  O16  1  0.996386  0.003614  0.193006  1
  O  O17  1  0.665523  0.834101  0.403772  1
  O  O18  1  0.041626  0.516862  0.659143  1
  O  O19  1  0.483138  0.958374  0.659143  1
  O  O20  1  0.837865  0.162135  0.892614  1
  O  O21  1  0.173567  0.826433  0.406202  1
  O  O22  1  0.522824  0.039544  0.159844  1
  O  O23  1  0.960456  0.477176  0.159844  1
  O  O24  1  0.672560  0.327440  0.396466  1
  O  O25  1  0.326285  0.168162  0.898844  1
  O  O26  1  0.516409  0.483591  0.162989  1
  O  O27  1  0.831838  0.673715  0.898844  1
