# generated using pymatgen
data_Ti(PO3)4
_symmetry_space_group_name_H-M   'P 1'
_cell_length_a   7.20893496
_cell_length_b   7.20893496
_cell_length_c   10.20865788
_cell_angle_alpha   66.03707974
_cell_angle_beta   113.96292026
_cell_angle_gamma   110.02908223
_symmetry_Int_Tables_number   1
_chemical_formula_structural   Ti(PO3)4
_chemical_formula_sum   'Ti2 P8 O24'
_cell_volume   432.88876140
_cell_formula_units_Z   2
loop_
 _symmetry_equiv_pos_site_id
 _symmetry_equiv_pos_as_xyz
  1  'x, y, z'
loop_
 _atom_site_type_symbol
 _atom_site_label
 _atom_site_symmetry_multiplicity
 _atom_site_fract_x
 _atom_site_fract_y
 _atom_site_fract_z
 _atom_site_occupancy
  Ti  Ti0  1  0.060236  0.060236  0.750000  1
  Ti  Ti1  1  0.939764  0.939764  0.250000  1
  P  P2  1  0.688728  0.282464  0.698029  1
  P  P3  1  0.268252  0.247514  0.478715  1
  P  P4  1  0.247514  0.268252  0.021285  1
  P  P5  1  0.717536  0.311272  0.198029  1
  P  P6  1  0.282464  0.688728  0.801971  1
  P  P7  1  0.752486  0.731748  0.978715  1
  P  P8  1  0.731748  0.752486  0.521285  1
  P  P9  1  0.311272  0.717536  0.301971  1
  O  O10  1  0.356451  0.810153  0.158271  1
  O  O11  1  0.750711  0.808521  0.096429  1
  O  O12  1  0.286711  0.467968  0.355355  1
  O  O13  1  0.191479  0.249289  0.596429  1
  O  O14  1  0.501645  0.216103  0.556745  1
  O  O15  1  0.876560  0.241598  0.688558  1
  O  O16  1  0.810153  0.356451  0.341729  1
  O  O17  1  0.783897  0.498355  0.056745  1
  O  O18  1  0.149129  0.086587  0.399307  1
  O  O19  1  0.241598  0.876560  0.811442  1
  O  O20  1  0.467968  0.286711  0.144645  1
  O  O21  1  0.086587  0.149129  0.100693  1
  O  O22  1  0.913413  0.850871  0.899307  1
  O  O23  1  0.532032  0.713289  0.855355  1
  O  O24  1  0.758402  0.123440  0.188558  1
  O  O25  1  0.850871  0.913413  0.600693  1
  O  O26  1  0.216103  0.501645  0.943255  1
  O  O27  1  0.189847  0.643549  0.658271  1
  O  O28  1  0.123440  0.758402  0.311442  1
  O  O29  1  0.498355  0.783897  0.443255  1
  O  O30  1  0.808521  0.750711  0.403571  1
  O  O31  1  0.713289  0.532032  0.644645  1
  O  O32  1  0.249289  0.191479  0.903571  1
  O  O33  1  0.643549  0.189847  0.841729  1
