# generated using pymatgen
data_AlGaO3
_symmetry_space_group_name_H-M   'P 1'
_cell_length_a   4.88923136
_cell_length_b   5.00952901
_cell_length_c   7.44801780
_cell_angle_alpha   90.00000000
_cell_angle_beta   90.00000000
_cell_angle_gamma   90.00000000
_symmetry_Int_Tables_number   1
_chemical_formula_structural   AlGaO3
_chemical_formula_sum   'Al4 Ga4 O12'
_cell_volume   182.42241067
_cell_formula_units_Z   4
loop_
 _symmetry_equiv_pos_site_id
 _symmetry_equiv_pos_as_xyz
  1  'x, y, z'
loop_
 _atom_site_type_symbol
 _atom_site_label
 _atom_site_symmetry_multiplicity
 _atom_site_fract_x
 _atom_site_fract_y
 _atom_site_fract_z
 _atom_site_occupancy
  Al  Al0  1  0.000000  0.000000  0.000000  1
  Al  Al1  1  0.000000  0.000000  0.500000  1
  Al  Al2  1  0.500000  0.500000  0.000000  1
  Al  Al3  1  0.500000  0.500000  0.500000  1
  Ga  Ga4  1  0.014015  0.457043  0.750000  1
  Ga  Ga5  1  0.485985  0.957043  0.750000  1
  Ga  Ga6  1  0.514015  0.042957  0.250000  1
  Ga  Ga7  1  0.985985  0.542957  0.250000  1
  O  O8  1  0.132061  0.920152  0.250000  1
  O  O9  1  0.181007  0.685489  0.571448  1
  O  O10  1  0.181007  0.685489  0.928552  1
  O  O11  1  0.318993  0.185489  0.571448  1
  O  O12  1  0.318993  0.185489  0.928552  1
  O  O13  1  0.367939  0.420152  0.250000  1
  O  O14  1  0.632061  0.579848  0.750000  1
  O  O15  1  0.681007  0.814511  0.071448  1
  O  O16  1  0.681007  0.814511  0.428552  1
  O  O17  1  0.818993  0.314511  0.071448  1
  O  O18  1  0.818993  0.314511  0.428552  1
  O  O19  1  0.867939  0.079848  0.750000  1
