# generated using pymatgen
data_Li3P2WO8
_symmetry_space_group_name_H-M   'P 1'
_cell_length_a   5.08707707
_cell_length_b   5.08707707
_cell_length_c   6.26778385
_cell_angle_alpha   89.79487693
_cell_angle_beta   90.20512307
_cell_angle_gamma   113.02991912
_symmetry_Int_Tables_number   1
_chemical_formula_structural   Li3P2WO8
_chemical_formula_sum   'Li3 P2 W1 O8'
_cell_volume   149.27132696
_cell_formula_units_Z   1
loop_
 _symmetry_equiv_pos_site_id
 _symmetry_equiv_pos_as_xyz
  1  'x, y, z'
loop_
 _atom_site_type_symbol
 _atom_site_label
 _atom_site_symmetry_multiplicity
 _atom_site_fract_x
 _atom_site_fract_y
 _atom_site_fract_z
 _atom_site_occupancy
  Li  Li0  1  0.668015  0.331985  0.280855  1
  Li  Li1  1  0.990948  0.990948  0.500000  1
  Li  Li2  1  0.331985  0.668015  0.719145  1
  P  P3  1  0.649120  0.350880  0.764753  1
  P  P4  1  0.350880  0.649120  0.235247  1
  W  W5  1  0.000000  0.000000  0.000000  1
  O  O6  1  0.242793  0.757207  0.428105  1
  O  O7  1  0.254879  0.745121  0.022990  1
  O  O8  1  0.311115  0.244381  0.762443  1
  O  O9  1  0.755619  0.688885  0.762443  1
  O  O10  1  0.244381  0.311115  0.237557  1
  O  O11  1  0.688885  0.755619  0.237557  1
  O  O12  1  0.745121  0.254879  0.977010  1
  O  O13  1  0.757207  0.242793  0.571895  1
