# generated using pymatgen
data_Li2MnCu3O8
_symmetry_space_group_name_H-M   'P 1'
_cell_length_a   5.85485454
_cell_length_b   5.85485454
_cell_length_c   5.85485454
_cell_angle_alpha   60.21192963
_cell_angle_beta   60.21192963
_cell_angle_gamma   60.21192963
_symmetry_Int_Tables_number   1
_chemical_formula_structural   Li2MnCu3O8
_chemical_formula_sum   'Li2 Mn1 Cu3 O8'
_cell_volume   142.59763276
_cell_formula_units_Z   1
loop_
 _symmetry_equiv_pos_site_id
 _symmetry_equiv_pos_as_xyz
  1  'x, y, z'
loop_
 _atom_site_type_symbol
 _atom_site_label
 _atom_site_symmetry_multiplicity
 _atom_site_fract_x
 _atom_site_fract_y
 _atom_site_fract_z
 _atom_site_occupancy
  Li  Li0  1  0.872121  0.872121  0.872121  1
  Li  Li1  1  0.127879  0.127879  0.127879  1
  Mn  Mn2  1  0.500000  0.500000  0.500000  1
  Cu  Cu3  1  0.500000  0.000000  0.500000  1
  Cu  Cu4  1  0.500000  0.500000  0.000000  1
  Cu  Cu5  1  0.000000  0.500000  0.500000  1
  O  O6  1  0.732421  0.732421  0.732421  1
  O  O7  1  0.284770  0.730346  0.730346  1
  O  O8  1  0.730346  0.730346  0.284770  1
  O  O9  1  0.730346  0.284770  0.730346  1
  O  O10  1  0.269654  0.715230  0.269654  1
  O  O11  1  0.269654  0.269654  0.715230  1
  O  O12  1  0.715230  0.269654  0.269654  1
  O  O13  1  0.267579  0.267579  0.267579  1
