# generated using pymatgen
data_Nb8Tl8O25
_symmetry_space_group_name_H-M   'P 1'
_cell_length_a   7.64763075
_cell_length_b   7.64763075
_cell_length_c   13.23375947
_cell_angle_alpha   73.21387647
_cell_angle_beta   106.78612353
_cell_angle_gamma   119.97906744
_symmetry_Int_Tables_number   1
_chemical_formula_structural   Nb8Tl8O25
_chemical_formula_sum   'Nb8 Tl8 O25'
_cell_volume   632.05342204
_cell_formula_units_Z   1
loop_
 _symmetry_equiv_pos_site_id
 _symmetry_equiv_pos_as_xyz
  1  'x, y, z'
loop_
 _atom_site_type_symbol
 _atom_site_label
 _atom_site_symmetry_multiplicity
 _atom_site_fract_x
 _atom_site_fract_y
 _atom_site_fract_z
 _atom_site_occupancy
  Nb  Nb0  1  0.999403  0.500077  0.999864  1
  Nb  Nb1  1  0.999833  0.500631  0.499904  1
  Nb  Nb2  1  0.499923  0.000597  0.999864  1
  Nb  Nb3  1  0.999659  0.000341  0.499817  1
  Nb  Nb4  1  0.499639  0.500361  0.999695  1
  Nb  Nb5  1  0.749855  0.250145  0.250110  1
  Nb  Nb6  1  0.499369  0.000167  0.499904  1
  Nb  Nb7  1  0.249577  0.750423  0.749088  1
  Tl  Tl8  1  0.771305  0.760917  0.244851  1
  Tl  Tl9  1  0.746216  0.743063  0.749312  1
  Tl  Tl10  1  0.746259  0.253741  0.749518  1
  Tl  Tl11  1  0.001553  0.998447  0.002692  1
  Tl  Tl12  1  0.265375  0.734625  0.254520  1
  Tl  Tl13  1  0.504659  0.495341  0.512835  1
  Tl  Tl14  1  0.239083  0.228695  0.244851  1
  Tl  Tl15  1  0.256937  0.253784  0.749312  1
  O  O16  1  0.966043  0.404435  0.155173  1
  O  O17  1  0.593844  0.406156  0.155818  1
  O  O18  1  0.590925  0.780518  0.029925  1
  O  O19  1  0.906666  0.466877  0.344415  1
  O  O20  1  0.720197  0.279803  0.531321  1
  O  O21  1  0.219295  0.780705  0.030934  1
  O  O22  1  0.780773  0.592905  0.968831  1
  O  O23  1  0.595565  0.033957  0.155173  1
  O  O24  1  0.908727  0.719639  0.469449  1
  O  O25  1  0.937714  0.062286  0.813077  1
  O  O26  1  0.467793  0.905728  0.656402  1
  O  O27  1  0.280361  0.091273  0.469449  1
  O  O28  1  0.904996  0.095004  0.345051  1
  O  O29  1  0.094339  0.905661  0.656390  1
  O  O30  1  0.405587  0.967019  0.844380  1
  O  O31  1  0.219482  0.409075  0.029925  1
  O  O32  1  0.533123  0.093334  0.344415  1
  O  O33  1  0.090956  0.279785  0.531452  1
  O  O34  1  0.720215  0.909044  0.531452  1
  O  O35  1  0.780922  0.219078  0.968805  1
  O  O36  1  0.280316  0.719684  0.470314  1
  O  O37  1  0.094272  0.532207  0.656402  1
  O  O38  1  0.407095  0.219227  0.968831  1
  O  O39  1  0.405806  0.594194  0.844319  1
  O  O40  1  0.032981  0.594413  0.844380  1
