# generated using pymatgen
data_Li4CaNiO4
_symmetry_space_group_name_H-M   'P 1'
_cell_length_a   5.00787178
_cell_length_b   9.27622763
_cell_length_c   18.01066493
_cell_angle_alpha   90.00000000
_cell_angle_beta   90.00000000
_cell_angle_gamma   90.00000000
_symmetry_Int_Tables_number   1
_chemical_formula_structural   Li4CaNiO4
_chemical_formula_sum   'Li32 Ca8 Ni8 O32'
_cell_volume   836.67028467
_cell_formula_units_Z   8
loop_
 _symmetry_equiv_pos_site_id
 _symmetry_equiv_pos_as_xyz
  1  'x, y, z'
loop_
 _atom_site_type_symbol
 _atom_site_label
 _atom_site_symmetry_multiplicity
 _atom_site_fract_x
 _atom_site_fract_y
 _atom_site_fract_z
 _atom_site_occupancy
  Li  Li0  1  0.188807  0.853318  0.411013  1
  Li  Li1  1  0.311193  0.853318  0.911013  1
  Li  Li2  1  0.075786  0.955701  0.286690  1
  Li  Li3  1  0.424214  0.955701  0.786690  1
  Li  Li4  1  0.496468  0.825086  0.318983  1
  Li  Li5  1  0.003532  0.825086  0.818983  1
  Li  Li6  1  0.689291  0.806651  0.187381  1
  Li  Li7  1  0.810709  0.806651  0.687381  1
  Li  Li8  1  0.189291  0.693349  0.187381  1
  Li  Li9  1  0.310709  0.693349  0.687381  1
  Li  Li10  1  0.996468  0.674914  0.318983  1
  Li  Li11  1  0.503532  0.674914  0.818983  1
  Li  Li12  1  0.575786  0.544299  0.286690  1
  Li  Li13  1  0.924214  0.544299  0.786690  1
  Li  Li14  1  0.811193  0.646682  0.911013  1
  Li  Li15  1  0.688807  0.646682  0.411013  1
  Li  Li16  1  0.188807  0.353318  0.088987  1
  Li  Li17  1  0.311193  0.353318  0.588987  1
  Li  Li18  1  0.075786  0.455701  0.213310  1
  Li  Li19  1  0.424214  0.455701  0.713310  1
  Li  Li20  1  0.496468  0.325086  0.181017  1
  Li  Li21  1  0.003532  0.325086  0.681017  1
  Li  Li22  1  0.689291  0.306651  0.312619  1
  Li  Li23  1  0.810709  0.306651  0.812619  1
  Li  Li24  1  0.189291  0.193349  0.312619  1
  Li  Li25  1  0.310709  0.193349  0.812619  1
  Li  Li26  1  0.503532  0.174914  0.681017  1
  Li  Li27  1  0.996468  0.174914  0.181017  1
  Li  Li28  1  0.924214  0.044299  0.713310  1
  Li  Li29  1  0.575786  0.044299  0.213310  1
  Li  Li30  1  0.811193  0.146682  0.588987  1
  Li  Li31  1  0.688807  0.146682  0.088987  1
  Ca  Ca32  1  0.741177  0.876716  0.515234  1
  Ca  Ca33  1  0.758823  0.876716  0.015234  1
  Ca  Ca34  1  0.241177  0.623284  0.515234  1
  Ca  Ca35  1  0.258823  0.623284  0.015234  1
  Ca  Ca36  1  0.741177  0.376716  0.984766  1
  Ca  Ca37  1  0.758823  0.376716  0.484766  1
  Ca  Ca38  1  0.241177  0.123284  0.984766  1
  Ca  Ca39  1  0.258823  0.123284  0.484766  1
  Ni  Ni40  1  0.218386  0.950946  0.124745  1
  Ni  Ni41  1  0.281614  0.950946  0.624745  1
  Ni  Ni42  1  0.718386  0.549054  0.124745  1
  Ni  Ni43  1  0.781614  0.549054  0.624745  1
  Ni  Ni44  1  0.218386  0.450946  0.375255  1
  Ni  Ni45  1  0.281614  0.450946  0.875255  1
  Ni  Ni46  1  0.718386  0.049054  0.375255  1
  Ni  Ni47  1  0.781614  0.049054  0.875255  1
  O  O48  1  0.823921  0.966812  0.132810  1
  O  O49  1  0.676079  0.966812  0.632810  1
  O  O50  1  0.258438  0.876102  0.019493  1
  O  O51  1  0.241562  0.876102  0.519493  1
  O  O52  1  0.345149  0.868158  0.220888  1
  O  O53  1  0.154851  0.868158  0.720888  1
  O  O54  1  0.830587  0.841111  0.374059  1
  O  O55  1  0.669413  0.841111  0.874059  1
  O  O56  1  0.330587  0.658889  0.374059  1
  O  O57  1  0.169413  0.658889  0.874059  1
  O  O58  1  0.845149  0.631842  0.220888  1
  O  O59  1  0.654851  0.631842  0.720888  1
  O  O60  1  0.758438  0.623898  0.019493  1
  O  O61  1  0.741562  0.623898  0.519493  1
  O  O62  1  0.323921  0.533188  0.132810  1
  O  O63  1  0.176079  0.533188  0.632810  1
  O  O64  1  0.823921  0.466812  0.367190  1
  O  O65  1  0.676079  0.466812  0.867190  1
  O  O66  1  0.241562  0.376102  0.980507  1
  O  O67  1  0.258438  0.376102  0.480507  1
  O  O68  1  0.345149  0.368158  0.279112  1
  O  O69  1  0.154851  0.368158  0.779112  1
  O  O70  1  0.830587  0.341111  0.125941  1
  O  O71  1  0.669413  0.341111  0.625941  1
  O  O72  1  0.169413  0.158889  0.625941  1
  O  O73  1  0.330587  0.158889  0.125941  1
  O  O74  1  0.845149  0.131842  0.279112  1
  O  O75  1  0.654851  0.131842  0.779112  1
  O  O76  1  0.758438  0.123898  0.480507  1
  O  O77  1  0.741562  0.123898  0.980507  1
  O  O78  1  0.323921  0.033188  0.367190  1
  O  O79  1  0.176079  0.033188  0.867190  1
