# generated using pymatgen
data_RbAl11O17
_symmetry_space_group_name_H-M   'P 1'
_cell_length_a   5.65482157
_cell_length_b   5.65482157
_cell_length_c   23.05340637
_cell_angle_alpha   90.00000000
_cell_angle_beta   90.00000000
_cell_angle_gamma   120.00000000
_symmetry_Int_Tables_number   1
_chemical_formula_structural   RbAl11O17
_chemical_formula_sum   'Rb2 Al22 O34'
_cell_volume   638.41568514
_cell_formula_units_Z   2
loop_
 _symmetry_equiv_pos_site_id
 _symmetry_equiv_pos_as_xyz
  1  'x, y, z'
loop_
 _atom_site_type_symbol
 _atom_site_label
 _atom_site_symmetry_multiplicity
 _atom_site_fract_x
 _atom_site_fract_y
 _atom_site_fract_z
 _atom_site_occupancy
  Rb  Rb0  1  0.333333  0.666667  0.750000  1
  Rb  Rb1  1  0.666667  0.333333  0.250000  1
  Al  Al2  1  0.167279  0.832721  0.894494  1
  Al  Al3  1  0.167279  0.832721  0.605506  1
  Al  Al4  1  0.333333  0.666667  0.175081  1
  Al  Al5  1  0.333333  0.666667  0.024968  1
  Al  Al6  1  0.333333  0.666667  0.324919  1
  Al  Al7  1  0.000000  0.000000  0.000000  1
  Al  Al8  1  0.000000  0.000000  0.500000  1
  Al  Al9  1  0.333333  0.666667  0.475032  1
  Al  Al10  1  0.167279  0.334559  0.605506  1
  Al  Al11  1  0.167279  0.334559  0.894494  1
  Al  Al12  1  0.665441  0.832721  0.605506  1
  Al  Al13  1  0.665441  0.832721  0.894494  1
  Al  Al14  1  0.334559  0.167279  0.394494  1
  Al  Al15  1  0.334559  0.167279  0.105506  1
  Al  Al16  1  0.832721  0.665441  0.394494  1
  Al  Al17  1  0.666667  0.333333  0.675081  1
  Al  Al18  1  0.666667  0.333333  0.824919  1
  Al  Al19  1  0.666667  0.333333  0.524968  1
  Al  Al20  1  0.666667  0.333333  0.975032  1
  Al  Al21  1  0.832721  0.665441  0.105506  1
  Al  Al22  1  0.832721  0.167279  0.394494  1
  Al  Al23  1  0.832721  0.167279  0.105506  1
  O  O24  1  0.156876  0.843124  0.049219  1
  O  O25  1  0.156876  0.843124  0.450781  1
  O  O26  1  0.003548  0.501774  0.856118  1
  O  O27  1  0.003548  0.501774  0.643882  1
  O  O28  1  0.333333  0.666667  0.250000  1
  O  O29  1  0.156876  0.313752  0.049219  1
  O  O30  1  0.000000  0.000000  0.140236  1
  O  O31  1  0.333333  0.666667  0.945338  1
  O  O32  1  0.333333  0.666667  0.554662  1
  O  O33  1  0.000000  0.000000  0.359764  1
  O  O34  1  0.000000  0.000000  0.859764  1
  O  O35  1  0.000000  0.000000  0.640236  1
  O  O36  1  0.498226  0.996452  0.643882  1
  O  O37  1  0.498226  0.996452  0.856118  1
  O  O38  1  0.156876  0.313752  0.450781  1
  O  O39  1  0.313752  0.156876  0.549219  1
  O  O40  1  0.313752  0.156876  0.950781  1
  O  O41  1  0.498226  0.501774  0.856118  1
  O  O42  1  0.498226  0.501774  0.643882  1
  O  O43  1  0.501774  0.498226  0.143882  1
  O  O44  1  0.501774  0.498226  0.356118  1
  O  O45  1  0.686248  0.843124  0.049219  1
  O  O46  1  0.686248  0.843124  0.450781  1
  O  O47  1  0.843124  0.686248  0.950781  1
  O  O48  1  0.843124  0.686248  0.549219  1
  O  O49  1  0.501774  0.003548  0.356118  1
  O  O50  1  0.666667  0.333333  0.445338  1
  O  O51  1  0.666667  0.333333  0.750000  1
  O  O52  1  0.501774  0.003548  0.143882  1
  O  O53  1  0.666667  0.333333  0.054662  1
  O  O54  1  0.996452  0.498226  0.143882  1
  O  O55  1  0.996452  0.498226  0.356118  1
  O  O56  1  0.843124  0.156876  0.950781  1
  O  O57  1  0.843124  0.156876  0.549219  1
