# generated using pymatgen
data_Li4CrO5
_symmetry_space_group_name_H-M   'P 1'
_cell_length_a   4.99458214
_cell_length_b   5.11588755
_cell_length_c   7.56572531
_cell_angle_alpha   106.33161871
_cell_angle_beta   102.92173410
_cell_angle_gamma   102.24177338
_symmetry_Int_Tables_number   1
_chemical_formula_structural   Li4CrO5
_chemical_formula_sum   'Li8 Cr2 O10'
_cell_volume   172.83222423
_cell_formula_units_Z   2
loop_
 _symmetry_equiv_pos_site_id
 _symmetry_equiv_pos_as_xyz
  1  'x, y, z'
loop_
 _atom_site_type_symbol
 _atom_site_label
 _atom_site_symmetry_multiplicity
 _atom_site_fract_x
 _atom_site_fract_y
 _atom_site_fract_z
 _atom_site_occupancy
  Li  Li0  1  0.880665  0.482438  0.706407  1
  Li  Li1  1  0.500000  0.500000  0.500000  1
  Li  Li2  1  0.500000  0.000000  0.000000  1
  Li  Li3  1  0.304544  0.488025  0.903538  1
  Li  Li4  1  0.292684  0.992849  0.389797  1
  Li  Li5  1  0.707316  0.007151  0.610203  1
  Li  Li6  1  0.695456  0.511975  0.096462  1
  Li  Li7  1  0.119335  0.517562  0.293593  1
  Cr  Cr8  1  0.873836  0.031797  0.218317  1
  Cr  Cr9  1  0.126164  0.968203  0.781683  1
  O  O10  1  0.897774  0.219674  0.977653  1
  O  O11  1  0.539152  0.768483  0.245530  1
  O  O12  1  0.905090  0.767901  0.413226  1
  O  O13  1  0.285838  0.771303  0.659923  1
  O  O14  1  0.744955  0.769276  0.841933  1
  O  O15  1  0.255045  0.230724  0.158067  1
  O  O16  1  0.714162  0.228697  0.340077  1
  O  O17  1  0.094910  0.232099  0.586774  1
  O  O18  1  0.460848  0.231517  0.754470  1
  O  O19  1  0.102226  0.780326  0.022347  1
