# generated using pymatgen
data_Li3Mn(PO4)2
_symmetry_space_group_name_H-M   'P 1'
_cell_length_a   8.55296945
_cell_length_b   8.66147720
_cell_length_c   9.37119223
_cell_angle_alpha   87.10529872
_cell_angle_beta   86.92760476
_cell_angle_gamma   69.37168931
_symmetry_Int_Tables_number   1
_chemical_formula_structural   Li3Mn(PO4)2
_chemical_formula_sum   'Li12 Mn4 P8 O32'
_cell_volume   648.41505179
_cell_formula_units_Z   4
loop_
 _symmetry_equiv_pos_site_id
 _symmetry_equiv_pos_as_xyz
  1  'x, y, z'
loop_
 _atom_site_type_symbol
 _atom_site_label
 _atom_site_symmetry_multiplicity
 _atom_site_fract_x
 _atom_site_fract_y
 _atom_site_fract_z
 _atom_site_occupancy
  Li  Li0  1  0.147431  0.385140  0.206631  1
  Li  Li1  1  0.378628  0.128260  0.701480  1
  Li  Li2  1  0.839448  0.041310  0.539289  1
  Li  Li3  1  0.890655  0.062596  0.227818  1
  Li  Li4  1  0.391040  0.598110  0.240046  1
  Li  Li5  1  0.594638  0.430945  0.752343  1
  Li  Li6  1  0.105317  0.889128  0.769473  1
  Li  Li7  1  0.168039  0.957726  0.461319  1
  Li  Li8  1  0.953964  0.161644  0.965033  1
  Li  Li9  1  0.593713  0.866337  0.302975  1
  Li  Li10  1  0.853828  0.608476  0.774438  1
  Li  Li11  1  0.915803  0.709828  0.098735  1
  Mn  Mn12  1  0.504521  0.244953  0.094451  1
  Mn  Mn13  1  0.232550  0.502699  0.603554  1
  Mn  Mn14  1  0.767297  0.499038  0.394542  1
  Mn  Mn15  1  0.493541  0.771447  0.902086  1
  P  P16  1  0.286041  0.012358  0.085402  1
  P  P17  1  0.004136  0.291870  0.586389  1
  P  P18  1  0.564366  0.249647  0.424138  1
  P  P19  1  0.241849  0.571984  0.924950  1
  P  P20  1  0.747382  0.444067  0.072294  1
  P  P21  1  0.441257  0.748639  0.571341  1
  P  P22  1  0.999123  0.708743  0.409070  1
  P  P23  1  0.728033  0.982045  0.928906  1
  O  O24  1  0.100299  0.040004  0.113076  1
  O  O25  1  0.026632  0.107284  0.599139  1
  O  O26  1  0.316329  0.169525  0.135779  1
  O  O27  1  0.167212  0.309713  0.641586  1
  O  O28  1  0.624799  0.061826  0.437173  1
  O  O29  1  0.050932  0.632229  0.919217  1
  O  O30  1  0.753210  0.938872  0.090966  1
  O  O31  1  0.997610  0.653271  0.572331  1
  O  O32  1  0.157692  0.595422  0.332716  1
  O  O33  1  0.571501  0.145597  0.910252  1
  O  O34  1  0.312117  0.485374  0.067803  1
  O  O35  1  0.463472  0.335016  0.558252  1
  O  O36  1  0.462278  0.323737  0.290301  1
  O  O37  1  0.333667  0.457495  0.802450  1
  O  O38  1  0.730981  0.288719  0.414296  1
  O  O39  1  0.283198  0.735384  0.905646  1
  O  O40  1  0.727462  0.268569  0.084516  1
  O  O41  1  0.271570  0.712561  0.585373  1
  O  O42  1  0.655535  0.546972  0.198813  1
  O  O43  1  0.549587  0.671086  0.698276  1
  O  O44  1  0.536010  0.667481  0.433137  1
  O  O45  1  0.658072  0.534043  0.934748  1
  O  O46  1  0.406172  0.856939  0.160207  1
  O  O47  1  0.847898  0.401775  0.667971  1
  O  O48  1  0.997857  0.353047  0.423422  1
  O  O49  1  0.333984  0.000527  0.918390  1
  O  O50  1  0.935301  0.406798  0.065782  1
  O  O51  1  0.381512  0.936747  0.559771  1
  O  O52  1  0.840765  0.689449  0.342421  1
  O  O53  1  0.686938  0.841461  0.857106  1
  O  O54  1  0.980582  0.892626  0.393524  1
  O  O55  1  0.880404  0.006082  0.850090  1
