# generated using pymatgen
data_Li8Mn5Fe3(BO3)8
_symmetry_space_group_name_H-M   'P 1'
_cell_length_a   5.23191419
_cell_length_b   6.04379067
_cell_length_c   16.25217839
_cell_angle_alpha   82.25366592
_cell_angle_beta   88.79368951
_cell_angle_gamma   89.19839047
_symmetry_Int_Tables_number   1
_chemical_formula_structural   Li8Mn5Fe3(BO3)8
_chemical_formula_sum   'Li8 Mn5 Fe3 B8 O24'
_cell_volume   509.06880361
_cell_formula_units_Z   1
loop_
 _symmetry_equiv_pos_site_id
 _symmetry_equiv_pos_as_xyz
  1  'x, y, z'
loop_
 _atom_site_type_symbol
 _atom_site_label
 _atom_site_symmetry_multiplicity
 _atom_site_fract_x
 _atom_site_fract_y
 _atom_site_fract_z
 _atom_site_occupancy
  Li  Li0  1  0.849674  0.062756  0.390936  1
  Li  Li1  1  0.150644  0.436392  0.109749  1
  Li  Li2  1  0.651347  0.188683  0.858438  1
  Li  Li3  1  0.349599  0.311860  0.639710  1
  Li  Li4  1  0.651643  0.687206  0.358860  1
  Li  Li5  1  0.349521  0.812334  0.141806  1
  Li  Li6  1  0.847496  0.563122  0.890098  1
  Li  Li7  1  0.151195  0.937487  0.608424  1
  Mn  Mn8  1  0.668157  0.273857  0.040945  1
  Mn  Mn9  1  0.166340  0.024521  0.789928  1
  Mn  Mn10  1  0.166452  0.524044  0.290742  1
  Mn  Mn11  1  0.667087  0.774076  0.540942  1
  Mn  Mn12  1  0.332778  0.725140  0.960456  1
  Fe  Fe13  1  0.327832  0.225941  0.461315  1
  Fe  Fe14  1  0.838441  0.475607  0.710516  1
  Fe  Fe15  1  0.836654  0.974292  0.210881  1
  B  B16  1  0.329178  0.036690  0.297975  1
  B  B17  1  0.828794  0.285464  0.547766  1
  B  B18  1  0.670644  0.463448  0.202170  1
  B  B19  1  0.169564  0.215413  0.951660  1
  B  B20  1  0.830411  0.785861  0.049257  1
  B  B21  1  0.328419  0.537272  0.796608  1
  B  B22  1  0.170465  0.713938  0.451996  1
  B  B23  1  0.670349  0.963616  0.702096  1
  O  O24  1  0.589912  0.013419  0.308514  1
  O  O25  1  0.185303  0.169595  0.346236  1
  O  O26  1  0.707780  0.169289  0.491937  1
  O  O27  1  0.285813  0.333563  0.008203  1
  O  O28  1  0.785608  0.083205  0.758423  1
  O  O29  1  0.820837  0.326555  0.156598  1
  O  O30  1  0.320568  0.080250  0.905496  1
  O  O31  1  0.090981  0.264183  0.558119  1
  O  O32  1  0.410842  0.485344  0.188431  1
  O  O33  1  0.909840  0.236390  0.937971  1
  O  O34  1  0.684063  0.418898  0.596573  1
  O  O35  1  0.207865  0.421775  0.739481  1
  O  O36  1  0.786343  0.582462  0.258489  1
  O  O37  1  0.320778  0.577991  0.406339  1
  O  O38  1  0.090342  0.765000  0.062618  1
  O  O39  1  0.588714  0.513705  0.808357  1
  O  O40  1  0.910142  0.735867  0.438320  1
  O  O41  1  0.680263  0.919989  0.095868  1
  O  O42  1  0.180914  0.669467  0.844181  1
  O  O43  1  0.206085  0.920650  0.241540  1
  O  O44  1  0.714792  0.668373  0.992096  1
  O  O45  1  0.287131  0.831898  0.508537  1
  O  O46  1  0.821420  0.827339  0.656498  1
  O  O47  1  0.410977  0.985776  0.687899  1
