# generated using pymatgen
data_WN2
_symmetry_space_group_name_H-M   'P 1'
_cell_length_a   6.05683660
_cell_length_b   10.68110396
_cell_length_c   11.66953125
_cell_angle_alpha   90.00000000
_cell_angle_beta   113.02699695
_cell_angle_gamma   90.00000000
_symmetry_Int_Tables_number   1
_chemical_formula_structural   WN2
_chemical_formula_sum   'W12 N24'
_cell_volume   694.79162516
_cell_formula_units_Z   12
loop_
 _symmetry_equiv_pos_site_id
 _symmetry_equiv_pos_as_xyz
  1  'x, y, z'
loop_
 _atom_site_type_symbol
 _atom_site_label
 _atom_site_symmetry_multiplicity
 _atom_site_fract_x
 _atom_site_fract_y
 _atom_site_fract_z
 _atom_site_occupancy
  W  W0  1  0.249029  0.817771  0.088254  1
  W  W1  1  0.415441  0.504695  0.196428  1
  W  W2  1  0.883791  0.153280  0.674650  1
  W  W3  1  0.116209  0.653280  0.825350  1
  W  W4  1  0.584559  0.004695  0.303572  1
  W  W5  1  0.750971  0.317771  0.411746  1
  W  W6  1  0.249029  0.682229  0.588254  1
  W  W7  1  0.415441  0.995305  0.696428  1
  W  W8  1  0.883791  0.346720  0.174650  1
  W  W9  1  0.116209  0.846720  0.325350  1
  W  W10  1  0.584559  0.495305  0.803572  1
  W  W11  1  0.750971  0.182229  0.911746  1
  N  N12  1  0.573946  0.176743  0.337313  1
  N  N13  1  0.424131  0.916906  0.386105  1
  N  N14  1  0.123366  0.800486  0.913851  1
  N  N15  1  0.558106  0.462774  0.364469  1
  N  N16  1  0.901953  0.546204  0.854299  1
  N  N17  1  0.989357  0.179787  0.847072  1
  N  N18  1  0.441894  0.962774  0.135531  1
  N  N19  1  0.098047  0.046204  0.645701  1
  N  N20  1  0.010643  0.679787  0.652928  1
  N  N21  1  0.575869  0.416906  0.113895  1
  N  N22  1  0.876634  0.300486  0.586149  1
  N  N23  1  0.426054  0.676743  0.162687  1
  N  N24  1  0.573946  0.323257  0.837313  1
  N  N25  1  0.901953  0.953796  0.354299  1
  N  N26  1  0.123366  0.699514  0.413851  1
  N  N27  1  0.558106  0.037226  0.864469  1
  N  N28  1  0.424131  0.583094  0.886105  1
  N  N29  1  0.989357  0.320213  0.347072  1
  N  N30  1  0.010643  0.820213  0.152928  1
  N  N31  1  0.441894  0.537226  0.635531  1
  N  N32  1  0.098047  0.453796  0.145701  1
  N  N33  1  0.575869  0.083094  0.613895  1
  N  N34  1  0.876634  0.199514  0.086149  1
  N  N35  1  0.426054  0.823257  0.662687  1
