# generated using pymatgen
data_Li4Mn5P6WO24
_symmetry_space_group_name_H-M   'P 1'
_cell_length_a   8.72833637
_cell_length_b   8.74463364
_cell_length_c   8.75535153
_cell_angle_alpha   62.25192654
_cell_angle_beta   62.43713391
_cell_angle_gamma   62.77152449
_symmetry_Int_Tables_number   1
_chemical_formula_structural   Li4Mn5P6WO24
_chemical_formula_sum   'Li4 Mn5 P6 W1 O24'
_cell_volume   498.70339696
_cell_formula_units_Z   1
loop_
 _symmetry_equiv_pos_site_id
 _symmetry_equiv_pos_as_xyz
  1  'x, y, z'
loop_
 _atom_site_type_symbol
 _atom_site_label
 _atom_site_symmetry_multiplicity
 _atom_site_fract_x
 _atom_site_fract_y
 _atom_site_fract_z
 _atom_site_occupancy
  Li  Li0  1  0.746261  0.153473  0.354162  1
  Li  Li1  1  0.298075  0.846732  0.648345  1
  Li  Li2  1  0.637898  0.299492  0.849569  1
  Li  Li3  1  0.848691  0.640761  0.303818  1
  Mn  Mn4  1  0.021131  0.002804  0.001531  1
  Mn  Mn5  1  0.346928  0.351878  0.349260  1
  Mn  Mn6  1  0.487038  0.505224  0.500018  1
  Mn  Mn7  1  0.152485  0.154022  0.151178  1
  Mn  Mn8  1  0.655519  0.657807  0.660665  1
  P  P9  1  0.055715  0.743140  0.441668  1
  P  P10  1  0.441880  0.054170  0.748544  1
  P  P11  1  0.747248  0.438067  0.053305  1
  P  P12  1  0.247095  0.554195  0.945977  1
  P  P13  1  0.562985  0.949746  0.250424  1
  P  P14  1  0.932473  0.244154  0.547614  1
  W  W15  1  0.853314  0.846619  0.852583  1
  O  O16  1  0.464235  0.907397  0.681816  1
  O  O17  1  0.676795  0.463363  0.909554  1
  O  O18  1  0.911833  0.666999  0.473277  1
  O  O19  1  0.055243  0.909006  0.264804  1
  O  O20  1  0.000393  0.803560  0.608845  1
  O  O21  1  0.245120  0.600728  0.431152  1
  O  O22  1  0.255715  0.079903  0.898783  1
  O  O23  1  0.457081  0.234523  0.588912  1
  O  O24  1  0.167038  0.414114  0.986875  1
  O  O25  1  0.605725  0.430965  0.245350  1
  O  O26  1  0.103961  0.758077  0.904809  1
  O  O27  1  0.404658  0.009576  0.187922  1
  O  O28  1  0.599612  0.989706  0.823466  1
  O  O29  1  0.898046  0.251218  0.075796  1
  O  O30  1  0.403649  0.568584  0.755889  1
  O  O31  1  0.815698  0.601392  0.992144  1
  O  O32  1  0.572777  0.759183  0.404629  1
  O  O33  1  0.758123  0.903655  0.096416  1
  O  O34  1  0.750322  0.404426  0.574335  1
  O  O35  1  0.941089  0.177459  0.409900  1
  O  O36  1  0.905254  0.094260  0.749500  1
  O  O37  1  0.102545  0.284180  0.502160  1
  O  O38  1  0.303732  0.527928  0.098155  1
  O  O39  1  0.566622  0.094515  0.299851  1
