# generated using pymatgen
data_Li2V5CuO12
_symmetry_space_group_name_H-M   'P 1'
_cell_length_a   6.88379163
_cell_length_b   6.88379163
_cell_length_c   5.85434810
_cell_angle_alpha   74.35136714
_cell_angle_beta   105.64863286
_cell_angle_gamma   97.61702873
_symmetry_Int_Tables_number   1
_chemical_formula_structural   Li2V5CuO12
_chemical_formula_sum   'Li2 V5 Cu1 O12'
_cell_volume   256.69779766
_cell_formula_units_Z   1
loop_
 _symmetry_equiv_pos_site_id
 _symmetry_equiv_pos_as_xyz
  1  'x, y, z'
loop_
 _atom_site_type_symbol
 _atom_site_label
 _atom_site_symmetry_multiplicity
 _atom_site_fract_x
 _atom_site_fract_y
 _atom_site_fract_z
 _atom_site_occupancy
  Li  Li0  1  0.749219  0.749219  0.500000  1
  Li  Li1  1  0.237583  0.237583  0.000000  1
  V  V2  1  0.085208  0.085208  0.500000  1
  V  V3  1  0.389601  0.797253  0.015359  1
  V  V4  1  0.193940  0.608175  0.519378  1
  V  V5  1  0.797253  0.389601  0.984641  1
  V  V6  1  0.608175  0.193940  0.480622  1
  Cu  Cu7  1  0.901477  0.901477  0.000000  1
  O  O8  1  0.210452  0.981800  0.887076  1
  O  O9  1  0.630260  0.905479  0.063552  1
  O  O10  1  0.024684  0.806838  0.422551  1
  O  O11  1  0.359626  0.629626  0.822909  1
  O  O12  1  0.905479  0.630260  0.936448  1
  O  O13  1  0.368680  0.662816  0.312720  1
  O  O14  1  0.629626  0.359626  0.177091  1
  O  O15  1  0.104654  0.352632  0.570548  1
  O  O16  1  0.662816  0.368680  0.687280  1
  O  O17  1  0.981800  0.210452  0.112924  1
  O  O18  1  0.352632  0.104654  0.429452  1
  O  O19  1  0.806838  0.024684  0.577449  1
