# generated using pymatgen
data_Li2Mn3(BO3)3
_symmetry_space_group_name_H-M   'P 1'
_cell_length_a   5.85628769
_cell_length_b   8.25964857
_cell_length_c   9.12689358
_cell_angle_alpha   112.89122088
_cell_angle_beta   102.36737778
_cell_angle_gamma   101.79346739
_symmetry_Int_Tables_number   1
_chemical_formula_structural   Li2Mn3(BO3)3
_chemical_formula_sum   'Li4 Mn6 B6 O18'
_cell_volume   376.41902164
_cell_formula_units_Z   2
loop_
 _symmetry_equiv_pos_site_id
 _symmetry_equiv_pos_as_xyz
  1  'x, y, z'
loop_
 _atom_site_type_symbol
 _atom_site_label
 _atom_site_symmetry_multiplicity
 _atom_site_fract_x
 _atom_site_fract_y
 _atom_site_fract_z
 _atom_site_occupancy
  Li  Li0  1  0.109075  0.780723  0.104260  1
  Li  Li1  1  0.890925  0.219277  0.895740  1
  Li  Li2  1  0.238710  0.555560  0.561359  1
  Li  Li3  1  0.761290  0.444440  0.438641  1
  Mn  Mn4  1  0.068386  0.819513  0.475085  1
  Mn  Mn5  1  0.931614  0.180487  0.524915  1
  Mn  Mn6  1  0.304830  0.550611  0.221912  1
  Mn  Mn7  1  0.398419  0.148512  0.115544  1
  Mn  Mn8  1  0.695170  0.449389  0.778088  1
  Mn  Mn9  1  0.601581  0.851488  0.884456  1
  B  B10  1  0.952274  0.213837  0.211719  1
  B  B11  1  0.047726  0.786163  0.788281  1
  B  B12  1  0.256091  0.520707  0.870920  1
  B  B13  1  0.378503  0.128824  0.432491  1
  B  B14  1  0.621497  0.871176  0.567509  1
  B  B15  1  0.743909  0.479293  0.129080  1
  O  O16  1  0.980637  0.681323  0.616229  1
  O  O17  1  0.963569  0.627491  0.217086  1
  O  O18  1  0.896160  0.745698  0.878588  1
  O  O19  1  0.019363  0.318677  0.383771  1
  O  O20  1  0.103840  0.254302  0.121412  1
  O  O21  1  0.036431  0.372509  0.782914  1
  O  O22  1  0.390497  0.729234  0.480644  1
  O  O23  1  0.240788  0.092102  0.530415  1
  O  O24  1  0.329110  0.629647  0.039556  1
  O  O25  1  0.294818  0.032029  0.263594  1
  O  O26  1  0.398986  0.565854  0.776535  1
  O  O27  1  0.277791  0.921297  0.879033  1
  O  O28  1  0.609503  0.270766  0.519356  1
  O  O29  1  0.601014  0.434146  0.223465  1
  O  O30  1  0.670890  0.370353  0.960444  1
  O  O31  1  0.759212  0.907898  0.469585  1
  O  O32  1  0.722209  0.078703  0.120967  1
  O  O33  1  0.705182  0.967971  0.736406  1
