# generated using pymatgen
data_Rb2LiV(PO4)2
_symmetry_space_group_name_H-M   'P 1'
_cell_length_a   7.29474319
_cell_length_b   9.69228064
_cell_length_c   12.73858298
_cell_angle_alpha   90.00000000
_cell_angle_beta   90.00000000
_cell_angle_gamma   90.00000000
_symmetry_Int_Tables_number   1
_chemical_formula_structural   Rb2LiV(PO4)2
_chemical_formula_sum   'Rb8 Li4 V4 P8 O32'
_cell_volume   900.65218788
_cell_formula_units_Z   4
loop_
 _symmetry_equiv_pos_site_id
 _symmetry_equiv_pos_as_xyz
  1  'x, y, z'
loop_
 _atom_site_type_symbol
 _atom_site_label
 _atom_site_symmetry_multiplicity
 _atom_site_fract_x
 _atom_site_fract_y
 _atom_site_fract_z
 _atom_site_occupancy
  Rb  Rb0  1  0.267710  0.806204  0.901449  1
  Rb  Rb1  1  0.308265  0.410659  0.090818  1
  Rb  Rb2  1  0.191735  0.589341  0.590818  1
  Rb  Rb3  1  0.232290  0.193796  0.401449  1
  Rb  Rb4  1  0.767710  0.693796  0.098551  1
  Rb  Rb5  1  0.808265  0.089341  0.909182  1
  Rb  Rb6  1  0.691735  0.910659  0.409182  1
  Rb  Rb7  1  0.732290  0.306204  0.598551  1
  Li  Li8  1  0.369899  0.121115  0.994649  1
  Li  Li9  1  0.130101  0.878885  0.494649  1
  Li  Li10  1  0.869899  0.378885  0.005351  1
  Li  Li11  1  0.630101  0.621115  0.505351  1
  V  V12  1  0.252144  0.750064  0.300495  1
  V  V13  1  0.247856  0.249936  0.800495  1
  V  V14  1  0.752144  0.749936  0.699505  1
  V  V15  1  0.747856  0.250064  0.199505  1
  P  P16  1  0.481973  0.973908  0.150563  1
  P  P17  1  0.419035  0.987955  0.672490  1
  P  P18  1  0.080965  0.012045  0.172490  1
  P  P19  1  0.018027  0.026092  0.650563  1
  P  P20  1  0.981973  0.526092  0.849437  1
  P  P21  1  0.919035  0.512045  0.327510  1
  P  P22  1  0.580965  0.487955  0.827510  1
  P  P23  1  0.518027  0.473908  0.349437  1
  O  O24  1  0.487778  0.347397  0.811175  1
  O  O25  1  0.474509  0.071781  0.577244  1
  O  O26  1  0.473696  0.461566  0.466447  1
  O  O27  1  0.438433  0.831604  0.199130  1
  O  O28  1  0.408844  0.066858  0.777242  1
  O  O29  1  0.380055  0.553615  0.283392  1
  O  O30  1  0.325966  0.788344  0.432413  1
  O  O31  1  0.295269  0.069217  0.151911  1
  O  O32  1  0.204731  0.930783  0.651911  1
  O  O33  1  0.174034  0.211656  0.932413  1
  O  O34  1  0.119945  0.446385  0.783392  1
  O  O35  1  0.091156  0.933142  0.277242  1
  O  O36  1  0.061567  0.168396  0.699130  1
  O  O37  1  0.026304  0.538434  0.966447  1
  O  O38  1  0.025491  0.928219  0.077244  1
  O  O39  1  0.012222  0.652603  0.311175  1
  O  O40  1  0.987778  0.152603  0.188825  1
  O  O41  1  0.974509  0.428219  0.422756  1
  O  O42  1  0.973696  0.038434  0.533553  1
  O  O43  1  0.938433  0.668396  0.800870  1
  O  O44  1  0.908844  0.433142  0.222758  1
  O  O45  1  0.880055  0.946385  0.716608  1
  O  O46  1  0.825966  0.711656  0.567587  1
  O  O47  1  0.795269  0.430783  0.848089  1
  O  O48  1  0.704731  0.569217  0.348089  1
  O  O49  1  0.674034  0.288344  0.067587  1
  O  O50  1  0.619945  0.053615  0.216608  1
  O  O51  1  0.591156  0.566858  0.722758  1
  O  O52  1  0.561567  0.331604  0.300870  1
  O  O53  1  0.526304  0.961566  0.033553  1
  O  O54  1  0.525491  0.571781  0.922756  1
  O  O55  1  0.512222  0.847397  0.688825  1
