# generated using pymatgen
data_TbLuO3
_symmetry_space_group_name_H-M   'P 1'
_cell_length_a   5.61601806
_cell_length_b   5.88403765
_cell_length_c   8.26636531
_cell_angle_alpha   90.00000000
_cell_angle_beta   90.00000000
_cell_angle_gamma   90.00000000
_symmetry_Int_Tables_number   1
_chemical_formula_structural   TbLuO3
_chemical_formula_sum   'Tb4 Lu4 O12'
_cell_volume   273.16089850
_cell_formula_units_Z   4
loop_
 _symmetry_equiv_pos_site_id
 _symmetry_equiv_pos_as_xyz
  1  'x, y, z'
loop_
 _atom_site_type_symbol
 _atom_site_label
 _atom_site_symmetry_multiplicity
 _atom_site_fract_x
 _atom_site_fract_y
 _atom_site_fract_z
 _atom_site_occupancy
  Tb  Tb0  1  0.017096  0.945100  0.750000  1
  Tb  Tb1  1  0.482904  0.445100  0.750000  1
  Tb  Tb2  1  0.517096  0.554900  0.250000  1
  Tb  Tb3  1  0.982904  0.054900  0.250000  1
  Lu  Lu4  1  0.000000  0.500000  0.000000  1
  Lu  Lu5  1  0.000000  0.500000  0.500000  1
  Lu  Lu6  1  0.500000  0.000000  0.000000  1
  Lu  Lu7  1  0.500000  0.000000  0.500000  1
  O  O8  1  0.140339  0.431504  0.250000  1
  O  O9  1  0.184868  0.187809  0.573628  1
  O  O10  1  0.184868  0.187809  0.926372  1
  O  O11  1  0.315132  0.687809  0.926372  1
  O  O12  1  0.315132  0.687809  0.573628  1
  O  O13  1  0.359661  0.931504  0.250000  1
  O  O14  1  0.640339  0.068496  0.750000  1
  O  O15  1  0.684868  0.312191  0.073628  1
  O  O16  1  0.684868  0.312191  0.426372  1
  O  O17  1  0.815132  0.812191  0.073628  1
  O  O18  1  0.815132  0.812191  0.426372  1
  O  O19  1  0.859661  0.568496  0.750000  1
