# generated using pymatgen
data_Ba6YI15
_symmetry_space_group_name_H-M   'P 1'
_cell_length_a   12.01637472
_cell_length_b   12.01637472
_cell_length_c   34.38486222
_cell_angle_alpha   89.96809001
_cell_angle_beta   90.03190999
_cell_angle_gamma   88.09834959
_symmetry_Int_Tables_number   1
_chemical_formula_structural   Ba6YI15
_chemical_formula_sum   'Ba24 Y4 I60'
_cell_volume   4962.20641747
_cell_formula_units_Z   4
loop_
 _symmetry_equiv_pos_site_id
 _symmetry_equiv_pos_as_xyz
  1  'x, y, z'
loop_
 _atom_site_type_symbol
 _atom_site_label
 _atom_site_symmetry_multiplicity
 _atom_site_fract_x
 _atom_site_fract_y
 _atom_site_fract_z
 _atom_site_occupancy
  Ba  Ba0  1  0.994805  0.026609  0.616126  1
  Ba  Ba1  1  0.973391  0.005195  0.116126  1
  Ba  Ba2  1  0.055369  0.454082  0.635125  1
  Ba  Ba3  1  0.818147  0.248770  0.742537  1
  Ba  Ba4  1  0.545918  0.944631  0.135125  1
  Ba  Ba5  1  0.751230  0.181853  0.242537  1
  Ba  Ba6  1  0.563778  0.079822  0.629166  1
  Ba  Ba7  1  0.775774  0.321246  0.523410  1
  Ba  Ba8  1  0.920178  0.436222  0.129166  1
  Ba  Ba9  1  0.678754  0.224226  0.023410  1
  Ba  Ba10  1  0.606243  0.542201  0.642716  1
  Ba  Ba11  1  0.457799  0.393757  0.142716  1
  Ba  Ba12  1  0.542201  0.606243  0.857284  1
  Ba  Ba13  1  0.393757  0.457799  0.357284  1
  Ba  Ba14  1  0.321246  0.775774  0.976590  1
  Ba  Ba15  1  0.079822  0.563778  0.870834  1
  Ba  Ba16  1  0.224226  0.678754  0.476590  1
  Ba  Ba17  1  0.436222  0.920178  0.370834  1
  Ba  Ba18  1  0.248770  0.818147  0.757463  1
  Ba  Ba19  1  0.454082  0.055369  0.864875  1
  Ba  Ba20  1  0.181853  0.751230  0.257463  1
  Ba  Ba21  1  0.944631  0.545918  0.364875  1
  Ba  Ba22  1  0.026609  0.994805  0.883874  1
  Ba  Ba23  1  0.005195  0.973391  0.383874  1
  Y  Y24  1  0.747642  0.292945  0.886890  1
  Y  Y25  1  0.707055  0.252358  0.386890  1
  Y  Y26  1  0.292945  0.747642  0.613110  1
  Y  Y27  1  0.252358  0.707055  0.113110  1
  I  I28  1  0.822166  0.101525  0.945752  1
  I  I29  1  0.898475  0.177834  0.445752  1
  I  I30  1  0.784083  0.089850  0.828432  1
  I  I31  1  0.756835  0.042837  0.556555  1
  I  I32  1  0.910150  0.215917  0.328432  1
  I  I33  1  0.957163  0.243165  0.056555  1
  I  I34  1  0.530680  0.240631  0.936485  1
  I  I35  1  0.845192  0.512260  0.702471  1
  I  I36  1  0.759369  0.469320  0.436485  1
  I  I37  1  0.292015  0.013417  0.612682  1
  I  I38  1  0.487740  0.154808  0.202471  1
  I  I39  1  0.541634  0.319262  0.828274  1
  I  I40  1  0.986583  0.707985  0.112682  1
  I  I41  1  0.830311  0.558814  0.578797  1
  I  I42  1  0.565501  0.292003  0.698812  1
  I  I43  1  0.735935  0.493612  0.938345  1
  I  I44  1  0.259693  0.038788  0.938911  1
  I  I45  1  0.002568  0.788949  0.812616  1
  I  I46  1  0.680738  0.458366  0.328273  1
  I  I47  1  0.441186  0.169689  0.078797  1
  I  I48  1  0.707997  0.434499  0.198812  1
  I  I49  1  0.506388  0.264065  0.438345  1
  I  I50  1  0.961212  0.740307  0.438911  1
  I  I51  1  0.211051  0.997432  0.312616  1
  I  I52  1  0.812261  0.479361  0.823273  1
  I  I53  1  0.536325  0.334155  0.577570  1
  I  I54  1  0.212037  0.069519  0.808211  1
  I  I55  1  0.520639  0.187739  0.323273  1
  I  I56  1  0.665845  0.463675  0.077570  1
  I  I57  1  0.930481  0.787963  0.308211  1
  I  I58  1  0.069519  0.212037  0.691789  1
  I  I59  1  0.334155  0.536325  0.922430  1
  I  I60  1  0.479361  0.812261  0.676727  1
  I  I61  1  0.787963  0.930481  0.191789  1
  I  I62  1  0.463675  0.665845  0.422430  1
  I  I63  1  0.187739  0.520639  0.176727  1
  I  I64  1  0.788949  0.002568  0.687384  1
  I  I65  1  0.038788  0.259693  0.561089  1
  I  I66  1  0.493612  0.735935  0.561655  1
  I  I67  1  0.292003  0.565501  0.801188  1
  I  I68  1  0.558814  0.830311  0.921203  1
  I  I69  1  0.319262  0.541634  0.671727  1
  I  I70  1  0.997432  0.211051  0.187384  1
  I  I71  1  0.740307  0.961212  0.061089  1
  I  I72  1  0.264065  0.506388  0.061655  1
  I  I73  1  0.434499  0.707997  0.301188  1
  I  I74  1  0.169689  0.441186  0.421203  1
  I  I75  1  0.013417  0.292015  0.887318  1
  I  I76  1  0.458366  0.680738  0.171727  1
  I  I77  1  0.512260  0.845192  0.797529  1
  I  I78  1  0.707985  0.986583  0.387318  1
  I  I79  1  0.240631  0.530680  0.563515  1
  I  I80  1  0.154808  0.487740  0.297529  1
  I  I81  1  0.469320  0.759369  0.063515  1
  I  I82  1  0.042837  0.756835  0.943445  1
  I  I83  1  0.089850  0.784083  0.671568  1
  I  I84  1  0.243165  0.957163  0.443445  1
  I  I85  1  0.215917  0.910150  0.171568  1
  I  I86  1  0.101525  0.822166  0.554248  1
  I  I87  1  0.177834  0.898475  0.054248  1
