# generated using pymatgen
data_CaFe2P3HO12
_symmetry_space_group_name_H-M   'P 1'
_cell_length_a   6.45567191
_cell_length_b   20.04675964
_cell_length_c   9.13290626
_cell_angle_alpha   90.00000000
_cell_angle_beta   133.69069533
_cell_angle_gamma   90.00000000
_symmetry_Int_Tables_number   1
_chemical_formula_structural   CaFe2P3HO12
_chemical_formula_sum   'Ca4 Fe8 P12 H4 O48'
_cell_volume   854.63482058
_cell_formula_units_Z   4
loop_
 _symmetry_equiv_pos_site_id
 _symmetry_equiv_pos_as_xyz
  1  'x, y, z'
loop_
 _atom_site_type_symbol
 _atom_site_label
 _atom_site_symmetry_multiplicity
 _atom_site_fract_x
 _atom_site_fract_y
 _atom_site_fract_z
 _atom_site_occupancy
  Ca  Ca0  1  0.795804  0.919870  0.944040  1
  Ca  Ca1  1  0.795804  0.580130  0.444040  1
  Ca  Ca2  1  0.204196  0.080130  0.055960  1
  Ca  Ca3  1  0.204196  0.419870  0.555960  1
  Fe  Fe4  1  0.687326  0.901902  0.281768  1
  Fe  Fe5  1  0.687326  0.598098  0.781768  1
  Fe  Fe6  1  0.312674  0.098098  0.718232  1
  Fe  Fe7  1  0.312674  0.401902  0.218232  1
  Fe  Fe8  1  0.338401  0.788139  0.899657  1
  Fe  Fe9  1  0.338401  0.711861  0.399657  1
  Fe  Fe10  1  0.661599  0.211861  0.100343  1
  Fe  Fe11  1  0.661599  0.288139  0.600343  1
  P  P12  1  0.301749  0.878587  0.383930  1
  P  P13  1  0.301749  0.621413  0.883930  1
  P  P14  1  0.698251  0.121413  0.616070  1
  P  P15  1  0.698251  0.378587  0.116070  1
  P  P16  1  0.855873  0.746546  0.411806  1
  P  P17  1  0.855873  0.753454  0.911806  1
  P  P18  1  0.144127  0.253454  0.588194  1
  P  P19  1  0.144127  0.246546  0.088194  1
  P  P20  1  0.168681  0.948537  0.783727  1
  P  P21  1  0.168681  0.551463  0.283727  1
  P  P22  1  0.831319  0.051463  0.216273  1
  P  P23  1  0.831319  0.448537  0.716273  1
  H  H24  1  0.656445  0.946765  0.605125  1
  H  H25  1  0.656445  0.553235  0.105125  1
  H  H26  1  0.343555  0.053235  0.394875  1
  H  H27  1  0.343555  0.446765  0.894875  1
  O  O28  1  0.991163  0.892296  0.276560  1
  O  O29  1  0.991163  0.607704  0.776560  1
  O  O30  1  0.008837  0.107704  0.723440  1
  O  O31  1  0.008837  0.392296  0.223440  1
  O  O32  1  0.490159  0.927530  0.576872  1
  O  O33  1  0.490159  0.572470  0.076872  1
  O  O34  1  0.509841  0.072470  0.423128  1
  O  O35  1  0.509841  0.427530  0.923128  1
  O  O36  1  0.332312  0.901410  0.237899  1
  O  O37  1  0.332312  0.598590  0.737899  1
  O  O38  1  0.667688  0.098590  0.762101  1
  O  O39  1  0.667688  0.401410  0.262101  1
  O  O40  1  0.400146  0.807617  0.459193  1
  O  O41  1  0.400146  0.692383  0.959193  1
  O  O42  1  0.599854  0.192383  0.540807  1
  O  O43  1  0.599854  0.307617  0.040807  1
  O  O44  1  0.648702  0.799937  0.239323  1
  O  O45  1  0.648702  0.700063  0.739323  1
  O  O46  1  0.351298  0.200063  0.760677  1
  O  O47  1  0.351298  0.299937  0.260677  1
  O  O48  1  0.084714  0.785387  0.609151  1
  O  O49  1  0.084714  0.714613  0.109151  1
  O  O50  1  0.915286  0.214613  0.390849  1
  O  O51  1  0.915286  0.285387  0.890849  1
  O  O52  1  0.002523  0.701230  0.368794  1
  O  O53  1  0.002523  0.798770  0.868794  1
  O  O54  1  0.997477  0.298770  0.631206  1
  O  O55  1  0.997477  0.201230  0.131206  1
  O  O56  1  0.680977  0.698813  0.426066  1
  O  O57  1  0.680977  0.801187  0.926066  1
  O  O58  1  0.319023  0.301187  0.573934  1
  O  O59  1  0.319023  0.198813  0.073934  1
  O  O60  1  0.928839  0.918854  0.569826  1
  O  O61  1  0.928839  0.581146  0.069826  1
  O  O62  1  0.071161  0.081146  0.430174  1
  O  O63  1  0.071161  0.418854  0.930174  1
  O  O64  1  0.392966  0.892281  0.935701  1
  O  O65  1  0.392966  0.607719  0.435701  1
  O  O66  1  0.607034  0.107719  0.064299  1
  O  O67  1  0.607034  0.392281  0.564299  1
  O  O68  1  0.031270  0.976702  0.856324  1
  O  O69  1  0.031270  0.523298  0.356324  1
  O  O70  1  0.968730  0.023298  0.143676  1
  O  O71  1  0.968730  0.476702  0.643676  1
  O  O72  1  0.348912  0.999856  0.783713  1
  O  O73  1  0.348912  0.500144  0.283713  1
  O  O74  1  0.651088  0.000144  0.216287  1
  O  O75  1  0.651088  0.499856  0.716287  1
