# generated using pymatgen
data_Li4Ti2Ni3Sn3O16
_symmetry_space_group_name_H-M   'P 1'
_cell_length_a   6.01577053
_cell_length_b   6.01577053
_cell_length_c   9.63158846
_cell_angle_alpha   88.16406122
_cell_angle_beta   91.83593878
_cell_angle_gamma   119.07072562
_symmetry_Int_Tables_number   1
_chemical_formula_structural   Li4Ti2Ni3Sn3O16
_chemical_formula_sum   'Li4 Ti2 Ni3 Sn3 O16'
_cell_volume   304.44013115
_cell_formula_units_Z   1
loop_
 _symmetry_equiv_pos_site_id
 _symmetry_equiv_pos_as_xyz
  1  'x, y, z'
loop_
 _atom_site_type_symbol
 _atom_site_label
 _atom_site_symmetry_multiplicity
 _atom_site_fract_x
 _atom_site_fract_y
 _atom_site_fract_z
 _atom_site_occupancy
  Li  Li0  1  0.322637  0.677363  0.890746  1
  Li  Li1  1  0.020308  0.979692  0.989415  1
  Li  Li2  1  0.012325  0.987675  0.500564  1
  Li  Li3  1  0.666762  0.333238  0.402680  1
  Ti  Ti4  1  0.323375  0.676625  0.494177  1
  Ti  Ti5  1  0.641769  0.358231  0.986084  1
  Ni  Ni6  1  0.170751  0.829249  0.216597  1
  Ni  Ni7  1  0.823846  0.659649  0.714352  1
  Ni  Ni8  1  0.340351  0.176154  0.714352  1
  Sn  Sn9  1  0.660575  0.832593  0.213665  1
  Sn  Sn10  1  0.167407  0.339425  0.213665  1
  Sn  Sn11  1  0.830131  0.169869  0.714847  1
  O  O12  1  0.675788  0.829544  0.597439  1
  O  O13  1  0.487636  0.512364  0.342539  1
  O  O14  1  0.326391  0.673609  0.098222  1
  O  O15  1  0.005999  0.994001  0.313425  1
  O  O16  1  0.014296  0.985704  0.802010  1
  O  O17  1  0.170456  0.324212  0.597439  1
  O  O18  1  0.487775  0.958965  0.353089  1
  O  O19  1  0.041035  0.512225  0.353089  1
  O  O20  1  0.835954  0.164046  0.086362  1
  O  O21  1  0.180589  0.819411  0.591337  1
  O  O22  1  0.953329  0.490911  0.839134  1
  O  O23  1  0.509089  0.046671  0.839134  1
  O  O24  1  0.651683  0.348317  0.611488  1
  O  O25  1  0.823628  0.658951  0.091233  1
  O  O26  1  0.512683  0.487317  0.849607  1
  O  O27  1  0.341049  0.176372  0.091233  1
