# generated using pymatgen
data_ZrO2
_symmetry_space_group_name_H-M   'P 1'
_cell_length_a   4.95715937
_cell_length_b   5.91633747
_cell_length_c   16.31673251
_cell_angle_alpha   90.00000000
_cell_angle_beta   90.00000000
_cell_angle_gamma   90.00000000
_symmetry_Int_Tables_number   1
_chemical_formula_structural   ZrO2
_chemical_formula_sum   'Zr12 O24'
_cell_volume   478.54084679
_cell_formula_units_Z   12
loop_
 _symmetry_equiv_pos_site_id
 _symmetry_equiv_pos_as_xyz
  1  'x, y, z'
loop_
 _atom_site_type_symbol
 _atom_site_label
 _atom_site_symmetry_multiplicity
 _atom_site_fract_x
 _atom_site_fract_y
 _atom_site_fract_z
 _atom_site_occupancy
  Zr  Zr0  1  0.002462  0.345849  0.084053  1
  Zr  Zr1  1  0.000000  0.017065  0.250000  1
  Zr  Zr2  1  0.997538  0.345849  0.415947  1
  Zr  Zr3  1  0.000000  0.982935  0.750000  1
  Zr  Zr4  1  0.002462  0.654151  0.584053  1
  Zr  Zr5  1  0.997538  0.654151  0.915947  1
  Zr  Zr6  1  0.502462  0.154151  0.915947  1
  Zr  Zr7  1  0.497538  0.154151  0.584053  1
  Zr  Zr8  1  0.500000  0.482935  0.750000  1
  Zr  Zr9  1  0.502462  0.845849  0.415947  1
  Zr  Zr10  1  0.497538  0.845849  0.084053  1
  Zr  Zr11  1  0.500000  0.517065  0.250000  1
  O  O12  1  0.202783  0.628805  0.030218  1
  O  O13  1  0.202783  0.371195  0.530218  1
  O  O14  1  0.280800  0.193510  0.695934  1
  O  O15  1  0.280800  0.806490  0.195934  1
  O  O16  1  0.209297  0.067601  0.362649  1
  O  O17  1  0.209297  0.932399  0.862649  1
  O  O18  1  0.290703  0.567601  0.362649  1
  O  O19  1  0.290703  0.432399  0.862649  1
  O  O20  1  0.219200  0.306490  0.195934  1
  O  O21  1  0.219200  0.693510  0.695934  1
  O  O22  1  0.297217  0.128805  0.030218  1
  O  O23  1  0.297217  0.871195  0.530218  1
  O  O24  1  0.702783  0.128805  0.469782  1
  O  O25  1  0.702783  0.871195  0.969782  1
  O  O26  1  0.780800  0.306490  0.304066  1
  O  O27  1  0.780800  0.693510  0.804066  1
  O  O28  1  0.709297  0.432399  0.637351  1
  O  O29  1  0.709297  0.567601  0.137351  1
  O  O30  1  0.790703  0.067601  0.137351  1
  O  O31  1  0.790703  0.932399  0.637351  1
  O  O32  1  0.719200  0.193510  0.804066  1
  O  O33  1  0.719200  0.806490  0.304066  1
  O  O34  1  0.797217  0.371195  0.969782  1
  O  O35  1  0.797217  0.628805  0.469782  1
