# generated using pymatgen
data_ErAsO4
_symmetry_space_group_name_H-M   'P 1'
_cell_length_a   5.93358635
_cell_length_b   5.93358635
_cell_length_c   5.93358635
_cell_angle_alpha   106.53157254
_cell_angle_beta   106.53157254
_cell_angle_gamma   115.52549579
_symmetry_Int_Tables_number   1
_chemical_formula_structural   ErAsO4
_chemical_formula_sum   'Er2 As2 O8'
_cell_volume   159.45545752
_cell_formula_units_Z   2
loop_
 _symmetry_equiv_pos_site_id
 _symmetry_equiv_pos_as_xyz
  1  'x, y, z'
loop_
 _atom_site_type_symbol
 _atom_site_label
 _atom_site_symmetry_multiplicity
 _atom_site_fract_x
 _atom_site_fract_y
 _atom_site_fract_z
 _atom_site_occupancy
  Er  Er0  1  1.000000  1.000000  0.000000  1
  Er  Er1  1  0.250000  0.750000  0.500000  1
  As  As2  1  0.750000  0.250000  0.500000  1
  As  As3  1  0.500000  0.500000  0.000000  1
  O  O4  1  0.753910  0.071350  0.682561  1
  O  O5  1  0.928650  0.246090  0.317439  1
  O  O6  1  0.388789  0.071350  0.317439  1
  O  O7  1  0.928650  0.611211  0.682561  1
  O  O8  1  0.321350  0.138789  0.817439  1
  O  O9  1  0.861211  0.678650  0.182561  1
  O  O10  1  0.321350  0.503910  0.182561  1
  O  O11  1  0.496090  0.678650  0.817439  1
