# generated using pymatgen
data_La4Al2O9
_symmetry_space_group_name_H-M   'P 1'
_cell_length_a   7.95169656
_cell_length_b   11.13643870
_cell_length_c   11.60357654
_cell_angle_alpha   90.00000000
_cell_angle_beta   109.46775893
_cell_angle_gamma   90.00000000
_symmetry_Int_Tables_number   1
_chemical_formula_structural   La4Al2O9
_chemical_formula_sum   'La16 Al8 O36'
_cell_volume   968.79305284
_cell_formula_units_Z   4
loop_
 _symmetry_equiv_pos_site_id
 _symmetry_equiv_pos_as_xyz
  1  'x, y, z'
loop_
 _atom_site_type_symbol
 _atom_site_label
 _atom_site_symmetry_multiplicity
 _atom_site_fract_x
 _atom_site_fract_y
 _atom_site_fract_z
 _atom_site_occupancy
  La  La0  1  0.974288  0.912300  0.190269  1
  La  La1  1  0.974288  0.587700  0.690269  1
  La  La2  1  0.837037  0.124225  0.416161  1
  La  La3  1  0.665032  0.625281  0.070497  1
  La  La4  1  0.837037  0.375775  0.916161  1
  La  La5  1  0.665032  0.874719  0.570497  1
  La  La6  1  0.524536  0.399437  0.290170  1
  La  La7  1  0.475464  0.899437  0.209830  1
  La  La8  1  0.524536  0.100563  0.790170  1
  La  La9  1  0.475464  0.600563  0.709830  1
  La  La10  1  0.334968  0.125281  0.429503  1
  La  La11  1  0.162963  0.624225  0.083839  1
  La  La12  1  0.334968  0.374719  0.929503  1
  La  La13  1  0.162963  0.875775  0.583839  1
  La  La14  1  0.025712  0.412300  0.309731  1
  La  La15  1  0.025712  0.087700  0.809731  1
  Al  Al16  1  0.774590  0.688245  0.371145  1
  Al  Al17  1  0.649378  0.186129  0.118681  1
  Al  Al18  1  0.774590  0.811755  0.871145  1
  Al  Al19  1  0.649378  0.313871  0.618681  1
  Al  Al20  1  0.350622  0.686129  0.381319  1
  Al  Al21  1  0.225410  0.188245  0.128855  1
  Al  Al22  1  0.350622  0.813871  0.881319  1
  Al  Al23  1  0.225410  0.311755  0.628855  1
  O  O24  1  0.919515  0.766519  0.016315  1
  O  O25  1  0.923572  0.497174  0.106204  1
  O  O26  1  0.919515  0.733481  0.516315  1
  O  O27  1  0.782461  0.274142  0.244942  1
  O  O28  1  0.769443  0.772379  0.238368  1
  O  O29  1  0.923572  0.002826  0.606204  1
  O  O30  1  0.782744  0.534239  0.335625  1
  O  O31  1  0.698635  0.034720  0.167259  1
  O  O32  1  0.782461  0.225858  0.744942  1
  O  O33  1  0.769443  0.727621  0.738368  1
  O  O34  1  0.638514  0.271312  0.468903  1
  O  O35  1  0.782744  0.965761  0.835625  1
  O  O36  1  0.565744  0.735614  0.382519  1
  O  O37  1  0.698635  0.465280  0.667259  1
  O  O38  1  0.432166  0.507020  0.103861  1
  O  O39  1  0.567834  0.007020  0.396139  1
  O  O40  1  0.434256  0.235614  0.117481  1
  O  O41  1  0.361486  0.771312  0.031097  1
  O  O42  1  0.638514  0.228688  0.968903  1
  O  O43  1  0.565744  0.764386  0.882519  1
  O  O44  1  0.432166  0.992980  0.603861  1
  O  O45  1  0.567834  0.492980  0.896139  1
  O  O46  1  0.301365  0.534720  0.332741  1
  O  O47  1  0.434256  0.264386  0.617481  1
  O  O48  1  0.217256  0.034239  0.164375  1
  O  O49  1  0.361486  0.728688  0.531097  1
  O  O50  1  0.230557  0.272379  0.261632  1
  O  O51  1  0.217539  0.774142  0.255058  1
  O  O52  1  0.301365  0.965280  0.832741  1
  O  O53  1  0.217256  0.465761  0.664375  1
  O  O54  1  0.076428  0.997174  0.393796  1
  O  O55  1  0.230557  0.227621  0.761632  1
  O  O56  1  0.217539  0.725858  0.755058  1
  O  O57  1  0.080485  0.266519  0.483685  1
  O  O58  1  0.076428  0.502826  0.893796  1
  O  O59  1  0.080485  0.233481  0.983685  1
