# generated using pymatgen
data_Sb4O5F2
_symmetry_space_group_name_H-M   'P 1'
_cell_length_a   7.87975251
_cell_length_b   9.59508882
_cell_length_c   9.96745568
_cell_angle_alpha   90.00000000
_cell_angle_beta   90.00000000
_cell_angle_gamma   90.00000000
_symmetry_Int_Tables_number   1
_chemical_formula_structural   Sb4O5F2
_chemical_formula_sum   'Sb16 O20 F8'
_cell_volume   753.60867616
_cell_formula_units_Z   4
loop_
 _symmetry_equiv_pos_site_id
 _symmetry_equiv_pos_as_xyz
  1  'x, y, z'
loop_
 _atom_site_type_symbol
 _atom_site_label
 _atom_site_symmetry_multiplicity
 _atom_site_fract_x
 _atom_site_fract_y
 _atom_site_fract_z
 _atom_site_occupancy
  Sb  Sb0  1  0.250000  0.970145  0.446692  1
  Sb  Sb1  1  0.750000  0.953580  0.021218  1
  Sb  Sb2  1  0.026262  0.772524  0.817266  1
  Sb  Sb3  1  0.473738  0.772524  0.817266  1
  Sb  Sb4  1  0.973738  0.727476  0.317266  1
  Sb  Sb5  1  0.526262  0.727476  0.317266  1
  Sb  Sb6  1  0.250000  0.546420  0.521218  1
  Sb  Sb7  1  0.750000  0.529855  0.946692  1
  Sb  Sb8  1  0.250000  0.470145  0.053308  1
  Sb  Sb9  1  0.750000  0.453580  0.478782  1
  Sb  Sb10  1  0.473738  0.272524  0.682734  1
  Sb  Sb11  1  0.026262  0.272524  0.682734  1
  Sb  Sb12  1  0.973738  0.227476  0.182734  1
  Sb  Sb13  1  0.526262  0.227476  0.182734  1
  Sb  Sb14  1  0.250000  0.046420  0.978782  1
  Sb  Sb15  1  0.750000  0.029855  0.553308  1
  O  O16  1  0.931470  0.954688  0.874386  1
  O  O17  1  0.568530  0.954688  0.874386  1
  O  O18  1  0.444261  0.836776  0.476491  1
  O  O19  1  0.055739  0.836776  0.476491  1
  O  O20  1  0.250000  0.835254  0.933459  1
  O  O21  1  0.750000  0.664746  0.433459  1
  O  O22  1  0.944261  0.663224  0.976491  1
  O  O23  1  0.555739  0.663224  0.976491  1
  O  O24  1  0.431470  0.545312  0.374386  1
  O  O25  1  0.068530  0.545312  0.374386  1
  O  O26  1  0.931470  0.454688  0.625614  1
  O  O27  1  0.568530  0.454688  0.625614  1
  O  O28  1  0.444261  0.336776  0.023509  1
  O  O29  1  0.055739  0.336776  0.023509  1
  O  O30  1  0.250000  0.335254  0.566541  1
  O  O31  1  0.750000  0.164746  0.066541  1
  O  O32  1  0.944261  0.163224  0.523509  1
  O  O33  1  0.555739  0.163224  0.523509  1
  O  O34  1  0.431470  0.045312  0.125614  1
  O  O35  1  0.068530  0.045312  0.125614  1
  F  F36  1  0.750000  0.999741  0.352506  1
  F  F37  1  0.250000  0.786343  0.259315  1
  F  F38  1  0.750000  0.713657  0.759315  1
  F  F39  1  0.250000  0.500259  0.852506  1
  F  F40  1  0.750000  0.499741  0.147494  1
  F  F41  1  0.250000  0.286343  0.240685  1
  F  F42  1  0.750000  0.213657  0.740685  1
  F  F43  1  0.250000  0.000259  0.647494  1
