# generated using pymatgen
data_LiFe2C2O7
_symmetry_space_group_name_H-M   'P 1'
_cell_length_a   4.87200724
_cell_length_b   4.87200724
_cell_length_c   15.96618878
_cell_angle_alpha   89.83053360
_cell_angle_beta   90.16946640
_cell_angle_gamma   59.76286070
_symmetry_Int_Tables_number   1
_chemical_formula_structural   LiFe2C2O7
_chemical_formula_sum   'Li2 Fe4 C4 O14'
_cell_volume   327.41407353
_cell_formula_units_Z   2
loop_
 _symmetry_equiv_pos_site_id
 _symmetry_equiv_pos_as_xyz
  1  'x, y, z'
loop_
 _atom_site_type_symbol
 _atom_site_label
 _atom_site_symmetry_multiplicity
 _atom_site_fract_x
 _atom_site_fract_y
 _atom_site_fract_z
 _atom_site_occupancy
  Li  Li0  1  0.998999  0.995892  0.011419  1
  Li  Li1  1  0.004108  0.001001  0.511419  1
  Fe  Fe2  1  0.335210  0.328378  0.134713  1
  Fe  Fe3  1  0.337291  0.328127  0.365415  1
  Fe  Fe4  1  0.671622  0.664790  0.634713  1
  Fe  Fe5  1  0.671873  0.662709  0.865415  1
  C  C6  1  0.667397  0.662863  0.082035  1
  C  C7  1  0.667329  0.663051  0.413130  1
  C  C8  1  0.337137  0.332603  0.582035  1
  C  C9  1  0.336949  0.332671  0.913130  1
  O  O10  1  0.393744  0.923886  0.413838  1
  O  O11  1  0.076114  0.606256  0.913838  1
  O  O12  1  0.388547  0.688892  0.083450  1
  O  O13  1  0.311108  0.611453  0.583450  1
  O  O14  1  0.689422  0.917211  0.080217  1
  O  O15  1  0.082789  0.310578  0.580217  1
  O  O16  1  0.657395  0.673479  0.756297  1
  O  O17  1  0.326521  0.342605  0.256297  1
  O  O18  1  0.927118  0.675035  0.412893  1
  O  O19  1  0.324965  0.072882  0.912893  1
  O  O20  1  0.679796  0.391515  0.413934  1
  O  O21  1  0.608485  0.320204  0.913934  1
  O  O22  1  0.920953  0.384779  0.081607  1
  O  O23  1  0.615221  0.079047  0.581607  1
