# generated using pymatgen
data_Li4Mn2Fe(BO3)4
_symmetry_space_group_name_H-M   'P 1'
_cell_length_a   5.26629462
_cell_length_b   9.18888054
_cell_length_c   10.72720122
_cell_angle_alpha   90.00000000
_cell_angle_beta   116.31304076
_cell_angle_gamma   90.00000000
_symmetry_Int_Tables_number   1
_chemical_formula_structural   Li4Mn2Fe(BO3)4
_chemical_formula_sum   'Li8 Mn4 Fe2 B8 O24'
_cell_volume   465.31712634
_cell_formula_units_Z   2
loop_
 _symmetry_equiv_pos_site_id
 _symmetry_equiv_pos_as_xyz
  1  'x, y, z'
loop_
 _atom_site_type_symbol
 _atom_site_label
 _atom_site_symmetry_multiplicity
 _atom_site_fract_x
 _atom_site_fract_y
 _atom_site_fract_z
 _atom_site_occupancy
  Li  Li0  1  0.498128  0.241057  0.664869  1
  Li  Li1  1  0.452093  0.912031  0.627954  1
  Li  Li2  1  0.929473  0.242985  0.114224  1
  Li  Li3  1  0.498450  0.719580  0.841060  1
  Li  Li4  1  0.929473  0.757015  0.614224  1
  Li  Li5  1  0.498128  0.758943  0.164869  1
  Li  Li6  1  0.452093  0.087969  0.127954  1
  Li  Li7  1  0.498450  0.280420  0.341060  1
  Mn  Mn8  1  0.976016  0.556606  0.119708  1
  Mn  Mn9  1  0.020887  0.073075  0.376062  1
  Mn  Mn10  1  0.976016  0.443394  0.619708  1
  Mn  Mn11  1  0.020887  0.926925  0.876062  1
  Fe  Fe12  1  0.071756  0.735023  0.386923  1
  Fe  Fe13  1  0.071756  0.264977  0.886923  1
  B  B14  1  0.449016  0.572552  0.614859  1
  B  B15  1  0.968963  0.908840  0.135970  1
  B  B16  1  0.556817  0.063279  0.881823  1
  B  B17  1  0.029574  0.402380  0.368177  1
  B  B18  1  0.968963  0.091160  0.635970  1
  B  B19  1  0.449016  0.427448  0.114859  1
  B  B20  1  0.029574  0.597620  0.868177  1
  B  B21  1  0.556817  0.936721  0.381823  1
  O  O22  1  0.835347  0.594001  0.923394  1
  O  O23  1  0.323622  0.922175  0.411281  1
  O  O24  1  0.712674  0.182970  0.886622  1
  O  O25  1  0.143311  0.274936  0.349576  1
  O  O26  1  0.618851  0.925614  0.847686  1
  O  O27  1  0.101898  0.531928  0.320930  1
  O  O28  1  0.360830  0.436392  0.634856  1
  O  O29  1  0.885819  0.040283  0.175627  1
  O  O30  1  0.871703  0.777978  0.158094  1
  O  O31  1  0.291540  0.698133  0.609100  1
  O  O32  1  0.163939  0.082554  0.578910  1
  O  O33  1  0.691479  0.411566  0.098979  1
  O  O34  1  0.323622  0.077825  0.911281  1
  O  O35  1  0.835347  0.405999  0.423394  1
  O  O36  1  0.143311  0.725064  0.849576  1
  O  O37  1  0.101898  0.468072  0.820930  1
  O  O38  1  0.712674  0.817030  0.386622  1
  O  O39  1  0.618851  0.074386  0.347686  1
  O  O40  1  0.885819  0.959717  0.675627  1
  O  O41  1  0.871703  0.222022  0.658094  1
  O  O42  1  0.360830  0.563608  0.134856  1
  O  O43  1  0.291540  0.301867  0.109100  1
  O  O44  1  0.691479  0.588434  0.598979  1
  O  O45  1  0.163939  0.917446  0.078910  1
