# generated using pymatgen
data_Cr5(Si2O7)2
_symmetry_space_group_name_H-M   'P 1'
_cell_length_a   5.67118529
_cell_length_b   7.39774063
_cell_length_c   7.88187566
_cell_angle_alpha   112.10507350
_cell_angle_beta   90.95609907
_cell_angle_gamma   106.06973076
_symmetry_Int_Tables_number   1
_chemical_formula_structural   Cr5(Si2O7)2
_chemical_formula_sum   'Cr5 Si4 O14'
_cell_volume   291.67351431
_cell_formula_units_Z   1
loop_
 _symmetry_equiv_pos_site_id
 _symmetry_equiv_pos_as_xyz
  1  'x, y, z'
loop_
 _atom_site_type_symbol
 _atom_site_label
 _atom_site_symmetry_multiplicity
 _atom_site_fract_x
 _atom_site_fract_y
 _atom_site_fract_z
 _atom_site_occupancy
  Cr  Cr0  1  0.000000  0.000000  0.000000  1
  Cr  Cr1  1  0.074515  0.388294  0.811782  1
  Cr  Cr2  1  0.644922  0.581288  0.698407  1
  Cr  Cr3  1  0.355078  0.418712  0.301593  1
  Cr  Cr4  1  0.925485  0.611706  0.188218  1
  Si  Si5  1  0.497391  0.233412  0.864498  1
  Si  Si6  1  0.777747  0.209322  0.390295  1
  Si  Si7  1  0.222253  0.790678  0.609705  1
  Si  Si8  1  0.502609  0.766588  0.135502  1
  O  O9  1  0.861416  0.206653  0.581609  1
  O  O10  1  0.784518  0.349337  0.956688  1
  O  O11  1  0.547605  0.007945  0.261055  1
  O  O12  1  0.413943  0.356366  0.748753  1
  O  O13  1  0.009211  0.223015  0.262021  1
  O  O14  1  0.660367  0.405105  0.428504  1
  O  O15  1  0.315336  0.234981  0.028477  1
  O  O16  1  0.684664  0.765019  0.971523  1
  O  O17  1  0.339633  0.594895  0.571496  1
  O  O18  1  0.990789  0.776985  0.737979  1
  O  O19  1  0.586057  0.643634  0.251247  1
  O  O20  1  0.452395  0.992055  0.738945  1
  O  O21  1  0.215482  0.650663  0.043312  1
  O  O22  1  0.138584  0.793347  0.418391  1
