# generated using pymatgen
data_NiP4
_symmetry_space_group_name_H-M   'P 1'
_cell_length_a   5.90659695
_cell_length_b   5.90659695
_cell_length_c   11.33127867
_cell_angle_alpha   88.55553795
_cell_angle_beta   91.44446205
_cell_angle_gamma   52.29971006
_symmetry_Int_Tables_number   1
_chemical_formula_structural   NiP4
_chemical_formula_sum   'Ni4 P16'
_cell_volume   312.27666114
_cell_formula_units_Z   4
loop_
 _symmetry_equiv_pos_site_id
 _symmetry_equiv_pos_as_xyz
  1  'x, y, z'
loop_
 _atom_site_type_symbol
 _atom_site_label
 _atom_site_symmetry_multiplicity
 _atom_site_fract_x
 _atom_site_fract_y
 _atom_site_fract_z
 _atom_site_occupancy
  Ni  Ni0  1  0.000000  0.500000  0.000000  1
  Ni  Ni1  1  0.925344  0.925344  0.750000  1
  Ni  Ni2  1  0.500000  1.000000  0.500000  1
  Ni  Ni3  1  0.074656  0.074656  0.250000  1
  P  P4  1  0.933370  0.554036  0.210665  1
  P  P5  1  0.767715  0.381105  0.714799  1
  P  P6  1  0.668193  0.540151  0.523322  1
  P  P7  1  0.956044  0.866866  0.547677  1
  P  P8  1  0.866866  0.956044  0.952323  1
  P  P9  1  0.540151  0.668193  0.976678  1
  P  P10  1  0.554036  0.933370  0.289335  1
  P  P11  1  0.381105  0.767715  0.785201  1
  P  P12  1  0.618895  0.232285  0.214799  1
  P  P13  1  0.445964  0.066630  0.710665  1
  P  P14  1  0.459849  0.331807  0.023322  1
  P  P15  1  0.133134  0.043956  0.047677  1
  P  P16  1  0.043956  0.133134  0.452323  1
  P  P17  1  0.331807  0.459849  0.476678  1
  P  P18  1  0.232285  0.618895  0.285201  1
  P  P19  1  0.066630  0.445964  0.789335  1
