# generated using pymatgen
data_Li8Mn7Fe(BO3)8
_symmetry_space_group_name_H-M   'P 1'
_cell_length_a   6.06556572
_cell_length_b   8.30142478
_cell_length_c   10.50096896
_cell_angle_alpha   90.86111222
_cell_angle_beta   90.66411182
_cell_angle_gamma   103.47123256
_symmetry_Int_Tables_number   1
_chemical_formula_structural   Li8Mn7Fe(BO3)8
_chemical_formula_sum   'Li8 Mn7 Fe1 B8 O24'
_cell_volume   514.08598950
_cell_formula_units_Z   1
loop_
 _symmetry_equiv_pos_site_id
 _symmetry_equiv_pos_as_xyz
  1  'x, y, z'
loop_
 _atom_site_type_symbol
 _atom_site_label
 _atom_site_symmetry_multiplicity
 _atom_site_fract_x
 _atom_site_fract_y
 _atom_site_fract_z
 _atom_site_occupancy
  Li  Li0  1  0.954336  0.281705  0.325156  1
  Li  Li1  1  0.952540  0.283148  0.825539  1
  Li  Li2  1  0.547004  0.218989  0.424663  1
  Li  Li3  1  0.545934  0.218585  0.923807  1
  Li  Li4  1  0.454303  0.781388  0.074823  1
  Li  Li5  1  0.453814  0.781678  0.575411  1
  Li  Li6  1  0.046459  0.718725  0.174523  1
  Li  Li7  1  0.046725  0.717578  0.675396  1
  Mn  Mn8  1  0.814833  0.580658  0.416537  1
  Mn  Mn9  1  0.685541  0.920039  0.333469  1
  Mn  Mn10  1  0.687703  0.917065  0.833761  1
  Mn  Mn11  1  0.313756  0.079424  0.166384  1
  Mn  Mn12  1  0.314243  0.079695  0.666552  1
  Mn  Mn13  1  0.187006  0.419654  0.082255  1
  Mn  Mn14  1  0.185820  0.420099  0.583941  1
  Fe  Fe15  1  0.814492  0.578496  0.919286  1
  B  B16  1  0.833139  0.096270  0.084348  1
  B  B17  1  0.833387  0.096204  0.584920  1
  B  B18  1  0.664989  0.404877  0.164093  1
  B  B19  1  0.667311  0.406016  0.666042  1
  B  B20  1  0.333202  0.595860  0.334557  1
  B  B21  1  0.334529  0.595346  0.835078  1
  B  B22  1  0.166392  0.903930  0.415325  1
  B  B23  1  0.165374  0.901788  0.915372  1
  O  O24  1  0.825232  0.123226  0.455286  1
  O  O25  1  0.824529  0.122615  0.954758  1
  O  O26  1  0.985774  0.812070  0.340265  1
  O  O27  1  0.984675  0.807318  0.841676  1
  O  O28  1  0.836024  0.520234  0.104484  1
  O  O29  1  0.841471  0.517054  0.606308  1
  O  O30  1  0.676877  0.378266  0.293423  1
  O  O31  1  0.676331  0.383187  0.796015  1
  O  O32  1  0.485011  0.310873  0.090217  1
  O  O33  1  0.487007  0.311782  0.591946  1
  O  O34  1  0.340746  0.016834  0.357010  1
  O  O35  1  0.659452  0.983577  0.143204  1
  O  O36  1  0.337964  0.015588  0.856576  1
  O  O37  1  0.659560  0.983419  0.643596  1
  O  O38  1  0.514252  0.688177  0.409079  1
  O  O39  1  0.516015  0.686281  0.909784  1
  O  O40  1  0.324182  0.622476  0.204972  1
  O  O41  1  0.326523  0.623166  0.705544  1
  O  O42  1  0.159631  0.483168  0.393353  1
  O  O43  1  0.159021  0.483141  0.892932  1
  O  O44  1  0.014088  0.188972  0.158918  1
  O  O45  1  0.014247  0.188420  0.659556  1
  O  O46  1  0.174457  0.876382  0.045104  1
  O  O47  1  0.174102  0.876554  0.544751  1
