# generated using pymatgen
data_Na5CuO4
_symmetry_space_group_name_H-M   'P 1'
_cell_length_a   5.98733958
_cell_length_b   10.48581705
_cell_length_c   17.96321924
_cell_angle_alpha   90.00000000
_cell_angle_beta   90.00000000
_cell_angle_gamma   90.00000000
_symmetry_Int_Tables_number   1
_chemical_formula_structural   Na5CuO4
_chemical_formula_sum   'Na40 Cu8 O32'
_cell_volume   1127.76947904
_cell_formula_units_Z   8
loop_
 _symmetry_equiv_pos_site_id
 _symmetry_equiv_pos_as_xyz
  1  'x, y, z'
loop_
 _atom_site_type_symbol
 _atom_site_label
 _atom_site_symmetry_multiplicity
 _atom_site_fract_x
 _atom_site_fract_y
 _atom_site_fract_z
 _atom_site_occupancy
  Na  Na0  1  0.924379  0.935856  0.434140  1
  Na  Na1  1  0.575621  0.935856  0.934140  1
  Na  Na2  1  0.397264  0.920906  0.751517  1
  Na  Na3  1  0.102736  0.920906  0.251517  1
  Na  Na4  1  0.085471  0.842414  0.001630  1
  Na  Na5  1  0.414529  0.842414  0.501630  1
  Na  Na6  1  0.898292  0.829129  0.828765  1
  Na  Na7  1  0.601708  0.829129  0.328765  1
  Na  Na8  1  0.421527  0.796007  0.138415  1
  Na  Na9  1  0.078473  0.796007  0.638415  1
  Na  Na10  1  0.921527  0.703993  0.138415  1
  Na  Na11  1  0.578473  0.703993  0.638415  1
  Na  Na12  1  0.398292  0.670871  0.828765  1
  Na  Na13  1  0.101708  0.670871  0.328765  1
  Na  Na14  1  0.585471  0.657586  0.001630  1
  Na  Na15  1  0.914529  0.657586  0.501630  1
  Na  Na16  1  0.602736  0.579094  0.251517  1
  Na  Na17  1  0.897264  0.579094  0.751517  1
  Na  Na18  1  0.075621  0.564144  0.934140  1
  Na  Na19  1  0.424379  0.564144  0.434140  1
  Na  Na20  1  0.924379  0.435856  0.065860  1
  Na  Na21  1  0.575621  0.435856  0.565860  1
  Na  Na22  1  0.102736  0.420906  0.248483  1
  Na  Na23  1  0.397264  0.420906  0.748483  1
  Na  Na24  1  0.414529  0.342414  0.998370  1
  Na  Na25  1  0.085471  0.342414  0.498370  1
  Na  Na26  1  0.601708  0.329129  0.171235  1
  Na  Na27  1  0.898292  0.329129  0.671235  1
  Na  Na28  1  0.421527  0.296007  0.361585  1
  Na  Na29  1  0.078473  0.296007  0.861585  1
  Na  Na30  1  0.921527  0.203993  0.361585  1
  Na  Na31  1  0.578473  0.203993  0.861585  1
  Na  Na32  1  0.398292  0.170871  0.671235  1
  Na  Na33  1  0.101708  0.170871  0.171235  1
  Na  Na34  1  0.585471  0.157586  0.498370  1
  Na  Na35  1  0.914529  0.157586  0.998370  1
  Na  Na36  1  0.897264  0.079094  0.748483  1
  Na  Na37  1  0.602736  0.079094  0.248483  1
  Na  Na38  1  0.075621  0.064144  0.565860  1
  Na  Na39  1  0.424379  0.064144  0.065860  1
  Cu  Cu40  1  0.822624  0.961356  0.122569  1
  Cu  Cu41  1  0.677376  0.961356  0.622569  1
  Cu  Cu42  1  0.322624  0.538644  0.122569  1
  Cu  Cu43  1  0.177376  0.538644  0.622569  1
  Cu  Cu44  1  0.822624  0.461356  0.377431  1
  Cu  Cu45  1  0.677376  0.461356  0.877431  1
  Cu  Cu46  1  0.322624  0.038644  0.377431  1
  Cu  Cu47  1  0.177376  0.038644  0.877431  1
  O  O48  1  0.141868  0.957841  0.121232  1
  O  O49  1  0.358132  0.957841  0.621232  1
  O  O50  1  0.731595  0.868804  0.211140  1
  O  O51  1  0.768405  0.868804  0.711140  1
  O  O52  1  0.688855  0.861459  0.046037  1
  O  O53  1  0.811145  0.861459  0.546037  1
  O  O54  1  0.242844  0.859492  0.374756  1
  O  O55  1  0.257156  0.859492  0.874756  1
  O  O56  1  0.742844  0.640508  0.374756  1
  O  O57  1  0.757156  0.640508  0.874756  1
  O  O58  1  0.188855  0.638541  0.046037  1
  O  O59  1  0.311145  0.638541  0.546037  1
  O  O60  1  0.268405  0.631196  0.711140  1
  O  O61  1  0.231595  0.631196  0.211140  1
  O  O62  1  0.641868  0.542159  0.121232  1
  O  O63  1  0.858132  0.542159  0.621232  1
  O  O64  1  0.141868  0.457841  0.378768  1
  O  O65  1  0.358132  0.457841  0.878768  1
  O  O66  1  0.768405  0.368804  0.788860  1
  O  O67  1  0.731595  0.368804  0.288860  1
  O  O68  1  0.811145  0.361459  0.953963  1
  O  O69  1  0.688855  0.361459  0.453963  1
  O  O70  1  0.242844  0.359492  0.125244  1
  O  O71  1  0.257156  0.359492  0.625244  1
  O  O72  1  0.757156  0.140508  0.625244  1
  O  O73  1  0.742844  0.140508  0.125244  1
  O  O74  1  0.188855  0.138541  0.453963  1
  O  O75  1  0.311145  0.138541  0.953963  1
  O  O76  1  0.268405  0.131196  0.788860  1
  O  O77  1  0.231595  0.131196  0.288860  1
  O  O78  1  0.641868  0.042159  0.378768  1
  O  O79  1  0.858132  0.042159  0.878768  1
