# generated using pymatgen
data_Li2SiNiO4
_symmetry_space_group_name_H-M   'P 1'
_cell_length_a   5.05084190
_cell_length_b   10.71008417
_cell_length_c   8.01550707
_cell_angle_alpha   90.00000000
_cell_angle_beta   127.48681251
_cell_angle_gamma   90.00000000
_symmetry_Int_Tables_number   1
_chemical_formula_structural   Li2SiNiO4
_chemical_formula_sum   'Li8 Si4 Ni4 O16'
_cell_volume   344.05747488
_cell_formula_units_Z   4
loop_
 _symmetry_equiv_pos_site_id
 _symmetry_equiv_pos_as_xyz
  1  'x, y, z'
loop_
 _atom_site_type_symbol
 _atom_site_label
 _atom_site_symmetry_multiplicity
 _atom_site_fract_x
 _atom_site_fract_y
 _atom_site_fract_z
 _atom_site_occupancy
  Li  Li0  1  0.313380  0.163273  0.505455  1
  Li  Li1  1  0.536383  0.921602  0.740555  1
  Li  Li2  1  0.463617  0.421602  0.759445  1
  Li  Li3  1  0.686620  0.663273  0.994545  1
  Li  Li4  1  0.313380  0.336727  0.005455  1
  Li  Li5  1  0.536383  0.578398  0.240555  1
  Li  Li6  1  0.463617  0.078398  0.259445  1
  Li  Li7  1  0.686620  0.836727  0.494545  1
  Si  Si8  1  0.935095  0.586288  0.745611  1
  Si  Si9  1  0.064905  0.086288  0.754389  1
  Si  Si10  1  0.935095  0.913712  0.245611  1
  Si  Si11  1  0.064905  0.413712  0.254389  1
  Ni  Ni12  1  0.806364  0.336340  0.500232  1
  Ni  Ni13  1  0.193636  0.836340  0.999768  1
  Ni  Ni14  1  0.806364  0.163660  0.000232  1
  Ni  Ni15  1  0.193636  0.663660  0.499768  1
  O  O16  1  0.825565  0.659698  0.529546  1
  O  O17  1  0.752341  0.160649  0.544262  1
  O  O18  1  0.945705  0.941942  0.746396  1
  O  O19  1  0.609938  0.586593  0.747351  1
  O  O20  1  0.390062  0.086593  0.752649  1
  O  O21  1  0.054295  0.441942  0.753604  1
  O  O22  1  0.247659  0.660649  0.955738  1
  O  O23  1  0.174435  0.159698  0.970454  1
  O  O24  1  0.825565  0.840302  0.029546  1
  O  O25  1  0.752341  0.339351  0.044262  1
  O  O26  1  0.945705  0.558058  0.246396  1
  O  O27  1  0.609938  0.913407  0.247351  1
  O  O28  1  0.390062  0.413407  0.252649  1
  O  O29  1  0.054295  0.058058  0.253604  1
  O  O30  1  0.247659  0.839351  0.455738  1
  O  O31  1  0.174435  0.340302  0.470454  1
