# generated using pymatgen
data_DyHO2
_symmetry_space_group_name_H-M   'P 1'
_cell_length_a   3.54835559
_cell_length_b   5.00488227
_cell_length_c   11.11406858
_cell_angle_alpha   90.00000000
_cell_angle_beta   90.00000000
_cell_angle_gamma   90.00000000
_symmetry_Int_Tables_number   1
_chemical_formula_structural   DyHO2
_chemical_formula_sum   'Dy4 H4 O8'
_cell_volume   197.37587733
_cell_formula_units_Z   4
loop_
 _symmetry_equiv_pos_site_id
 _symmetry_equiv_pos_as_xyz
  1  'x, y, z'
loop_
 _atom_site_type_symbol
 _atom_site_label
 _atom_site_symmetry_multiplicity
 _atom_site_fract_x
 _atom_site_fract_y
 _atom_site_fract_z
 _atom_site_occupancy
  Dy  Dy0  1  0.250000  0.076112  0.854777  1
  Dy  Dy1  1  0.250000  0.423888  0.354777  1
  Dy  Dy2  1  0.750000  0.576112  0.645223  1
  Dy  Dy3  1  0.750000  0.923888  0.145223  1
  H  H4  1  0.250000  0.118495  0.589836  1
  H  H5  1  0.250000  0.381505  0.089836  1
  H  H6  1  0.750000  0.618495  0.910164  1
  H  H7  1  0.750000  0.881505  0.410164  1
  O  O8  1  0.250000  0.192444  0.061264  1
  O  O9  1  0.750000  0.180446  0.306758  1
  O  O10  1  0.750000  0.319554  0.806758  1
  O  O11  1  0.250000  0.307556  0.561264  1
  O  O12  1  0.750000  0.692444  0.438736  1
  O  O13  1  0.250000  0.680446  0.193242  1
  O  O14  1  0.250000  0.819554  0.693242  1
  O  O15  1  0.750000  0.807556  0.938736  1
