# generated using pymatgen
data_Li5GaO4
_symmetry_space_group_name_H-M   'P 1'
_cell_length_a   9.09880203
_cell_length_b   9.11079678
_cell_length_c   9.61796774
_cell_angle_alpha   90.00000000
_cell_angle_beta   90.00000000
_cell_angle_gamma   90.00000000
_symmetry_Int_Tables_number   1
_chemical_formula_structural   Li5GaO4
_chemical_formula_sum   'Li40 Ga8 O32'
_cell_volume   797.30390566
_cell_formula_units_Z   8
loop_
 _symmetry_equiv_pos_site_id
 _symmetry_equiv_pos_as_xyz
  1  'x, y, z'
loop_
 _atom_site_type_symbol
 _atom_site_label
 _atom_site_symmetry_multiplicity
 _atom_site_fract_x
 _atom_site_fract_y
 _atom_site_fract_z
 _atom_site_occupancy
  Li  Li0  1  0.893228  0.167771  0.629005  1
  Li  Li1  1  0.393228  0.167771  0.870995  1
  Li  Li2  1  0.605711  0.117632  0.367599  1
  Li  Li3  1  0.105711  0.117632  0.132401  1
  Li  Li4  1  0.874510  0.151211  0.366825  1
  Li  Li5  1  0.374510  0.151211  0.133175  1
  Li  Li6  1  0.667919  0.117056  0.894004  1
  Li  Li7  1  0.167919  0.117056  0.605996  1
  Li  Li8  1  0.643911  0.096606  0.128704  1
  Li  Li9  1  0.143911  0.096606  0.371296  1
  Li  Li10  1  0.643911  0.403394  0.628704  1
  Li  Li11  1  0.143911  0.403394  0.871296  1
  Li  Li12  1  0.667919  0.382944  0.394004  1
  Li  Li13  1  0.167919  0.382944  0.105996  1
  Li  Li14  1  0.874510  0.348789  0.866825  1
  Li  Li15  1  0.374510  0.348789  0.633175  1
  Li  Li16  1  0.605711  0.382368  0.867599  1
  Li  Li17  1  0.105711  0.382368  0.632401  1
  Li  Li18  1  0.893228  0.332229  0.129005  1
  Li  Li19  1  0.393228  0.332229  0.370995  1
  Li  Li20  1  0.606772  0.667771  0.629005  1
  Li  Li21  1  0.106772  0.667771  0.870995  1
  Li  Li22  1  0.394289  0.617632  0.132401  1
  Li  Li23  1  0.894289  0.617632  0.367599  1
  Li  Li24  1  0.125490  0.651211  0.133175  1
  Li  Li25  1  0.625490  0.651211  0.366825  1
  Li  Li26  1  0.832081  0.617056  0.894004  1
  Li  Li27  1  0.332081  0.617056  0.605996  1
  Li  Li28  1  0.856089  0.596606  0.128704  1
  Li  Li29  1  0.356089  0.596606  0.371296  1
  Li  Li30  1  0.856089  0.903394  0.628704  1
  Li  Li31  1  0.356089  0.903394  0.871296  1
  Li  Li32  1  0.332081  0.882944  0.105996  1
  Li  Li33  1  0.832081  0.882944  0.394004  1
  Li  Li34  1  0.125490  0.848789  0.633175  1
  Li  Li35  1  0.625490  0.848789  0.866825  1
  Li  Li36  1  0.394289  0.882368  0.632401  1
  Li  Li37  1  0.894289  0.882368  0.867599  1
  Li  Li38  1  0.606772  0.832229  0.129005  1
  Li  Li39  1  0.106772  0.832229  0.370995  1
  Ga  Ga40  1  0.614246  0.121764  0.631027  1
  Ga  Ga41  1  0.114246  0.121764  0.868973  1
  Ga  Ga42  1  0.614246  0.378236  0.131027  1
  Ga  Ga43  1  0.114246  0.378236  0.368973  1
  Ga  Ga44  1  0.885754  0.621764  0.631027  1
  Ga  Ga45  1  0.385754  0.621764  0.868973  1
  Ga  Ga46  1  0.885754  0.878236  0.131027  1
  Ga  Ga47  1  0.385754  0.878236  0.368973  1
  O  O48  1  0.511243  0.008832  0.760159  1
  O  O49  1  0.011243  0.008832  0.739841  1
  O  O50  1  0.752423  0.037063  0.509380  1
  O  O51  1  0.252423  0.037063  0.990620  1
  O  O52  1  0.729424  0.249755  0.747048  1
  O  O53  1  0.229424  0.249755  0.752952  1
  O  O54  1  0.026283  0.241068  0.488358  1
  O  O55  1  0.526283  0.241068  0.011642  1
  O  O56  1  0.526283  0.258932  0.511642  1
  O  O57  1  0.026283  0.258932  0.988358  1
  O  O58  1  0.729424  0.250245  0.247048  1
  O  O59  1  0.229424  0.250245  0.252952  1
  O  O60  1  0.752423  0.462937  0.009380  1
  O  O61  1  0.252423  0.462937  0.490620  1
  O  O62  1  0.511243  0.491168  0.260159  1
  O  O63  1  0.011243  0.491168  0.239841  1
  O  O64  1  0.988757  0.508832  0.760159  1
  O  O65  1  0.488757  0.508832  0.739841  1
  O  O66  1  0.747577  0.537063  0.509380  1
  O  O67  1  0.247577  0.537063  0.990620  1
  O  O68  1  0.770576  0.749755  0.747048  1
  O  O69  1  0.270576  0.749755  0.752952  1
  O  O70  1  0.973717  0.741068  0.011642  1
  O  O71  1  0.473717  0.741068  0.488358  1
  O  O72  1  0.473717  0.758932  0.988358  1
  O  O73  1  0.973717  0.758932  0.511642  1
  O  O74  1  0.770576  0.750245  0.247048  1
  O  O75  1  0.270576  0.750245  0.252952  1
  O  O76  1  0.747577  0.962937  0.009380  1
  O  O77  1  0.247577  0.962937  0.490620  1
  O  O78  1  0.988757  0.991168  0.260159  1
  O  O79  1  0.488757  0.991168  0.239841  1
