# generated using pymatgen
data_Mg(NiO2)2
_symmetry_space_group_name_H-M   'P 1'
_cell_length_a   6.00168886
_cell_length_b   6.00168886
_cell_length_c   6.00168886
_cell_angle_alpha   123.53048454
_cell_angle_beta   123.53048454
_cell_angle_gamma   83.98659376
_symmetry_Int_Tables_number   1
_chemical_formula_structural   Mg(NiO2)2
_chemical_formula_sum   'Mg2 Ni4 O8'
_cell_volume   143.83962664
_cell_formula_units_Z   2
loop_
 _symmetry_equiv_pos_site_id
 _symmetry_equiv_pos_as_xyz
  1  'x, y, z'
loop_
 _atom_site_type_symbol
 _atom_site_label
 _atom_site_symmetry_multiplicity
 _atom_site_fract_x
 _atom_site_fract_y
 _atom_site_fract_z
 _atom_site_occupancy
  Mg  Mg0  1  0.500000  0.500000  0.000000  1
  Mg  Mg1  1  0.250000  0.750000  0.500000  1
  Ni  Ni2  1  0.875000  0.125000  0.250000  1
  Ni  Ni3  1  0.375000  0.125000  0.250000  1
  Ni  Ni4  1  0.875000  0.625000  0.750000  1
  Ni  Ni5  1  0.875000  0.125000  0.750000  1
  O  O6  1  0.661438  0.885749  0.775689  1
  O  O7  1  0.114251  0.889941  0.775689  1
  O  O8  1  0.114251  0.338562  0.224311  1
  O  O9  1  0.088562  0.364251  0.724311  1
  O  O10  1  0.639941  0.364251  0.275689  1
  O  O11  1  0.635749  0.360059  0.724311  1
  O  O12  1  0.110059  0.885749  0.224311  1
  O  O13  1  0.635749  0.911438  0.275689  1
