# generated using pymatgen
data_Li8MnFe7(BO3)8
_symmetry_space_group_name_H-M   'P 1'
_cell_length_a   6.01245714
_cell_length_b   8.18898606
_cell_length_c   10.46062529
_cell_angle_alpha   89.90828622
_cell_angle_beta   90.75338805
_cell_angle_gamma   102.87688409
_symmetry_Int_Tables_number   1
_chemical_formula_structural   Li8MnFe7(BO3)8
_chemical_formula_sum   'Li8 Mn1 Fe7 B8 O24'
_cell_volume   502.04210884
_cell_formula_units_Z   1
loop_
 _symmetry_equiv_pos_site_id
 _symmetry_equiv_pos_as_xyz
  1  'x, y, z'
loop_
 _atom_site_type_symbol
 _atom_site_label
 _atom_site_symmetry_multiplicity
 _atom_site_fract_x
 _atom_site_fract_y
 _atom_site_fract_z
 _atom_site_occupancy
  Li  Li0  1  0.956013  0.280998  0.324729  1
  Li  Li1  1  0.956469  0.279926  0.826995  1
  Li  Li2  1  0.544637  0.219824  0.425237  1
  Li  Li3  1  0.544846  0.220830  0.924221  1
  Li  Li4  1  0.456641  0.781345  0.074873  1
  Li  Li5  1  0.455365  0.778406  0.574633  1
  Li  Li6  1  0.044855  0.719681  0.174248  1
  Li  Li7  1  0.043750  0.719758  0.675152  1
  Mn  Mn8  1  0.185350  0.419573  0.585888  1
  Fe  Fe9  1  0.814000  0.578150  0.410537  1
  Fe  Fe10  1  0.816012  0.579573  0.917802  1
  Fe  Fe11  1  0.686874  0.923689  0.336796  1
  Fe  Fe12  1  0.684993  0.922914  0.833419  1
  Fe  Fe13  1  0.315363  0.076002  0.165639  1
  Fe  Fe14  1  0.315455  0.074913  0.664839  1
  Fe  Fe15  1  0.185740  0.419792  0.087764  1
  B  B16  1  0.832454  0.092327  0.086392  1
  B  B17  1  0.832514  0.091003  0.586273  1
  B  B18  1  0.664545  0.405973  0.164131  1
  B  B19  1  0.668686  0.406705  0.664562  1
  B  B20  1  0.331976  0.594093  0.333254  1
  B  B21  1  0.334975  0.595170  0.836516  1
  B  B22  1  0.166197  0.907489  0.414864  1
  B  B23  1  0.166445  0.907664  0.913977  1
  O  O24  1  0.821550  0.115294  0.455187  1
  O  O25  1  0.819515  0.114513  0.955894  1
  O  O26  1  0.986382  0.810151  0.343661  1
  O  O27  1  0.985941  0.811235  0.842895  1
  O  O28  1  0.836426  0.521500  0.103224  1
  O  O29  1  0.838774  0.521059  0.601684  1
  O  O30  1  0.676717  0.383286  0.295266  1
  O  O31  1  0.681481  0.384263  0.794774  1
  O  O32  1  0.485816  0.309366  0.092799  1
  O  O33  1  0.488317  0.308303  0.593091  1
  O  O34  1  0.336647  0.023407  0.353510  1
  O  O35  1  0.661008  0.978741  0.148802  1
  O  O36  1  0.339056  0.022415  0.853148  1
  O  O37  1  0.659823  0.975866  0.646155  1
  O  O38  1  0.512050  0.689731  0.404627  1
  O  O39  1  0.515929  0.690300  0.908878  1
  O  O40  1  0.322048  0.616660  0.201535  1
  O  O41  1  0.323674  0.622478  0.705869  1
  O  O42  1  0.158619  0.481009  0.393817  1
  O  O43  1  0.162641  0.479608  0.896307  1
  O  O44  1  0.013862  0.189861  0.156875  1
  O  O45  1  0.011610  0.185597  0.658803  1
  O  O46  1  0.179260  0.885292  0.045194  1
  O  O47  1  0.178699  0.884269  0.545259  1
