# generated using pymatgen
data_NaMnPCO7
_symmetry_space_group_name_H-M   'P 1'
_cell_length_a   5.23075898
_cell_length_b   6.25644562
_cell_length_c   18.15090448
_cell_angle_alpha   90.00000000
_cell_angle_beta   91.99793541
_cell_angle_gamma   90.00000000
_symmetry_Int_Tables_number   1
_chemical_formula_structural   NaMnPCO7
_chemical_formula_sum   'Na4 Mn4 P4 C4 O28'
_cell_volume   593.64465231
_cell_formula_units_Z   4
loop_
 _symmetry_equiv_pos_site_id
 _symmetry_equiv_pos_as_xyz
  1  'x, y, z'
loop_
 _atom_site_type_symbol
 _atom_site_label
 _atom_site_symmetry_multiplicity
 _atom_site_fract_x
 _atom_site_fract_y
 _atom_site_fract_z
 _atom_site_occupancy
  Na  Na0  1  0.757080  0.530151  0.369357  1
  Na  Na1  1  0.242920  0.469849  0.630643  1
  Na  Na2  1  0.757080  0.969849  0.869357  1
  Na  Na3  1  0.242920  0.030151  0.130643  1
  Mn  Mn4  1  0.216941  0.246871  0.421230  1
  Mn  Mn5  1  0.783059  0.753129  0.578770  1
  Mn  Mn6  1  0.216941  0.253129  0.921230  1
  Mn  Mn7  1  0.783059  0.746871  0.078770  1
  P  P8  1  0.281242  0.748569  0.466729  1
  P  P9  1  0.718758  0.251431  0.533271  1
  P  P10  1  0.281242  0.751431  0.966729  1
  P  P11  1  0.718758  0.248569  0.033271  1
  C  C12  1  0.270519  0.256520  0.289016  1
  C  C13  1  0.729481  0.743480  0.710984  1
  C  C14  1  0.270519  0.243480  0.789016  1
  C  C15  1  0.729481  0.756520  0.210984  1
  O  O16  1  0.699411  0.761996  0.277768  1
  O  O17  1  0.047743  0.253430  0.321203  1
  O  O18  1  0.459971  0.252389  0.339858  1
  O  O19  1  0.215460  0.943537  0.418176  1
  O  O20  1  0.216134  0.558644  0.413543  1
  O  O21  1  0.571877  0.739362  0.488042  1
  O  O22  1  0.872595  0.263100  0.462726  1
  O  O23  1  0.127405  0.736900  0.537274  1
  O  O24  1  0.428123  0.260638  0.511958  1
  O  O25  1  0.783866  0.441356  0.586457  1
  O  O26  1  0.784540  0.056463  0.581824  1
  O  O27  1  0.540029  0.747611  0.660142  1
  O  O28  1  0.952257  0.746570  0.678797  1
  O  O29  1  0.300589  0.238004  0.722232  1
  O  O30  1  0.699411  0.738004  0.777768  1
  O  O31  1  0.047743  0.246570  0.821203  1
  O  O32  1  0.459971  0.247611  0.839858  1
  O  O33  1  0.216134  0.941356  0.913543  1
  O  O34  1  0.215460  0.556463  0.918176  1
  O  O35  1  0.571877  0.760638  0.988042  1
  O  O36  1  0.872595  0.236900  0.962726  1
  O  O37  1  0.127405  0.763100  0.037274  1
  O  O38  1  0.428123  0.239362  0.011958  1
  O  O39  1  0.784540  0.443537  0.081824  1
  O  O40  1  0.783866  0.058644  0.086457  1
  O  O41  1  0.540029  0.752389  0.160142  1
  O  O42  1  0.952257  0.753430  0.178797  1
  O  O43  1  0.300589  0.261996  0.222232  1
