# generated using pymatgen
data_Li10Si2NiO10
_symmetry_space_group_name_H-M   'P 1'
_cell_length_a   15.34299263
_cell_length_b   15.34299263
_cell_length_c   5.19333448
_cell_angle_alpha   80.59714322
_cell_angle_beta   99.40285678
_cell_angle_gamma   157.01266003
_symmetry_Int_Tables_number   1
_chemical_formula_structural   Li10Si2NiO10
_chemical_formula_sum   'Li20 Si4 Ni2 O20'
_cell_volume   470.75748965
_cell_formula_units_Z   2
loop_
 _symmetry_equiv_pos_site_id
 _symmetry_equiv_pos_as_xyz
  1  'x, y, z'
loop_
 _atom_site_type_symbol
 _atom_site_label
 _atom_site_symmetry_multiplicity
 _atom_site_fract_x
 _atom_site_fract_y
 _atom_site_fract_z
 _atom_site_occupancy
  Li  Li0  1  0.490705  0.509295  0.739610  1
  Li  Li1  1  0.224229  0.358092  0.102575  1
  Li  Li2  1  0.641908  0.775771  0.102575  1
  Li  Li3  1  0.867557  0.132443  0.219905  1
  Li  Li4  1  0.085227  0.347988  0.758922  1
  Li  Li5  1  0.652012  0.914773  0.758922  1
  Li  Li6  1  0.324486  0.675514  0.069425  1
  Li  Li7  1  0.047813  0.437735  0.398780  1
  Li  Li8  1  0.562265  0.952187  0.398780  1
  Li  Li9  1  0.269494  0.730506  0.675859  1
  Li  Li10  1  0.730506  0.269494  0.324141  1
  Li  Li11  1  0.952187  0.562265  0.601220  1
  Li  Li12  1  0.437735  0.047813  0.601220  1
  Li  Li13  1  0.675514  0.324486  0.930575  1
  Li  Li14  1  0.347988  0.085227  0.241078  1
  Li  Li15  1  0.914773  0.652012  0.241078  1
  Li  Li16  1  0.132443  0.867557  0.780095  1
  Li  Li17  1  0.775771  0.641908  0.897425  1
  Li  Li18  1  0.358092  0.224229  0.897425  1
  Li  Li19  1  0.509295  0.490705  0.260390  1
  Si  Si20  1  0.399873  0.600127  0.490769  1
  Si  Si21  1  0.781035  0.218965  0.870503  1
  Si  Si22  1  0.218965  0.781035  0.129497  1
  Si  Si23  1  0.600127  0.399873  0.509231  1
  Ni  Ni24  1  0.962263  0.037737  0.842811  1
  Ni  Ni25  1  0.037737  0.962263  0.157189  1
  O  O26  1  0.449569  0.550431  0.395600  1
  O  O27  1  0.906660  0.093340  0.951074  1
  O  O28  1  0.405121  0.594879  0.814621  1
  O  O29  1  0.154632  0.413535  0.376339  1
  O  O30  1  0.586465  0.845368  0.376339  1
  O  O31  1  0.031441  0.418593  0.782497  1
  O  O32  1  0.581407  0.968559  0.782497  1
  O  O33  1  0.786484  0.213516  0.190699  1
  O  O34  1  0.271667  0.728333  0.281496  1
  O  O35  1  0.728333  0.271667  0.718504  1
  O  O36  1  0.213516  0.786484  0.809301  1
  O  O37  1  0.968559  0.581407  0.217503  1
  O  O38  1  0.418593  0.031441  0.217503  1
  O  O39  1  0.413535  0.154632  0.623661  1
  O  O40  1  0.845368  0.586465  0.623661  1
  O  O41  1  0.594879  0.405121  0.185379  1
  O  O42  1  0.093340  0.906660  0.048926  1
  O  O43  1  0.550431  0.449569  0.604400  1
  O  O44  1  0.239154  0.239154  0.000000  1
  O  O45  1  0.760846  0.760846  0.000000  1
