# generated using pymatgen
data_Rb3DyO3
_symmetry_space_group_name_H-M   'P 1'
_cell_length_a   7.36247263
_cell_length_b   7.36247263
_cell_length_c   7.30353909
_cell_angle_alpha   85.26483191
_cell_angle_beta   94.73516809
_cell_angle_gamma   63.65582770
_symmetry_Int_Tables_number   1
_chemical_formula_structural   Rb3DyO3
_chemical_formula_sum   'Rb6 Dy2 O6'
_cell_volume   350.40634382
_cell_formula_units_Z   2
loop_
 _symmetry_equiv_pos_site_id
 _symmetry_equiv_pos_as_xyz
  1  'x, y, z'
loop_
 _atom_site_type_symbol
 _atom_site_label
 _atom_site_symmetry_multiplicity
 _atom_site_fract_x
 _atom_site_fract_y
 _atom_site_fract_z
 _atom_site_occupancy
  Rb  Rb0  1  0.636623  0.363377  0.356842  1
  Rb  Rb1  1  0.205944  0.205944  0.500000  1
  Rb  Rb2  1  0.794056  0.794056  0.500000  1
  Rb  Rb3  1  0.740013  0.740013  0.000000  1
  Rb  Rb4  1  0.259987  0.259987  0.000000  1
  Rb  Rb5  1  0.363377  0.636623  0.643158  1
  Dy  Dy6  1  0.822219  0.177781  0.850404  1
  Dy  Dy7  1  0.177781  0.822219  0.149596  1
  O  O8  1  0.897065  0.102935  0.155570  1
  O  O9  1  0.831091  0.446763  0.730930  1
  O  O10  1  0.553237  0.168909  0.730930  1
  O  O11  1  0.168909  0.553237  0.269070  1
  O  O12  1  0.446763  0.831091  0.269070  1
  O  O13  1  0.102935  0.897065  0.844430  1
