# generated using pymatgen
data_Li2Ti3Sn(PO4)6
_symmetry_space_group_name_H-M   'P 1'
_cell_length_a   8.68457586
_cell_length_b   8.68457586
_cell_length_c   8.68457586
_cell_angle_alpha   59.79163399
_cell_angle_beta   59.79163399
_cell_angle_gamma   59.79163399
_symmetry_Int_Tables_number   1
_chemical_formula_structural   Li2Ti3Sn(PO4)6
_chemical_formula_sum   'Li2 Ti3 Sn1 P6 O24'
_cell_volume   460.96888291
_cell_formula_units_Z   1
loop_
 _symmetry_equiv_pos_site_id
 _symmetry_equiv_pos_as_xyz
  1  'x, y, z'
loop_
 _atom_site_type_symbol
 _atom_site_label
 _atom_site_symmetry_multiplicity
 _atom_site_fract_x
 _atom_site_fract_y
 _atom_site_fract_z
 _atom_site_occupancy
  Li  Li0  1  0.997517  0.997517  0.997517  1
  Li  Li1  1  0.499962  0.499962  0.499962  1
  Ti  Ti2  1  0.858200  0.858200  0.858200  1
  Ti  Ti3  1  0.642413  0.642413  0.642413  1
  Ti  Ti4  1  0.357870  0.357870  0.357870  1
  Sn  Sn5  1  0.142038  0.142038  0.142038  1
  P  P6  1  0.250695  0.544958  0.957447  1
  P  P7  1  0.957447  0.250695  0.544958  1
  P  P8  1  0.544958  0.957447  0.250695  1
  P  P9  1  0.461853  0.040281  0.747019  1
  P  P10  1  0.040281  0.747019  0.461853  1
  P  P11  1  0.747019  0.461853  0.040281  1
  O  O12  1  0.692538  0.504092  0.876575  1
  O  O13  1  0.504092  0.876575  0.692538  1
  O  O14  1  0.083622  0.734075  0.940932  1
  O  O15  1  0.876575  0.692538  0.504092  1
  O  O16  1  0.199639  0.385730  0.984757  1
  O  O17  1  0.417268  0.565165  0.769061  1
  O  O18  1  0.940932  0.083622  0.734075  1
  O  O19  1  0.769061  0.417268  0.565165  1
  O  O20  1  0.624783  0.999681  0.803784  1
  O  O21  1  0.565165  0.769061  0.417268  1
  O  O22  1  0.269810  0.053667  0.911673  1
  O  O23  1  0.999681  0.803784  0.624783  1
  O  O24  1  0.984757  0.199639  0.385730  1
  O  O25  1  0.734075  0.940932  0.083622  1
  O  O26  1  0.444003  0.230009  0.581471  1
  O  O27  1  0.385730  0.984757  0.199639  1
  O  O28  1  0.230009  0.581471  0.444003  1
  O  O29  1  0.053667  0.911673  0.269810  1
  O  O30  1  0.581471  0.444003  0.230009  1
  O  O31  1  0.803784  0.624783  0.999681  1
  O  O32  1  0.125775  0.302339  0.499305  1
  O  O33  1  0.911673  0.269810  0.053667  1
  O  O34  1  0.499305  0.125775  0.302339  1
  O  O35  1  0.302339  0.499305  0.125775  1
