# generated using pymatgen
data_CrOF
_symmetry_space_group_name_H-M   'P 1'
_cell_length_a   3.04687975
_cell_length_b   3.94957442
_cell_length_c   6.79245548
_cell_angle_alpha   90.00000000
_cell_angle_beta   90.00000000
_cell_angle_gamma   90.00000000
_symmetry_Int_Tables_number   1
_chemical_formula_structural   CrOF
_chemical_formula_sum   'Cr2 O2 F2'
_cell_volume   81.73958275
_cell_formula_units_Z   2
loop_
 _symmetry_equiv_pos_site_id
 _symmetry_equiv_pos_as_xyz
  1  'x, y, z'
loop_
 _atom_site_type_symbol
 _atom_site_label
 _atom_site_symmetry_multiplicity
 _atom_site_fract_x
 _atom_site_fract_y
 _atom_site_fract_z
 _atom_site_occupancy
  Cr  Cr0  1  0.500000  0.500000  0.870178  1
  Cr  Cr1  1  0.000000  0.000000  0.129822  1
  O  O2  1  0.000000  0.500000  0.067389  1
  O  O3  1  0.500000  0.000000  0.932611  1
  F  F4  1  0.000000  0.500000  0.685229  1
  F  F5  1  0.500000  0.000000  0.314771  1
