# generated using pymatgen
data_Er2TiO5
_symmetry_space_group_name_H-M   'P 1'
_cell_length_a   3.60780209
_cell_length_b   7.44975546
_cell_length_c   15.43841780
_cell_angle_alpha   90.00000000
_cell_angle_beta   90.00000000
_cell_angle_gamma   90.00000000
_symmetry_Int_Tables_number   1
_chemical_formula_structural   Er2TiO5
_chemical_formula_sum   'Er8 Ti4 O20'
_cell_volume   414.94211166
_cell_formula_units_Z   4
loop_
 _symmetry_equiv_pos_site_id
 _symmetry_equiv_pos_as_xyz
  1  'x, y, z'
loop_
 _atom_site_type_symbol
 _atom_site_label
 _atom_site_symmetry_multiplicity
 _atom_site_fract_x
 _atom_site_fract_y
 _atom_site_fract_z
 _atom_site_occupancy
  Er  Er0  1  0.750000  0.899114  0.084058  1
  Er  Er1  1  0.750000  0.837963  0.737489  1
  Er  Er2  1  0.250000  0.662037  0.237489  1
  Er  Er3  1  0.250000  0.600886  0.584058  1
  Er  Er4  1  0.750000  0.399114  0.415942  1
  Er  Er5  1  0.750000  0.337963  0.762511  1
  Er  Er6  1  0.250000  0.162037  0.262511  1
  Er  Er7  1  0.250000  0.100886  0.915942  1
  Ti  Ti8  1  0.750000  0.885885  0.423305  1
  Ti  Ti9  1  0.250000  0.614115  0.923305  1
  Ti  Ti10  1  0.750000  0.385885  0.076695  1
  Ti  Ti11  1  0.250000  0.114115  0.576695  1
  O  O12  1  0.250000  0.930732  0.174182  1
  O  O13  1  0.250000  0.926056  0.453132  1
  O  O14  1  0.250000  0.878023  0.648455  1
  O  O15  1  0.250000  0.843067  0.994934  1
  O  O16  1  0.750000  0.754028  0.322094  1
  O  O17  1  0.250000  0.745972  0.822094  1
  O  O18  1  0.750000  0.656933  0.494934  1
  O  O19  1  0.750000  0.621977  0.148455  1
  O  O20  1  0.750000  0.573944  0.953132  1
  O  O21  1  0.750000  0.569268  0.674182  1
  O  O22  1  0.250000  0.430732  0.325818  1
  O  O23  1  0.250000  0.426056  0.046868  1
  O  O24  1  0.250000  0.378023  0.851545  1
  O  O25  1  0.250000  0.343067  0.505066  1
  O  O26  1  0.750000  0.254028  0.177906  1
  O  O27  1  0.250000  0.245972  0.677906  1
  O  O28  1  0.750000  0.156933  0.005066  1
  O  O29  1  0.750000  0.121977  0.351545  1
  O  O30  1  0.750000  0.073944  0.546868  1
  O  O31  1  0.750000  0.069268  0.825818  1
