# generated using pymatgen
data_Li3MnF5
_symmetry_space_group_name_H-M   'P 1'
_cell_length_a   6.62387407
_cell_length_b   6.71800993
_cell_length_c   10.60101649
_cell_angle_alpha   90.00000000
_cell_angle_beta   90.00000000
_cell_angle_gamma   90.00000000
_symmetry_Int_Tables_number   1
_chemical_formula_structural   Li3MnF5
_chemical_formula_sum   'Li12 Mn4 F20'
_cell_volume   471.73730188
_cell_formula_units_Z   4
loop_
 _symmetry_equiv_pos_site_id
 _symmetry_equiv_pos_as_xyz
  1  'x, y, z'
loop_
 _atom_site_type_symbol
 _atom_site_label
 _atom_site_symmetry_multiplicity
 _atom_site_fract_x
 _atom_site_fract_y
 _atom_site_fract_z
 _atom_site_occupancy
  Li  Li0  1  0.250000  0.762737  0.545163  1
  Li  Li1  1  0.960759  0.230882  0.672895  1
  Li  Li2  1  0.539241  0.230882  0.672895  1
  Li  Li3  1  0.039241  0.730882  0.827105  1
  Li  Li4  1  0.460759  0.730882  0.827105  1
  Li  Li5  1  0.750000  0.262737  0.954837  1
  Li  Li6  1  0.250000  0.737263  0.045163  1
  Li  Li7  1  0.960759  0.269118  0.172895  1
  Li  Li8  1  0.539241  0.269118  0.172895  1
  Li  Li9  1  0.460759  0.769118  0.327105  1
  Li  Li10  1  0.039241  0.769118  0.327105  1
  Li  Li11  1  0.750000  0.237263  0.454837  1
  Mn  Mn12  1  0.750000  0.733584  0.579152  1
  Mn  Mn13  1  0.250000  0.233584  0.920848  1
  Mn  Mn14  1  0.750000  0.766416  0.079152  1
  Mn  Mn15  1  0.250000  0.266416  0.420848  1
  F  F16  1  0.250000  0.949753  0.404018  1
  F  F17  1  0.034744  0.738342  0.652216  1
  F  F18  1  0.465256  0.738342  0.652216  1
  F  F19  1  0.250000  0.240038  0.618521  1
  F  F20  1  0.750000  0.419960  0.598538  1
  F  F21  1  0.250000  0.919960  0.901462  1
  F  F22  1  0.750000  0.740038  0.881479  1
  F  F23  1  0.965256  0.238342  0.847784  1
  F  F24  1  0.534744  0.238342  0.847784  1
  F  F25  1  0.750000  0.449753  0.095982  1
  F  F26  1  0.250000  0.550247  0.904018  1
  F  F27  1  0.465256  0.761658  0.152216  1
  F  F28  1  0.034744  0.761658  0.152216  1
  F  F29  1  0.250000  0.259962  0.118521  1
  F  F30  1  0.750000  0.080040  0.098538  1
  F  F31  1  0.250000  0.580040  0.401462  1
  F  F32  1  0.750000  0.759962  0.381479  1
  F  F33  1  0.965256  0.261658  0.347784  1
  F  F34  1  0.534744  0.261658  0.347784  1
  F  F35  1  0.750000  0.050247  0.595982  1
