# generated using pymatgen
data_Li3MnV(PO4)3
_symmetry_space_group_name_H-M   'P 1'
_cell_length_a   8.38855521
_cell_length_b   8.41952513
_cell_length_c   9.23414331
_cell_angle_alpha   116.83710872
_cell_angle_beta   90.35394508
_cell_angle_gamma   119.54619637
_symmetry_Int_Tables_number   1
_chemical_formula_structural   Li3MnV(PO4)3
_chemical_formula_sum   'Li6 Mn2 V2 P6 O24'
_cell_volume   483.77369378
_cell_formula_units_Z   2
loop_
 _symmetry_equiv_pos_site_id
 _symmetry_equiv_pos_as_xyz
  1  'x, y, z'
loop_
 _atom_site_type_symbol
 _atom_site_label
 _atom_site_symmetry_multiplicity
 _atom_site_fract_x
 _atom_site_fract_y
 _atom_site_fract_z
 _atom_site_occupancy
  Li  Li0  1  0.380825  0.321558  0.874004  1
  Li  Li1  1  0.816102  0.077834  0.863618  1
  Li  Li2  1  0.196268  0.751213  0.625288  1
  Li  Li3  1  0.803732  0.248787  0.374712  1
  Li  Li4  1  0.183898  0.922166  0.136382  1
  Li  Li5  1  0.619175  0.678442  0.125996  1
  Mn  Mn6  1  0.705511  0.849470  0.434767  1
  Mn  Mn7  1  0.294489  0.150530  0.565233  1
  V  V8  1  0.689016  0.347667  0.966927  1
  V  V9  1  0.310984  0.652333  0.033073  1
  P  P10  1  0.195355  0.465459  0.755498  1
  P  P11  1  0.787679  0.738754  0.752648  1
  P  P12  1  0.503798  0.051172  0.759465  1
  P  P13  1  0.496202  0.948828  0.240535  1
  P  P14  1  0.212321  0.261246  0.247352  1
  P  P15  1  0.804645  0.534541  0.244502  1
  O  O16  1  0.284953  0.496402  0.878315  1
  O  O17  1  0.121754  0.261356  0.747107  1
  O  O18  1  0.999382  0.486767  0.829799  1
  O  O19  1  0.686841  0.517946  0.829802  1
  O  O20  1  0.643004  0.790271  0.900526  1
  O  O21  1  0.336169  0.845002  0.896948  1
  O  O22  1  0.362816  0.625611  0.587001  1
  O  O23  1  0.012764  0.854160  0.726407  1
  O  O24  1  0.777421  0.763796  0.597435  1
  O  O25  1  0.660934  0.172861  0.820792  1
  O  O26  1  0.374989  0.132591  0.764135  1
  O  O27  1  0.626899  0.036199  0.585414  1
  O  O28  1  0.373101  0.963801  0.414586  1
  O  O29  1  0.625011  0.867409  0.235865  1
  O  O30  1  0.339066  0.827139  0.179208  1
  O  O31  1  0.222579  0.236204  0.402565  1
  O  O32  1  0.987236  0.145840  0.273593  1
  O  O33  1  0.637184  0.374389  0.412999  1
  O  O34  1  0.663831  0.154998  0.103052  1
  O  O35  1  0.356996  0.209729  0.099474  1
  O  O36  1  0.313159  0.482054  0.170198  1
  O  O37  1  0.000618  0.513233  0.170201  1
  O  O38  1  0.878246  0.738644  0.252893  1
  O  O39  1  0.715047  0.503598  0.121685  1
