# generated using pymatgen
data_Li3FePCO7
_symmetry_space_group_name_H-M   'P 1'
_cell_length_a   4.98070758
_cell_length_b   6.52913640
_cell_length_c   8.71621326
_cell_angle_alpha   99.38080862
_cell_angle_beta   90.15290634
_cell_angle_gamma   90.34446350
_symmetry_Int_Tables_number   1
_chemical_formula_structural   Li3FePCO7
_chemical_formula_sum   'Li6 Fe2 P2 C2 O14'
_cell_volume   279.65122643
_cell_formula_units_Z   2
loop_
 _symmetry_equiv_pos_site_id
 _symmetry_equiv_pos_as_xyz
  1  'x, y, z'
loop_
 _atom_site_type_symbol
 _atom_site_label
 _atom_site_symmetry_multiplicity
 _atom_site_fract_x
 _atom_site_fract_y
 _atom_site_fract_z
 _atom_site_occupancy
  Li  Li0  1  0.677630  0.327529  0.073480  1
  Li  Li1  1  0.284128  0.974279  0.237784  1
  Li  Li2  1  0.297631  0.419201  0.301838  1
  Li  Li3  1  0.702369  0.580799  0.698162  1
  Li  Li4  1  0.715872  0.025721  0.762216  1
  Li  Li5  1  0.322370  0.672471  0.926520  1
  Fe  Fe6  1  0.719273  0.728885  0.350355  1
  Fe  Fe7  1  0.280727  0.271115  0.649645  1
  P  P8  1  0.808614  0.235357  0.416122  1
  P  P9  1  0.191386  0.764643  0.583878  1
  C  C10  1  0.216446  0.255267  0.974306  1
  C  C11  1  0.783554  0.744733  0.025694  1
  O  O12  1  0.593170  0.682659  0.113544  1
  O  O13  1  0.026457  0.761662  0.073705  1
  O  O14  1  0.292705  0.219599  0.110458  1
  O  O15  1  0.683301  0.032245  0.330656  1
  O  O16  1  0.728320  0.407868  0.319813  1
  O  O17  1  0.120705  0.220442  0.420752  1
  O  O18  1  0.292134  0.710843  0.412946  1
  O  O19  1  0.707866  0.289157  0.587054  1
  O  O20  1  0.879295  0.779558  0.579248  1
  O  O21  1  0.316699  0.967755  0.669344  1
  O  O22  1  0.271680  0.592132  0.680187  1
  O  O23  1  0.707295  0.780401  0.889542  1
  O  O24  1  0.973543  0.238338  0.926295  1
  O  O25  1  0.406830  0.317341  0.886456  1
