# generated using pymatgen
data_LiMn(PO3)4
_symmetry_space_group_name_H-M   'P 1'
_cell_length_a   9.31467662
_cell_length_b   9.31467662
_cell_length_c   9.33275108
_cell_angle_alpha   90.00000000
_cell_angle_beta   90.00000000
_cell_angle_gamma   90.00000000
_symmetry_Int_Tables_number   1
_chemical_formula_structural   LiMn(PO3)4
_chemical_formula_sum   'Li4 Mn4 P16 O48'
_cell_volume   809.73935323
_cell_formula_units_Z   4
loop_
 _symmetry_equiv_pos_site_id
 _symmetry_equiv_pos_as_xyz
  1  'x, y, z'
loop_
 _atom_site_type_symbol
 _atom_site_label
 _atom_site_symmetry_multiplicity
 _atom_site_fract_x
 _atom_site_fract_y
 _atom_site_fract_z
 _atom_site_occupancy
  Li  Li0  1  0.250000  0.750000  0.750000  1
  Li  Li1  1  0.750000  0.250000  0.750000  1
  Li  Li2  1  0.750000  0.750000  0.250000  1
  Li  Li3  1  0.250000  0.250000  0.250000  1
  Mn  Mn4  1  0.000000  0.500000  0.750000  1
  Mn  Mn5  1  0.000000  0.500000  0.250000  1
  Mn  Mn6  1  0.500000  0.000000  0.750000  1
  Mn  Mn7  1  0.500000  0.000000  0.250000  1
  P  P8  1  0.000000  0.230612  0.000000  1
  P  P9  1  0.769388  0.000000  0.000000  1
  P  P10  1  0.269388  0.500000  0.500000  1
  P  P11  1  0.500000  0.278465  0.000000  1
  P  P12  1  0.721535  0.500000  0.000000  1
  P  P13  1  0.230612  0.000000  0.000000  1
  P  P14  1  0.500000  0.721535  0.000000  1
  P  P15  1  0.500000  0.730612  0.500000  1
  P  P16  1  0.221535  0.000000  0.500000  1
  P  P17  1  0.000000  0.221535  0.500000  1
  P  P18  1  0.278465  0.500000  0.000000  1
  P  P19  1  0.778465  0.000000  0.500000  1
  P  P20  1  0.000000  0.778465  0.500000  1
  P  P21  1  0.500000  0.269388  0.500000  1
  P  P22  1  0.000000  0.769388  0.000000  1
  P  P23  1  0.730612  0.500000  0.500000  1
  O  O24  1  0.379447  0.620553  0.563547  1
  O  O25  1  0.614281  0.614281  0.926854  1
  O  O26  1  0.299665  0.072732  0.379088  1
  O  O27  1  0.799665  0.572732  0.120912  1
  O  O28  1  0.379447  0.379447  0.436453  1
  O  O29  1  0.879447  0.120553  0.936453  1
  O  O30  1  0.437702  0.809350  0.374593  1
  O  O31  1  0.427268  0.200335  0.120912  1
  O  O32  1  0.200335  0.427268  0.120912  1
  O  O33  1  0.190650  0.437702  0.625407  1
  O  O34  1  0.927268  0.700335  0.379088  1
  O  O35  1  0.620553  0.379447  0.563547  1
  O  O36  1  0.885719  0.885719  0.573146  1
  O  O37  1  0.937702  0.309350  0.125407  1
  O  O38  1  0.620553  0.620553  0.436453  1
  O  O39  1  0.200335  0.572732  0.879088  1
  O  O40  1  0.572732  0.799665  0.120912  1
  O  O41  1  0.385719  0.385719  0.926854  1
  O  O42  1  0.799665  0.427268  0.879088  1
  O  O43  1  0.190650  0.562298  0.374593  1
  O  O44  1  0.309350  0.062298  0.874593  1
  O  O45  1  0.700335  0.927268  0.379088  1
  O  O46  1  0.114281  0.885719  0.426854  1
  O  O47  1  0.062298  0.690650  0.125407  1
  O  O48  1  0.309350  0.937702  0.125407  1
  O  O49  1  0.072732  0.700335  0.620912  1
  O  O50  1  0.885719  0.114281  0.426854  1
  O  O51  1  0.299665  0.927268  0.620912  1
  O  O52  1  0.385719  0.614281  0.073146  1
  O  O53  1  0.562298  0.809350  0.625407  1
  O  O54  1  0.437702  0.190650  0.625407  1
  O  O55  1  0.427268  0.799665  0.879088  1
  O  O56  1  0.562298  0.190650  0.374593  1
  O  O57  1  0.072732  0.299665  0.379088  1
  O  O58  1  0.809350  0.437702  0.374593  1
  O  O59  1  0.879447  0.879447  0.063547  1
  O  O60  1  0.690650  0.062298  0.125407  1
  O  O61  1  0.690650  0.937702  0.874593  1
  O  O62  1  0.937702  0.690650  0.874593  1
  O  O63  1  0.062298  0.309350  0.874593  1
  O  O64  1  0.927268  0.299665  0.620912  1
  O  O65  1  0.809350  0.562298  0.625407  1
  O  O66  1  0.572732  0.200335  0.879088  1
  O  O67  1  0.614281  0.385719  0.073146  1
  O  O68  1  0.114281  0.114281  0.573146  1
  O  O69  1  0.120553  0.879447  0.936453  1
  O  O70  1  0.120553  0.120553  0.063547  1
  O  O71  1  0.700335  0.072732  0.620912  1
