# generated using pymatgen
data_Na2TeH5SO10
_symmetry_space_group_name_H-M   'P 1'
_cell_length_a   5.87668618
_cell_length_b   5.87668618
_cell_length_c   15.36236288
_cell_angle_alpha   88.11483386
_cell_angle_beta   91.88516614
_cell_angle_gamma   55.57507739
_symmetry_Int_Tables_number   1
_chemical_formula_structural   Na2TeH5SO10
_chemical_formula_sum   'Na4 Te2 H10 S2 O20'
_cell_volume   436.53932322
_cell_formula_units_Z   2
loop_
 _symmetry_equiv_pos_site_id
 _symmetry_equiv_pos_as_xyz
  1  'x, y, z'
loop_
 _atom_site_type_symbol
 _atom_site_label
 _atom_site_symmetry_multiplicity
 _atom_site_fract_x
 _atom_site_fract_y
 _atom_site_fract_z
 _atom_site_occupancy
  Na  Na0  1  0.903403  0.582537  0.380703  1
  Na  Na1  1  0.612804  0.535337  0.189279  1
  Na  Na2  1  0.417463  0.096597  0.880703  1
  Na  Na3  1  0.464663  0.387196  0.689279  1
  Te  Te4  1  0.993326  0.984829  0.997803  1
  Te  Te5  1  0.015171  0.006674  0.497803  1
  H  H6  1  0.933967  0.299375  0.623613  1
  H  H7  1  0.937932  0.592256  0.991530  1
  H  H8  1  0.692818  0.378045  0.885806  1
  H  H9  1  0.843928  0.743403  0.567983  1
  H  H10  1  0.456704  0.559770  0.513917  1
  H  H11  1  0.700625  0.066033  0.123613  1
  H  H12  1  0.407744  0.062068  0.491530  1
  H  H13  1  0.621955  0.307182  0.385806  1
  H  H14  1  0.256597  0.156072  0.067983  1
  H  H15  1  0.440230  0.543296  0.013917  1
  S  S16  1  0.858699  0.634088  0.751614  1
  S  S17  1  0.365912  0.141301  0.251614  1
  O  O18  1  0.885412  0.165649  0.608938  1
  O  O19  1  0.689636  0.349611  0.439403  1
  O  O20  1  0.949183  0.554038  0.660038  1
  O  O21  1  0.728580  0.492867  0.781887  1
  O  O22  1  0.784259  0.858591  0.510918  1
  O  O23  1  0.834351  0.114588  0.108938  1
  O  O24  1  0.807881  0.796209  0.980186  1
  O  O25  1  0.466102  0.882553  0.306604  1
  O  O26  1  0.339954  0.684046  0.560364  1
  O  O27  1  0.662369  0.935724  0.753726  1
  O  O28  1  0.445962  0.050817  0.160038  1
  O  O29  1  0.507133  0.271420  0.281887  1
  O  O30  1  0.141409  0.215741  0.010918  1
  O  O31  1  0.650389  0.310364  0.939403  1
  O  O32  1  0.171075  0.893882  0.890187  1
  O  O33  1  0.203791  0.192119  0.480186  1
  O  O34  1  0.315954  0.660046  0.060364  1
  O  O35  1  0.064276  0.337631  0.253726  1
  O  O36  1  0.117447  0.533898  0.806604  1
  O  O37  1  0.106118  0.828925  0.390187  1
