# generated using pymatgen
data_LiFe2(BO3)2
_symmetry_space_group_name_H-M   'P 1'
_cell_length_a   5.28621487
_cell_length_b   9.08933096
_cell_length_c   10.07349222
_cell_angle_alpha   89.25778579
_cell_angle_beta   89.01267665
_cell_angle_gamma   89.72890085
_symmetry_Int_Tables_number   1
_chemical_formula_structural   LiFe2(BO3)2
_chemical_formula_sum   'Li4 Fe8 B8 O24'
_cell_volume   483.89534656
_cell_formula_units_Z   4
loop_
 _symmetry_equiv_pos_site_id
 _symmetry_equiv_pos_as_xyz
  1  'x, y, z'
loop_
 _atom_site_type_symbol
 _atom_site_label
 _atom_site_symmetry_multiplicity
 _atom_site_fract_x
 _atom_site_fract_y
 _atom_site_fract_z
 _atom_site_occupancy
  Li  Li0  1  0.648890  0.991755  0.911834  1
  Li  Li1  1  0.843660  0.512628  0.660942  1
  Li  Li2  1  0.853536  0.486955  0.167190  1
  Li  Li3  1  0.336637  0.010920  0.646806  1
  Fe  Fe4  1  0.155586  0.826886  0.880797  1
  Fe  Fe5  1  0.836593  0.847422  0.619580  1
  Fe  Fe6  1  0.340946  0.665150  0.132334  1
  Fe  Fe7  1  0.655654  0.668855  0.379051  1
  Fe  Fe8  1  0.335312  0.345205  0.628107  1
  Fe  Fe9  1  0.167421  0.167141  0.372373  1
  Fe  Fe10  1  0.655687  0.334583  0.882432  1
  Fe  Fe11  1  0.837677  0.147979  0.136772  1
  B  B12  1  0.163475  0.834307  0.378951  1
  B  B13  1  0.331448  0.670256  0.628505  1
  B  B14  1  0.828192  0.826299  0.121780  1
  B  B15  1  0.660663  0.671192  0.872974  1
  B  B16  1  0.335426  0.335884  0.128753  1
  B  B17  1  0.662769  0.328543  0.377104  1
  B  B18  1  0.161893  0.163096  0.876389  1
  B  B19  1  0.834465  0.172524  0.634307  1
  O  O20  1  0.267656  0.969998  0.385510  1
  O  O21  1  0.076697  0.818779  0.074216  1
  O  O22  1  0.691438  0.951891  0.107134  1
  O  O23  1  0.223853  0.803433  0.673528  1
  O  O24  1  0.307683  0.713585  0.340986  1
  O  O25  1  0.798095  0.798722  0.838671  1
  O  O26  1  0.911825  0.812318  0.417408  1
  O  O27  1  0.418951  0.689935  0.921672  1
  O  O28  1  0.192523  0.545706  0.629106  1
  O  O29  1  0.587282  0.669522  0.584695  1
  O  O30  1  0.725767  0.695434  0.176250  1
  O  O31  1  0.206278  0.464457  0.130124  1
  O  O32  1  0.762730  0.534789  0.856369  1
  O  O33  1  0.303164  0.287743  0.846801  1
  O  O34  1  0.418657  0.307209  0.425173  1
  O  O35  1  0.756730  0.467601  0.360561  1
  O  O36  1  0.593814  0.330728  0.083411  1
  O  O37  1  0.086928  0.170963  0.590415  1
  O  O38  1  0.220064  0.205534  0.173338  1
  O  O39  1  0.724666  0.306890  0.676317  1
  O  O40  1  0.810596  0.207643  0.342894  1
  O  O41  1  0.277395  0.027059  0.862722  1
  O  O42  1  0.906361  0.173040  0.913755  1
  O  O43  1  0.694223  0.046970  0.640844  1
