# generated using pymatgen
data_Bi5O7F
_symmetry_space_group_name_H-M   'P 1'
_cell_length_a   6.92169273
_cell_length_b   12.52540542
_cell_length_c   13.49488113
_cell_angle_alpha   90.00000000
_cell_angle_beta   118.12350037
_cell_angle_gamma   90.00000000
_symmetry_Int_Tables_number   1
_chemical_formula_structural   Bi5O7F
_chemical_formula_sum   'Bi20 O28 F4'
_cell_volume   1031.83216357
_cell_formula_units_Z   4
loop_
 _symmetry_equiv_pos_site_id
 _symmetry_equiv_pos_as_xyz
  1  'x, y, z'
loop_
 _atom_site_type_symbol
 _atom_site_label
 _atom_site_symmetry_multiplicity
 _atom_site_fract_x
 _atom_site_fract_y
 _atom_site_fract_z
 _atom_site_occupancy
  Bi  Bi0  1  0.508886  0.749350  0.429847  1
  Bi  Bi1  1  0.850628  0.777433  0.766594  1
  Bi  Bi2  1  0.172418  0.734840  0.080631  1
  Bi  Bi3  1  0.185373  0.021950  0.916854  1
  Bi  Bi4  1  0.875853  0.990361  0.608487  1
  Bi  Bi5  1  0.124147  0.490361  0.891513  1
  Bi  Bi6  1  0.814627  0.521950  0.583146  1
  Bi  Bi7  1  0.827582  0.234840  0.419369  1
  Bi  Bi8  1  0.149372  0.277433  0.733406  1
  Bi  Bi9  1  0.491114  0.249350  0.070153  1
  Bi  Bi10  1  0.508886  0.750650  0.929847  1
  Bi  Bi11  1  0.850628  0.722567  0.266594  1
  Bi  Bi12  1  0.172418  0.765160  0.580631  1
  Bi  Bi13  1  0.185373  0.478050  0.416854  1
  Bi  Bi14  1  0.875853  0.509639  0.108487  1
  Bi  Bi15  1  0.124147  0.009639  0.391513  1
  Bi  Bi16  1  0.814627  0.978050  0.083146  1
  Bi  Bi17  1  0.827582  0.265160  0.919369  1
  Bi  Bi18  1  0.149372  0.222567  0.233406  1
  Bi  Bi19  1  0.491114  0.250650  0.570153  1
  O  O20  1  0.499981  0.604910  0.507171  1
  O  O21  1  0.021461  0.398136  0.001642  1
  O  O22  1  0.615960  0.843880  0.576188  1
  O  O23  1  0.114273  0.166492  0.993272  1
  O  O24  1  0.921082  0.357507  0.778360  1
  O  O25  1  0.882121  0.603600  0.736498  1
  O  O26  1  0.822473  0.241754  0.581876  1
  O  O27  1  0.177527  0.741754  0.918124  1
  O  O28  1  0.117879  0.103600  0.763502  1
  O  O29  1  0.078918  0.857507  0.721640  1
  O  O30  1  0.885727  0.666492  0.506728  1
  O  O31  1  0.384040  0.343880  0.923812  1
  O  O32  1  0.978539  0.898136  0.498358  1
  O  O33  1  0.500019  0.104910  0.992829  1
  O  O34  1  0.499981  0.895090  0.007171  1
  O  O35  1  0.021461  0.101864  0.501642  1
  O  O36  1  0.615960  0.656120  0.076188  1
  O  O37  1  0.114273  0.333508  0.493272  1
  O  O38  1  0.921082  0.142493  0.278360  1
  O  O39  1  0.882121  0.896400  0.236498  1
  O  O40  1  0.822473  0.258246  0.081876  1
  O  O41  1  0.177527  0.758246  0.418124  1
  O  O42  1  0.117879  0.396400  0.263502  1
  O  O43  1  0.078918  0.642493  0.221640  1
  O  O44  1  0.885727  0.833508  0.006728  1
  O  O45  1  0.384040  0.156120  0.423812  1
  O  O46  1  0.978539  0.601864  0.998358  1
  O  O47  1  0.500019  0.395090  0.492829  1
  F  F48  1  0.213328  0.021985  0.226946  1
  F  F49  1  0.786672  0.521985  0.273054  1
  F  F50  1  0.213328  0.478015  0.726946  1
  F  F51  1  0.786672  0.978015  0.773054  1
