# generated using pymatgen
data_HoBO3
_symmetry_space_group_name_H-M   'P 1'
_cell_length_a   3.92809559
_cell_length_b   3.92809559
_cell_length_c   8.61853902
_cell_angle_alpha   90.00000000
_cell_angle_beta   90.00000000
_cell_angle_gamma   116.97264839
_symmetry_Int_Tables_number   1
_chemical_formula_structural   HoBO3
_chemical_formula_sum   'Ho2 B2 O6'
_cell_volume   118.51797025
_cell_formula_units_Z   2
loop_
 _symmetry_equiv_pos_site_id
 _symmetry_equiv_pos_as_xyz
  1  'x, y, z'
loop_
 _atom_site_type_symbol
 _atom_site_label
 _atom_site_symmetry_multiplicity
 _atom_site_fract_x
 _atom_site_fract_y
 _atom_site_fract_z
 _atom_site_occupancy
  Ho  Ho0  1  0.053749  0.053749  0.000000  1
  Ho  Ho1  1  0.053749  0.053749  0.500000  1
  B  B2  1  0.501321  0.758858  0.250000  1
  B  B3  1  0.758858  0.501321  0.750000  1
  O  O4  1  0.333209  0.674024  0.103049  1
  O  O5  1  0.333209  0.674024  0.396951  1
  O  O6  1  0.893097  0.962740  0.250000  1
  O  O7  1  0.674024  0.333209  0.603049  1
  O  O8  1  0.674024  0.333209  0.896951  1
  O  O9  1  0.962740  0.893097  0.750000  1
