# generated using pymatgen
data_Li4V5Cr2O12
_symmetry_space_group_name_H-M   'P 1'
_cell_length_a   5.11076667
_cell_length_b   9.14871584
_cell_length_c   9.92793554
_cell_angle_alpha   90.00000000
_cell_angle_beta   101.94334119
_cell_angle_gamma   90.00000000
_symmetry_Int_Tables_number   1
_chemical_formula_structural   Li4V5Cr2O12
_chemical_formula_sum   'Li8 V10 Cr4 O24'
_cell_volume   454.15133884
_cell_formula_units_Z   2
loop_
 _symmetry_equiv_pos_site_id
 _symmetry_equiv_pos_as_xyz
  1  'x, y, z'
loop_
 _atom_site_type_symbol
 _atom_site_label
 _atom_site_symmetry_multiplicity
 _atom_site_fract_x
 _atom_site_fract_y
 _atom_site_fract_z
 _atom_site_occupancy
  Li  Li0  1  0.005541  0.913916  0.261175  1
  Li  Li1  1  0.495989  0.921930  0.743764  1
  Li  Li2  1  0.759384  0.581527  0.497783  1
  Li  Li3  1  0.505466  0.585670  0.737909  1
  Li  Li4  1  0.994459  0.413916  0.738825  1
  Li  Li5  1  0.504011  0.421930  0.256236  1
  Li  Li6  1  0.240616  0.081527  0.502217  1
  Li  Li7  1  0.494534  0.085670  0.262091  1
  V  V8  1  0.262170  0.921255  0.997232  1
  V  V9  1  0.749321  0.926948  0.507033  1
  V  V10  1  0.996779  0.748893  0.745089  1
  V  V11  1  0.509965  0.741092  0.259214  1
  V  V12  1  0.254337  0.574588  0.995445  1
  V  V13  1  0.250679  0.426948  0.492967  1
  V  V14  1  0.003221  0.248893  0.254911  1
  V  V15  1  0.737830  0.421255  0.002768  1
  V  V16  1  0.490035  0.241092  0.740786  1
  V  V17  1  0.745663  0.074588  0.004555  1
  Cr  Cr18  1  0.246820  0.749799  0.497353  1
  Cr  Cr19  1  0.760082  0.745586  0.004619  1
  Cr  Cr20  1  0.239918  0.245586  0.995381  1
  Cr  Cr21  1  0.753180  0.249799  0.502647  1
  O  O22  1  0.120058  0.893925  0.621850  1
  O  O23  1  0.879692  0.899454  0.889306  1
  O  O24  1  0.863171  0.770513  0.385463  1
  O  O25  1  0.381989  0.903467  0.380855  1
  O  O26  1  0.147999  0.753997  0.112436  1
  O  O27  1  0.632262  0.897939  0.123881  1
  O  O28  1  0.628479  0.761565  0.624608  1
  O  O29  1  0.134446  0.591704  0.615020  1
  O  O30  1  0.866428  0.593439  0.877261  1
  O  O31  1  0.372011  0.750344  0.878954  1
  O  O32  1  0.384635  0.595611  0.381436  1
  O  O33  1  0.628584  0.588924  0.118361  1
  O  O34  1  0.879942  0.393925  0.378150  1
  O  O35  1  0.120308  0.399454  0.110694  1
  O  O36  1  0.136829  0.270513  0.614537  1
  O  O37  1  0.618011  0.403467  0.619145  1
  O  O38  1  0.852001  0.253997  0.887564  1
  O  O39  1  0.367738  0.397939  0.876119  1
  O  O40  1  0.371521  0.261565  0.375392  1
  O  O41  1  0.865554  0.091704  0.384980  1
  O  O42  1  0.133572  0.093439  0.122739  1
  O  O43  1  0.627989  0.250344  0.121046  1
  O  O44  1  0.615365  0.095611  0.618564  1
  O  O45  1  0.371416  0.088924  0.881639  1
