# generated using pymatgen
data_Li5Mn8(BO3)8
_symmetry_space_group_name_H-M   'P 1'
_cell_length_a   5.28695280
_cell_length_b   5.31174004
_cell_length_c   20.26331370
_cell_angle_alpha   90.78201118
_cell_angle_beta   91.47463040
_cell_angle_gamma   118.49217886
_symmetry_Int_Tables_number   1
_chemical_formula_structural   Li5Mn8(BO3)8
_chemical_formula_sum   'Li5 Mn8 B8 O24'
_cell_volume   499.74723927
_cell_formula_units_Z   1
loop_
 _symmetry_equiv_pos_site_id
 _symmetry_equiv_pos_as_xyz
  1  'x, y, z'
loop_
 _atom_site_type_symbol
 _atom_site_label
 _atom_site_symmetry_multiplicity
 _atom_site_fract_x
 _atom_site_fract_y
 _atom_site_fract_z
 _atom_site_occupancy
  Li  Li0  1  0.885179  0.845040  0.661073  1
  Li  Li1  1  0.817449  0.868118  0.421811  1
  Li  Li2  1  0.839893  0.860776  0.917499  1
  Li  Li3  1  0.180524  0.163615  0.052315  1
  Li  Li4  1  0.127278  0.135519  0.288729  1
  Mn  Mn5  1  0.801036  0.493122  0.308850  1
  Mn  Mn6  1  0.837982  0.478405  0.810455  1
  Mn  Mn7  1  0.481834  0.189564  0.437113  1
  Mn  Mn8  1  0.502941  0.183867  0.936484  1
  Mn  Mn9  1  0.534856  0.834025  0.062779  1
  Mn  Mn10  1  0.471481  0.823176  0.560431  1
  Mn  Mn11  1  0.170823  0.521215  0.184752  1
  Mn  Mn12  1  0.200667  0.491000  0.687631  1
  B  B13  1  0.858214  0.502093  0.063321  1
  B  B14  1  0.841490  0.485072  0.562913  1
  B  B15  1  0.490952  0.152996  0.187800  1
  B  B16  1  0.517109  0.150965  0.685392  1
  B  B17  1  0.479019  0.844561  0.310217  1
  B  B18  1  0.502941  0.850094  0.813540  1
  B  B19  1  0.136380  0.508886  0.436602  1
  B  B20  1  0.170816  0.508351  0.937401  1
  O  O21  1  0.901737  0.544492  0.415352  1
  O  O22  1  0.935631  0.534634  0.909087  1
  O  O23  1  0.758660  0.380518  0.206838  1
  O  O24  1  0.889768  0.768746  0.057819  1
  O  O25  1  0.766732  0.390811  0.712670  1
  O  O26  1  0.604525  0.256545  0.043373  1
  O  O27  1  0.628432  0.225034  0.536171  1
  O  O28  1  0.444434  0.078120  0.330272  1
  O  O29  1  0.799043  0.716302  0.568499  1
  O  O30  1  0.509669  0.109553  0.832724  1
  O  O31  1  0.737380  0.847973  0.319183  1
  O  O32  1  0.734944  0.807908  0.821696  1
  O  O33  1  0.245271  0.174180  0.193934  1
  O  O34  1  0.259253  0.139701  0.683652  1
  O  O35  1  0.488025  0.900108  0.165744  1
  O  O36  1  0.553971  0.922140  0.658554  1
  O  O37  1  0.388968  0.756238  0.462128  1
  O  O38  1  0.131446  0.253369  0.431166  1
  O  O39  1  0.422746  0.756078  0.955974  1
  O  O40  1  0.234195  0.597518  0.283065  1
  O  O41  1  0.140807  0.241151  0.948633  1
  O  O42  1  0.243360  0.636854  0.785691  1
  O  O43  1  0.095029  0.464152  0.087754  1
  O  O44  1  0.102493  0.497420  0.584771  1
