# generated using pymatgen
data_LiNbO3
_symmetry_space_group_name_H-M   'P 1'
_cell_length_a   5.50540251
_cell_length_b   5.50540251
_cell_length_c   5.14699639
_cell_angle_alpha   83.66509443
_cell_angle_beta   96.33490557
_cell_angle_gamma   55.56794736
_symmetry_Int_Tables_number   1
_chemical_formula_structural   LiNbO3
_chemical_formula_sum   'Li2 Nb2 O6'
_cell_volume   125.01380426
_cell_formula_units_Z   2
loop_
 _symmetry_equiv_pos_site_id
 _symmetry_equiv_pos_as_xyz
  1  'x, y, z'
loop_
 _atom_site_type_symbol
 _atom_site_label
 _atom_site_symmetry_multiplicity
 _atom_site_fract_x
 _atom_site_fract_y
 _atom_site_fract_z
 _atom_site_occupancy
  Li  Li0  1  0.653060  0.653060  0.500000  1
  Li  Li1  1  0.346940  0.346940  0.500000  1
  Nb  Nb2  1  0.839049  0.839049  0.000000  1
  Nb  Nb3  1  0.160951  0.160951  0.000000  1
  O  O4  1  0.799013  0.200987  0.789702  1
  O  O5  1  0.200987  0.799013  0.210298  1
  O  O6  1  0.442353  0.962843  0.762744  1
  O  O7  1  0.962843  0.442353  0.237256  1
  O  O8  1  0.557647  0.037157  0.237256  1
  O  O9  1  0.037157  0.557647  0.762744  1
