# generated using pymatgen
data_Li4TiCrO6
_symmetry_space_group_name_H-M   'P 1'
_cell_length_a   5.06572580
_cell_length_b   8.76887908
_cell_length_c   9.79793422
_cell_angle_alpha   98.65268165
_cell_angle_beta   94.72785420
_cell_angle_gamma   90.20596424
_symmetry_Int_Tables_number   1
_chemical_formula_structural   Li4TiCrO6
_chemical_formula_sum   'Li16 Ti4 Cr4 O24'
_cell_volume   428.75730030
_cell_formula_units_Z   4
loop_
 _symmetry_equiv_pos_site_id
 _symmetry_equiv_pos_as_xyz
  1  'x, y, z'
loop_
 _atom_site_type_symbol
 _atom_site_label
 _atom_site_symmetry_multiplicity
 _atom_site_fract_x
 _atom_site_fract_y
 _atom_site_fract_z
 _atom_site_occupancy
  Li  Li0  1  0.988498  0.166823  0.499130  1
  Li  Li1  1  0.875417  0.375861  0.750080  1
  Li  Li2  1  0.748641  0.249517  0.000291  1
  Li  Li3  1  0.747394  0.921854  0.000975  1
  Li  Li4  1  0.753417  0.577942  0.998682  1
  Li  Li5  1  0.627168  0.125954  0.250056  1
  Li  Li6  1  0.511763  0.332406  0.500446  1
  Li  Li7  1  0.494676  0.000575  0.499753  1
  Li  Li8  1  0.493098  0.668304  0.500496  1
  Li  Li9  1  0.375155  0.874047  0.750001  1
  Li  Li10  1  0.244372  0.751014  0.999613  1
  Li  Li11  1  0.247273  0.420966  0.000808  1
  Li  Li12  1  0.257351  0.079552  0.999567  1
  Li  Li13  1  0.127051  0.625957  0.249972  1
  Li  Li14  1  0.011457  0.833130  0.500457  1
  Li  Li15  1  0.999626  0.499304  0.500780  1
  Ti  Ti16  1  0.872948  0.038304  0.749613  1
  Ti  Ti17  1  0.621650  0.790044  0.249163  1
  Ti  Ti18  1  0.371234  0.211873  0.749385  1
  Ti  Ti19  1  0.122919  0.290286  0.249647  1
  Cr  Cr20  1  0.875567  0.702948  0.750221  1
  Cr  Cr21  1  0.627613  0.459544  0.250580  1
  Cr  Cr22  1  0.376531  0.547549  0.750897  1
  Cr  Cr23  1  0.126635  0.959122  0.250330  1
  O  O24  1  0.961411  0.107391  0.135762  1
  O  O25  1  0.931292  0.786181  0.137945  1
  O  O26  1  0.920275  0.428800  0.135582  1
  O  O27  1  0.826598  0.965843  0.361658  1
  O  O28  1  0.825189  0.321348  0.366609  1
  O  O29  1  0.786323  0.638981  0.362207  1
  O  O30  1  0.714090  0.852270  0.637545  1
  O  O31  1  0.685431  0.538419  0.637973  1
  O  O32  1  0.678612  0.176474  0.633805  1
  O  O33  1  0.460603  0.607606  0.135403  1
  O  O34  1  0.564996  0.712830  0.862697  1
  O  O35  1  0.571183  0.073267  0.865876  1
  O  O36  1  0.420146  0.928628  0.135486  1
  O  O37  1  0.431896  0.286676  0.138322  1
  O  O38  1  0.536232  0.397890  0.861715  1
  O  O39  1  0.324788  0.820808  0.366435  1
  O  O40  1  0.327337  0.466174  0.362150  1
  O  O41  1  0.285909  0.138936  0.362056  1
  O  O42  1  0.214254  0.359392  0.637594  1
  O  O43  1  0.185232  0.673466  0.636310  1
  O  O44  1  0.178745  0.034327  0.635746  1
  O  O45  1  0.064950  0.575535  0.864129  1
  O  O46  1  0.071164  0.215732  0.864319  1
  O  O47  1  0.035890  0.890151  0.861735  1
