# generated using pymatgen
data_LiCu(PO3)2
_symmetry_space_group_name_H-M   'P 1'
_cell_length_a   14.20953266
_cell_length_b   5.27506182
_cell_length_c   14.46321031
_cell_angle_alpha   90.00000000
_cell_angle_beta   106.74292059
_cell_angle_gamma   90.00000000
_symmetry_Int_Tables_number   1
_chemical_formula_structural   LiCu(PO3)2
_chemical_formula_sum   'Li8 Cu8 P16 O48'
_cell_volume   1038.14817417
_cell_formula_units_Z   8
loop_
 _symmetry_equiv_pos_site_id
 _symmetry_equiv_pos_as_xyz
  1  'x, y, z'
loop_
 _atom_site_type_symbol
 _atom_site_label
 _atom_site_symmetry_multiplicity
 _atom_site_fract_x
 _atom_site_fract_y
 _atom_site_fract_z
 _atom_site_occupancy
  Li  Li0  1  0.153949  0.218633  0.916201  1
  Li  Li1  1  0.161865  0.857017  0.379454  1
  Li  Li2  1  0.338135  0.357017  0.620546  1
  Li  Li3  1  0.346051  0.718633  0.083799  1
  Li  Li4  1  0.653949  0.281367  0.916201  1
  Li  Li5  1  0.661865  0.642983  0.379454  1
  Li  Li6  1  0.838135  0.142983  0.620546  1
  Li  Li7  1  0.846051  0.781367  0.083799  1
  Cu  Cu8  1  0.113035  0.313253  0.553001  1
  Cu  Cu9  1  0.098619  0.673800  0.053698  1
  Cu  Cu10  1  0.401381  0.173800  0.946302  1
  Cu  Cu11  1  0.386965  0.813253  0.446999  1
  Cu  Cu12  1  0.613035  0.186747  0.553001  1
  Cu  Cu13  1  0.598619  0.826200  0.053698  1
  Cu  Cu14  1  0.901381  0.326200  0.946302  1
  Cu  Cu15  1  0.886965  0.686747  0.446999  1
  P  P16  1  0.006425  0.717064  0.641589  1
  P  P17  1  0.000278  0.263324  0.148873  1
  P  P18  1  0.213432  0.825363  0.658757  1
  P  P19  1  0.297350  0.658567  0.863286  1
  P  P20  1  0.202650  0.158567  0.136714  1
  P  P21  1  0.286568  0.325363  0.341243  1
  P  P22  1  0.499722  0.763324  0.851127  1
  P  P23  1  0.506425  0.782936  0.641589  1
  P  P24  1  0.493575  0.217064  0.358411  1
  P  P25  1  0.500278  0.236676  0.148873  1
  P  P26  1  0.713432  0.674637  0.658757  1
  P  P27  1  0.797350  0.841433  0.863286  1
  P  P28  1  0.702650  0.341433  0.136714  1
  P  P29  1  0.786568  0.174637  0.341243  1
  P  P30  1  0.999722  0.736676  0.851127  1
  P  P31  1  0.993575  0.282936  0.358411  1
  O  O32  1  0.078760  0.876461  0.927575  1
  O  O33  1  0.021671  0.803398  0.751893  1
  O  O34  1  0.020800  0.436814  0.634973  1
  O  O35  1  0.096183  0.879854  0.623454  1
  O  O36  1  0.086232  0.156029  0.420061  1
  O  O37  1  0.012924  0.543798  0.137109  1
  O  O38  1  0.232410  0.825805  0.774841  1
  O  O39  1  0.253105  0.403406  0.867818  1
  O  O40  1  0.262098  0.050070  0.630196  1
  O  O41  1  0.229196  0.564855  0.624230  1
  O  O42  1  0.103114  0.110804  0.168239  1
  O  O43  1  0.318759  0.831626  0.950116  1
  O  O44  1  0.181241  0.331626  0.049884  1
  O  O45  1  0.396886  0.610804  0.831761  1
  O  O46  1  0.270804  0.064855  0.375770  1
  O  O47  1  0.237902  0.550070  0.369804  1
  O  O48  1  0.246895  0.903406  0.132182  1
  O  O49  1  0.267590  0.325805  0.225159  1
  O  O50  1  0.487076  0.043798  0.862891  1
  O  O51  1  0.413768  0.656029  0.579939  1
  O  O52  1  0.578760  0.623539  0.927575  1
  O  O53  1  0.403817  0.379854  0.376546  1
  O  O54  1  0.521671  0.696602  0.751893  1
  O  O55  1  0.479200  0.936814  0.365027  1
  O  O56  1  0.520800  0.063186  0.634973  1
  O  O57  1  0.478329  0.303398  0.248107  1
  O  O58  1  0.596183  0.620146  0.623454  1
  O  O59  1  0.421240  0.376461  0.072425  1
  O  O60  1  0.586232  0.343971  0.420061  1
  O  O61  1  0.512924  0.956202  0.137109  1
  O  O62  1  0.732410  0.674195  0.774841  1
  O  O63  1  0.753105  0.096594  0.867818  1
  O  O64  1  0.762098  0.449930  0.630196  1
  O  O65  1  0.729196  0.935145  0.624230  1
  O  O66  1  0.603114  0.389196  0.168239  1
  O  O67  1  0.818759  0.668374  0.950116  1
  O  O68  1  0.681241  0.168374  0.049884  1
  O  O69  1  0.896886  0.889196  0.831761  1
  O  O70  1  0.770804  0.435145  0.375770  1
  O  O71  1  0.737902  0.949930  0.369804  1
  O  O72  1  0.746895  0.596594  0.132182  1
  O  O73  1  0.767590  0.174195  0.225159  1
  O  O74  1  0.987076  0.456202  0.862891  1
  O  O75  1  0.913768  0.843971  0.579939  1
  O  O76  1  0.903817  0.120146  0.376546  1
  O  O77  1  0.979200  0.563186  0.365027  1
  O  O78  1  0.978329  0.196602  0.248107  1
  O  O79  1  0.921240  0.123539  0.072425  1
