# generated using pymatgen
data_CoPH21N5O7
_symmetry_space_group_name_H-M   'P 1'
_cell_length_a   8.65929939
_cell_length_b   14.64506236
_cell_length_c   10.04226960
_cell_angle_alpha   90.00000000
_cell_angle_beta   121.88682416
_cell_angle_gamma   90.00000000
_symmetry_Int_Tables_number   1
_chemical_formula_structural   CoPH21N5O7
_chemical_formula_sum   'Co4 P4 H84 N20 O28'
_cell_volume   1081.33737163
_cell_formula_units_Z   4
loop_
 _symmetry_equiv_pos_site_id
 _symmetry_equiv_pos_as_xyz
  1  'x, y, z'
loop_
 _atom_site_type_symbol
 _atom_site_label
 _atom_site_symmetry_multiplicity
 _atom_site_fract_x
 _atom_site_fract_y
 _atom_site_fract_z
 _atom_site_occupancy
  Co  Co0  1  0.306362  0.157965  0.225173  1
  Co  Co1  1  0.693638  0.657965  0.274827  1
  Co  Co2  1  0.306362  0.342035  0.725173  1
  Co  Co3  1  0.693638  0.842035  0.774827  1
  P  P4  1  0.361662  0.373664  0.227670  1
  P  P5  1  0.638338  0.873664  0.272330  1
  P  P6  1  0.361662  0.126336  0.727670  1
  P  P7  1  0.638338  0.626336  0.772330  1
  H  H8  1  0.016689  0.081942  0.030958  1
  H  H9  1  0.176851  0.700970  0.103859  1
  H  H10  1  0.181794  0.536783  0.027888  1
  H  H11  1  0.296378  0.792770  0.160622  1
  H  H12  1  0.395205  0.992344  0.308000  1
  H  H13  1  0.522557  0.827621  0.480931  1
  H  H14  1  0.421419  0.662749  0.301437  1
  H  H15  1  0.548514  0.251446  0.442689  1
  H  H16  1  0.468016  0.554269  0.287617  1
  H  H17  1  0.680428  0.958279  0.586322  1
  H  H18  1  0.585826  0.609818  0.458010  1
  H  H19  1  0.628595  0.145095  0.472072  1
  H  H20  1  0.371405  0.645095  0.027928  1
  H  H21  1  0.827853  0.993496  0.766371  1
  H  H22  1  0.414174  0.109818  0.041990  1
  H  H23  1  0.531984  0.054269  0.212383  1
  H  H24  1  0.451486  0.751446  0.057311  1
  H  H25  1  0.732568  0.417581  0.524943  1
  H  H26  1  0.011493  0.183266  0.959739  1
  H  H27  1  0.817670  0.492015  0.661920  1
  H  H28  1  0.888925  0.731646  0.746864  1
  H  H29  1  0.813217  0.801760  0.596001  1
  H  H30  1  0.578581  0.162749  0.198563  1
  H  H31  1  0.000674  0.591453  0.898337  1
  H  H32  1  0.604795  0.492344  0.192000  1
  H  H33  1  0.703622  0.292770  0.339378  1
  H  H34  1  0.982199  0.836889  0.771176  1
  H  H35  1  0.522557  0.672379  0.980930  1
  H  H36  1  0.818206  0.036783  0.472112  1
  H  H37  1  0.864541  0.602262  0.554505  1
  H  H38  1  0.135459  0.102262  0.945495  1
  H  H39  1  0.823149  0.200970  0.396141  1
  H  H40  1  0.017801  0.336889  0.728824  1
  H  H41  1  0.680428  0.541721  0.086322  1
  H  H42  1  0.999326  0.091453  0.601663  1
  H  H43  1  0.186783  0.301760  0.903999  1
  H  H44  1  0.111075  0.231646  0.753136  1
  H  H45  1  0.827853  0.506504  0.266371  1
  H  H46  1  0.182330  0.992015  0.838080  1
  H  H47  1  0.988507  0.683266  0.540261  1
  H  H48  1  0.983311  0.581942  0.469042  1
  H  H49  1  0.267432  0.917581  0.975057  1
  H  H50  1  0.732568  0.082419  0.024943  1
  H  H51  1  0.016689  0.418058  0.530958  1
  H  H52  1  0.011493  0.316734  0.459739  1
  H  H53  1  0.817670  0.007985  0.161920  1
  H  H54  1  0.172147  0.493496  0.733629  1
  H  H55  1  0.888925  0.768354  0.246864  1
  H  H56  1  0.813217  0.698240  0.096001  1
  H  H57  1  0.000674  0.908547  0.398337  1
  H  H58  1  0.319572  0.458279  0.913678  1
  H  H59  1  0.982199  0.663111  0.271176  1
  H  H60  1  0.176851  0.799030  0.603859  1
  H  H61  1  0.864541  0.897738  0.054505  1
  H  H62  1  0.135459  0.397738  0.445495  1
  H  H63  1  0.181794  0.963217  0.527888  1
  H  H64  1  0.477443  0.327621  0.019069  1
  H  H65  1  0.017801  0.163111  0.228824  1
  H  H66  1  0.296378  0.707230  0.660622  1
  H  H67  1  0.395205  0.507656  0.808000  1
  H  H68  1  0.999326  0.408547  0.101663  1
  H  H69  1  0.421419  0.837251  0.801437  1
  H  H70  1  0.186783  0.198240  0.403999  1
  H  H71  1  0.111075  0.268354  0.253136  1
  H  H72  1  0.182330  0.507985  0.338080  1
  H  H73  1  0.988507  0.816734  0.040261  1
  H  H74  1  0.267432  0.582419  0.475057  1
  H  H75  1  0.548514  0.248554  0.942689  1
  H  H76  1  0.468016  0.945731  0.787617  1
  H  H77  1  0.585826  0.890182  0.958010  1
  H  H78  1  0.172147  0.006504  0.233629  1
  H  H79  1  0.628595  0.354905  0.972072  1
  H  H80  1  0.371405  0.854905  0.527928  1
  H  H81  1  0.414174  0.390182  0.541990  1
  H  H82  1  0.319572  0.041721  0.413678  1
  H  H83  1  0.531984  0.445731  0.712383  1
  H  H84  1  0.451486  0.748554  0.557311  1
  H  H85  1  0.578581  0.337251  0.698563  1
  H  H86  1  0.477443  0.172379  0.519069  1
  H  H87  1  0.604795  0.007656  0.692000  1
  H  H88  1  0.703622  0.207230  0.839378  1
  H  H89  1  0.818206  0.463217  0.972112  1
  H  H90  1  0.823149  0.299030  0.896141  1
  H  H91  1  0.983311  0.918058  0.969042  1
  N  N92  1  0.096137  0.128534  0.017710  1
  N  N93  1  0.513701  0.183193  0.438320  1
  N  N94  1  0.702713  0.964313  0.698194  1
  N  N95  1  0.525276  0.615990  0.338517  1
  N  N96  1  0.474724  0.115990  0.161483  1
  N  N97  1  0.863800  0.799216  0.714929  1
  N  N98  1  0.486299  0.683193  0.061680  1
  N  N99  1  0.702713  0.535687  0.198194  1
  N  N100  1  0.903863  0.628534  0.482290  1
  N  N101  1  0.136200  0.299216  0.785071  1
  N  N102  1  0.863800  0.700784  0.214929  1
  N  N103  1  0.096137  0.371466  0.517710  1
  N  N104  1  0.297287  0.464313  0.801806  1
  N  N105  1  0.513701  0.316807  0.938320  1
  N  N106  1  0.136200  0.200784  0.285071  1
  N  N107  1  0.525276  0.884010  0.838517  1
  N  N108  1  0.474724  0.384010  0.661483  1
  N  N109  1  0.297287  0.035687  0.301806  1
  N  N110  1  0.486299  0.816807  0.561680  1
  N  N111  1  0.903863  0.871466  0.982290  1
  O  O112  1  0.214826  0.753009  0.177797  1
  O  O113  1  0.307353  0.279207  0.138433  1
  O  O114  1  0.354355  0.446628  0.112127  1
  O  O115  1  0.559162  0.364777  0.372286  1
  O  O116  1  0.774436  0.601345  0.720946  1
  O  O117  1  0.440838  0.864777  0.127714  1
  O  O118  1  0.645645  0.946628  0.387873  1
  O  O119  1  0.692647  0.779207  0.361567  1
  O  O120  1  0.850370  0.442689  0.613346  1
  O  O121  1  0.129180  0.598098  0.986575  1
  O  O122  1  0.870820  0.098098  0.513425  1
  O  O123  1  0.785174  0.253009  0.322203  1
  O  O124  1  0.149630  0.942689  0.886654  1
  O  O125  1  0.774436  0.898655  0.220946  1
  O  O126  1  0.225564  0.101345  0.779054  1
  O  O127  1  0.850370  0.057311  0.113346  1
  O  O128  1  0.214826  0.746991  0.677797  1
  O  O129  1  0.129180  0.901902  0.486575  1
  O  O130  1  0.870820  0.401902  0.013425  1
  O  O131  1  0.149630  0.557311  0.386654  1
  O  O132  1  0.307353  0.220793  0.638433  1
  O  O133  1  0.354355  0.053372  0.612127  1
  O  O134  1  0.559162  0.135223  0.872286  1
  O  O135  1  0.225564  0.398655  0.279054  1
  O  O136  1  0.440838  0.635223  0.627714  1
  O  O137  1  0.645645  0.553372  0.887873  1
  O  O138  1  0.692647  0.720793  0.861567  1
  O  O139  1  0.785174  0.246991  0.822203  1
