# generated using pymatgen
data_Ba2SrI6
_symmetry_space_group_name_H-M   'P 1'
_cell_length_a   8.64323569
_cell_length_b   8.64323569
_cell_length_c   7.35567102
_cell_angle_alpha   90.00000000
_cell_angle_beta   90.00000000
_cell_angle_gamma   120.00000000
_symmetry_Int_Tables_number   1
_chemical_formula_structural   Ba2SrI6
_chemical_formula_sum   'Ba2 Sr1 I6'
_cell_volume   475.88897106
_cell_formula_units_Z   1
loop_
 _symmetry_equiv_pos_site_id
 _symmetry_equiv_pos_as_xyz
  1  'x, y, z'
loop_
 _atom_site_type_symbol
 _atom_site_label
 _atom_site_symmetry_multiplicity
 _atom_site_fract_x
 _atom_site_fract_y
 _atom_site_fract_z
 _atom_site_occupancy
  Ba  Ba0  1  0.333333  0.666667  0.500000  1
  Ba  Ba1  1  0.666667  0.333333  0.500000  1
  Sr  Sr2  1  0.000000  0.000000  0.000000  1
  I  I3  1  0.000000  0.671981  0.759065  1
  I  I4  1  0.000000  0.328019  0.240935  1
  I  I5  1  0.328019  0.328019  0.759065  1
  I  I6  1  0.671981  0.671981  0.240935  1
  I  I7  1  0.328019  0.000000  0.240935  1
  I  I8  1  0.671981  0.000000  0.759065  1
