# generated using pymatgen
data_Li2Cr3CoO8
_symmetry_space_group_name_H-M   'P 1'
_cell_length_a   5.90942844
_cell_length_b   5.90942844
_cell_length_c   5.90942844
_cell_angle_alpha   59.69062206
_cell_angle_beta   59.69062206
_cell_angle_gamma   59.69062206
_symmetry_Int_Tables_number   1
_chemical_formula_structural   Li2Cr3CoO8
_chemical_formula_sum   'Li2 Cr3 Co1 O8'
_cell_volume   144.89669706
_cell_formula_units_Z   1
loop_
 _symmetry_equiv_pos_site_id
 _symmetry_equiv_pos_as_xyz
  1  'x, y, z'
loop_
 _atom_site_type_symbol
 _atom_site_label
 _atom_site_symmetry_multiplicity
 _atom_site_fract_x
 _atom_site_fract_y
 _atom_site_fract_z
 _atom_site_occupancy
  Li  Li0  1  0.876675  0.876675  0.876675  1
  Li  Li1  1  0.499494  0.499494  0.499494  1
  Cr  Cr2  1  0.501591  0.501591  0.993826  1
  Cr  Cr3  1  0.501591  0.993826  0.501591  1
  Cr  Cr4  1  0.993826  0.501591  0.501591  1
  Co  Co5  1  0.120731  0.120731  0.120731  1
  O  O6  1  0.740223  0.740223  0.740223  1
  O  O7  1  0.291105  0.750756  0.750756  1
  O  O8  1  0.750756  0.291105  0.750756  1
  O  O9  1  0.750756  0.750756  0.291105  1
  O  O10  1  0.252027  0.252027  0.711314  1
  O  O11  1  0.252027  0.711314  0.252027  1
  O  O12  1  0.711314  0.252027  0.252027  1
  O  O13  1  0.257884  0.257884  0.257884  1
