# generated using pymatgen
data_LiZnAsH2O5
_symmetry_space_group_name_H-M   'P 1'
_cell_length_a   5.21551313
_cell_length_b   8.46595711
_cell_length_c   11.08621167
_cell_angle_alpha   90.00000000
_cell_angle_beta   90.00000000
_cell_angle_gamma   90.00000000
_symmetry_Int_Tables_number   1
_chemical_formula_structural   LiZnAsH2O5
_chemical_formula_sum   'Li4 Zn4 As4 H8 O20'
_cell_volume   489.50403196
_cell_formula_units_Z   4
loop_
 _symmetry_equiv_pos_site_id
 _symmetry_equiv_pos_as_xyz
  1  'x, y, z'
loop_
 _atom_site_type_symbol
 _atom_site_label
 _atom_site_symmetry_multiplicity
 _atom_site_fract_x
 _atom_site_fract_y
 _atom_site_fract_z
 _atom_site_occupancy
  Li  Li0  1  0.735869  0.324686  0.180219  1
  Li  Li1  1  0.235869  0.824686  0.319781  1
  Li  Li2  1  0.735869  0.175314  0.680219  1
  Li  Li3  1  0.235869  0.675314  0.819781  1
  Zn  Zn4  1  0.237154  0.131148  0.123738  1
  Zn  Zn5  1  0.737154  0.631148  0.376262  1
  Zn  Zn6  1  0.237154  0.368852  0.623738  1
  Zn  Zn7  1  0.737154  0.868852  0.876262  1
  As  As8  1  0.742291  0.920994  0.170853  1
  As  As9  1  0.242291  0.420994  0.329147  1
  As  As10  1  0.742291  0.579006  0.670853  1
  As  As11  1  0.242291  0.079006  0.829147  1
  H  H12  1  0.407426  0.548835  0.016446  1
  H  H13  1  0.178042  0.668631  0.041151  1
  H  H14  1  0.678042  0.168631  0.458849  1
  H  H15  1  0.907426  0.048835  0.483554  1
  H  H16  1  0.407426  0.951165  0.516446  1
  H  H17  1  0.178042  0.831369  0.541151  1
  H  H18  1  0.678042  0.331369  0.958849  1
  H  H19  1  0.907426  0.451165  0.983554  1
  O  O20  1  0.743766  0.411630  0.014881  1
  O  O21  1  0.829210  0.819134  0.043415  1
  O  O22  1  0.873010  0.108779  0.168316  1
  O  O23  1  0.415084  0.940227  0.189622  1
  O  O24  1  0.367714  0.322423  0.207270  1
  O  O25  1  0.867714  0.822423  0.292730  1
  O  O26  1  0.915084  0.440227  0.310378  1
  O  O27  1  0.373010  0.608779  0.331684  1
  O  O28  1  0.329210  0.319134  0.456585  1
  O  O29  1  0.243766  0.911630  0.485119  1
  O  O30  1  0.743766  0.088370  0.514881  1
  O  O31  1  0.829210  0.680866  0.543415  1
  O  O32  1  0.873010  0.391221  0.668316  1
  O  O33  1  0.415084  0.559773  0.689622  1
  O  O34  1  0.367714  0.177577  0.707270  1
  O  O35  1  0.867714  0.677577  0.792730  1
  O  O36  1  0.915084  0.059773  0.810378  1
  O  O37  1  0.373010  0.891221  0.831684  1
  O  O38  1  0.329210  0.180866  0.956585  1
  O  O39  1  0.243766  0.588370  0.985119  1
