# generated using pymatgen
data_Li7VO5F
_symmetry_space_group_name_H-M   'P 1'
_cell_length_a   5.59113525
_cell_length_b   5.59565231
_cell_length_c   10.79765118
_cell_angle_alpha   89.00031083
_cell_angle_beta   88.71638440
_cell_angle_gamma   60.39484122
_symmetry_Int_Tables_number   1
_chemical_formula_structural   Li7VO5F
_chemical_formula_sum   'Li14 V2 O10 F2'
_cell_volume   293.63252117
_cell_formula_units_Z   2
loop_
 _symmetry_equiv_pos_site_id
 _symmetry_equiv_pos_as_xyz
  1  'x, y, z'
loop_
 _atom_site_type_symbol
 _atom_site_label
 _atom_site_symmetry_multiplicity
 _atom_site_fract_x
 _atom_site_fract_y
 _atom_site_fract_z
 _atom_site_occupancy
  Li  Li0  1  0.356635  0.982310  0.757975  1
  Li  Li1  1  0.392933  0.629719  0.629560  1
  Li  Li2  1  0.651139  0.669588  0.428446  1
  Li  Li3  1  0.670791  0.648117  0.908604  1
  Li  Li4  1  0.953605  0.732140  0.757281  1
  Li  Li5  1  0.706523  0.291626  0.769567  1
  Li  Li6  1  0.992592  0.387357  0.627439  1
  Li  Li7  1  0.268224  0.685961  0.266711  1
  Li  Li8  1  0.010323  0.342281  0.258640  1
  Li  Li9  1  0.347168  0.314405  0.409930  1
  Li  Li10  1  0.315261  0.344280  0.928996  1
  Li  Li11  1  0.612774  0.381379  0.128057  1
  Li  Li12  1  0.369670  0.026279  0.128221  1
  Li  Li13  1  0.704936  0.000937  0.261188  1
  V  V14  1  0.008691  0.981065  0.995215  1
  V  V15  1  0.983544  0.006730  0.495372  1
  O  O16  1  0.026924  0.001116  0.668588  1
  O  O17  1  0.304224  0.684425  0.452234  1
  O  O18  1  0.699084  0.981821  0.440512  1
  O  O19  1  0.677346  0.636582  0.721589  1
  O  O20  1  0.989374  0.695466  0.937839  1
  O  O21  1  0.995306  0.312871  0.447887  1
  O  O22  1  0.358544  0.317371  0.222589  1
  O  O23  1  0.312847  0.000066  0.948802  1
  O  O24  1  0.684242  0.299512  0.952067  1
  O  O25  1  0.002576  0.025092  0.168421  1
  F  F26  1  0.636140  0.678257  0.218848  1
  F  F27  1  0.316229  0.357014  0.719179  1
