# generated using pymatgen
data_UH12(NO7)2
_symmetry_space_group_name_H-M   'P 1'
_cell_length_a   7.72672866
_cell_length_b   7.72672866
_cell_length_c   11.25616222
_cell_angle_alpha   90.00000000
_cell_angle_beta   90.00000000
_cell_angle_gamma   116.08839812
_symmetry_Int_Tables_number   1
_chemical_formula_structural   UH12(NO7)2
_chemical_formula_sum   'U2 H24 N4 O28'
_cell_volume   603.55160593
_cell_formula_units_Z   2
loop_
 _symmetry_equiv_pos_site_id
 _symmetry_equiv_pos_as_xyz
  1  'x, y, z'
loop_
 _atom_site_type_symbol
 _atom_site_label
 _atom_site_symmetry_multiplicity
 _atom_site_fract_x
 _atom_site_fract_y
 _atom_site_fract_z
 _atom_site_occupancy
  U  U0  1  0.129623  0.129623  0.248004  1
  U  U1  1  0.870377  0.870377  0.748004  1
  H  H2  1  0.604000  0.054072  0.672686  1
  H  H3  1  0.945928  0.396000  0.172686  1
  H  H4  1  0.851771  0.310303  0.303323  1
  H  H5  1  0.689697  0.148229  0.803323  1
  H  H6  1  0.652224  0.181797  0.989954  1
  H  H7  1  0.818203  0.347776  0.489954  1
  H  H8  1  0.535599  0.131175  0.499258  1
  H  H9  1  0.868825  0.464401  0.999258  1
  H  H10  1  0.692618  0.429180  0.422554  1
  H  H11  1  0.570820  0.307382  0.922554  1
  H  H12  1  0.897508  0.623829  0.092040  1
  H  H13  1  0.376171  0.102492  0.592040  1
  H  H14  1  0.102492  0.376171  0.592040  1
  H  H15  1  0.623829  0.897508  0.092040  1
  H  H16  1  0.429180  0.692618  0.422554  1
  H  H17  1  0.307382  0.570820  0.922554  1
  H  H18  1  0.131175  0.535599  0.499258  1
  H  H19  1  0.464401  0.868825  0.999258  1
  H  H20  1  0.181797  0.652224  0.989954  1
  H  H21  1  0.347776  0.818203  0.489954  1
  H  H22  1  0.148229  0.689697  0.803323  1
  H  H23  1  0.310303  0.851771  0.303323  1
  H  H24  1  0.396000  0.945928  0.172686  1
  H  H25  1  0.054072  0.604000  0.672686  1
  N  N26  1  0.525111  0.525111  0.660093  1
  N  N27  1  0.474889  0.474889  0.160093  1
  N  N28  1  0.792819  0.792819  0.358816  1
  N  N29  1  0.207181  0.207181  0.858816  1
  O  O30  1  0.938942  0.305277  0.238999  1
  O  O31  1  0.694723  0.061058  0.738999  1
  O  O32  1  0.685776  0.282949  0.927268  1
  O  O33  1  0.717051  0.314224  0.427268  1
  O  O34  1  0.959900  0.545859  0.062683  1
  O  O35  1  0.454141  0.040100  0.562683  1
  O  O36  1  0.476832  0.311352  0.176248  1
  O  O37  1  0.688648  0.523168  0.676248  1
  O  O38  1  0.949419  0.783863  0.333779  1
  O  O39  1  0.216137  0.050581  0.833779  1
  O  O40  1  0.653231  0.653231  0.404422  1
  O  O41  1  0.785484  0.785484  0.895010  1
  O  O42  1  0.620666  0.620666  0.131340  1
  O  O43  1  0.046430  0.046430  0.099493  1
  O  O44  1  0.214516  0.214516  0.395010  1
  O  O45  1  0.379334  0.379334  0.631340  1
  O  O46  1  0.346769  0.346769  0.904422  1
  O  O47  1  0.953570  0.953570  0.599493  1
  O  O48  1  0.783863  0.949419  0.333779  1
  O  O49  1  0.050581  0.216137  0.833779  1
  O  O50  1  0.523168  0.688648  0.676248  1
  O  O51  1  0.311352  0.476832  0.176248  1
  O  O52  1  0.545859  0.959900  0.062683  1
  O  O53  1  0.040100  0.454141  0.562683  1
  O  O54  1  0.282949  0.685776  0.927268  1
  O  O55  1  0.314224  0.717051  0.427268  1
  O  O56  1  0.305277  0.938942  0.238999  1
  O  O57  1  0.061058  0.694723  0.738999  1
