# generated using pymatgen
data_Li5V3(CoO5)2
_symmetry_space_group_name_H-M   'P 1'
_cell_length_a   5.09575838
_cell_length_b   5.22848750
_cell_length_c   7.91970834
_cell_angle_alpha   107.28075721
_cell_angle_beta   102.66816978
_cell_angle_gamma   100.84873740
_symmetry_Int_Tables_number   1
_chemical_formula_structural   Li5V3(CoO5)2
_chemical_formula_sum   'Li5 V3 Co2 O10'
_cell_volume   189.16701288
_cell_formula_units_Z   1
loop_
 _symmetry_equiv_pos_site_id
 _symmetry_equiv_pos_as_xyz
  1  'x, y, z'
loop_
 _atom_site_type_symbol
 _atom_site_label
 _atom_site_symmetry_multiplicity
 _atom_site_fract_x
 _atom_site_fract_y
 _atom_site_fract_z
 _atom_site_occupancy
  Li  Li0  1  0.772108  0.504080  0.421728  1
  Li  Li1  1  0.607712  0.510474  0.773868  1
  Li  Li2  1  0.000000  0.000000  0.500000  1
  Li  Li3  1  0.392288  0.489526  0.226132  1
  Li  Li4  1  0.227892  0.495920  0.578272  1
  V  V5  1  0.000000  0.500000  0.000000  1
  V  V6  1  0.801742  0.009708  0.881823  1
  V  V7  1  0.198258  0.990292  0.118177  1
  Co  Co8  1  0.407839  0.996820  0.680477  1
  Co  Co9  1  0.592161  0.003180  0.319523  1
  O  O10  1  0.178600  0.229097  0.871910  1
  O  O11  1  0.388192  0.773170  0.958374  1
  O  O12  1  0.594719  0.753585  0.550354  1
  O  O13  1  0.024444  0.248801  0.223006  1
  O  O14  1  0.809416  0.233814  0.671857  1
  O  O15  1  0.190584  0.766186  0.328143  1
  O  O16  1  0.975556  0.751199  0.776994  1
  O  O17  1  0.405281  0.246415  0.449646  1
  O  O18  1  0.611808  0.226830  0.041626  1
  O  O19  1  0.821400  0.770903  0.128090  1
