# generated using pymatgen
data_Li2FeF4
_symmetry_space_group_name_H-M   'P 1'
_cell_length_a   5.10095063
_cell_length_b   10.02655220
_cell_length_c   12.52602087
_cell_angle_alpha   90.00000000
_cell_angle_beta   90.00000000
_cell_angle_gamma   90.00000000
_symmetry_Int_Tables_number   1
_chemical_formula_structural   Li2FeF4
_chemical_formula_sum   'Li16 Fe8 F32'
_cell_volume   640.64268305
_cell_formula_units_Z   8
loop_
 _symmetry_equiv_pos_site_id
 _symmetry_equiv_pos_as_xyz
  1  'x, y, z'
loop_
 _atom_site_type_symbol
 _atom_site_label
 _atom_site_symmetry_multiplicity
 _atom_site_fract_x
 _atom_site_fract_y
 _atom_site_fract_z
 _atom_site_occupancy
  Li  Li0  1  0.000000  0.000000  0.318738  1
  Li  Li1  1  0.000000  0.000000  0.687761  1
  Li  Li2  1  0.500000  0.000000  0.562576  1
  Li  Li3  1  0.000000  0.000000  0.981191  1
  Li  Li4  1  0.980682  0.295861  0.844918  1
  Li  Li5  1  0.019282  0.248495  0.189221  1
  Li  Li6  1  0.519282  0.251505  0.689221  1
  Li  Li7  1  0.480682  0.204139  0.344918  1
  Li  Li8  1  0.500000  0.500000  0.481191  1
  Li  Li9  1  0.000000  0.500000  0.062576  1
  Li  Li10  1  0.500000  0.500000  0.187761  1
  Li  Li11  1  0.500000  0.500000  0.818738  1
  Li  Li12  1  0.519318  0.795861  0.344918  1
  Li  Li13  1  0.480718  0.748495  0.689221  1
  Li  Li14  1  0.980718  0.751505  0.189221  1
  Li  Li15  1  0.019318  0.704139  0.844918  1
  Fe  Fe16  1  0.500000  0.000000  0.135565  1
  Fe  Fe17  1  0.500000  0.000000  0.847021  1
  Fe  Fe18  1  0.020726  0.229540  0.497627  1
  Fe  Fe19  1  0.520726  0.270460  0.997627  1
  Fe  Fe20  1  0.000000  0.500000  0.347021  1
  Fe  Fe21  1  0.000000  0.500000  0.635565  1
  Fe  Fe22  1  0.479274  0.729540  0.997627  1
  Fe  Fe23  1  0.979274  0.770460  0.497627  1
  F  F24  1  0.299620  0.102286  0.730196  1
  F  F25  1  0.269914  0.110178  0.237776  1
  F  F26  1  0.312838  0.099462  0.994556  1
  F  F27  1  0.771779  0.141944  0.106292  1
  F  F28  1  0.797383  0.126544  0.876445  1
  F  F29  1  0.324046  0.114585  0.468756  1
  F  F30  1  0.786713  0.133210  0.609416  1
  F  F31  1  0.831959  0.158940  0.361088  1
  F  F32  1  0.331959  0.341060  0.861088  1
  F  F33  1  0.286713  0.366791  0.109416  1
  F  F34  1  0.824046  0.385415  0.968756  1
  F  F35  1  0.297383  0.373456  0.376445  1
  F  F36  1  0.271779  0.358056  0.606292  1
  F  F37  1  0.812838  0.400538  0.494556  1
  F  F38  1  0.769914  0.389822  0.737776  1
  F  F39  1  0.799620  0.397714  0.230196  1
  F  F40  1  0.200380  0.602286  0.230196  1
  F  F41  1  0.230086  0.610178  0.737776  1
  F  F42  1  0.187162  0.599462  0.494556  1
  F  F43  1  0.702617  0.626544  0.376445  1
  F  F44  1  0.728221  0.641944  0.606292  1
  F  F45  1  0.175954  0.614585  0.968756  1
  F  F46  1  0.713287  0.633209  0.109416  1
  F  F47  1  0.668041  0.658940  0.861088  1
  F  F48  1  0.168041  0.841060  0.361088  1
  F  F49  1  0.213287  0.866791  0.609416  1
  F  F50  1  0.675954  0.885415  0.468756  1
  F  F51  1  0.202617  0.873456  0.876445  1
  F  F52  1  0.228221  0.858056  0.106292  1
  F  F53  1  0.687162  0.900538  0.994556  1
  F  F54  1  0.730086  0.889822  0.237776  1
  F  F55  1  0.700380  0.897714  0.730196  1
