# generated using pymatgen
data_LiFePO4
_symmetry_space_group_name_H-M   'P 1'
_cell_length_a   5.84012602
_cell_length_b   10.33747911
_cell_length_c   10.08007271
_cell_angle_alpha   90.00000000
_cell_angle_beta   93.29984180
_cell_angle_gamma   90.00000000
_symmetry_Int_Tables_number   1
_chemical_formula_structural   LiFePO4
_chemical_formula_sum   'Li8 Fe8 P8 O32'
_cell_volume   607.54697103
_cell_formula_units_Z   8
loop_
 _symmetry_equiv_pos_site_id
 _symmetry_equiv_pos_as_xyz
  1  'x, y, z'
loop_
 _atom_site_type_symbol
 _atom_site_label
 _atom_site_symmetry_multiplicity
 _atom_site_fract_x
 _atom_site_fract_y
 _atom_site_fract_z
 _atom_site_occupancy
  Li  Li0  1  0.122768  0.083910  0.731082  1
  Li  Li1  1  0.122768  0.416090  0.231082  1
  Li  Li2  1  0.359759  0.605388  0.016476  1
  Li  Li3  1  0.359759  0.894612  0.516476  1
  Li  Li4  1  0.640241  0.105388  0.483524  1
  Li  Li5  1  0.640241  0.394612  0.983524  1
  Li  Li6  1  0.877232  0.583910  0.768918  1
  Li  Li7  1  0.877232  0.916090  0.268918  1
  Fe  Fe8  1  0.128712  0.845731  0.850477  1
  Fe  Fe9  1  0.128712  0.654269  0.350477  1
  Fe  Fe10  1  0.377922  0.332746  0.638411  1
  Fe  Fe11  1  0.377922  0.167254  0.138411  1
  Fe  Fe12  1  0.622078  0.832746  0.861589  1
  Fe  Fe13  1  0.622078  0.667254  0.361589  1
  Fe  Fe14  1  0.871288  0.345731  0.649523  1
  Fe  Fe15  1  0.871288  0.154269  0.149523  1
  P  P16  1  0.126715  0.350809  0.905293  1
  P  P17  1  0.126715  0.149191  0.405293  1
  P  P18  1  0.368694  0.604150  0.651036  1
  P  P19  1  0.368694  0.895850  0.151036  1
  P  P20  1  0.631306  0.104150  0.848964  1
  P  P21  1  0.631306  0.395850  0.348964  1
  P  P22  1  0.873285  0.850809  0.594707  1
  P  P23  1  0.873285  0.649191  0.094707  1
  O  O24  1  0.101851  0.232981  0.531875  1
  O  O25  1  0.103291  0.920183  0.635124  1
  O  O26  1  0.101851  0.267019  0.031875  1
  O  O27  1  0.103291  0.579817  0.135124  1
  O  O28  1  0.161601  0.261542  0.781720  1
  O  O29  1  0.153070  0.514359  0.639067  1
  O  O30  1  0.161601  0.238458  0.281720  1
  O  O31  1  0.153070  0.985641  0.139067  1
  O  O32  1  0.331673  0.440841  0.923762  1
  O  O33  1  0.361657  0.698064  0.771801  1
  O  O34  1  0.331673  0.059159  0.423762  1
  O  O35  1  0.378355  0.685876  0.519040  1
  O  O36  1  0.418406  0.012805  0.834503  1
  O  O37  1  0.361657  0.801936  0.271801  1
  O  O38  1  0.378355  0.814124  0.019040  1
  O  O39  1  0.418406  0.487195  0.334503  1
  O  O40  1  0.581594  0.512805  0.665497  1
  O  O41  1  0.621645  0.185876  0.980960  1
  O  O42  1  0.638343  0.198064  0.728199  1
  O  O43  1  0.581594  0.987195  0.165497  1
  O  O44  1  0.621645  0.314124  0.480960  1
  O  O45  1  0.668327  0.940841  0.576238  1
  O  O46  1  0.638343  0.301936  0.228199  1
  O  O47  1  0.668327  0.559159  0.076238  1
  O  O48  1  0.846930  0.014359  0.860933  1
  O  O49  1  0.838399  0.761542  0.718280  1
  O  O50  1  0.846930  0.485641  0.360933  1
  O  O51  1  0.838399  0.738458  0.218280  1
  O  O52  1  0.896709  0.420183  0.864876  1
  O  O53  1  0.898149  0.732981  0.968125  1
  O  O54  1  0.896709  0.079817  0.364876  1
  O  O55  1  0.898149  0.767019  0.468125  1
