# generated using pymatgen
data_NaCoO2
_symmetry_space_group_name_H-M   'P 1'
_cell_length_a   2.82027974
_cell_length_b   4.76012793
_cell_length_c   6.34463488
_cell_angle_alpha   90.00000000
_cell_angle_beta   90.00000000
_cell_angle_gamma   90.00000000
_symmetry_Int_Tables_number   1
_chemical_formula_structural   NaCoO2
_chemical_formula_sum   'Na2 Co2 O4'
_cell_volume   85.17604041
_cell_formula_units_Z   2
loop_
 _symmetry_equiv_pos_site_id
 _symmetry_equiv_pos_as_xyz
  1  'x, y, z'
loop_
 _atom_site_type_symbol
 _atom_site_label
 _atom_site_symmetry_multiplicity
 _atom_site_fract_x
 _atom_site_fract_y
 _atom_site_fract_z
 _atom_site_occupancy
  Na  Na0  1  0.500000  0.500000  0.373171  1
  Na  Na1  1  0.000000  0.000000  0.626829  1
  Co  Co2  1  0.500000  0.500000  0.876964  1
  Co  Co3  1  0.000000  0.000000  0.123036  1
  O  O4  1  0.500000  0.000000  0.920483  1
  O  O5  1  0.500000  0.000000  0.326762  1
  O  O6  1  0.000000  0.500000  0.079517  1
  O  O7  1  0.000000  0.500000  0.673238  1
