# generated using pymatgen
data_SrLiLa7(CoO8)2
_symmetry_space_group_name_H-M   'P 1'
_cell_length_a   6.89290631
_cell_length_b   7.57074889
_cell_length_c   7.57322277
_cell_angle_alpha   90.30466564
_cell_angle_beta   105.83193471
_cell_angle_gamma   105.83760813
_symmetry_Int_Tables_number   1
_chemical_formula_structural   SrLiLa7(CoO8)2
_chemical_formula_sum   'Sr1 Li1 La7 Co2 O16'
_cell_volume   364.41851609
_cell_formula_units_Z   1
loop_
 _symmetry_equiv_pos_site_id
 _symmetry_equiv_pos_as_xyz
  1  'x, y, z'
loop_
 _atom_site_type_symbol
 _atom_site_label
 _atom_site_symmetry_multiplicity
 _atom_site_fract_x
 _atom_site_fract_y
 _atom_site_fract_z
 _atom_site_occupancy
  Sr  Sr0  1  0.721958  0.934503  0.427187  1
  Li  Li1  1  0.995039  0.749627  0.748048  1
  La  La2  1  0.725796  0.426663  0.935724  1
  La  La3  1  0.260982  0.070738  0.558442  1
  La  La4  1  0.723235  0.936200  0.937192  1
  La  La5  1  0.280075  0.566091  0.567272  1
  La  La6  1  0.734824  0.427185  0.428168  1
  La  La7  1  0.267894  0.071561  0.069807  1
  La  La8  1  0.271816  0.563530  0.073842  1
  Co  Co9  1  0.001839  0.250977  0.751031  1
  Co  Co10  1  0.001032  0.749590  0.249978  1
  O  O11  1  0.001327  0.255433  0.993115  1
  O  O12  1  0.004368  0.008593  0.751351  1
  O  O13  1  0.321938  0.331545  0.831484  1
  O  O14  1  0.675603  0.173661  0.673563  1
  O  O15  1  0.004342  0.494698  0.755123  1
  O  O16  1  0.007380  0.251352  0.510681  1
  O  O17  1  0.363498  0.838654  0.842590  1
  O  O18  1  0.638047  0.648777  0.671061  1
  O  O19  1  0.377654  0.345855  0.343552  1
  O  O20  1  0.622337  0.167999  0.141366  1
  O  O21  1  0.005017  0.750562  0.494005  1
  O  O22  1  0.002297  0.507514  0.245545  1
  O  O23  1  0.315753  0.827484  0.328182  1
  O  O24  1  0.672771  0.663485  0.163580  1
  O  O25  1  0.002619  0.991854  0.251496  1
  O  O26  1  0.000558  0.745875  0.006618  1
