# generated using pymatgen
data_Li8Mn7Fe(BO3)8
_symmetry_space_group_name_H-M   'P 1'
_cell_length_a   5.25851706
_cell_length_b   9.11341435
_cell_length_c   11.59420215
_cell_angle_alpha   111.51215583
_cell_angle_beta   102.13196201
_cell_angle_gamma   89.81938485
_symmetry_Int_Tables_number   1
_chemical_formula_structural   Li8Mn7Fe(BO3)8
_chemical_formula_sum   'Li8 Mn7 Fe1 B8 O24'
_cell_volume   503.70781659
_cell_formula_units_Z   1
loop_
 _symmetry_equiv_pos_site_id
 _symmetry_equiv_pos_as_xyz
  1  'x, y, z'
loop_
 _atom_site_type_symbol
 _atom_site_label
 _atom_site_symmetry_multiplicity
 _atom_site_fract_x
 _atom_site_fract_y
 _atom_site_fract_z
 _atom_site_occupancy
  Li  Li0  1  0.029704  0.040306  0.417883  1
  Li  Li1  1  0.294722  0.284729  0.917814  1
  Li  Li2  1  0.480528  0.508213  0.667958  1
  Li  Li3  1  0.272280  0.244324  0.167890  1
  Li  Li4  1  0.528437  0.540829  0.417949  1
  Li  Li5  1  0.794945  0.784563  0.917870  1
  Li  Li6  1  0.980366  0.008479  0.667809  1
  Li  Li7  1  0.770611  0.744424  0.167464  1
  Mn  Mn8  1  0.022997  0.355447  0.383144  1
  Mn  Mn9  1  0.272569  0.939733  0.883066  1
  Mn  Mn10  1  0.476004  0.153108  0.630951  1
  Mn  Mn11  1  0.246548  0.566992  0.134533  1
  Mn  Mn12  1  0.772425  0.439434  0.883122  1
  Mn  Mn13  1  0.744677  0.065039  0.133064  1
  Mn  Mn14  1  0.975311  0.655137  0.633517  1
  Fe  Fe15  1  0.529283  0.854461  0.382821  1
  B  B16  1  0.022983  0.687439  0.377123  1
  B  B17  1  0.265996  0.605046  0.875785  1
  B  B18  1  0.236820  0.892883  0.126691  1
  B  B19  1  0.470192  0.813680  0.624630  1
  B  B20  1  0.524183  0.183234  0.375001  1
  B  B21  1  0.765869  0.105075  0.875762  1
  B  B22  1  0.736840  0.392668  0.126184  1
  B  B23  1  0.970492  0.314275  0.625772  1
  O  O24  1  0.019891  0.109898  0.861099  1
  O  O25  1  0.096500  0.711470  0.845201  1
  O  O26  1  0.176266  0.493994  0.917785  1
  O  O27  1  0.072066  0.169846  0.611270  1
  O  O28  1  0.101007  0.424711  0.595630  1
  O  O29  1  0.238332  0.849737  0.666133  1
  O  O30  1  0.268397  0.661029  0.347667  1
  O  O31  1  0.520124  0.610194  0.861377  1
  O  O32  1  0.596415  0.211289  0.845136  1
  O  O33  1  0.403231  0.080392  0.415226  1
  O  O34  1  0.404547  0.313798  0.361916  1
  O  O35  1  0.676343  0.993861  0.917791  1
  O  O36  1  0.336206  0.013046  0.095844  1
  O  O37  1  0.571215  0.669210  0.611120  1
  O  O38  1  0.600793  0.923124  0.593681  1
  O  O39  1  0.406212  0.794902  0.167851  1
  O  O40  1  0.469607  0.371145  0.112065  1
  O  O41  1  0.737924  0.349491  0.666573  1
  O  O42  1  0.769454  0.153811  0.345204  1
  O  O43  1  0.902899  0.584544  0.417139  1
  O  O44  1  0.897944  0.816256  0.362810  1
  O  O45  1  0.837439  0.513304  0.096327  1
  O  O46  1  0.905996  0.294076  0.166925  1
  O  O47  1  0.969614  0.870556  0.112024  1
