# generated using pymatgen
data_Co3P6WO24
_symmetry_space_group_name_H-M   'P 1'
_cell_length_a   8.90410406
_cell_length_b   8.90410406
_cell_length_c   8.90410406
_cell_angle_alpha   58.59126695
_cell_angle_beta   58.59126695
_cell_angle_gamma   58.59126695
_symmetry_Int_Tables_number   1
_chemical_formula_structural   Co3P6WO24
_chemical_formula_sum   'Co3 P6 W1 O24'
_cell_volume   483.10004136
_cell_formula_units_Z   1
loop_
 _symmetry_equiv_pos_site_id
 _symmetry_equiv_pos_as_xyz
  1  'x, y, z'
loop_
 _atom_site_type_symbol
 _atom_site_label
 _atom_site_symmetry_multiplicity
 _atom_site_fract_x
 _atom_site_fract_y
 _atom_site_fract_z
 _atom_site_occupancy
  Co  Co0  1  0.858081  0.858081  0.858081  1
  Co  Co1  1  0.641711  0.641711  0.641711  1
  Co  Co2  1  0.358797  0.358797  0.358797  1
  P  P3  1  0.251494  0.537471  0.965651  1
  P  P4  1  0.965651  0.251494  0.537471  1
  P  P5  1  0.537471  0.965651  0.251494  1
  P  P6  1  0.469226  0.033565  0.745429  1
  P  P7  1  0.033565  0.745429  0.469226  1
  P  P8  1  0.745429  0.469226  0.033565  1
  W  W9  1  0.141489  0.141489  0.141489  1
  O  O10  1  0.727449  0.490308  0.861142  1
  O  O11  1  0.490308  0.861142  0.727449  1
  O  O12  1  0.081493  0.714261  0.932764  1
  O  O13  1  0.861142  0.727449  0.490308  1
  O  O14  1  0.423285  0.556052  0.786558  1
  O  O15  1  0.215938  0.361794  0.002307  1
  O  O16  1  0.932764  0.081493  0.714261  1
  O  O17  1  0.786558  0.423285  0.556052  1
  O  O18  1  0.556052  0.786558  0.423285  1
  O  O19  1  0.634328  0.003059  0.781295  1
  O  O20  1  0.286167  0.066279  0.924805  1
  O  O21  1  0.003059  0.781295  0.634328  1
  O  O22  1  0.002307  0.215938  0.361794  1
  O  O23  1  0.714261  0.932764  0.081493  1
  O  O24  1  0.361794  0.002307  0.215938  1
  O  O25  1  0.435487  0.211383  0.579133  1
  O  O26  1  0.211383  0.579133  0.435487  1
  O  O27  1  0.066279  0.924805  0.286167  1
  O  O28  1  0.781295  0.634328  0.003059  1
  O  O29  1  0.579133  0.435487  0.211383  1
  O  O30  1  0.134779  0.279695  0.507323  1
  O  O31  1  0.924805  0.286167  0.066279  1
  O  O32  1  0.507323  0.134779  0.279695  1
  O  O33  1  0.279695  0.507323  0.134779  1
