# generated using pymatgen
data_LiV2OF5
_symmetry_space_group_name_H-M   'P 1'
_cell_length_a   5.22439871
_cell_length_b   5.52429788
_cell_length_c   17.32514180
_cell_angle_alpha   84.57454908
_cell_angle_beta   82.76469580
_cell_angle_gamma   62.08987155
_symmetry_Int_Tables_number   1
_chemical_formula_structural   LiV2OF5
_chemical_formula_sum   'Li4 V8 O4 F20'
_cell_volume   437.98203473
_cell_formula_units_Z   4
loop_
 _symmetry_equiv_pos_site_id
 _symmetry_equiv_pos_as_xyz
  1  'x, y, z'
loop_
 _atom_site_type_symbol
 _atom_site_label
 _atom_site_symmetry_multiplicity
 _atom_site_fract_x
 _atom_site_fract_y
 _atom_site_fract_z
 _atom_site_occupancy
  Li  Li0  1  0.503692  0.666470  0.312831  1
  Li  Li1  1  0.622907  0.794082  0.919598  1
  Li  Li2  1  0.746089  0.922744  0.562037  1
  Li  Li3  1  0.274814  0.409222  0.056810  1
  V  V4  1  0.655712  0.603074  0.128211  1
  V  V5  1  0.730897  0.769362  0.743444  1
  V  V6  1  0.136217  0.121680  0.629385  1
  V  V7  1  0.240464  0.255661  0.244004  1
  V  V8  1  0.896893  0.861867  0.377704  1
  V  V9  1  0.018692  0.978485  0.997730  1
  V  V10  1  0.366766  0.404587  0.874532  1
  V  V11  1  0.480046  0.511649  0.496045  1
  O  O12  1  0.508636  0.918199  0.659944  1
  O  O13  1  0.033217  0.407431  0.156086  1
  O  O14  1  0.267310  0.661321  0.409433  1
  O  O15  1  0.302509  0.685112  0.941176  1
  F  F16  1  0.237309  0.799238  0.091426  1
  F  F17  1  0.162542  0.814070  0.565254  1
  F  F18  1  0.688732  0.297060  0.064388  1
  F  F19  1  0.553952  0.937728  0.181050  1
  F  F20  1  0.525121  0.539781  0.784658  1
  F  F21  1  0.741041  0.318888  0.583543  1
  F  F22  1  0.079071  0.000202  0.281523  1
  F  F23  1  0.787909  0.758216  0.025002  1
  F  F24  1  0.707012  0.731195  0.475080  1
  F  F25  1  0.922527  0.556383  0.314025  1
  F  F26  1  0.040149  0.453135  0.683643  1
  F  F27  1  0.950722  0.600106  0.844506  1
  F  F28  1  0.317139  0.259455  0.533781  1
  F  F29  1  0.497979  0.057498  0.332859  1
  F  F30  1  0.243098  0.207058  0.972822  1
  F  F31  1  0.943741  0.980973  0.720258  1
  F  F32  1  0.475310  0.468074  0.226512  1
  F  F33  1  0.453159  0.054256  0.826533  1
  F  F34  1  0.790553  0.195400  0.432038  1
  F  F35  1  0.773252  0.162691  0.913104  1
