# generated using pymatgen
data_Li7V5O12
_symmetry_space_group_name_H-M   'P 1'
_cell_length_a   5.08510113
_cell_length_b   5.08510113
_cell_length_c   9.65559830
_cell_angle_alpha   85.81333830
_cell_angle_beta   94.18666170
_cell_angle_gamma   61.97234170
_symmetry_Int_Tables_number   1
_chemical_formula_structural   Li7V5O12
_chemical_formula_sum   'Li7 V5 O12'
_cell_volume   218.16781537
_cell_formula_units_Z   1
loop_
 _symmetry_equiv_pos_site_id
 _symmetry_equiv_pos_as_xyz
  1  'x, y, z'
loop_
 _atom_site_type_symbol
 _atom_site_label
 _atom_site_symmetry_multiplicity
 _atom_site_fract_x
 _atom_site_fract_y
 _atom_site_fract_z
 _atom_site_occupancy
  Li  Li0  1  0.757261  0.757261  0.500000  1
  Li  Li1  1  0.846540  0.333412  0.744920  1
  Li  Li2  1  0.676875  0.145727  0.255754  1
  Li  Li3  1  0.333412  0.846540  0.255080  1
  Li  Li4  1  0.145727  0.676875  0.744246  1
  Li  Li5  1  0.247248  0.247248  0.000000  1
  Li  Li6  1  0.080604  0.080604  0.500000  1
  V  V7  1  0.917484  0.917484  0.000000  1
  V  V8  1  0.997365  0.489174  0.261384  1
  V  V9  1  0.489174  0.997365  0.738616  1
  V  V10  1  0.575738  0.575738  0.000000  1
  V  V11  1  0.424619  0.424619  0.500000  1
  O  O12  1  0.065834  0.757007  0.378519  1
  O  O13  1  0.757007  0.065834  0.621481  1
  O  O14  1  0.840685  0.652552  0.871605  1
  O  O15  1  0.652552  0.840685  0.128395  1
  O  O16  1  0.723945  0.463099  0.370520  1
  O  O17  1  0.463099  0.723945  0.629480  1
  O  O18  1  0.559575  0.259956  0.879202  1
  O  O19  1  0.259956  0.559575  0.120798  1
  O  O20  1  0.352802  0.166711  0.366723  1
  O  O21  1  0.166711  0.352802  0.633277  1
  O  O22  1  0.226938  0.938848  0.877833  1
  O  O23  1  0.938848  0.226938  0.122167  1
