# generated using pymatgen
data_CaP3H10NO12
_symmetry_space_group_name_H-M   'P 1'
_cell_length_a   7.09737829
_cell_length_b   12.76577989
_cell_length_c   13.12913247
_cell_angle_alpha   90.00000000
_cell_angle_beta   90.00000000
_cell_angle_gamma   90.00000000
_symmetry_Int_Tables_number   1
_chemical_formula_structural   CaP3H10NO12
_chemical_formula_sum   'Ca4 P12 H40 N4 O48'
_cell_volume   1189.54626026
_cell_formula_units_Z   4
loop_
 _symmetry_equiv_pos_site_id
 _symmetry_equiv_pos_as_xyz
  1  'x, y, z'
loop_
 _atom_site_type_symbol
 _atom_site_label
 _atom_site_symmetry_multiplicity
 _atom_site_fract_x
 _atom_site_fract_y
 _atom_site_fract_z
 _atom_site_occupancy
  Ca  Ca0  1  0.153685  0.255273  0.682159  1
  Ca  Ca1  1  0.153685  0.744727  0.317841  1
  Ca  Ca2  1  0.846315  0.244727  0.182159  1
  Ca  Ca3  1  0.846315  0.755273  0.817841  1
  P  P4  1  0.672136  0.340084  0.652395  1
  P  P5  1  0.672136  0.659916  0.347605  1
  P  P6  1  0.327864  0.159916  0.152395  1
  P  P7  1  0.327864  0.840084  0.847605  1
  P  P8  1  0.937554  0.484114  0.327627  1
  P  P9  1  0.937554  0.515886  0.672373  1
  P  P10  1  0.062446  0.015886  0.827627  1
  P  P11  1  0.062446  0.984114  0.172373  1
  P  P12  1  0.869441  0.293601  0.454698  1
  P  P13  1  0.869441  0.706399  0.545302  1
  P  P14  1  0.130559  0.206399  0.954698  1
  P  P15  1  0.130559  0.793601  0.045302  1
  H  H16  1  0.736002  0.029956  0.058084  1
  H  H17  1  0.736002  0.970044  0.941916  1
  H  H18  1  0.263998  0.470044  0.558084  1
  H  H19  1  0.263998  0.529956  0.441916  1
  H  H20  1  0.572764  0.939817  0.030281  1
  H  H21  1  0.572764  0.060183  0.969719  1
  H  H22  1  0.427236  0.560183  0.530281  1
  H  H23  1  0.427236  0.439817  0.469719  1
  H  H24  1  0.915115  0.006928  0.438158  1
  H  H25  1  0.915115  0.993072  0.561842  1
  H  H26  1  0.084885  0.493072  0.938158  1
  H  H27  1  0.084885  0.506928  0.061842  1
  H  H28  1  0.086615  0.066309  0.509248  1
  H  H29  1  0.086615  0.933691  0.490752  1
  H  H30  1  0.913385  0.433691  0.009248  1
  H  H31  1  0.913385  0.566309  0.990752  1
  H  H32  1  0.556793  0.404874  0.035975  1
  H  H33  1  0.556793  0.595126  0.964025  1
  H  H34  1  0.443207  0.095126  0.535975  1
  H  H35  1  0.443207  0.904874  0.464025  1
  H  H36  1  0.646498  0.303778  0.991305  1
  H  H37  1  0.646498  0.696222  0.008695  1
  H  H38  1  0.353502  0.196222  0.491305  1
  H  H39  1  0.353502  0.803778  0.508695  1
  H  H40  1  0.306293  0.731288  0.661984  1
  H  H41  1  0.306293  0.268712  0.338016  1
  H  H42  1  0.693707  0.768712  0.161984  1
  H  H43  1  0.693707  0.231288  0.838016  1
  H  H44  1  0.516451  0.267236  0.374115  1
  H  H45  1  0.516451  0.732764  0.625885  1
  H  H46  1  0.483549  0.232764  0.874115  1
  H  H47  1  0.483549  0.767236  0.125885  1
  H  H48  1  0.411604  0.430319  0.156253  1
  H  H49  1  0.411604  0.569681  0.843747  1
  H  H50  1  0.588396  0.069681  0.656253  1
  H  H51  1  0.588396  0.930319  0.343747  1
  H  H52  1  0.206324  0.552533  0.807321  1
  H  H53  1  0.206324  0.447467  0.192679  1
  H  H54  1  0.793676  0.947467  0.307321  1
  H  H55  1  0.793676  0.052533  0.692679  1
  N  N56  1  0.348674  0.500000  0.500000  1
  N  N57  1  0.651326  0.000000  0.000000  1
  N  N58  1  0.995868  0.500000  0.000000  1
  N  N59  1  0.004132  0.000000  0.500000  1
  O  O60  1  0.465976  0.668558  0.328346  1
  O  O61  1  0.465976  0.331442  0.671654  1
  O  O62  1  0.534024  0.831442  0.828346  1
  O  O63  1  0.534024  0.168558  0.171654  1
  O  O64  1  0.809145  0.725916  0.287914  1
  O  O65  1  0.809145  0.274084  0.712086  1
  O  O66  1  0.190855  0.774084  0.787914  1
  O  O67  1  0.190855  0.225916  0.212086  1
  O  O68  1  0.729015  0.464237  0.663834  1
  O  O69  1  0.729015  0.535763  0.336166  1
  O  O70  1  0.270985  0.035763  0.163834  1
  O  O71  1  0.270985  0.964237  0.836166  1
  O  O72  1  0.302109  0.175207  0.029950  1
  O  O73  1  0.302109  0.824793  0.970050  1
  O  O74  1  0.697891  0.324793  0.529950  1
  O  O75  1  0.697891  0.675207  0.470050  1
  O  O76  1  0.087636  0.434726  0.654743  1
  O  O77  1  0.087636  0.565274  0.345257  1
  O  O78  1  0.912364  0.065274  0.154743  1
  O  O79  1  0.912364  0.934726  0.845257  1
  O  O80  1  0.057250  0.079994  0.731682  1
  O  O81  1  0.057250  0.920006  0.268318  1
  O  O82  1  0.942750  0.420006  0.231682  1
  O  O83  1  0.942750  0.579994  0.768318  1
  O  O84  1  0.951742  0.408718  0.426136  1
  O  O85  1  0.951742  0.591282  0.573864  1
  O  O86  1  0.048258  0.091282  0.926136  1
  O  O87  1  0.048258  0.908718  0.073864  1
  O  O88  1  0.780494  0.246090  0.361440  1
  O  O89  1  0.780494  0.753910  0.638560  1
  O  O90  1  0.219506  0.253910  0.861440  1
  O  O91  1  0.219506  0.746090  0.138560  1
  O  O92  1  0.017698  0.236595  0.513154  1
  O  O93  1  0.017698  0.763405  0.486846  1
  O  O94  1  0.982302  0.263405  0.013154  1
  O  O95  1  0.982302  0.736595  0.986846  1
  O  O96  1  0.659626  0.643329  0.951756  1
  O  O97  1  0.659626  0.356671  0.048244  1
  O  O98  1  0.340374  0.856671  0.451756  1
  O  O99  1  0.340374  0.143329  0.548244  1
  O  O100  1  0.612664  0.216032  0.897211  1
  O  O101  1  0.612664  0.783968  0.102789  1
  O  O102  1  0.387336  0.283968  0.397211  1
  O  O103  1  0.387336  0.716032  0.602789  1
  O  O104  1  0.699015  0.973831  0.355580  1
  O  O105  1  0.699015  0.026169  0.644420  1
  O  O106  1  0.300985  0.526169  0.855580  1
  O  O107  1  0.300985  0.473831  0.144420  1
