# generated using pymatgen
data_Li6MnO6
_symmetry_space_group_name_H-M   'P 1'
_cell_length_a   5.45183740
_cell_length_b   5.45183740
_cell_length_c   5.45183740
_cell_angle_alpha   64.04060597
_cell_angle_beta   64.04060597
_cell_angle_gamma   64.04060597
_symmetry_Int_Tables_number   1
_chemical_formula_structural   Li6MnO6
_chemical_formula_sum   'Li6 Mn1 O6'
_cell_volume   124.77434704
_cell_formula_units_Z   1
loop_
 _symmetry_equiv_pos_site_id
 _symmetry_equiv_pos_as_xyz
  1  'x, y, z'
loop_
 _atom_site_type_symbol
 _atom_site_label
 _atom_site_symmetry_multiplicity
 _atom_site_fract_x
 _atom_site_fract_y
 _atom_site_fract_z
 _atom_site_occupancy
  Li  Li0  1  0.922643  0.284936  0.507035  1
  Li  Li1  1  0.492965  0.077357  0.715064  1
  Li  Li2  1  0.715064  0.492965  0.077357  1
  Li  Li3  1  0.284936  0.507035  0.922643  1
  Li  Li4  1  0.507035  0.922643  0.284936  1
  Li  Li5  1  0.077357  0.715064  0.492965  1
  Mn  Mn6  1  0.000000  0.000000  0.000000  1
  O  O7  1  0.797384  0.093500  0.351991  1
  O  O8  1  0.648009  0.202616  0.906500  1
  O  O9  1  0.906500  0.648009  0.202616  1
  O  O10  1  0.093500  0.351991  0.797384  1
  O  O11  1  0.351991  0.797384  0.093500  1
  O  O12  1  0.202616  0.906500  0.648009  1
