# generated using pymatgen
data_Rb2Ge2O5
_symmetry_space_group_name_H-M   'P 1'
_cell_length_a   7.04290870
_cell_length_b   7.04290870
_cell_length_c   15.26020207
_cell_angle_alpha   89.76407512
_cell_angle_beta   90.23592488
_cell_angle_gamma   102.46821672
_symmetry_Int_Tables_number   1
_chemical_formula_structural   Rb2Ge2O5
_chemical_formula_sum   'Rb8 Ge8 O20'
_cell_volume   739.08297385
_cell_formula_units_Z   4
loop_
 _symmetry_equiv_pos_site_id
 _symmetry_equiv_pos_as_xyz
  1  'x, y, z'
loop_
 _atom_site_type_symbol
 _atom_site_label
 _atom_site_symmetry_multiplicity
 _atom_site_fract_x
 _atom_site_fract_y
 _atom_site_fract_z
 _atom_site_occupancy
  Rb  Rb0  1  0.930675  0.279116  0.917434  1
  Rb  Rb1  1  0.720884  0.069325  0.417434  1
  Rb  Rb2  1  0.704343  0.556833  0.603619  1
  Rb  Rb3  1  0.443167  0.295657  0.103619  1
  Rb  Rb4  1  0.556833  0.704343  0.896381  1
  Rb  Rb5  1  0.295657  0.443167  0.396381  1
  Rb  Rb6  1  0.279116  0.930675  0.582566  1
  Rb  Rb7  1  0.069325  0.720884  0.082566  1
  Ge  Ge8  1  0.789288  0.052650  0.694928  1
  Ge  Ge9  1  0.947350  0.210712  0.194928  1
  Ge  Ge10  1  0.437993  0.205018  0.821125  1
  Ge  Ge11  1  0.794982  0.562007  0.321125  1
  Ge  Ge12  1  0.205018  0.437993  0.678875  1
  Ge  Ge13  1  0.562007  0.794982  0.178875  1
  Ge  Ge14  1  0.052650  0.789288  0.805072  1
  Ge  Ge15  1  0.210712  0.947350  0.305072  1
  O  O16  1  0.008703  0.233748  0.690323  1
  O  O17  1  0.766252  0.991297  0.190323  1
  O  O18  1  0.649167  0.131850  0.779682  1
  O  O19  1  0.868150  0.350833  0.279682  1
  O  O20  1  0.989711  0.684414  0.904603  1
  O  O21  1  0.315586  0.010289  0.404603  1
  O  O22  1  0.491521  0.287296  0.925198  1
  O  O23  1  0.712704  0.508479  0.425198  1
  O  O24  1  0.398500  0.398500  0.750000  1
  O  O25  1  0.844118  0.844118  0.750000  1
  O  O26  1  0.155882  0.155882  0.250000  1
  O  O27  1  0.601500  0.601500  0.250000  1
  O  O28  1  0.287296  0.491521  0.574802  1
  O  O29  1  0.508479  0.712704  0.074802  1
  O  O30  1  0.684414  0.989711  0.595397  1
  O  O31  1  0.010289  0.315586  0.095397  1
  O  O32  1  0.131850  0.649167  0.720318  1
  O  O33  1  0.350833  0.868150  0.220318  1
  O  O34  1  0.233748  0.008703  0.809677  1
  O  O35  1  0.991297  0.766252  0.309677  1
