# generated using pymatgen
data_Ca2CrH2I2O11
_symmetry_space_group_name_H-M   'P 1'
_cell_length_a   10.24708603
_cell_length_b   7.34115437
_cell_length_c   14.16053527
_cell_angle_alpha   90.00000000
_cell_angle_beta   106.57334496
_cell_angle_gamma   90.00000000
_symmetry_Int_Tables_number   1
_chemical_formula_structural   Ca2CrH2I2O11
_chemical_formula_sum   'Ca8 Cr4 H8 I8 O44'
_cell_volume   1020.97782001
_cell_formula_units_Z   4
loop_
 _symmetry_equiv_pos_site_id
 _symmetry_equiv_pos_as_xyz
  1  'x, y, z'
loop_
 _atom_site_type_symbol
 _atom_site_label
 _atom_site_symmetry_multiplicity
 _atom_site_fract_x
 _atom_site_fract_y
 _atom_site_fract_z
 _atom_site_occupancy
  Ca  Ca0  1  0.699849  0.585413  0.203761  1
  Ca  Ca1  1  0.300151  0.085413  0.296239  1
  Ca  Ca2  1  0.300151  0.414587  0.796239  1
  Ca  Ca3  1  0.699849  0.914587  0.703761  1
  Ca  Ca4  1  0.899286  0.757198  0.988481  1
  Ca  Ca5  1  0.100714  0.257198  0.511519  1
  Ca  Ca6  1  0.100714  0.242802  0.011519  1
  Ca  Ca7  1  0.899286  0.742802  0.488481  1
  Cr  Cr8  1  0.430557  0.296045  0.078358  1
  Cr  Cr9  1  0.569443  0.796045  0.421642  1
  Cr  Cr10  1  0.569443  0.703955  0.921642  1
  Cr  Cr11  1  0.430557  0.203955  0.578358  1
  H  H12  1  0.583366  0.925300  0.242929  1
  H  H13  1  0.416634  0.425300  0.257071  1
  H  H14  1  0.416634  0.074700  0.757071  1
  H  H15  1  0.583366  0.574700  0.742929  1
  H  H16  1  0.599527  0.994135  0.141485  1
  H  H17  1  0.400473  0.494135  0.358515  1
  H  H18  1  0.400473  0.005865  0.858515  1
  H  H19  1  0.599527  0.505865  0.641485  1
  I  I20  1  0.049873  0.703467  0.273123  1
  I  I21  1  0.950127  0.203467  0.226877  1
  I  I22  1  0.950127  0.296533  0.726877  1
  I  I23  1  0.049873  0.796533  0.773123  1
  I  I24  1  0.256425  0.739173  0.075022  1
  I  I25  1  0.743575  0.239173  0.424978  1
  I  I26  1  0.743575  0.260827  0.924978  1
  I  I27  1  0.256425  0.760827  0.575022  1
  O  O28  1  0.126193  0.907873  0.340520  1
  O  O29  1  0.873807  0.407873  0.159480  1
  O  O30  1  0.873807  0.092127  0.659480  1
  O  O31  1  0.126193  0.592127  0.840520  1
  O  O32  1  0.949769  0.806318  0.158231  1
  O  O33  1  0.050231  0.306318  0.341769  1
  O  O34  1  0.050231  0.193682  0.841769  1
  O  O35  1  0.949769  0.693682  0.658231  1
  O  O36  1  0.273962  0.799202  0.203333  1
  O  O37  1  0.726038  0.299202  0.296667  1
  O  O38  1  0.726038  0.200798  0.796667  1
  O  O39  1  0.273962  0.700798  0.703333  1
  O  O40  1  0.465574  0.489957  0.145898  1
  O  O41  1  0.534426  0.989957  0.354102  1
  O  O42  1  0.534426  0.510043  0.854102  1
  O  O43  1  0.465574  0.010043  0.645898  1
  O  O44  1  0.351928  0.154357  0.135536  1
  O  O45  1  0.648072  0.654357  0.364464  1
  O  O46  1  0.648072  0.845643  0.864464  1
  O  O47  1  0.351928  0.345643  0.635536  1
  O  O48  1  0.129393  0.559014  0.064041  1
  O  O49  1  0.870607  0.059014  0.435959  1
  O  O50  1  0.870607  0.440986  0.935959  1
  O  O51  1  0.129393  0.940986  0.564041  1
  O  O52  1  0.681017  0.654020  0.029970  1
  O  O53  1  0.318983  0.154020  0.470030  1
  O  O54  1  0.318983  0.345980  0.970030  1
  O  O55  1  0.681017  0.845980  0.529970  1
  O  O56  1  0.866019  0.090763  0.994953  1
  O  O57  1  0.133981  0.590763  0.505047  1
  O  O58  1  0.133981  0.909237  0.005047  1
  O  O59  1  0.866019  0.409237  0.494953  1
  O  O60  1  0.905493  0.683944  0.325083  1
  O  O61  1  0.094507  0.183944  0.174917  1
  O  O62  1  0.094507  0.316056  0.674917  1
  O  O63  1  0.905493  0.816056  0.825083  1
  O  O64  1  0.571262  0.205301  0.066273  1
  O  O65  1  0.428738  0.705301  0.433727  1
  O  O66  1  0.428738  0.794699  0.933727  1
  O  O67  1  0.571262  0.294699  0.566273  1
  O  O68  1  0.610275  0.885856  0.184601  1
  O  O69  1  0.389725  0.385856  0.315399  1
  O  O70  1  0.389725  0.114144  0.815399  1
  O  O71  1  0.610275  0.614144  0.684601  1
