# generated using pymatgen
data_Fe3NiSn2(PO4)6
_symmetry_space_group_name_H-M   'P 1'
_cell_length_a   8.64600103
_cell_length_b   8.64600103
_cell_length_c   8.64600103
_cell_angle_alpha   60.34647447
_cell_angle_beta   60.34647447
_cell_angle_gamma   60.34647447
_symmetry_Int_Tables_number   1
_chemical_formula_structural   Fe3NiSn2(PO4)6
_chemical_formula_sum   'Fe3 Ni1 Sn2 P6 O24'
_cell_volume   460.59754880
_cell_formula_units_Z   1
loop_
 _symmetry_equiv_pos_site_id
 _symmetry_equiv_pos_as_xyz
  1  'x, y, z'
loop_
 _atom_site_type_symbol
 _atom_site_label
 _atom_site_symmetry_multiplicity
 _atom_site_fract_x
 _atom_site_fract_y
 _atom_site_fract_z
 _atom_site_occupancy
  Fe  Fe0  1  0.850427  0.850427  0.850427  1
  Fe  Fe1  1  0.647873  0.647873  0.647873  1
  Fe  Fe2  1  0.351409  0.351409  0.351409  1
  Ni  Ni3  1  0.147491  0.147491  0.147491  1
  Sn  Sn4  1  0.000910  0.000910  0.000910  1
  Sn  Sn5  1  0.500809  0.500809  0.500809  1
  P  P6  1  0.249527  0.544148  0.958419  1
  P  P7  1  0.749910  0.453698  0.042167  1
  P  P8  1  0.453698  0.042167  0.749910  1
  P  P9  1  0.042167  0.749910  0.453698  1
  P  P10  1  0.958419  0.249527  0.544148  1
  P  P11  1  0.544148  0.958419  0.249527  1
  O  O12  1  0.888522  0.684046  0.495233  1
  O  O13  1  0.684046  0.495233  0.888522  1
  O  O14  1  0.942676  0.088102  0.748526  1
  O  O15  1  0.495233  0.888522  0.684046  1
  O  O16  1  0.988095  0.183556  0.397647  1
  O  O17  1  0.760379  0.409290  0.570745  1
  O  O18  1  0.748526  0.942676  0.088102  1
  O  O19  1  0.570745  0.760379  0.409290  1
  O  O20  1  0.816921  0.606513  0.004921  1
  O  O21  1  0.409290  0.570745  0.760379  1
  O  O22  1  0.909566  0.253559  0.057358  1
  O  O23  1  0.606513  0.004921  0.816921  1
  O  O24  1  0.397647  0.988095  0.183556  1
  O  O25  1  0.088102  0.748526  0.942676  1
  O  O26  1  0.590009  0.435589  0.238696  1
  O  O27  1  0.183556  0.397647  0.988095  1
  O  O28  1  0.435589  0.238696  0.590009  1
  O  O29  1  0.253559  0.057358  0.909566  1
  O  O30  1  0.238696  0.590009  0.435589  1
  O  O31  1  0.004921  0.816921  0.606513  1
  O  O32  1  0.507781  0.112707  0.312774  1
  O  O33  1  0.057358  0.909566  0.253559  1
  O  O34  1  0.312774  0.507781  0.112707  1
  O  O35  1  0.112707  0.312774  0.507781  1
