# generated using pymatgen
data_Li8Fe3Sn(PO4)6
_symmetry_space_group_name_H-M   'P 1'
_cell_length_a   8.85077057
_cell_length_b   8.85077057
_cell_length_c   8.85077057
_cell_angle_alpha   61.67365366
_cell_angle_beta   61.67365366
_cell_angle_gamma   61.67365366
_symmetry_Int_Tables_number   1
_chemical_formula_structural   Li8Fe3Sn(PO4)6
_chemical_formula_sum   'Li8 Fe3 Sn1 P6 O24'
_cell_volume   508.65825560
_cell_formula_units_Z   1
loop_
 _symmetry_equiv_pos_site_id
 _symmetry_equiv_pos_as_xyz
  1  'x, y, z'
loop_
 _atom_site_type_symbol
 _atom_site_label
 _atom_site_symmetry_multiplicity
 _atom_site_fract_x
 _atom_site_fract_y
 _atom_site_fract_z
 _atom_site_occupancy
  Li  Li0  1  0.644273  0.237506  0.798048  1
  Li  Li1  1  0.969284  0.969284  0.969284  1
  Li  Li2  1  0.237506  0.798048  0.644273  1
  Li  Li3  1  0.798048  0.644273  0.237506  1
  Li  Li4  1  0.143024  0.308854  0.720014  1
  Li  Li5  1  0.475120  0.475120  0.475120  1
  Li  Li6  1  0.720014  0.143024  0.308854  1
  Li  Li7  1  0.308854  0.720014  0.143024  1
  Fe  Fe8  1  0.845071  0.845071  0.845071  1
  Fe  Fe9  1  0.345959  0.345959  0.345959  1
  Fe  Fe10  1  0.646415  0.646415  0.646415  1
  Sn  Sn11  1  0.144992  0.144992  0.144992  1
  P  P12  1  0.549054  0.949983  0.250386  1
  P  P13  1  0.250386  0.549054  0.949983  1
  P  P14  1  0.949983  0.250386  0.549054  1
  P  P15  1  0.051451  0.750218  0.452954  1
  P  P16  1  0.750218  0.452954  0.051451  1
  P  P17  1  0.452954  0.051451  0.750218  1
  O  O18  1  0.731747  0.921769  0.093080  1
  O  O19  1  0.526207  0.104220  0.301563  1
  O  O20  1  0.559025  0.765869  0.406563  1
  O  O21  1  0.301563  0.526207  0.104220  1
  O  O22  1  0.406563  0.559025  0.765869  1
  O  O23  1  0.104220  0.301563  0.526207  1
  O  O24  1  0.385557  0.994744  0.194718  1
  O  O25  1  0.093080  0.731747  0.921769  1
  O  O26  1  0.194718  0.385557  0.994744  1
  O  O27  1  0.921769  0.093080  0.731747  1
  O  O28  1  0.994744  0.194718  0.385557  1
  O  O29  1  0.765869  0.406563  0.559025  1
  O  O30  1  0.236120  0.596628  0.419794  1
  O  O31  1  0.034034  0.807090  0.601318  1
  O  O32  1  0.072770  0.908818  0.259137  1
  O  O33  1  0.807090  0.601318  0.034034  1
  O  O34  1  0.908818  0.259137  0.072770  1
  O  O35  1  0.601318  0.034034  0.807090  1
  O  O36  1  0.887955  0.705194  0.491397  1
  O  O37  1  0.596628  0.419794  0.236120  1
  O  O38  1  0.705194  0.491397  0.887955  1
  O  O39  1  0.419794  0.236120  0.596628  1
  O  O40  1  0.491397  0.887955  0.705194  1
  O  O41  1  0.259137  0.072770  0.908818  1
