# generated using pymatgen
data_MgO
_symmetry_space_group_name_H-M   'P 1'
_cell_length_a   3.29264118
_cell_length_b   3.29264118
_cell_length_c   15.67592858
_cell_angle_alpha   90.00000000
_cell_angle_beta   90.00000000
_cell_angle_gamma   120.00000000
_symmetry_Int_Tables_number   1
_chemical_formula_structural   MgO
_chemical_formula_sum   'Mg6 O6'
_cell_volume   147.18132834
_cell_formula_units_Z   6
loop_
 _symmetry_equiv_pos_site_id
 _symmetry_equiv_pos_as_xyz
  1  'x, y, z'
loop_
 _atom_site_type_symbol
 _atom_site_label
 _atom_site_symmetry_multiplicity
 _atom_site_fract_x
 _atom_site_fract_y
 _atom_site_fract_z
 _atom_site_occupancy
  Mg  Mg0  1  0.333333  0.666667  0.351606  1
  Mg  Mg1  1  0.333333  0.666667  0.021456  1
  Mg  Mg2  1  0.000000  0.000000  0.186527  1
  Mg  Mg3  1  0.000000  0.000000  0.517590  1
  Mg  Mg4  1  0.000000  0.000000  0.853148  1
  Mg  Mg5  1  0.666667  0.333333  0.686110  1
  O  O6  1  0.333333  0.666667  0.148632  1
  O  O7  1  0.333333  0.666667  0.478872  1
  O  O8  1  0.000000  0.000000  0.982065  1
  O  O9  1  0.000000  0.000000  0.313622  1
  O  O10  1  0.000000  0.000000  0.646357  1
  O  O11  1  0.666667  0.333333  0.813986  1
