# generated using pymatgen
data_HoBiO3
_symmetry_space_group_name_H-M   'P 1'
_cell_length_a   5.79045511
_cell_length_b   6.20860934
_cell_length_c   8.43538269
_cell_angle_alpha   90.00000000
_cell_angle_beta   90.00000000
_cell_angle_gamma   90.00000000
_symmetry_Int_Tables_number   1
_chemical_formula_structural   HoBiO3
_chemical_formula_sum   'Ho4 Bi4 O12'
_cell_volume   303.25769028
_cell_formula_units_Z   4
loop_
 _symmetry_equiv_pos_site_id
 _symmetry_equiv_pos_as_xyz
  1  'x, y, z'
loop_
 _atom_site_type_symbol
 _atom_site_label
 _atom_site_symmetry_multiplicity
 _atom_site_fract_x
 _atom_site_fract_y
 _atom_site_fract_z
 _atom_site_occupancy
  Ho  Ho0  1  0.000000  0.000000  0.500000  1
  Ho  Ho1  1  0.000000  0.000000  0.000000  1
  Ho  Ho2  1  0.500000  0.500000  0.500000  1
  Ho  Ho3  1  0.500000  0.500000  0.000000  1
  Bi  Bi4  1  0.011967  0.464380  0.750000  1
  Bi  Bi5  1  0.488033  0.964380  0.750000  1
  Bi  Bi6  1  0.511967  0.035620  0.250000  1
  Bi  Bi7  1  0.988033  0.535620  0.250000  1
  O  O8  1  0.143113  0.949325  0.250000  1
  O  O9  1  0.169517  0.681347  0.933019  1
  O  O10  1  0.169517  0.681347  0.566981  1
  O  O11  1  0.330483  0.181347  0.933019  1
  O  O12  1  0.330483  0.181347  0.566981  1
  O  O13  1  0.356887  0.449325  0.250000  1
  O  O14  1  0.643113  0.550675  0.750000  1
  O  O15  1  0.669517  0.818653  0.433019  1
  O  O16  1  0.669517  0.818653  0.066981  1
  O  O17  1  0.830483  0.318653  0.433019  1
  O  O18  1  0.830483  0.318653  0.066981  1
  O  O19  1  0.856887  0.050675  0.750000  1
