# generated using pymatgen
data_Na5Mn7O16
_symmetry_space_group_name_H-M   'P 1'
_cell_length_a   6.19846787
_cell_length_b   6.19846787
_cell_length_c   10.70690464
_cell_angle_alpha   74.92649121
_cell_angle_beta   105.07350879
_cell_angle_gamma   123.13028219
_symmetry_Int_Tables_number   1
_chemical_formula_structural   Na5Mn7O16
_chemical_formula_sum   'Na5 Mn7 O16'
_cell_volume   329.08429478
_cell_formula_units_Z   1
loop_
 _symmetry_equiv_pos_site_id
 _symmetry_equiv_pos_as_xyz
  1  'x, y, z'
loop_
 _atom_site_type_symbol
 _atom_site_label
 _atom_site_symmetry_multiplicity
 _atom_site_fract_x
 _atom_site_fract_y
 _atom_site_fract_z
 _atom_site_occupancy
  Na  Na0  1  0.762903  0.237097  0.437257  1
  Na  Na1  1  0.696275  0.303725  0.083711  1
  Na  Na2  1  0.000000  1.000000  0.500000  1
  Na  Na3  1  0.303725  0.696275  0.916289  1
  Na  Na4  1  0.237097  0.762903  0.562743  1
  Mn  Mn5  1  0.000000  0.000000  0.000000  1
  Mn  Mn6  1  0.722966  0.764196  0.236266  1
  Mn  Mn7  1  0.236343  0.763657  0.237868  1
  Mn  Mn8  1  0.763657  0.236343  0.762132  1
  Mn  Mn9  1  0.764196  0.722966  0.763734  1
  Mn  Mn10  1  0.235804  0.277034  0.236266  1
  Mn  Mn11  1  0.277034  0.235804  0.763734  1
  O  O12  1  0.887485  0.684845  0.129177  1
  O  O13  1  0.897961  0.102039  0.118721  1
  O  O14  1  0.913485  0.086515  0.662066  1
  O  O15  1  0.567765  0.432235  0.330552  1
  O  O16  1  0.376840  0.623160  0.134535  1
  O  O17  1  0.589723  0.889187  0.324123  1
  O  O18  1  0.684845  0.887485  0.870823  1
  O  O19  1  0.110813  0.410277  0.324123  1
  O  O20  1  0.889187  0.589723  0.675877  1
  O  O21  1  0.410277  0.110813  0.675877  1
  O  O22  1  0.315155  0.112515  0.129177  1
  O  O23  1  0.432235  0.567765  0.669448  1
  O  O24  1  0.623160  0.376840  0.865465  1
  O  O25  1  0.086515  0.913485  0.337934  1
  O  O26  1  0.102039  0.897961  0.881279  1
  O  O27  1  0.112515  0.315155  0.870823  1
