# generated using pymatgen
data_Sb2(PO4)3
_symmetry_space_group_name_H-M   'P 1'
_cell_length_a   9.14613539
_cell_length_b   9.14613539
_cell_length_c   9.14613539
_cell_angle_alpha   55.14550165
_cell_angle_beta   55.14550165
_cell_angle_gamma   55.14550165
_symmetry_Int_Tables_number   1
_chemical_formula_structural   Sb2(PO4)3
_chemical_formula_sum   'Sb4 P6 O24'
_cell_volume   479.93161319
_cell_formula_units_Z   2
loop_
 _symmetry_equiv_pos_site_id
 _symmetry_equiv_pos_as_xyz
  1  'x, y, z'
loop_
 _atom_site_type_symbol
 _atom_site_label
 _atom_site_symmetry_multiplicity
 _atom_site_fract_x
 _atom_site_fract_y
 _atom_site_fract_z
 _atom_site_occupancy
  Sb  Sb0  1  0.857678  0.857678  0.857678  1
  Sb  Sb1  1  0.142322  0.142322  0.142322  1
  Sb  Sb2  1  0.652048  0.652048  0.652048  1
  Sb  Sb3  1  0.347952  0.347952  0.347952  1
  P  P4  1  0.255143  0.544222  0.957029  1
  P  P5  1  0.957029  0.255143  0.544222  1
  P  P6  1  0.544222  0.957029  0.255143  1
  P  P7  1  0.455778  0.042971  0.744857  1
  P  P8  1  0.042971  0.744857  0.455778  1
  P  P9  1  0.744857  0.455778  0.042971  1
  O  O10  1  0.779907  0.477904  0.843110  1
  O  O11  1  0.477904  0.843110  0.779907  1
  O  O12  1  0.843110  0.779907  0.477904  1
  O  O13  1  0.469490  0.516026  0.822107  1
  O  O14  1  0.125391  0.748431  0.872447  1
  O  O15  1  0.213861  0.393483  0.975157  1
  O  O16  1  0.872447  0.125391  0.748431  1
  O  O17  1  0.822107  0.469490  0.516026  1
  O  O18  1  0.516026  0.822107  0.469490  1
  O  O19  1  0.606517  0.024843  0.786139  1
  O  O20  1  0.251569  0.127553  0.874609  1
  O  O21  1  0.024843  0.786139  0.606517  1
  O  O22  1  0.975157  0.213861  0.393483  1
  O  O23  1  0.748431  0.872447  0.125391  1
  O  O24  1  0.393483  0.975157  0.213861  1
  O  O25  1  0.483974  0.177893  0.530510  1
  O  O26  1  0.177893  0.530510  0.483974  1
  O  O27  1  0.127553  0.874609  0.251569  1
  O  O28  1  0.786139  0.606517  0.024843  1
  O  O29  1  0.874609  0.251569  0.127553  1
  O  O30  1  0.530510  0.483974  0.177893  1
  O  O31  1  0.156890  0.220093  0.522096  1
  O  O32  1  0.522096  0.156890  0.220093  1
  O  O33  1  0.220093  0.522096  0.156890  1
