# generated using pymatgen
data_Na2FePCO7
_symmetry_space_group_name_H-M   'P 1'
_cell_length_a   5.29575921
_cell_length_b   6.57579190
_cell_length_c   8.88982071
_cell_angle_alpha   86.90589831
_cell_angle_beta   88.56207608
_cell_angle_gamma   89.58366400
_symmetry_Int_Tables_number   1
_chemical_formula_structural   Na2FePCO7
_chemical_formula_sum   'Na4 Fe2 P2 C2 O14'
_cell_volume   309.02337595
_cell_formula_units_Z   2
loop_
 _symmetry_equiv_pos_site_id
 _symmetry_equiv_pos_as_xyz
  1  'x, y, z'
loop_
 _atom_site_type_symbol
 _atom_site_label
 _atom_site_symmetry_multiplicity
 _atom_site_fract_x
 _atom_site_fract_y
 _atom_site_fract_z
 _atom_site_occupancy
  Na  Na0  1  0.231022  0.283717  0.915802  1
  Na  Na1  1  0.749151  0.007775  0.736319  1
  Na  Na2  1  0.250849  0.992225  0.263681  1
  Na  Na3  1  0.768978  0.716283  0.084198  1
  Fe  Fe4  1  0.219767  0.733119  0.655695  1
  Fe  Fe5  1  0.780233  0.266881  0.344305  1
  P  P6  1  0.278538  0.241311  0.573718  1
  P  P7  1  0.721462  0.758689  0.426282  1
  C  C8  1  0.286098  0.758315  0.934388  1
  C  C9  1  0.713902  0.241685  0.065612  1
  O  O10  1  0.676435  0.212113  0.928492  1
  O  O11  1  0.059144  0.736098  0.879964  1
  O  O12  1  0.471565  0.743073  0.834327  1
  O  O13  1  0.207833  0.056513  0.683455  1
  O  O14  1  0.231219  0.432037  0.665126  1
  O  O15  1  0.880402  0.757231  0.569963  1
  O  O16  1  0.563587  0.223897  0.527107  1
  O  O17  1  0.436413  0.776103  0.472893  1
  O  O18  1  0.119598  0.242769  0.430037  1
  O  O19  1  0.768781  0.567963  0.334874  1
  O  O20  1  0.792167  0.943487  0.316545  1
  O  O21  1  0.528435  0.256927  0.165673  1
  O  O22  1  0.940856  0.263902  0.120036  1
  O  O23  1  0.323565  0.787887  0.071508  1
