# generated using pymatgen
data_Li3Ti2CrO6
_symmetry_space_group_name_H-M   'P 1'
_cell_length_a   6.69844228
_cell_length_b   6.69844228
_cell_length_c   5.97615695
_cell_angle_alpha   75.75738040
_cell_angle_beta   104.24261960
_cell_angle_gamma   154.61518993
_symmetry_Int_Tables_number   1
_chemical_formula_structural   Li3Ti2CrO6
_chemical_formula_sum   'Li3 Ti2 Cr1 O6'
_cell_volume   111.23701259
_cell_formula_units_Z   1
loop_
 _symmetry_equiv_pos_site_id
 _symmetry_equiv_pos_as_xyz
  1  'x, y, z'
loop_
 _atom_site_type_symbol
 _atom_site_label
 _atom_site_symmetry_multiplicity
 _atom_site_fract_x
 _atom_site_fract_y
 _atom_site_fract_z
 _atom_site_occupancy
  Li  Li0  1  0.000000  0.000000  0.000000  1
  Li  Li1  1  0.336758  0.663242  0.661770  1
  Li  Li2  1  0.663242  0.336758  0.338230  1
  Ti  Ti3  1  0.328190  0.671810  0.154992  1
  Ti  Ti4  1  0.671810  0.328190  0.845008  1
  Cr  Cr5  1  0.000000  0.000000  0.500000  1
  O  O6  1  0.838584  0.161416  0.402093  1
  O  O7  1  0.165571  0.834429  0.080217  1
  O  O8  1  0.161416  0.838584  0.597907  1
  O  O9  1  0.506950  0.493050  0.736929  1
  O  O10  1  0.493050  0.506950  0.263071  1
  O  O11  1  0.834429  0.165571  0.919783  1
