# generated using pymatgen
data_LiFe(PO3)4
_symmetry_space_group_name_H-M   'P 1'
_cell_length_a   7.44101738
_cell_length_b   8.85671493
_cell_length_c   15.45913067
_cell_angle_alpha   90.00000000
_cell_angle_beta   113.57270853
_cell_angle_gamma   90.00000000
_symmetry_Int_Tables_number   1
_chemical_formula_structural   LiFe(PO3)4
_chemical_formula_sum   'Li4 Fe4 P16 O48'
_cell_volume   933.78692674
_cell_formula_units_Z   4
loop_
 _symmetry_equiv_pos_site_id
 _symmetry_equiv_pos_as_xyz
  1  'x, y, z'
loop_
 _atom_site_type_symbol
 _atom_site_label
 _atom_site_symmetry_multiplicity
 _atom_site_fract_x
 _atom_site_fract_y
 _atom_site_fract_z
 _atom_site_occupancy
  Li  Li0  1  0.363867  0.573092  0.924322  1
  Li  Li1  1  0.636133  0.073092  0.575678  1
  Li  Li2  1  0.363867  0.926908  0.424322  1
  Li  Li3  1  0.636133  0.426908  0.075678  1
  Fe  Fe4  1  0.820423  0.653021  0.353099  1
  Fe  Fe5  1  0.820423  0.846979  0.853099  1
  Fe  Fe6  1  0.179577  0.153021  0.146901  1
  Fe  Fe7  1  0.179577  0.346979  0.646901  1
  P  P8  1  0.866765  0.277674  0.430158  1
  P  P9  1  0.146357  0.048170  0.783197  1
  P  P10  1  0.275061  0.229700  0.958403  1
  P  P11  1  0.597839  0.039142  0.307698  1
  P  P12  1  0.724939  0.729700  0.541597  1
  P  P13  1  0.853643  0.548170  0.716803  1
  P  P14  1  0.402161  0.539142  0.192302  1
  P  P15  1  0.866765  0.222326  0.930158  1
  P  P16  1  0.133235  0.777674  0.069842  1
  P  P17  1  0.597839  0.460858  0.807698  1
  P  P18  1  0.146357  0.451830  0.283197  1
  P  P19  1  0.275061  0.270300  0.458403  1
  P  P20  1  0.402161  0.960858  0.692302  1
  P  P21  1  0.724939  0.770300  0.041597  1
  P  P22  1  0.853643  0.951830  0.216803  1
  P  P23  1  0.133235  0.722326  0.569842  1
  O  O24  1  0.402559  0.365927  0.968320  1
  O  O25  1  0.300079  0.122407  0.880187  1
  O  O26  1  0.706008  0.066393  0.237254  1
  O  O27  1  0.933890  0.292457  0.536141  1
  O  O28  1  0.068965  0.162422  0.704651  1
  O  O29  1  0.950134  0.784431  0.592076  1
  O  O30  1  0.769035  0.408688  0.369450  1
  O  O31  1  0.001375  0.455335  0.698642  1
  O  O32  1  0.734371  0.128968  0.402989  1
  O  O33  1  0.594701  0.622402  0.233488  1
  O  O34  1  0.998625  0.955335  0.801358  1
  O  O35  1  0.596292  0.878629  0.336868  1
  O  O36  1  0.697485  0.639577  0.454794  1
  O  O37  1  0.049866  0.284431  0.907924  1
  O  O38  1  0.931035  0.662422  0.795349  1
  O  O39  1  0.066110  0.792457  0.963859  1
  O  O40  1  0.302515  0.139577  0.045206  1
  O  O41  1  0.403708  0.378629  0.163132  1
  O  O42  1  0.699921  0.622407  0.619813  1
  O  O43  1  0.405299  0.122402  0.266512  1
  O  O44  1  0.597441  0.865927  0.531680  1
  O  O45  1  0.265629  0.628968  0.097011  1
  O  O46  1  0.706008  0.433607  0.737254  1
  O  O47  1  0.230965  0.908688  0.130550  1
  O  O48  1  0.769035  0.091312  0.869450  1
  O  O49  1  0.293992  0.566393  0.262746  1
  O  O50  1  0.734371  0.371032  0.902989  1
  O  O51  1  0.402559  0.134073  0.468320  1
  O  O52  1  0.594701  0.877598  0.733488  1
  O  O53  1  0.300079  0.377593  0.380187  1
  O  O54  1  0.596292  0.621371  0.836868  1
  O  O55  1  0.697485  0.860423  0.954794  1
  O  O56  1  0.933890  0.207543  0.036141  1
  O  O57  1  0.068965  0.337578  0.204651  1
  O  O58  1  0.950134  0.715569  0.092076  1
  O  O59  1  0.302515  0.360423  0.545206  1
  O  O60  1  0.403708  0.121371  0.663132  1
  O  O61  1  0.001375  0.044665  0.198642  1
  O  O62  1  0.405299  0.377598  0.766512  1
  O  O63  1  0.265629  0.871032  0.597011  1
  O  O64  1  0.998625  0.544665  0.301358  1
  O  O65  1  0.230965  0.591312  0.630550  1
  O  O66  1  0.049866  0.215569  0.407924  1
  O  O67  1  0.931035  0.837578  0.295349  1
  O  O68  1  0.066110  0.707543  0.463859  1
  O  O69  1  0.293992  0.933607  0.762746  1
  O  O70  1  0.699921  0.877593  0.119813  1
  O  O71  1  0.597441  0.634073  0.031680  1
