# generated using pymatgen
data_Li8Mn5Fe3(BO3)8
_symmetry_space_group_name_H-M   'P 1'
_cell_length_a   6.03076077
_cell_length_b   9.73821045
_cell_length_c   9.84769552
_cell_angle_alpha   64.43309521
_cell_angle_beta   79.23444175
_cell_angle_gamma   78.49231118
_symmetry_Int_Tables_number   1
_chemical_formula_structural   Li8Mn5Fe3(BO3)8
_chemical_formula_sum   'Li8 Mn5 Fe3 B8 O24'
_cell_volume   507.89798598
_cell_formula_units_Z   1
loop_
 _symmetry_equiv_pos_site_id
 _symmetry_equiv_pos_as_xyz
  1  'x, y, z'
loop_
 _atom_site_type_symbol
 _atom_site_label
 _atom_site_symmetry_multiplicity
 _atom_site_fract_x
 _atom_site_fract_y
 _atom_site_fract_z
 _atom_site_occupancy
  Li  Li0  1  0.046305  0.467062  0.816810  1
  Li  Li1  1  0.044935  0.967064  0.314704  1
  Li  Li2  1  0.455631  0.034707  0.185061  1
  Li  Li3  1  0.544787  0.465762  0.313331  1
  Li  Li4  1  0.454325  0.533439  0.685791  1
  Li  Li5  1  0.544554  0.966383  0.815257  1
  Li  Li6  1  0.954095  0.033785  0.683819  1
  Li  Li7  1  0.952642  0.532511  0.182627  1
  Mn  Mn8  1  0.314305  0.293523  0.625073  1
  Mn  Mn9  1  0.313036  0.793284  0.124528  1
  Mn  Mn10  1  0.686881  0.206960  0.875717  1
  Mn  Mn11  1  0.685780  0.705546  0.373079  1
  Mn  Mn12  1  0.814581  0.793569  0.627136  1
  Fe  Fe13  1  0.182658  0.202518  0.374356  1
  Fe  Fe14  1  0.183308  0.709015  0.871922  1
  Fe  Fe15  1  0.819572  0.290316  0.129705  1
  B  B16  1  0.334992  0.367847  0.039403  1
  B  B17  1  0.166602  0.133360  0.965371  1
  B  B18  1  0.167351  0.632434  0.463505  1
  B  B19  1  0.332724  0.868184  0.538861  1
  B  B20  1  0.663456  0.133544  0.461635  1
  B  B21  1  0.833576  0.367851  0.534311  1
  B  B22  1  0.834142  0.867385  0.034491  1
  B  B23  1  0.666843  0.630443  0.963093  1
  O  O24  1  0.176495  0.015146  0.107897  1
  O  O25  1  0.014521  0.247172  0.560667  1
  O  O26  1  0.014882  0.745502  0.061066  1
  O  O27  1  0.160045  0.363057  0.155819  1
  O  O28  1  0.175376  0.515645  0.607562  1
  O  O29  1  0.517260  0.247690  0.065625  1
  O  O30  1  0.162711  0.861869  0.657781  1
  O  O31  1  0.337073  0.135675  0.847907  1
  O  O32  1  0.340359  0.634645  0.347849  1
  O  O33  1  0.483041  0.253456  0.434063  1
  O  O34  1  0.326042  0.485329  0.895838  1
  O  O35  1  0.319013  0.988724  0.396998  1
  O  O36  1  0.675633  0.016603  0.604957  1
  O  O37  1  0.676413  0.512671  0.105395  1
  O  O38  1  0.512664  0.748683  0.563092  1
  O  O39  1  0.662949  0.364988  0.652035  1
  O  O40  1  0.662807  0.865628  0.151179  1
  O  O41  1  0.836146  0.135792  0.344889  1
  O  O42  1  0.485702  0.751618  0.934974  1
  O  O43  1  0.824077  0.484908  0.391359  1
  O  O44  1  0.841998  0.634664  0.847285  1
  O  O45  1  0.986326  0.254645  0.939393  1
  O  O46  1  0.986802  0.753769  0.435399  1
  O  O47  1  0.824583  0.985633  0.891386  1
