# generated using pymatgen
data_Cs2O2
_symmetry_space_group_name_H-M   'P 1'
_cell_length_a   5.49975099
_cell_length_b   5.49975099
_cell_length_c   5.49975099
_cell_angle_alpha   132.90169593
_cell_angle_beta   106.53788906
_cell_angle_gamma   91.98329462
_symmetry_Int_Tables_number   1
_chemical_formula_structural   Cs2O2
_chemical_formula_sum   'Cs2 O2'
_cell_volume   110.46530884
_cell_formula_units_Z   1
loop_
 _symmetry_equiv_pos_site_id
 _symmetry_equiv_pos_as_xyz
  1  'x, y, z'
loop_
 _atom_site_type_symbol
 _atom_site_label
 _atom_site_symmetry_multiplicity
 _atom_site_fract_x
 _atom_site_fract_y
 _atom_site_fract_z
 _atom_site_occupancy
  Cs  Cs0  1  0.743724  0.243724  0.500000  1
  Cs  Cs1  1  0.256276  0.756276  0.500000  1
  O  O2  1  0.384649  0.500000  0.884649  1
  O  O3  1  0.615351  0.500000  0.115351  1
