# generated using pymatgen
data_LiFe2(BO3)2
_symmetry_space_group_name_H-M   'P 1'
_cell_length_a   5.27598940
_cell_length_b   9.04774063
_cell_length_c   10.17428023
_cell_angle_alpha   90.10737241
_cell_angle_beta   91.05752342
_cell_angle_gamma   90.40956221
_symmetry_Int_Tables_number   1
_chemical_formula_structural   LiFe2(BO3)2
_chemical_formula_sum   'Li4 Fe8 B8 O24'
_cell_volume   485.58113077
_cell_formula_units_Z   4
loop_
 _symmetry_equiv_pos_site_id
 _symmetry_equiv_pos_as_xyz
  1  'x, y, z'
loop_
 _atom_site_type_symbol
 _atom_site_label
 _atom_site_symmetry_multiplicity
 _atom_site_fract_x
 _atom_site_fract_y
 _atom_site_fract_z
 _atom_site_occupancy
  Li  Li0  1  0.186263  0.835664  0.843477  1
  Li  Li1  1  0.334624  0.672304  0.121668  1
  Li  Li2  1  0.654439  0.321649  0.338503  1
  Li  Li3  1  0.691936  0.332810  0.830078  1
  Fe  Fe4  1  0.147418  0.152058  0.368817  1
  Fe  Fe5  1  0.185050  0.503028  0.869827  1
  Fe  Fe6  1  0.324196  0.011222  0.119744  1
  Fe  Fe7  1  0.318530  0.336014  0.618131  1
  Fe  Fe8  1  0.679789  0.665669  0.368192  1
  Fe  Fe9  1  0.687691  0.005622  0.875778  1
  Fe  Fe10  1  0.820250  0.840772  0.622498  1
  Fe  Fe11  1  0.829581  0.492458  0.113600  1
  B  B12  1  0.179290  0.497084  0.370085  1
  B  B13  1  0.175512  0.169964  0.869834  1
  B  B14  1  0.330026  0.003425  0.628365  1
  B  B15  1  0.327844  0.337631  0.126843  1
  B  B16  1  0.647085  0.001953  0.369582  1
  B  B17  1  0.672784  0.665344  0.871287  1
  B  B18  1  0.830117  0.504510  0.620041  1
  B  B19  1  0.828753  0.835034  0.121785  1
  O  O20  1  0.082528  0.492339  0.657971  1
  O  O21  1  0.088014  0.842671  0.112039  1
  O  O22  1  0.191030  0.207409  0.153839  1
  O  O23  1  0.245560  0.133061  0.572874  1
  O  O24  1  0.167200  0.887610  0.650676  1
  O  O25  1  0.202935  0.462714  0.079488  1
  O  O26  1  0.329811  0.616788  0.342560  1
  O  O27  1  0.302651  0.043524  0.916738  1
  O  O28  1  0.289578  0.367070  0.418300  1
  O  O29  1  0.323084  0.288947  0.822879  1
  O  O30  1  0.416425  0.678682  0.889420  1
  O  O31  1  0.405387  0.994130  0.312929  1
  O  O32  1  0.582412  0.990692  0.667689  1
  O  O33  1  0.581086  0.340017  0.151452  1
  O  O34  1  0.713204  0.705928  0.171516  1
  O  O35  1  0.742562  0.637669  0.566214  1
  O  O36  1  0.665986  0.390192  0.639896  1
  O  O37  1  0.672108  0.946516  0.077637  1
  O  O38  1  0.796653  0.534398  0.903029  1
  O  O39  1  0.780021  0.129675  0.376636  1
  O  O40  1  0.750872  0.870437  0.422796  1
  O  O41  1  0.815757  0.785742  0.824136  1
  O  O42  1  0.919923  0.177015  0.867464  1
  O  O43  1  0.916862  0.497295  0.344809  1
