# generated using pymatgen
data_Ba3AlHO4
_symmetry_space_group_name_H-M   'P 1'
_cell_length_a   7.33996057
_cell_length_b   8.27268426
_cell_length_c   10.62661884
_cell_angle_alpha   90.00000000
_cell_angle_beta   90.00000000
_cell_angle_gamma   90.00000000
_symmetry_Int_Tables_number   1
_chemical_formula_structural   Ba3AlHO4
_chemical_formula_sum   'Ba12 Al4 H4 O16'
_cell_volume   645.26079581
_cell_formula_units_Z   4
loop_
 _symmetry_equiv_pos_site_id
 _symmetry_equiv_pos_as_xyz
  1  'x, y, z'
loop_
 _atom_site_type_symbol
 _atom_site_label
 _atom_site_symmetry_multiplicity
 _atom_site_fract_x
 _atom_site_fract_y
 _atom_site_fract_z
 _atom_site_occupancy
  Ba  Ba0  1  0.600983  0.974149  0.834449  1
  Ba  Ba1  1  0.899017  0.525851  0.334449  1
  Ba  Ba2  1  0.399017  0.474149  0.165551  1
  Ba  Ba3  1  0.100983  0.025851  0.665551  1
  Ba  Ba4  1  0.399017  0.025851  0.165551  1
  Ba  Ba5  1  0.100983  0.474149  0.665551  1
  Ba  Ba6  1  0.600983  0.525851  0.834449  1
  Ba  Ba7  1  0.899017  0.974149  0.334449  1
  Ba  Ba8  1  0.098239  0.750000  0.963316  1
  Ba  Ba9  1  0.401761  0.750000  0.463316  1
  Ba  Ba10  1  0.901761  0.250000  0.036684  1
  Ba  Ba11  1  0.598239  0.250000  0.536684  1
  Al  Al12  1  0.810743  0.750000  0.603596  1
  Al  Al13  1  0.689257  0.750000  0.103596  1
  Al  Al14  1  0.189257  0.250000  0.396404  1
  Al  Al15  1  0.310743  0.250000  0.896404  1
  H  H16  1  0.339228  0.750000  0.730762  1
  H  H17  1  0.160772  0.750000  0.230762  1
  H  H18  1  0.660772  0.250000  0.269238  1
  H  H19  1  0.839228  0.250000  0.769238  1
  O  O20  1  0.694135  0.933847  0.572426  1
  O  O21  1  0.805865  0.566153  0.072426  1
  O  O22  1  0.305865  0.433847  0.427574  1
  O  O23  1  0.194135  0.066153  0.927574  1
  O  O24  1  0.305865  0.066153  0.427574  1
  O  O25  1  0.194135  0.433847  0.927574  1
  O  O26  1  0.694135  0.566153  0.572426  1
  O  O27  1  0.805865  0.933847  0.072426  1
  O  O28  1  0.016646  0.750000  0.512001  1
  O  O29  1  0.483354  0.750000  0.012001  1
  O  O30  1  0.983354  0.250000  0.487999  1
  O  O31  1  0.516646  0.250000  0.987999  1
  O  O32  1  0.870839  0.750000  0.767487  1
  O  O33  1  0.629161  0.750000  0.267487  1
  O  O34  1  0.129161  0.250000  0.232513  1
  O  O35  1  0.370839  0.250000  0.732513  1
