# generated using pymatgen
data_Ce6Y2O15
_symmetry_space_group_name_H-M   'P 1'
_cell_length_a   9.43576082
_cell_length_b   9.43576082
_cell_length_c   10.88670825
_cell_angle_alpha   54.76548301
_cell_angle_beta   125.23451699
_cell_angle_gamma   109.38922784
_symmetry_Int_Tables_number   1
_chemical_formula_structural   Ce6Y2O15
_chemical_formula_sum   'Ce12 Y4 O30'
_cell_volume   646.66426002
_cell_formula_units_Z   2
loop_
 _symmetry_equiv_pos_site_id
 _symmetry_equiv_pos_as_xyz
  1  'x, y, z'
loop_
 _atom_site_type_symbol
 _atom_site_label
 _atom_site_symmetry_multiplicity
 _atom_site_fract_x
 _atom_site_fract_y
 _atom_site_fract_z
 _atom_site_occupancy
  Ce  Ce0  1  0.743192  0.748196  0.744490  1
  Ce  Ce1  1  0.257399  0.767397  0.482533  1
  Ce  Ce2  1  0.747537  0.250664  0.000749  1
  Ce  Ce3  1  0.002007  0.004946  0.996544  1
  Ce  Ce4  1  0.771088  0.748164  0.257416  1
  Ce  Ce5  1  0.995054  0.997993  0.496544  1
  Ce  Ce6  1  0.251836  0.228912  0.757416  1
  Ce  Ce7  1  0.500970  0.995874  0.750473  1
  Ce  Ce8  1  0.004126  0.499030  0.250473  1
  Ce  Ce9  1  0.232603  0.742601  0.982533  1
  Ce  Ce10  1  0.749336  0.252463  0.500749  1
  Ce  Ce11  1  0.251804  0.256808  0.244490  1
  Y  Y12  1  0.495514  0.481095  0.519958  1
  Y  Y13  1  0.973824  0.500431  0.744676  1
  Y  Y14  1  0.499569  0.026176  0.244676  1
  Y  Y15  1  0.518905  0.504486  0.019958  1
  O  O16  1  0.983720  0.751676  0.738134  1
  O  O17  1  0.484332  0.735249  0.748116  1
  O  O18  1  0.734883  0.985356  0.249304  1
  O  O19  1  0.243480  0.504916  0.973691  1
  O  O20  1  0.495084  0.756520  0.473691  1
  O  O21  1  0.010581  0.756901  0.243675  1
  O  O22  1  0.269627  0.974623  0.015714  1
  O  O23  1  0.025377  0.730373  0.515714  1
  O  O24  1  0.739569  0.493492  0.756196  1
  O  O25  1  0.473109  0.277361  0.974270  1
  O  O26  1  0.722639  0.526891  0.474270  1
  O  O27  1  0.248324  0.016280  0.238134  1
  O  O28  1  0.767574  0.502520  0.259489  1
  O  O29  1  0.994892  0.749095  0.992249  1
  O  O30  1  0.497480  0.232426  0.759489  1
  O  O31  1  0.750424  0.007461  0.500657  1
  O  O32  1  0.992539  0.249576  0.000657  1
  O  O33  1  0.505709  0.750407  0.026560  1
  O  O34  1  0.750402  0.998641  0.751018  1
  O  O35  1  0.249592  0.494291  0.526560  1
  O  O36  1  0.264751  0.515668  0.248116  1
  O  O37  1  0.757291  0.997187  0.001104  1
  O  O38  1  0.002813  0.242709  0.501104  1
  O  O39  1  0.014644  0.265117  0.749304  1
  O  O40  1  0.243099  0.989419  0.743675  1
  O  O41  1  0.502347  0.241794  0.509006  1
  O  O42  1  0.758206  0.497653  0.009006  1
  O  O43  1  0.506508  0.260431  0.256196  1
  O  O44  1  0.250905  0.005108  0.492249  1
  O  O45  1  0.001359  0.249598  0.251018  1
