# generated using pymatgen
data_SrLi4NiO4
_symmetry_space_group_name_H-M   'P 1'
_cell_length_a   5.16963787
_cell_length_b   9.59320645
_cell_length_c   17.87890213
_cell_angle_alpha   90.00000000
_cell_angle_beta   90.00000000
_cell_angle_gamma   90.00000000
_symmetry_Int_Tables_number   1
_chemical_formula_structural   SrLi4NiO4
_chemical_formula_sum   'Sr8 Li32 Ni8 O32'
_cell_volume   886.67560494
_cell_formula_units_Z   8
loop_
 _symmetry_equiv_pos_site_id
 _symmetry_equiv_pos_as_xyz
  1  'x, y, z'
loop_
 _atom_site_type_symbol
 _atom_site_label
 _atom_site_symmetry_multiplicity
 _atom_site_fract_x
 _atom_site_fract_y
 _atom_site_fract_z
 _atom_site_occupancy
  Sr  Sr0  1  0.237633  0.876426  0.517260  1
  Sr  Sr1  1  0.262367  0.876426  0.017260  1
  Sr  Sr2  1  0.737633  0.623574  0.517260  1
  Sr  Sr3  1  0.762367  0.623574  0.017260  1
  Sr  Sr4  1  0.237633  0.376426  0.982740  1
  Sr  Sr5  1  0.262367  0.376426  0.482740  1
  Sr  Sr6  1  0.762367  0.123574  0.482740  1
  Sr  Sr7  1  0.737633  0.123574  0.982740  1
  Li  Li8  1  0.692113  0.852569  0.407878  1
  Li  Li9  1  0.807887  0.852569  0.907878  1
  Li  Li10  1  0.593160  0.954066  0.282868  1
  Li  Li11  1  0.906840  0.954066  0.782868  1
  Li  Li12  1  0.007600  0.829732  0.319047  1
  Li  Li13  1  0.492400  0.829732  0.819047  1
  Li  Li14  1  0.226779  0.812138  0.190152  1
  Li  Li15  1  0.273221  0.812138  0.690152  1
  Li  Li16  1  0.726779  0.687862  0.190152  1
  Li  Li17  1  0.773221  0.687862  0.690152  1
  Li  Li18  1  0.507600  0.670268  0.319047  1
  Li  Li19  1  0.992400  0.670268  0.819047  1
  Li  Li20  1  0.093160  0.545934  0.282868  1
  Li  Li21  1  0.406840  0.545934  0.782868  1
  Li  Li22  1  0.307887  0.647431  0.907878  1
  Li  Li23  1  0.192113  0.647431  0.407878  1
  Li  Li24  1  0.692113  0.352569  0.092122  1
  Li  Li25  1  0.807887  0.352569  0.592122  1
  Li  Li26  1  0.593160  0.454066  0.217132  1
  Li  Li27  1  0.906840  0.454066  0.717132  1
  Li  Li28  1  0.007600  0.329732  0.180953  1
  Li  Li29  1  0.492400  0.329732  0.680953  1
  Li  Li30  1  0.273221  0.312138  0.809848  1
  Li  Li31  1  0.226779  0.312138  0.309848  1
  Li  Li32  1  0.726779  0.187862  0.309848  1
  Li  Li33  1  0.773221  0.187862  0.809848  1
  Li  Li34  1  0.992400  0.170268  0.680953  1
  Li  Li35  1  0.507600  0.170268  0.180953  1
  Li  Li36  1  0.406840  0.045934  0.717132  1
  Li  Li37  1  0.093160  0.045934  0.217132  1
  Li  Li38  1  0.307887  0.147431  0.592122  1
  Li  Li39  1  0.192113  0.147431  0.092122  1
  Ni  Ni40  1  0.734154  0.953783  0.127890  1
  Ni  Ni41  1  0.765846  0.953783  0.627890  1
  Ni  Ni42  1  0.234154  0.546217  0.127890  1
  Ni  Ni43  1  0.265846  0.546217  0.627890  1
  Ni  Ni44  1  0.734154  0.453783  0.372110  1
  Ni  Ni45  1  0.765846  0.453783  0.872110  1
  Ni  Ni46  1  0.234154  0.046217  0.372110  1
  Ni  Ni47  1  0.265846  0.046217  0.872110  1
  O  O48  1  0.354917  0.980781  0.140301  1
  O  O49  1  0.145083  0.980781  0.640301  1
  O  O50  1  0.762591  0.878147  0.021317  1
  O  O51  1  0.737409  0.878147  0.521317  1
  O  O52  1  0.877167  0.863782  0.217082  1
  O  O53  1  0.622833  0.863782  0.717082  1
  O  O54  1  0.346658  0.841491  0.369110  1
  O  O55  1  0.153342  0.841491  0.869110  1
  O  O56  1  0.846658  0.658509  0.369110  1
  O  O57  1  0.653342  0.658509  0.869110  1
  O  O58  1  0.377167  0.636218  0.217082  1
  O  O59  1  0.122833  0.636218  0.717082  1
  O  O60  1  0.237409  0.621853  0.521317  1
  O  O61  1  0.262591  0.621853  0.021317  1
  O  O62  1  0.854917  0.519219  0.140301  1
  O  O63  1  0.645083  0.519219  0.640301  1
  O  O64  1  0.354917  0.480781  0.359699  1
  O  O65  1  0.145083  0.480781  0.859699  1
  O  O66  1  0.737409  0.378147  0.978683  1
  O  O67  1  0.762591  0.378147  0.478683  1
  O  O68  1  0.877167  0.363782  0.282918  1
  O  O69  1  0.622833  0.363782  0.782918  1
  O  O70  1  0.346658  0.341491  0.130890  1
  O  O71  1  0.153342  0.341491  0.630890  1
  O  O72  1  0.653342  0.158509  0.630890  1
  O  O73  1  0.846658  0.158509  0.130890  1
  O  O74  1  0.377167  0.136218  0.282918  1
  O  O75  1  0.122833  0.136218  0.782918  1
  O  O76  1  0.262591  0.121853  0.478683  1
  O  O77  1  0.237409  0.121853  0.978683  1
  O  O78  1  0.854917  0.019219  0.359699  1
  O  O79  1  0.645083  0.019219  0.859699  1
