# generated using pymatgen
data_ScBiO3
_symmetry_space_group_name_H-M   'P 1'
_cell_length_a   5.91834819
_cell_length_b   5.91834819
_cell_length_c   5.91834819
_cell_angle_alpha   58.49090643
_cell_angle_beta   58.49090643
_cell_angle_gamma   58.49090643
_symmetry_Int_Tables_number   1
_chemical_formula_structural   ScBiO3
_chemical_formula_sum   'Sc2 Bi2 O6'
_cell_volume   141.52338676
_cell_formula_units_Z   2
loop_
 _symmetry_equiv_pos_site_id
 _symmetry_equiv_pos_as_xyz
  1  'x, y, z'
loop_
 _atom_site_type_symbol
 _atom_site_label
 _atom_site_symmetry_multiplicity
 _atom_site_fract_x
 _atom_site_fract_y
 _atom_site_fract_z
 _atom_site_occupancy
  Sc  Sc0  1  0.220542  0.220542  0.220542  1
  Sc  Sc1  1  0.720542  0.720542  0.720542  1
  Bi  Bi2  1  0.005791  0.005791  0.005791  1
  Bi  Bi3  1  0.505791  0.505791  0.505791  1
  O  O4  1  0.045996  0.427430  0.878776  1
  O  O5  1  0.545996  0.378776  0.927430  1
  O  O6  1  0.378776  0.927430  0.545996  1
  O  O7  1  0.427430  0.878776  0.045996  1
  O  O8  1  0.878776  0.045996  0.427430  1
  O  O9  1  0.927430  0.545996  0.378776  1
