# generated using pymatgen
data_Li8Mn3Fe5(BO3)8
_symmetry_space_group_name_H-M   'P 1'
_cell_length_a   5.23097616
_cell_length_b   5.23976983
_cell_length_c   20.86160290
_cell_angle_alpha   90.55504513
_cell_angle_beta   90.84304186
_cell_angle_gamma   119.81708301
_symmetry_Int_Tables_number   1
_chemical_formula_structural   Li8Mn3Fe5(BO3)8
_chemical_formula_sum   'Li8 Mn3 Fe5 B8 O24'
_cell_volume   495.95280619
_cell_formula_units_Z   1
loop_
 _symmetry_equiv_pos_site_id
 _symmetry_equiv_pos_as_xyz
  1  'x, y, z'
loop_
 _atom_site_type_symbol
 _atom_site_label
 _atom_site_symmetry_multiplicity
 _atom_site_fract_x
 _atom_site_fract_y
 _atom_site_fract_z
 _atom_site_occupancy
  Li  Li0  1  0.677814  0.652780  0.333326  1
  Li  Li1  1  0.652056  0.675753  0.084753  1
  Li  Li2  1  0.678685  0.651713  0.833303  1
  Li  Li3  1  0.651167  0.675764  0.584072  1
  Li  Li4  1  0.350693  0.340064  0.208056  1
  Li  Li5  1  0.336856  0.346344  0.458154  1
  Li  Li6  1  0.352222  0.339680  0.708160  1
  Li  Li7  1  0.337089  0.345874  0.958514  1
  Mn  Mn8  1  0.671596  0.006273  0.441808  1
  Mn  Mn9  1  0.668404  0.003537  0.942644  1
  Mn  Mn10  1  0.002134  0.325750  0.816338  1
  Fe  Fe11  1  0.315336  0.000828  0.067074  1
  Fe  Fe12  1  0.314900  0.998106  0.566794  1
  Fe  Fe13  1  0.003663  0.320670  0.316022  1
  Fe  Fe14  1  0.011955  0.667164  0.191328  1
  Fe  Fe15  1  0.004414  0.666838  0.690615  1
  B  B16  1  0.995153  0.336991  0.064004  1
  B  B17  1  0.996129  0.337308  0.563634  1
  B  B18  1  0.667705  0.005331  0.187988  1
  B  B19  1  0.668258  0.008278  0.687045  1
  B  B20  1  0.337267  0.997271  0.312351  1
  B  B21  1  0.340176  0.997499  0.812016  1
  B  B22  1  0.005000  0.666575  0.437644  1
  B  B23  1  0.003580  0.665874  0.938702  1
  O  O24  1  0.929772  0.255750  0.207906  1
  O  O25  1  0.932655  0.257856  0.706979  1
  O  O26  1  0.740405  0.069186  0.049794  1
  O  O27  1  0.975243  0.582019  0.082718  1
  O  O28  1  0.741149  0.070558  0.549314  1
  O  O29  1  0.975755  0.582686  0.582490  1
  O  O30  1  0.417558  0.030793  0.173506  1
  O  O31  1  0.730107  0.642318  0.430525  1
  O  O32  1  0.419106  0.033132  0.672693  1
  O  O33  1  0.728904  0.641143  0.931120  1
  O  O34  1  0.654658  0.737368  0.181322  1
  O  O35  1  0.655325  0.739835  0.680752  1
  O  O36  1  0.358963  0.271843  0.305850  1
  O  O37  1  0.369979  0.273427  0.805276  1
  O  O38  1  0.270095  0.358608  0.057564  1
  O  O39  1  0.584093  0.978968  0.331712  1
  O  O40  1  0.270811  0.359152  0.557101  1
  O  O41  1  0.578005  0.966666  0.833241  1
  O  O42  1  0.038441  0.423977  0.421994  1
  O  O43  1  0.037873  0.423480  0.923212  1
  O  O44  1  0.246645  0.929564  0.459322  1
  O  O45  1  0.244872  0.929425  0.960074  1
  O  O46  1  0.069657  0.743238  0.298286  1
  O  O47  1  0.068880  0.747946  0.796709  1
