# generated using pymatgen
data_Na2FePCO7
_symmetry_space_group_name_H-M   'P 1'
_cell_length_a   5.24545530
_cell_length_b   6.55081610
_cell_length_c   17.90402355
_cell_angle_alpha   90.71157610
_cell_angle_beta   90.46350586
_cell_angle_gamma   90.16565975
_symmetry_Int_Tables_number   1
_chemical_formula_structural   Na2FePCO7
_chemical_formula_sum   'Na8 Fe4 P4 C4 O28'
_cell_volume   615.14796220
_cell_formula_units_Z   4
loop_
 _symmetry_equiv_pos_site_id
 _symmetry_equiv_pos_as_xyz
  1  'x, y, z'
loop_
 _atom_site_type_symbol
 _atom_site_label
 _atom_site_symmetry_multiplicity
 _atom_site_fract_x
 _atom_site_fract_y
 _atom_site_fract_z
 _atom_site_occupancy
  Na  Na0  1  0.762227  0.719578  0.959292  1
  Na  Na1  1  0.251090  0.988860  0.868220  1
  Na  Na2  1  0.748638  0.013052  0.632109  1
  Na  Na3  1  0.237249  0.257737  0.540919  1
  Na  Na4  1  0.763721  0.758998  0.458907  1
  Na  Na5  1  0.252388  0.512886  0.368159  1
  Na  Na6  1  0.750491  0.010368  0.131592  1
  Na  Na7  1  0.238008  0.280550  0.040062  1
  Fe  Fe8  1  0.783721  0.263214  0.827186  1
  Fe  Fe9  1  0.216212  0.738522  0.672808  1
  Fe  Fe10  1  0.783519  0.236930  0.327342  1
  Fe  Fe11  1  0.215756  0.733238  0.172757  1
  P  P12  1  0.710642  0.754894  0.787696  1
  P  P13  1  0.289242  0.247033  0.712370  1
  P  P14  1  0.710609  0.746591  0.287717  1
  P  P15  1  0.288886  0.244467  0.212189  1
  C  C16  1  0.729838  0.237299  0.967509  1
  C  C17  1  0.270408  0.752540  0.532541  1
  C  C18  1  0.729810  0.254996  0.467668  1
  C  C19  1  0.270124  0.763187  0.032412  1
  O  O20  1  0.299080  0.769630  0.962401  1
  O  O21  1  0.956061  0.244296  0.936201  1
  O  O22  1  0.536468  0.245915  0.920571  1
  O  O23  1  0.773513  0.939291  0.840353  1
  O  O24  1  0.762802  0.563501  0.835261  1
  O  O25  1  0.127638  0.242342  0.784091  1
  O  O26  1  0.423829  0.765799  0.764679  1
  O  O27  1  0.576054  0.235074  0.735372  1
  O  O28  1  0.872423  0.759482  0.716016  1
  O  O29  1  0.237744  0.437886  0.664541  1
  O  O30  1  0.225697  0.062268  0.659891  1
  O  O31  1  0.463919  0.757559  0.579534  1
  O  O32  1  0.044165  0.757773  0.563878  1
  O  O33  1  0.702119  0.233970  0.537423  1
  O  O34  1  0.298743  0.739388  0.462478  1
  O  O35  1  0.955728  0.264389  0.436330  1
  O  O36  1  0.535944  0.263800  0.421004  1
  O  O37  1  0.761104  0.935433  0.339030  1
  O  O38  1  0.775852  0.559471  0.336750  1
  O  O39  1  0.127521  0.257575  0.283880  1
  O  O40  1  0.423398  0.735531  0.264939  1
  O  O41  1  0.575853  0.234957  0.235125  1
  O  O42  1  0.871435  0.756486  0.215916  1
  O  O43  1  0.239265  0.431390  0.161540  1
  O  O44  1  0.222919  0.055252  0.162703  1
  O  O45  1  0.463323  0.756049  0.079454  1
  O  O46  1  0.043754  0.755936  0.063657  1
  O  O47  1  0.701063  0.229546  0.037528  1
