# generated using pymatgen
data_BaLu2O4
_symmetry_space_group_name_H-M   'P 1'
_cell_length_a   3.39558514
_cell_length_b   10.34690253
_cell_length_c   11.95993353
_cell_angle_alpha   90.00000000
_cell_angle_beta   90.00000000
_cell_angle_gamma   90.00000000
_symmetry_Int_Tables_number   1
_chemical_formula_structural   BaLu2O4
_chemical_formula_sum   'Ba4 Lu8 O16'
_cell_volume   420.19777483
_cell_formula_units_Z   4
loop_
 _symmetry_equiv_pos_site_id
 _symmetry_equiv_pos_as_xyz
  1  'x, y, z'
loop_
 _atom_site_type_symbol
 _atom_site_label
 _atom_site_symmetry_multiplicity
 _atom_site_fract_x
 _atom_site_fract_y
 _atom_site_fract_z
 _atom_site_occupancy
  Ba  Ba0  1  0.250000  0.752128  0.351360  1
  Ba  Ba1  1  0.750000  0.747872  0.851360  1
  Ba  Ba2  1  0.250000  0.252128  0.148640  1
  Ba  Ba3  1  0.750000  0.247872  0.648640  1
  Lu  Lu4  1  0.250000  0.923910  0.608428  1
  Lu  Lu5  1  0.250000  0.926385  0.110426  1
  Lu  Lu6  1  0.750000  0.573615  0.610426  1
  Lu  Lu7  1  0.750000  0.576090  0.108428  1
  Lu  Lu8  1  0.250000  0.423910  0.891572  1
  Lu  Lu9  1  0.250000  0.426385  0.389574  1
  Lu  Lu10  1  0.750000  0.073615  0.889574  1
  Lu  Lu11  1  0.750000  0.076090  0.391572  1
  O  O12  1  0.750000  0.983771  0.717376  1
  O  O13  1  0.250000  0.933303  0.926258  1
  O  O14  1  0.750000  0.887578  0.484467  1
  O  O15  1  0.750000  0.788859  0.154294  1
  O  O16  1  0.250000  0.711141  0.654294  1
  O  O17  1  0.250000  0.612422  0.984467  1
  O  O18  1  0.750000  0.566697  0.426258  1
  O  O19  1  0.250000  0.516229  0.217376  1
  O  O20  1  0.750000  0.483771  0.782624  1
  O  O21  1  0.250000  0.433303  0.573742  1
  O  O22  1  0.750000  0.387578  0.015533  1
  O  O23  1  0.750000  0.288859  0.345706  1
  O  O24  1  0.250000  0.211141  0.845706  1
  O  O25  1  0.250000  0.112422  0.515533  1
  O  O26  1  0.750000  0.066697  0.073742  1
  O  O27  1  0.250000  0.016229  0.282624  1
