# generated using pymatgen
data_Li2VGa3O8
_symmetry_space_group_name_H-M   'P 1'
_cell_length_a   5.21117748
_cell_length_b   5.50053210
_cell_length_c   6.63989672
_cell_angle_alpha   89.62288369
_cell_angle_beta   89.52764577
_cell_angle_gamma   89.79710569
_symmetry_Int_Tables_number   1
_chemical_formula_structural   Li2VGa3O8
_chemical_formula_sum   'Li2 V1 Ga3 O8'
_cell_volume   190.31590524
_cell_formula_units_Z   1
loop_
 _symmetry_equiv_pos_site_id
 _symmetry_equiv_pos_as_xyz
  1  'x, y, z'
loop_
 _atom_site_type_symbol
 _atom_site_label
 _atom_site_symmetry_multiplicity
 _atom_site_fract_x
 _atom_site_fract_y
 _atom_site_fract_z
 _atom_site_occupancy
  Li  Li0  1  0.492352  0.102367  0.625039  1
  Li  Li1  1  0.007442  0.429433  0.126171  1
  V  V2  1  0.499601  0.082423  0.124086  1
  Ga  Ga3  1  0.993861  0.418717  0.626748  1
  Ga  Ga4  1  0.482152  0.572239  0.389101  1
  Ga  Ga5  1  0.012808  0.911962  0.859781  1
  O  O6  1  0.169281  0.078755  0.085724  1
  O  O7  1  0.122988  0.103549  0.655159  1
  O  O8  1  0.610001  0.376139  0.166095  1
  O  O9  1  0.639981  0.420941  0.596874  1
  O  O10  1  0.135832  0.536441  0.386436  1
  O  O11  1  0.065654  0.588945  0.864884  1
  O  O12  1  0.569141  0.901283  0.337506  1
  O  O13  1  0.651952  0.976921  0.906311  1
