# generated using pymatgen
data_LiMnPCO7
_symmetry_space_group_name_H-M   'P 1'
_cell_length_a   5.18517779
_cell_length_b   6.22965822
_cell_length_c   8.60579802
_cell_angle_alpha   90.87783210
_cell_angle_beta   93.72150350
_cell_angle_gamma   90.92644497
_symmetry_Int_Tables_number   1
_chemical_formula_structural   LiMnPCO7
_chemical_formula_sum   'Li2 Mn2 P2 C2 O14'
_cell_volume   277.32373108
_cell_formula_units_Z   2
loop_
 _symmetry_equiv_pos_site_id
 _symmetry_equiv_pos_as_xyz
  1  'x, y, z'
loop_
 _atom_site_type_symbol
 _atom_site_label
 _atom_site_symmetry_multiplicity
 _atom_site_fract_x
 _atom_site_fract_y
 _atom_site_fract_z
 _atom_site_occupancy
  Li  Li0  1  0.772612  0.958024  0.211331  1
  Li  Li1  1  0.227388  0.041976  0.788669  1
  Mn  Mn2  1  0.209032  0.744648  0.337752  1
  Mn  Mn3  1  0.790968  0.255352  0.662248  1
  P  P4  1  0.277193  0.244669  0.431218  1
  P  P5  1  0.722807  0.755331  0.568782  1
  C  C6  1  0.264161  0.771263  0.062274  1
  C  C7  1  0.735839  0.228737  0.937726  1
  O  O8  1  0.705964  0.196057  0.074602  1
  O  O9  1  0.038861  0.747878  0.124651  1
  O  O10  1  0.455465  0.756433  0.172265  1
  O  O11  1  0.193316  0.054533  0.319261  1
  O  O12  1  0.202743  0.441321  0.334293  1
  O  O13  1  0.572786  0.235061  0.472259  1
  O  O14  1  0.861347  0.765862  0.413518  1
  O  O15  1  0.138653  0.234138  0.586482  1
  O  O16  1  0.427214  0.764939  0.527741  1
  O  O17  1  0.797257  0.558679  0.665707  1
  O  O18  1  0.806684  0.945467  0.680739  1
  O  O19  1  0.544535  0.243567  0.827735  1
  O  O20  1  0.961139  0.252122  0.875349  1
  O  O21  1  0.294036  0.803943  0.925398  1
