# generated using pymatgen
data_Li2Mn(CoO3)2
_symmetry_space_group_name_H-M   'P 1'
_cell_length_a   5.73197067
_cell_length_b   5.95501687
_cell_length_c   6.72029182
_cell_angle_alpha   103.86417164
_cell_angle_beta   101.83164045
_cell_angle_gamma   88.74327246
_symmetry_Int_Tables_number   1
_chemical_formula_structural   Li2Mn(CoO3)2
_chemical_formula_sum   'Li4 Mn2 Co4 O12'
_cell_volume   217.88649852
_cell_formula_units_Z   2
loop_
 _symmetry_equiv_pos_site_id
 _symmetry_equiv_pos_as_xyz
  1  'x, y, z'
loop_
 _atom_site_type_symbol
 _atom_site_label
 _atom_site_symmetry_multiplicity
 _atom_site_fract_x
 _atom_site_fract_y
 _atom_site_fract_z
 _atom_site_occupancy
  Li  Li0  1  0.815757  0.843903  0.850845  1
  Li  Li1  1  0.500000  0.500000  0.500000  1
  Li  Li2  1  0.000000  0.500000  0.500000  1
  Li  Li3  1  0.184243  0.156097  0.149155  1
  Mn  Mn4  1  0.500000  0.000000  0.500000  1
  Mn  Mn5  1  0.000000  0.000000  0.500000  1
  Co  Co6  1  0.831358  0.330058  0.834985  1
  Co  Co7  1  0.331062  0.341335  0.842376  1
  Co  Co8  1  0.668938  0.658665  0.157624  1
  Co  Co9  1  0.168642  0.669942  0.165015  1
  O  O10  1  0.578738  0.108254  0.803627  1
  O  O11  1  0.061127  0.097311  0.809124  1
  O  O12  1  0.752707  0.777546  0.499699  1
  O  O13  1  0.254352  0.783286  0.503953  1
  O  O14  1  0.745648  0.216714  0.496047  1
  O  O15  1  0.402586  0.438477  0.157170  1
  O  O16  1  0.247293  0.222454  0.500301  1
  O  O17  1  0.421262  0.891746  0.196373  1
  O  O18  1  0.928943  0.454994  0.172743  1
  O  O19  1  0.938873  0.902689  0.190876  1
  O  O20  1  0.597414  0.561523  0.842830  1
  O  O21  1  0.071057  0.545006  0.827257  1
