# generated using pymatgen
data_Li3CoSiO5
_symmetry_space_group_name_H-M   'P 1'
_cell_length_a   4.95279682
_cell_length_b   5.48226055
_cell_length_c   15.73724023
_cell_angle_alpha   90.00000000
_cell_angle_beta   90.00000000
_cell_angle_gamma   90.00000000
_symmetry_Int_Tables_number   1
_chemical_formula_structural   Li3CoSiO5
_chemical_formula_sum   'Li12 Co4 Si4 O20'
_cell_volume   427.30577130
_cell_formula_units_Z   4
loop_
 _symmetry_equiv_pos_site_id
 _symmetry_equiv_pos_as_xyz
  1  'x, y, z'
loop_
 _atom_site_type_symbol
 _atom_site_label
 _atom_site_symmetry_multiplicity
 _atom_site_fract_x
 _atom_site_fract_y
 _atom_site_fract_z
 _atom_site_occupancy
  Li  Li0  1  0.998723  0.168158  0.093188  1
  Li  Li1  1  0.998723  0.668158  0.406812  1
  Li  Li2  1  0.501411  0.836711  0.495125  1
  Li  Li3  1  0.501411  0.336711  0.004875  1
  Li  Li4  1  0.505079  0.829752  0.303754  1
  Li  Li5  1  0.505079  0.329752  0.196246  1
  Li  Li6  1  0.498723  0.831842  0.906812  1
  Li  Li7  1  0.498723  0.331842  0.593188  1
  Li  Li8  1  0.001411  0.163289  0.504875  1
  Li  Li9  1  0.001411  0.663289  0.995125  1
  Li  Li10  1  0.005079  0.670248  0.803754  1
  Li  Li11  1  0.005079  0.170248  0.696246  1
  Co  Co12  1  0.999927  0.677470  0.199576  1
  Co  Co13  1  0.999927  0.177470  0.300424  1
  Co  Co14  1  0.499927  0.822530  0.699576  1
  Co  Co15  1  0.499927  0.322530  0.800424  1
  Si  Si16  1  0.007599  0.662530  0.598212  1
  Si  Si17  1  0.007599  0.162530  0.901788  1
  Si  Si18  1  0.507599  0.837470  0.098212  1
  Si  Si19  1  0.507599  0.337470  0.401788  1
  O  O20  1  0.092199  0.849744  0.297664  1
  O  O21  1  0.092199  0.349744  0.202336  1
  O  O22  1  0.102325  0.878903  0.898340  1
  O  O23  1  0.102325  0.378903  0.601660  1
  O  O24  1  0.103706  0.814079  0.515031  1
  O  O25  1  0.103706  0.314079  0.984969  1
  O  O26  1  0.116379  0.807107  0.687516  1
  O  O27  1  0.116379  0.307107  0.812484  1
  O  O28  1  0.167654  0.825866  0.105821  1
  O  O29  1  0.167654  0.325866  0.394179  1
  O  O30  1  0.592199  0.150256  0.702336  1
  O  O31  1  0.592199  0.650256  0.797664  1
  O  O32  1  0.602325  0.121097  0.101660  1
  O  O33  1  0.602325  0.621097  0.398340  1
  O  O34  1  0.603706  0.685921  0.015031  1
  O  O35  1  0.603706  0.185921  0.484969  1
  O  O36  1  0.616379  0.692893  0.187516  1
  O  O37  1  0.616379  0.192893  0.312484  1
  O  O38  1  0.667654  0.674134  0.605821  1
  O  O39  1  0.667654  0.174134  0.894179  1
