# generated using pymatgen
data_Li3NbS4
_symmetry_space_group_name_H-M   'P 1'
_cell_length_a   8.96631925
_cell_length_b   8.96631925
_cell_length_c   8.96631925
_cell_angle_alpha   109.47122063
_cell_angle_beta   109.47122063
_cell_angle_gamma   109.47122063
_symmetry_Int_Tables_number   1
_chemical_formula_structural   Li3NbS4
_chemical_formula_sum   'Li12 Nb4 S16'
_cell_volume   554.90763812
_cell_formula_units_Z   4
loop_
 _symmetry_equiv_pos_site_id
 _symmetry_equiv_pos_as_xyz
  1  'x, y, z'
loop_
 _atom_site_type_symbol
 _atom_site_label
 _atom_site_symmetry_multiplicity
 _atom_site_fract_x
 _atom_site_fract_y
 _atom_site_fract_z
 _atom_site_occupancy
  Li  Li0  1  1.000000  0.499103  0.238647  1
  Li  Li1  1  0.499103  1.000000  0.238647  1
  Li  Li2  1  0.761353  0.260456  0.761353  1
  Li  Li3  1  0.739544  0.500897  0.500897  1
  Li  Li4  1  0.761353  0.761353  0.260456  1
  Li  Li5  1  0.238647  0.499103  0.000000  1
  Li  Li6  1  0.500897  0.500897  0.739544  1
  Li  Li7  1  0.499103  0.238647  0.000000  1
  Li  Li8  1  1.000000  0.238647  0.499103  1
  Li  Li9  1  0.500897  0.739544  0.500897  1
  Li  Li10  1  0.238647  1.000000  0.499103  1
  Li  Li11  1  0.260456  0.761353  0.761353  1
  Nb  Nb12  1  0.717660  1.000000  0.000000  1
  Nb  Nb13  1  0.282340  0.282340  0.282340  1
  Nb  Nb14  1  1.000000  0.717660  1.000000  1
  Nb  Nb15  1  1.000000  1.000000  0.717660  1
  S  S16  1  0.759247  0.244693  0.244693  1
  S  S17  1  0.755307  0.514554  0.000000  1
  S  S18  1  0.227979  1.000000  1.000000  1
  S  S19  1  1.000000  0.227979  0.000000  1
  S  S20  1  1.000000  1.000000  0.227979  1
  S  S21  1  0.485446  0.485446  0.240753  1
  S  S22  1  0.485446  0.240753  0.485446  1
  S  S23  1  0.514554  1.000000  0.755307  1
  S  S24  1  1.000000  0.514554  0.755307  1
  S  S25  1  0.240753  0.485446  0.485446  1
  S  S26  1  0.244693  0.759247  0.244693  1
  S  S27  1  0.755307  0.000000  0.514554  1
  S  S28  1  0.244693  0.244693  0.759247  1
  S  S29  1  0.772021  0.772021  0.772021  1
  S  S30  1  0.514554  0.755307  0.000000  1
  S  S31  1  1.000000  0.755307  0.514554  1
