# generated using pymatgen
data_Li4CrCu3O8
_symmetry_space_group_name_H-M   'P 1'
_cell_length_a   5.85678543
_cell_length_b   5.85678543
_cell_length_c   5.85678543
_cell_angle_alpha   60.07348087
_cell_angle_beta   60.07348087
_cell_angle_gamma   60.07348087
_symmetry_Int_Tables_number   1
_chemical_formula_structural   Li4CrCu3O8
_chemical_formula_sum   'Li4 Cr1 Cu3 O8'
_cell_volume   142.29365592
_cell_formula_units_Z   1
loop_
 _symmetry_equiv_pos_site_id
 _symmetry_equiv_pos_as_xyz
  1  'x, y, z'
loop_
 _atom_site_type_symbol
 _atom_site_label
 _atom_site_symmetry_multiplicity
 _atom_site_fract_x
 _atom_site_fract_y
 _atom_site_fract_z
 _atom_site_occupancy
  Li  Li0  1  0.500000  0.500000  0.500000  1
  Li  Li1  1  1.000000  0.500000  0.000000  1
  Li  Li2  1  1.000000  0.000000  0.500000  1
  Li  Li3  1  0.500000  0.000000  0.000000  1
  Cr  Cr4  1  1.000000  0.000000  0.000000  1
  Cu  Cu5  1  0.500000  0.000000  0.500000  1
  Cu  Cu6  1  0.500000  0.500000  0.000000  1
  Cu  Cu7  1  1.000000  0.500000  0.500000  1
  O  O8  1  0.258210  0.258210  0.258210  1
  O  O9  1  0.759249  0.252267  0.759249  1
  O  O10  1  0.759249  0.759249  0.252267  1
  O  O11  1  0.741790  0.741790  0.741790  1
  O  O12  1  0.252267  0.759249  0.759249  1
  O  O13  1  0.240751  0.747733  0.240751  1
  O  O14  1  0.240751  0.240751  0.747733  1
  O  O15  1  0.747733  0.240751  0.240751  1
