# generated using pymatgen
data_Li4Ti3Nb2Fe3O16
_symmetry_space_group_name_H-M   'P 1'
_cell_length_a   6.08944412
_cell_length_b   6.08944412
_cell_length_c   9.89465007
_cell_angle_alpha   89.36665263
_cell_angle_beta   90.63334737
_cell_angle_gamma   120.89106996
_symmetry_Int_Tables_number   1
_chemical_formula_structural   Li4Ti3Nb2Fe3O16
_chemical_formula_sum   'Li4 Ti3 Nb2 Fe3 O16'
_cell_volume   314.83377498
_cell_formula_units_Z   1
loop_
 _symmetry_equiv_pos_site_id
 _symmetry_equiv_pos_as_xyz
  1  'x, y, z'
loop_
 _atom_site_type_symbol
 _atom_site_label
 _atom_site_symmetry_multiplicity
 _atom_site_fract_x
 _atom_site_fract_y
 _atom_site_fract_z
 _atom_site_occupancy
  Li  Li0  1  0.664083  0.335917  0.902894  1
  Li  Li1  1  0.001255  0.998745  0.986907  1
  Li  Li2  1  0.002447  0.997553  0.493509  1
  Li  Li3  1  0.332326  0.667674  0.406749  1
  Ti  Ti4  1  0.177218  0.822782  0.732501  1
  Ti  Ti5  1  0.345625  0.156306  0.220033  1
  Ti  Ti6  1  0.843694  0.654375  0.220033  1
  Nb  Nb7  1  0.666920  0.333080  0.499826  1
  Nb  Nb8  1  0.351263  0.648737  0.987302  1
  Fe  Fe9  1  0.829894  0.170106  0.210036  1
  Fe  Fe10  1  0.167689  0.337220  0.709318  1
  Fe  Fe11  1  0.662780  0.832311  0.709318  1
  O  O12  1  0.342807  0.160333  0.589373  1
  O  O13  1  0.519944  0.480056  0.333416  1
  O  O14  1  0.649025  0.350975  0.106862  1
  O  O15  1  0.008535  0.991465  0.304592  1
  O  O16  1  0.007589  0.992411  0.799184  1
  O  O17  1  0.839667  0.657193  0.589373  1
  O  O18  1  0.502598  0.038502  0.338583  1
  O  O19  1  0.961498  0.497402  0.338583  1
  O  O20  1  0.163448  0.836552  0.103982  1
  O  O21  1  0.831256  0.168744  0.576576  1
  O  O22  1  0.031516  0.535542  0.848644  1
  O  O23  1  0.464458  0.968484  0.848644  1
  O  O24  1  0.319221  0.680779  0.611038  1
  O  O25  1  0.169151  0.333696  0.091837  1
  O  O26  1  0.480726  0.519274  0.856894  1
  O  O27  1  0.666304  0.830849  0.091837  1
