# generated using pymatgen
data_Mn5NiO12
_symmetry_space_group_name_H-M   'P 1'
_cell_length_a   5.02989897
_cell_length_b   5.02989897
_cell_length_c   9.71011385
_cell_angle_alpha   89.99660498
_cell_angle_beta   90.00339502
_cell_angle_gamma   59.93264313
_symmetry_Int_Tables_number   1
_chemical_formula_structural   Mn5NiO12
_chemical_formula_sum   'Mn5 Ni1 O12'
_cell_volume   212.60736473
_cell_formula_units_Z   1
loop_
 _symmetry_equiv_pos_site_id
 _symmetry_equiv_pos_as_xyz
  1  'x, y, z'
loop_
 _atom_site_type_symbol
 _atom_site_label
 _atom_site_symmetry_multiplicity
 _atom_site_fract_x
 _atom_site_fract_y
 _atom_site_fract_z
 _atom_site_occupancy
  Mn  Mn0  1  0.166621  0.166621  0.500000  1
  Mn  Mn1  1  0.333347  0.333347  0.000000  1
  Mn  Mn2  1  0.500000  0.500000  0.500000  1
  Mn  Mn3  1  0.666653  0.666653  0.000000  1
  Mn  Mn4  1  0.833379  0.833379  0.500000  1
  Ni  Ni5  1  0.000000  0.000000  0.000000  1
  O  O6  1  0.327530  0.000161  0.902548  1
  O  O7  1  0.000161  0.327530  0.097452  1
  O  O8  1  0.499837  0.166771  0.599100  1
  O  O9  1  0.166771  0.499837  0.400900  1
  O  O10  1  0.672231  0.327769  0.902578  1
  O  O11  1  0.833303  0.166697  0.401024  1
  O  O12  1  0.327769  0.672231  0.097422  1
  O  O13  1  0.166697  0.833303  0.598976  1
  O  O14  1  0.833229  0.500163  0.599100  1
  O  O15  1  0.500163  0.833229  0.400900  1
  O  O16  1  0.672470  0.999839  0.097452  1
  O  O17  1  0.999839  0.672470  0.902548  1
