# generated using pymatgen
data_FeOF
_symmetry_space_group_name_H-M   'P 1'
_cell_length_a   3.02474924
_cell_length_b   4.72082363
_cell_length_c   14.01885315
_cell_angle_alpha   90.00000000
_cell_angle_beta   90.00000000
_cell_angle_gamma   90.00000000
_symmetry_Int_Tables_number   1
_chemical_formula_structural   FeOF
_chemical_formula_sum   'Fe6 O6 F6'
_cell_volume   200.17951740
_cell_formula_units_Z   6
loop_
 _symmetry_equiv_pos_site_id
 _symmetry_equiv_pos_as_xyz
  1  'x, y, z'
loop_
 _atom_site_type_symbol
 _atom_site_label
 _atom_site_symmetry_multiplicity
 _atom_site_fract_x
 _atom_site_fract_y
 _atom_site_fract_z
 _atom_site_occupancy
  Fe  Fe0  1  0.500000  0.786480  0.995544  1
  Fe  Fe1  1  0.500000  0.643229  0.333765  1
  Fe  Fe2  1  0.500000  0.782036  0.667990  1
  Fe  Fe3  1  0.000000  0.217964  0.167990  1
  Fe  Fe4  1  0.000000  0.213520  0.495544  1
  Fe  Fe5  1  0.000000  0.356771  0.833765  1
  O  O6  1  0.000000  0.485813  0.269769  1
  O  O7  1  0.000000  0.600730  0.931224  1
  O  O8  1  0.500000  0.514187  0.769769  1
  O  O9  1  0.500000  0.399270  0.431224  1
  O  O10  1  0.500000  0.049582  0.564807  1
  O  O11  1  0.000000  0.950418  0.064807  1
  F  F12  1  0.000000  0.571156  0.604879  1
  F  F13  1  0.500000  0.428844  0.104879  1
  F  F14  1  0.500000  0.991880  0.235266  1
  F  F15  1  0.500000  0.124081  0.896153  1
  F  F16  1  0.000000  0.875919  0.396153  1
  F  F17  1  0.000000  0.008120  0.735266  1
