# generated using pymatgen
data_LiSi6Bi9O26
_symmetry_space_group_name_H-M   'P 1'
_cell_length_a   9.70809695
_cell_length_b   9.70809695
_cell_length_c   7.08245143
_cell_angle_alpha   90.00000000
_cell_angle_beta   90.00000000
_cell_angle_gamma   120.00000000
_symmetry_Int_Tables_number   1
_chemical_formula_structural   LiSi6Bi9O26
_chemical_formula_sum   'Li1 Si6 Bi9 O26'
_cell_volume   578.07268168
_cell_formula_units_Z   1
loop_
 _symmetry_equiv_pos_site_id
 _symmetry_equiv_pos_as_xyz
  1  'x, y, z'
loop_
 _atom_site_type_symbol
 _atom_site_label
 _atom_site_symmetry_multiplicity
 _atom_site_fract_x
 _atom_site_fract_y
 _atom_site_fract_z
 _atom_site_occupancy
  Li  Li0  1  0.333333  0.666667  0.518879  1
  Si  Si1  1  0.030299  0.622523  0.252386  1
  Si  Si2  1  0.592224  0.969701  0.252386  1
  Si  Si3  1  0.377477  0.407776  0.252386  1
  Si  Si4  1  0.623763  0.601912  0.748323  1
  Si  Si5  1  0.398088  0.021851  0.748323  1
  Si  Si6  1  0.978149  0.376237  0.748323  1
  Bi  Bi7  1  0.988243  0.760262  0.733306  1
  Bi  Bi8  1  0.333333  0.666667  0.977381  1
  Bi  Bi9  1  0.239738  0.227981  0.733306  1
  Bi  Bi10  1  0.224502  0.981476  0.236663  1
  Bi  Bi11  1  0.772019  0.011757  0.733306  1
  Bi  Bi12  1  0.756974  0.775498  0.236663  1
  Bi  Bi13  1  0.666667  0.333333  0.001690  1
  Bi  Bi14  1  0.666667  0.333333  0.489007  1
  Bi  Bi15  1  0.018524  0.243026  0.236663  1
  O  O16  1  0.065899  0.754370  0.421798  1
  O  O17  1  0.098287  0.744098  0.066815  1
  O  O18  1  0.127757  0.526986  0.265219  1
  O  O19  1  0.324008  0.830593  0.741726  1
  O  O20  1  0.169407  0.493414  0.741726  1
  O  O21  1  0.399229  0.872243  0.265219  1
  O  O22  1  0.000000  0.000000  0.187858  1
  O  O23  1  0.000000  0.000000  0.691823  1
  O  O24  1  0.255902  0.354189  0.066815  1
  O  O25  1  0.245630  0.311528  0.421798  1
  O  O26  1  0.506586  0.675992  0.741726  1
  O  O27  1  0.473014  0.600771  0.265219  1
  O  O28  1  0.645811  0.901713  0.066815  1
  O  O29  1  0.688472  0.934101  0.421798  1
  O  O30  1  0.329081  0.081484  0.926658  1
  O  O31  1  0.353456  0.100450  0.566069  1
  O  O32  1  0.527851  0.404664  0.759509  1
  O  O33  1  0.502930  0.338995  0.244370  1
  O  O34  1  0.752403  0.670919  0.926658  1
  O  O35  1  0.746994  0.646544  0.566069  1
  O  O36  1  0.595336  0.123187  0.759509  1
  O  O37  1  0.836065  0.497070  0.244370  1
  O  O38  1  0.661005  0.163935  0.244370  1
  O  O39  1  0.876813  0.472149  0.759509  1
  O  O40  1  0.899550  0.253006  0.566069  1
  O  O41  1  0.918516  0.247597  0.926658  1
