# generated using pymatgen
data_LiV2(OF)3
_symmetry_space_group_name_H-M   'P 1'
_cell_length_a   5.09093535
_cell_length_b   5.12561388
_cell_length_c   13.52798682
_cell_angle_alpha   87.96893363
_cell_angle_beta   87.30104957
_cell_angle_gamma   62.01497716
_symmetry_Int_Tables_number   1
_chemical_formula_structural   LiV2(OF)3
_chemical_formula_sum   'Li3 V6 O9 F9'
_cell_volume   311.34377369
_cell_formula_units_Z   3
loop_
 _symmetry_equiv_pos_site_id
 _symmetry_equiv_pos_as_xyz
  1  'x, y, z'
loop_
 _atom_site_type_symbol
 _atom_site_label
 _atom_site_symmetry_multiplicity
 _atom_site_fract_x
 _atom_site_fract_y
 _atom_site_fract_z
 _atom_site_occupancy
  Li  Li0  1  0.643849  0.679900  0.882401  1
  Li  Li1  1  0.966990  0.029131  0.214267  1
  Li  Li2  1  0.312574  0.359633  0.551849  1
  V  V3  1  0.666269  0.677744  0.667070  1
  V  V4  1  0.640569  0.681759  0.160926  1
  V  V5  1  0.039624  0.968459  0.002065  1
  V  V6  1  0.368902  0.294574  0.824258  1
  V  V7  1  0.321111  0.358226  0.334563  1
  V  V8  1  0.024857  0.973847  0.491950  1
  O  O9  1  0.930883  0.728741  0.584365  1
  O  O10  1  0.742067  0.907279  0.088518  1
  O  O11  1  0.608397  0.000954  0.752789  1
  O  O12  1  0.595399  0.400499  0.250136  1
  O  O13  1  0.437491  0.589422  0.751068  1
  O  O14  1  0.312777  0.739203  0.083865  1
  O  O15  1  0.264974  0.678567  0.422020  1
  O  O16  1  0.262341  0.064978  0.913958  1
  O  O17  1  0.097113  0.264830  0.417552  1
  F  F18  1  0.008465  0.393884  0.750436  1
  F  F19  1  0.940738  0.318960  0.088279  1
  F  F20  1  0.704983  0.336050  0.576023  1
  F  F21  1  0.349566  0.014384  0.246939  1
  F  F22  1  0.653757  0.294331  0.922182  1
  F  F23  1  0.319049  0.976514  0.585942  1
  F  F24  1  0.668704  0.069134  0.417373  1
  F  F25  1  0.035947  0.673862  0.911036  1
  F  F26  1  0.983885  0.644585  0.254006  1
