# generated using pymatgen
data_Li3Fe2Ni3O10
_symmetry_space_group_name_H-M   'P 1'
_cell_length_a   5.04801433
_cell_length_b   5.06924033
_cell_length_c   7.69817578
_cell_angle_alpha   71.25298346
_cell_angle_beta   70.93406091
_cell_angle_gamma   79.69884156
_symmetry_Int_Tables_number   1
_chemical_formula_structural   Li3Fe2Ni3O10
_chemical_formula_sum   'Li3 Fe2 Ni3 O10'
_cell_volume   175.70798905
_cell_formula_units_Z   1
loop_
 _symmetry_equiv_pos_site_id
 _symmetry_equiv_pos_as_xyz
  1  'x, y, z'
loop_
 _atom_site_type_symbol
 _atom_site_label
 _atom_site_symmetry_multiplicity
 _atom_site_fract_x
 _atom_site_fract_y
 _atom_site_fract_z
 _atom_site_occupancy
  Li  Li0  1  0.519049  0.762967  0.428743  1
  Li  Li1  1  0.483122  0.394561  0.215201  1
  Li  Li2  1  0.496092  0.230633  0.599653  1
  Fe  Fe3  1  0.010246  0.890838  0.690166  1
  Fe  Fe4  1  0.994922  0.108402  0.306260  1
  Ni  Ni5  1  0.499066  0.995780  0.997078  1
  Ni  Ni6  1  0.988219  0.306406  0.896792  1
  Ni  Ni7  1  0.007210  0.702979  0.097242  1
  O  O8  1  0.226634  0.959284  0.861386  1
  O  O9  1  0.770118  0.905982  0.527149  1
  O  O10  1  0.780474  0.666430  0.953076  1
  O  O11  1  0.212259  0.560685  0.667022  1
  O  O12  1  0.244545  0.777611  0.219709  1
  O  O13  1  0.752178  0.193883  0.768543  1
  O  O14  1  0.776452  0.452413  0.321386  1
  O  O15  1  0.230298  0.319788  0.069516  1
  O  O16  1  0.243624  0.106063  0.452954  1
  O  O17  1  0.759721  0.053089  0.140820  1
