# generated using pymatgen
data_Eu4O3F7
_symmetry_space_group_name_H-M   'P 1'
_cell_length_a   5.54381029
_cell_length_b   5.72539316
_cell_length_c   5.88118384
_cell_angle_alpha   90.00000000
_cell_angle_beta   91.22415045
_cell_angle_gamma   90.00000000
_symmetry_Int_Tables_number   1
_chemical_formula_structural   Eu4O3F7
_chemical_formula_sum   'Eu4 O3 F7'
_cell_volume   186.62907316
_cell_formula_units_Z   1
loop_
 _symmetry_equiv_pos_site_id
 _symmetry_equiv_pos_as_xyz
  1  'x, y, z'
loop_
 _atom_site_type_symbol
 _atom_site_label
 _atom_site_symmetry_multiplicity
 _atom_site_fract_x
 _atom_site_fract_y
 _atom_site_fract_z
 _atom_site_occupancy
  Eu  Eu0  1  0.275688  0.277670  0.247287  1
  Eu  Eu1  1  0.234398  0.795779  0.750345  1
  Eu  Eu2  1  0.765602  0.795779  0.249655  1
  Eu  Eu3  1  0.724312  0.277670  0.752713  1
  O  O4  1  0.500000  0.044156  0.000000  1
  O  O5  1  0.000000  0.021965  0.000000  1
  O  O6  1  0.500000  0.993773  0.500000  1
  F  F7  1  0.500000  0.566492  0.000000  1
  F  F8  1  0.000000  0.490070  0.000000  1
  F  F9  1  0.677973  0.399209  0.354821  1
  F  F10  1  0.322027  0.399209  0.645179  1
  F  F11  1  0.824557  0.685414  0.653628  1
  F  F12  1  0.175443  0.685414  0.346372  1
  F  F13  1  0.000000  0.086199  0.500000  1
