# generated using pymatgen
data_Cr3P
_symmetry_space_group_name_H-M   'P 1'
_cell_length_a   6.81261046
_cell_length_b   6.81261046
_cell_length_c   6.81261046
_cell_angle_alpha   96.25194160
_cell_angle_beta   96.25194160
_cell_angle_gamma   141.46234590
_symmetry_Int_Tables_number   1
_chemical_formula_structural   Cr3P
_chemical_formula_sum   'Cr12 P4'
_cell_volume   185.95672767
_cell_formula_units_Z   4
loop_
 _symmetry_equiv_pos_site_id
 _symmetry_equiv_pos_as_xyz
  1  'x, y, z'
loop_
 _atom_site_type_symbol
 _atom_site_label
 _atom_site_symmetry_multiplicity
 _atom_site_fract_x
 _atom_site_fract_y
 _atom_site_fract_z
 _atom_site_occupancy
  Cr  Cr0  1  0.969444  0.357492  0.328784  1
  Cr  Cr1  1  0.359340  0.030556  0.388048  1
  Cr  Cr2  1  0.642508  0.971293  0.611952  1
  Cr  Cr3  1  0.028707  0.640660  0.671216  1
  Cr  Cr4  1  0.546118  0.934856  0.943986  1
  Cr  Cr5  1  0.397869  0.453882  0.388739  1
  Cr  Cr6  1  0.065144  0.009130  0.611261  1
  Cr  Cr7  1  0.990870  0.602131  0.056014  1
  Cr  Cr8  1  0.336670  0.160010  0.025559  1
  Cr  Cr9  1  0.688889  0.663330  0.823340  1
  Cr  Cr10  1  0.839990  0.865549  0.176660  1
  Cr  Cr11  1  0.134451  0.311111  0.974441  1
  P  P12  1  0.548468  0.213299  0.754648  1
  P  P13  1  0.206180  0.451532  0.664831  1
  P  P14  1  0.786701  0.541349  0.335169  1
  P  P15  1  0.458651  0.793820  0.245352  1
