# generated using pymatgen
data_Li4Ti2Mn3Nb3O16
_symmetry_space_group_name_H-M   'P 1'
_cell_length_a   6.22389723
_cell_length_b   6.22389723
_cell_length_c   9.89601930
_cell_angle_alpha   88.18860005
_cell_angle_beta   91.81139995
_cell_angle_gamma   121.61380060
_symmetry_Int_Tables_number   1
_chemical_formula_structural   Li4Ti2Mn3Nb3O16
_chemical_formula_sum   'Li4 Ti2 Mn3 Nb3 O16'
_cell_volume   326.23945659
_cell_formula_units_Z   1
loop_
 _symmetry_equiv_pos_site_id
 _symmetry_equiv_pos_as_xyz
  1  'x, y, z'
loop_
 _atom_site_type_symbol
 _atom_site_label
 _atom_site_symmetry_multiplicity
 _atom_site_fract_x
 _atom_site_fract_y
 _atom_site_fract_z
 _atom_site_occupancy
  Li  Li0  1  0.669471  0.330529  0.095958  1
  Li  Li1  1  0.002172  0.997828  0.002103  1
  Li  Li2  1  0.007183  0.992817  0.514378  1
  Li  Li3  1  0.336441  0.663559  0.602166  1
  Ti  Ti4  1  0.641463  0.358537  0.519945  1
  Ti  Ti5  1  0.329199  0.670801  0.995184  1
  Mn  Mn6  1  0.827201  0.664024  0.796492  1
  Mn  Mn7  1  0.335976  0.172799  0.796492  1
  Mn  Mn8  1  0.169184  0.830816  0.293545  1
  Nb  Nb9  1  0.822647  0.177353  0.771999  1
  Nb  Nb10  1  0.659091  0.836436  0.281229  1
  Nb  Nb11  1  0.163564  0.340909  0.281229  1
  O  O12  1  0.814788  0.662278  0.408232  1
  O  O13  1  0.523643  0.476357  0.643944  1
  O  O14  1  0.684474  0.315526  0.897479  1
  O  O15  1  0.989064  0.010936  0.698211  1
  O  O16  1  0.000502  0.999498  0.185061  1
  O  O17  1  0.337722  0.185212  0.408232  1
  O  O18  1  0.963193  0.468807  0.648461  1
  O  O19  1  0.531193  0.036807  0.648461  1
  O  O20  1  0.173066  0.826934  0.919037  1
  O  O21  1  0.841535  0.158465  0.399367  1
  O  O22  1  0.498067  0.955177  0.156304  1
  O  O23  1  0.044823  0.501933  0.156304  1
  O  O24  1  0.342597  0.657403  0.401628  1
  O  O25  1  0.648439  0.841266  0.906313  1
  O  O26  1  0.484832  0.515168  0.158121  1
  O  O27  1  0.158734  0.351561  0.906313  1
