# generated using pymatgen
data_Li2CrSiO4
_symmetry_space_group_name_H-M   'P 1'
_cell_length_a   5.11513727
_cell_length_b   10.58641896
_cell_length_c   13.09494799
_cell_angle_alpha   90.00000000
_cell_angle_beta   90.00000000
_cell_angle_gamma   90.00000000
_symmetry_Int_Tables_number   1
_chemical_formula_structural   Li2CrSiO4
_chemical_formula_sum   'Li16 Cr8 Si8 O32'
_cell_volume   709.10434761
_cell_formula_units_Z   8
loop_
 _symmetry_equiv_pos_site_id
 _symmetry_equiv_pos_as_xyz
  1  'x, y, z'
loop_
 _atom_site_type_symbol
 _atom_site_label
 _atom_site_symmetry_multiplicity
 _atom_site_fract_x
 _atom_site_fract_y
 _atom_site_fract_z
 _atom_site_occupancy
  Li  Li0  1  0.517922  0.982741  0.952785  1
  Li  Li1  1  0.952335  0.033753  0.565665  1
  Li  Li2  1  0.395905  0.836293  0.311838  1
  Li  Li3  1  0.982129  0.785357  0.213675  1
  Li  Li4  1  0.982129  0.714643  0.713675  1
  Li  Li5  1  0.395905  0.663707  0.811838  1
  Li  Li6  1  0.952335  0.466247  0.065665  1
  Li  Li7  1  0.517922  0.517259  0.452785  1
  Li  Li8  1  0.482078  0.482741  0.952785  1
  Li  Li9  1  0.047665  0.533753  0.565665  1
  Li  Li10  1  0.604095  0.336293  0.311838  1
  Li  Li11  1  0.017871  0.285357  0.213675  1
  Li  Li12  1  0.017871  0.214643  0.713675  1
  Li  Li13  1  0.604095  0.163707  0.811838  1
  Li  Li14  1  0.047665  0.966247  0.065665  1
  Li  Li15  1  0.482078  0.017259  0.452785  1
  Cr  Cr16  1  0.528189  0.943339  0.698820  1
  Cr  Cr17  1  0.957865  0.719461  0.981675  1
  Cr  Cr18  1  0.957865  0.780539  0.481675  1
  Cr  Cr19  1  0.528189  0.556661  0.198820  1
  Cr  Cr20  1  0.471811  0.443339  0.698820  1
  Cr  Cr21  1  0.042135  0.219461  0.981675  1
  Cr  Cr22  1  0.042135  0.280539  0.481675  1
  Cr  Cr23  1  0.471811  0.056661  0.198820  1
  Si  Si24  1  0.010203  0.977400  0.826977  1
  Si  Si25  1  0.498782  0.761525  0.079123  1
  Si  Si26  1  0.498782  0.738475  0.579123  1
  Si  Si27  1  0.010203  0.522600  0.326977  1
  Si  Si28  1  0.989797  0.477400  0.826977  1
  Si  Si29  1  0.501218  0.261525  0.079123  1
  Si  Si30  1  0.501218  0.238475  0.579123  1
  Si  Si31  1  0.989797  0.022600  0.326977  1
  O  O32  1  0.135623  0.958237  0.224967  1
  O  O33  1  0.673291  0.985235  0.319719  1
  O  O34  1  0.117121  0.944845  0.426454  1
  O  O35  1  0.768208  0.845667  0.086188  1
  O  O36  1  0.351828  0.772002  0.687564  1
  O  O37  1  0.925407  0.828329  0.831687  1
  O  O38  1  0.627416  0.880694  0.546405  1
  O  O39  1  0.300550  0.828316  0.998659  1
  O  O40  1  0.300550  0.671684  0.498659  1
  O  O41  1  0.627416  0.619306  0.046405  1
  O  O42  1  0.925407  0.671671  0.331687  1
  O  O43  1  0.351828  0.727998  0.187564  1
  O  O44  1  0.768208  0.654333  0.586188  1
  O  O45  1  0.117121  0.555155  0.926454  1
  O  O46  1  0.673291  0.514765  0.819719  1
  O  O47  1  0.135623  0.541763  0.724967  1
  O  O48  1  0.864377  0.458237  0.224967  1
  O  O49  1  0.326709  0.485235  0.319719  1
  O  O50  1  0.882879  0.444845  0.426454  1
  O  O51  1  0.231792  0.345667  0.086188  1
  O  O52  1  0.648172  0.272002  0.687564  1
  O  O53  1  0.074593  0.328329  0.831687  1
  O  O54  1  0.372584  0.380694  0.546405  1
  O  O55  1  0.699450  0.328316  0.998659  1
  O  O56  1  0.699450  0.171684  0.498659  1
  O  O57  1  0.372584  0.119306  0.046405  1
  O  O58  1  0.074593  0.171671  0.331687  1
  O  O59  1  0.648172  0.227998  0.187564  1
  O  O60  1  0.231792  0.154333  0.586188  1
  O  O61  1  0.882879  0.055155  0.926454  1
  O  O62  1  0.326709  0.014765  0.819719  1
  O  O63  1  0.864377  0.041763  0.724967  1
