# generated using pymatgen
data_Li2V3Si3O10
_symmetry_space_group_name_H-M   'P 1'
_cell_length_a   8.28099451
_cell_length_b   8.28099451
_cell_length_c   10.61678517
_cell_angle_alpha   87.38722455
_cell_angle_beta   92.61277545
_cell_angle_gamma   145.82737542
_symmetry_Int_Tables_number   1
_chemical_formula_structural   Li2V3Si3O10
_chemical_formula_sum   'Li4 V6 Si6 O20'
_cell_volume   408.46875006
_cell_formula_units_Z   2
loop_
 _symmetry_equiv_pos_site_id
 _symmetry_equiv_pos_as_xyz
  1  'x, y, z'
loop_
 _atom_site_type_symbol
 _atom_site_label
 _atom_site_symmetry_multiplicity
 _atom_site_fract_x
 _atom_site_fract_y
 _atom_site_fract_z
 _atom_site_occupancy
  Li  Li0  1  0.250714  0.134643  0.975928  1
  Li  Li1  1  0.865357  0.749286  0.475928  1
  Li  Li2  1  0.134643  0.250714  0.524072  1
  Li  Li3  1  0.749286  0.865357  0.024072  1
  V  V4  1  0.388665  0.087415  0.713279  1
  V  V5  1  0.912585  0.611335  0.213279  1
  V  V6  1  0.500000  0.000000  0.000000  1
  V  V7  1  0.000000  0.500000  0.500000  1
  V  V8  1  0.087415  0.388665  0.786721  1
  V  V9  1  0.611335  0.912585  0.286721  1
  Si  Si10  1  0.838781  0.528082  0.900405  1
  Si  Si11  1  0.471918  0.161219  0.400405  1
  Si  Si12  1  0.528082  0.838781  0.599595  1
  Si  Si13  1  0.161219  0.471918  0.099595  1
  Si  Si14  1  0.800659  0.800659  0.750000  1
  Si  Si15  1  0.199341  0.199341  0.250000  1
  O  O16  1  0.021059  0.939856  0.638685  1
  O  O17  1  0.642248  0.501291  0.812472  1
  O  O18  1  0.060144  0.978941  0.138685  1
  O  O19  1  0.498709  0.357752  0.312472  1
  O  O20  1  0.170719  0.863403  0.895443  1
  O  O21  1  0.607651  0.312369  0.538555  1
  O  O22  1  0.136597  0.829281  0.395443  1
  O  O23  1  0.687631  0.392349  0.038555  1
  O  O24  1  0.759999  0.290232  0.835507  1
  O  O25  1  0.709768  0.240001  0.335507  1
  O  O26  1  0.290232  0.759999  0.664493  1
  O  O27  1  0.240001  0.709768  0.164493  1
  O  O28  1  0.312369  0.607651  0.961445  1
  O  O29  1  0.863403  0.170719  0.604557  1
  O  O30  1  0.392349  0.687631  0.461445  1
  O  O31  1  0.829281  0.136597  0.104557  1
  O  O32  1  0.501291  0.642248  0.687528  1
  O  O33  1  0.939856  0.021059  0.861315  1
  O  O34  1  0.357752  0.498709  0.187528  1
  O  O35  1  0.978941  0.060144  0.361315  1
