# generated using pymatgen
data_Ti3Mn(PO4)6
_symmetry_space_group_name_H-M   'P 1'
_cell_length_a   8.81531286
_cell_length_b   8.81531286
_cell_length_c   8.81531286
_cell_angle_alpha   58.39762522
_cell_angle_beta   58.39762522
_cell_angle_gamma   58.39762522
_symmetry_Int_Tables_number   1
_chemical_formula_structural   Ti3Mn(PO4)6
_chemical_formula_sum   'Ti3 Mn1 P6 O24'
_cell_volume   466.62743231
_cell_formula_units_Z   1
loop_
 _symmetry_equiv_pos_site_id
 _symmetry_equiv_pos_as_xyz
  1  'x, y, z'
loop_
 _atom_site_type_symbol
 _atom_site_label
 _atom_site_symmetry_multiplicity
 _atom_site_fract_x
 _atom_site_fract_y
 _atom_site_fract_z
 _atom_site_occupancy
  Ti  Ti0  1  0.859660  0.859660  0.859660  1
  Ti  Ti1  1  0.640804  0.640804  0.640804  1
  Ti  Ti2  1  0.359874  0.359874  0.359874  1
  Mn  Mn3  1  0.144706  0.144706  0.144706  1
  P  P4  1  0.250471  0.529260  0.968414  1
  P  P5  1  0.968414  0.250471  0.529260  1
  P  P6  1  0.529260  0.968414  0.250471  1
  P  P7  1  0.461730  0.033879  0.757216  1
  P  P8  1  0.033879  0.757216  0.461730  1
  P  P9  1  0.757216  0.461730  0.033879  1
  O  O10  1  0.725243  0.493293  0.862128  1
  O  O11  1  0.493293  0.862128  0.725243  1
  O  O12  1  0.076765  0.709172  0.939680  1
  O  O13  1  0.862128  0.725243  0.493293  1
  O  O14  1  0.424760  0.557748  0.788357  1
  O  O15  1  0.225092  0.357247  0.991814  1
  O  O16  1  0.939680  0.076765  0.709172  1
  O  O17  1  0.788357  0.424760  0.557748  1
  O  O18  1  0.557748  0.788357  0.424760  1
  O  O19  1  0.635402  0.003758  0.783502  1
  O  O20  1  0.280135  0.059824  0.930535  1
  O  O21  1  0.003758  0.783502  0.635402  1
  O  O22  1  0.991814  0.225092  0.357247  1
  O  O23  1  0.709172  0.939680  0.076765  1
  O  O24  1  0.357247  0.991814  0.225092  1
  O  O25  1  0.433040  0.214067  0.582316  1
  O  O26  1  0.214067  0.582316  0.433040  1
  O  O27  1  0.059824  0.930535  0.280135  1
  O  O28  1  0.783502  0.635402  0.003758  1
  O  O29  1  0.582316  0.433040  0.214067  1
  O  O30  1  0.139258  0.279898  0.500955  1
  O  O31  1  0.930535  0.280135  0.059824  1
  O  O32  1  0.500955  0.139258  0.279898  1
  O  O33  1  0.279898  0.500955  0.139258  1
