# generated using pymatgen
data_Cu3Mo2(HO5)2
_symmetry_space_group_name_H-M   'P 1'
_cell_length_a   5.46982595
_cell_length_b   14.20494643
_cell_length_c   7.38017699
_cell_angle_alpha   90.00000000
_cell_angle_beta   129.89920770
_cell_angle_gamma   90.00000000
_symmetry_Int_Tables_number   1
_chemical_formula_structural   Cu3Mo2(HO5)2
_chemical_formula_sum   'Cu6 Mo4 H4 O20'
_cell_volume   439.92006742
_cell_formula_units_Z   2
loop_
 _symmetry_equiv_pos_site_id
 _symmetry_equiv_pos_as_xyz
  1  'x, y, z'
loop_
 _atom_site_type_symbol
 _atom_site_label
 _atom_site_symmetry_multiplicity
 _atom_site_fract_x
 _atom_site_fract_y
 _atom_site_fract_z
 _atom_site_occupancy
  Cu  Cu0  1  0.000000  0.500000  0.500000  1
  Cu  Cu1  1  0.000000  0.000000  0.000000  1
  Cu  Cu2  1  0.622384  0.596205  0.989244  1
  Cu  Cu3  1  0.622384  0.903795  0.489244  1
  Cu  Cu4  1  0.377616  0.403795  0.010756  1
  Cu  Cu5  1  0.377616  0.096205  0.510756  1
  Mo  Mo6  1  0.421113  0.653909  0.378074  1
  Mo  Mo7  1  0.421113  0.846091  0.878074  1
  Mo  Mo8  1  0.578887  0.346091  0.621926  1
  Mo  Mo9  1  0.578887  0.153909  0.121926  1
  H  H10  1  0.068911  0.558024  0.859962  1
  H  H11  1  0.068911  0.941976  0.359962  1
  H  H12  1  0.931089  0.441976  0.140038  1
  H  H13  1  0.931089  0.058024  0.640038  1
  O  O14  1  0.454681  0.722441  0.936362  1
  O  O15  1  0.454681  0.777559  0.436362  1
  O  O16  1  0.545319  0.277559  0.063638  1
  O  O17  1  0.545319  0.222441  0.563638  1
  O  O18  1  0.447200  0.591608  0.598403  1
  O  O19  1  0.447200  0.908392  0.098403  1
  O  O20  1  0.552800  0.408392  0.401597  1
  O  O21  1  0.552800  0.091608  0.901597  1
  O  O22  1  0.038681  0.627869  0.091080  1
  O  O23  1  0.038681  0.872131  0.591080  1
  O  O24  1  0.961319  0.372131  0.908920  1
  O  O25  1  0.961319  0.127869  0.408920  1
  O  O26  1  0.738229  0.612829  0.381532  1
  O  O27  1  0.738229  0.887171  0.881532  1
  O  O28  1  0.261771  0.387171  0.618468  1
  O  O29  1  0.261771  0.112829  0.118468  1
  O  O30  1  0.208763  0.526944  0.837630  1
  O  O31  1  0.208763  0.973056  0.337630  1
  O  O32  1  0.791237  0.473056  0.162370  1
  O  O33  1  0.791237  0.026944  0.662370  1
