# generated using pymatgen
data_Li3Mn2P2O8F3
_symmetry_space_group_name_H-M   'P 1'
_cell_length_a   9.06655473
_cell_length_b   9.13516309
_cell_length_c   10.36009446
_cell_angle_alpha   90.00000000
_cell_angle_beta   90.00000000
_cell_angle_gamma   90.00000000
_symmetry_Int_Tables_number   1
_chemical_formula_structural   Li3Mn2P2O8F3
_chemical_formula_sum   'Li12 Mn8 P8 O32 F12'
_cell_volume   858.06918903
_cell_formula_units_Z   4
loop_
 _symmetry_equiv_pos_site_id
 _symmetry_equiv_pos_as_xyz
  1  'x, y, z'
loop_
 _atom_site_type_symbol
 _atom_site_label
 _atom_site_symmetry_multiplicity
 _atom_site_fract_x
 _atom_site_fract_y
 _atom_site_fract_z
 _atom_site_occupancy
  Li  Li0  1  0.009573  0.285306  0.500000  1
  Li  Li1  1  0.054098  0.811875  0.000000  1
  Li  Li2  1  0.238001  0.498080  0.000000  1
  Li  Li3  1  0.261999  0.998080  0.500000  1
  Li  Li4  1  0.445902  0.311875  0.500000  1
  Li  Li5  1  0.490427  0.785306  0.000000  1
  Li  Li6  1  0.509573  0.214694  0.000000  1
  Li  Li7  1  0.554098  0.688125  0.500000  1
  Li  Li8  1  0.738001  0.001920  0.500000  1
  Li  Li9  1  0.761999  0.501920  0.000000  1
  Li  Li10  1  0.945902  0.188125  0.000000  1
  Li  Li11  1  0.990427  0.714694  0.500000  1
  Mn  Mn12  1  0.249765  0.249329  0.190028  1
  Mn  Mn13  1  0.249765  0.249329  0.809972  1
  Mn  Mn14  1  0.250235  0.749329  0.309972  1
  Mn  Mn15  1  0.250235  0.749329  0.690028  1
  Mn  Mn16  1  0.749765  0.250671  0.309972  1
  Mn  Mn17  1  0.749765  0.250671  0.690028  1
  Mn  Mn18  1  0.750235  0.750671  0.190028  1
  Mn  Mn19  1  0.750235  0.750671  0.809972  1
  P  P20  1  0.000000  0.000000  0.254378  1
  P  P21  1  0.000000  0.000000  0.745622  1
  P  P22  1  0.000000  0.500000  0.749855  1
  P  P23  1  0.000000  0.500000  0.250145  1
  P  P24  1  0.500000  0.500000  0.245622  1
  P  P25  1  0.500000  0.000000  0.249855  1
  P  P26  1  0.500000  0.000000  0.750145  1
  P  P27  1  0.500000  0.500000  0.754378  1
  O  O28  1  0.080919  0.606941  0.341964  1
  O  O29  1  0.080919  0.606941  0.658036  1
  O  O30  1  0.082890  0.103918  0.160947  1
  O  O31  1  0.082890  0.103918  0.839053  1
  O  O32  1  0.101221  0.913164  0.347013  1
  O  O33  1  0.101221  0.913164  0.652987  1
  O  O34  1  0.104877  0.416907  0.158078  1
  O  O35  1  0.104877  0.416907  0.841922  1
  O  O36  1  0.395123  0.916907  0.341922  1
  O  O37  1  0.395123  0.916907  0.658078  1
  O  O38  1  0.398779  0.413164  0.847013  1
  O  O39  1  0.398779  0.413164  0.152987  1
  O  O40  1  0.417110  0.603918  0.339053  1
  O  O41  1  0.417110  0.603918  0.660947  1
  O  O42  1  0.419081  0.106941  0.158036  1
  O  O43  1  0.419081  0.106941  0.841964  1
  O  O44  1  0.580919  0.893059  0.841964  1
  O  O45  1  0.580919  0.893059  0.158036  1
  O  O46  1  0.582890  0.396082  0.339053  1
  O  O47  1  0.582890  0.396082  0.660947  1
  O  O48  1  0.601221  0.586836  0.152987  1
  O  O49  1  0.601221  0.586836  0.847013  1
  O  O50  1  0.604877  0.083093  0.341922  1
  O  O51  1  0.604877  0.083093  0.658078  1
  O  O52  1  0.895123  0.583093  0.841922  1
  O  O53  1  0.895123  0.583093  0.158078  1
  O  O54  1  0.898779  0.086836  0.347013  1
  O  O55  1  0.898779  0.086836  0.652987  1
  O  O56  1  0.917110  0.896082  0.160947  1
  O  O57  1  0.917110  0.896082  0.839053  1
  O  O58  1  0.919081  0.393059  0.341964  1
  O  O59  1  0.919081  0.393059  0.658036  1
  F  F60  1  0.258414  0.237222  0.378393  1
  F  F61  1  0.258414  0.237222  0.621607  1
  F  F62  1  0.249169  0.252485  0.000000  1
  F  F63  1  0.250831  0.752485  0.500000  1
  F  F64  1  0.241586  0.737222  0.121607  1
  F  F65  1  0.241586  0.737222  0.878393  1
  F  F66  1  0.758414  0.262778  0.121607  1
  F  F67  1  0.758414  0.262778  0.878393  1
  F  F68  1  0.749169  0.247515  0.500000  1
  F  F69  1  0.750831  0.747515  0.000000  1
  F  F70  1  0.741586  0.762778  0.378393  1
  F  F71  1  0.741586  0.762778  0.621607  1
