# generated using pymatgen
data_Ni5O6
_symmetry_space_group_name_H-M   'P 1'
_cell_length_a   5.09762765
_cell_length_b   5.09762765
_cell_length_c   5.20180938
_cell_angle_alpha   79.09548395
_cell_angle_beta   100.90451605
_cell_angle_gamma   61.82430826
_symmetry_Int_Tables_number   1
_chemical_formula_structural   Ni5O6
_chemical_formula_sum   'Ni5 O6'
_cell_volume   110.78278904
_cell_formula_units_Z   1
loop_
 _symmetry_equiv_pos_site_id
 _symmetry_equiv_pos_as_xyz
  1  'x, y, z'
loop_
 _atom_site_type_symbol
 _atom_site_label
 _atom_site_symmetry_multiplicity
 _atom_site_fract_x
 _atom_site_fract_y
 _atom_site_fract_z
 _atom_site_occupancy
  Ni  Ni0  1  0.000000  0.000000  0.000000  1
  Ni  Ni1  1  0.661030  0.661030  0.000000  1
  Ni  Ni2  1  0.830147  0.830147  0.500000  1
  Ni  Ni3  1  0.169853  0.169853  0.500000  1
  Ni  Ni4  1  0.338970  0.338970  0.000000  1
  O  O5  1  0.965905  0.402850  0.766513  1
  O  O6  1  0.256230  0.743770  0.785200  1
  O  O7  1  0.597150  0.034095  0.766513  1
  O  O8  1  0.034095  0.597150  0.233487  1
  O  O9  1  0.743770  0.256230  0.214800  1
  O  O10  1  0.402850  0.965905  0.233487  1
