# generated using pymatgen
data_TeP2H16N2O13
_symmetry_space_group_name_H-M   'P 1'
_cell_length_a   7.57169955
_cell_length_b   8.65712301
_cell_length_c   11.90574561
_cell_angle_alpha   104.05574633
_cell_angle_beta   90.65142354
_cell_angle_gamma   114.70809803
_symmetry_Int_Tables_number   1
_chemical_formula_structural   TeP2H16N2O13
_chemical_formula_sum   'Te2 P4 H32 N4 O26'
_cell_volume   682.07162200
_cell_formula_units_Z   2
loop_
 _symmetry_equiv_pos_site_id
 _symmetry_equiv_pos_as_xyz
  1  'x, y, z'
loop_
 _atom_site_type_symbol
 _atom_site_label
 _atom_site_symmetry_multiplicity
 _atom_site_fract_x
 _atom_site_fract_y
 _atom_site_fract_z
 _atom_site_occupancy
  Te  Te0  1  0.818793  0.215918  0.833194  1
  Te  Te1  1  0.181207  0.784082  0.166806  1
  P  P2  1  0.959334  0.702348  0.593399  1
  P  P3  1  0.040666  0.297652  0.406601  1
  P  P4  1  0.279816  0.583915  0.610765  1
  P  P5  1  0.720184  0.416085  0.389235  1
  H  H6  1  0.943360  0.988620  0.742166  1
  H  H7  1  0.056640  0.011380  0.257834  1
  H  H8  1  0.080639  0.656581  0.953277  1
  H  H9  1  0.919361  0.343419  0.046723  1
  H  H10  1  0.555111  0.911733  0.745012  1
  H  H11  1  0.444889  0.088267  0.254988  1
  H  H12  1  0.123196  0.452737  0.792303  1
  H  H13  1  0.876804  0.547263  0.207697  1
  H  H14  1  0.823676  0.206854  0.617341  1
  H  H15  1  0.176324  0.793146  0.382659  1
  H  H16  1  0.659858  0.427883  0.858396  1
  H  H17  1  0.340142  0.572117  0.141604  1
  H  H18  1  0.515427  0.556647  0.782530  1
  H  H19  1  0.484573  0.443353  0.217470  1
  H  H20  1  0.743319  0.655204  0.780243  1
  H  H21  1  0.256681  0.344796  0.219757  1
  H  H22  1  0.310365  0.256331  0.622434  1
  H  H23  1  0.689635  0.743669  0.377566  1
  H  H24  1  0.596816  0.812042  0.499347  1
  H  H25  1  0.403184  0.187958  0.500653  1
  H  H26  1  0.477715  0.172345  0.626915  1
  H  H27  1  0.522285  0.827655  0.373085  1
  H  H28  1  0.241336  0.034806  0.562745  1
  H  H29  1  0.758664  0.965194  0.437255  1
  H  H30  1  0.256982  0.018146  0.967462  1
  H  H31  1  0.743018  0.981854  0.032538  1
  H  H32  1  0.721599  0.776512  0.969931  1
  H  H33  1  0.278401  0.223488  0.030069  1
  H  H34  1  0.418834  0.196746  0.927129  1
  H  H35  1  0.581166  0.803254  0.072871  1
  H  H36  1  0.173743  0.121685  0.888425  1
  H  H37  1  0.826257  0.878315  0.111575  1
  N  N38  1  0.644444  0.837506  0.420947  1
  N  N39  1  0.355556  0.162494  0.579053  1
  N  N40  1  0.720251  0.862675  0.047363  1
  N  N41  1  0.279749  0.137325  0.952637  1
  O  O42  1  0.005730  0.121522  0.776428  1
  O  O43  1  0.994270  0.878478  0.223572  1
  O  O44  1  0.895553  0.226133  0.992865  1
  O  O45  1  0.104447  0.773867  0.007135  1
  O  O46  1  0.610615  0.986711  0.827308  1
  O  O47  1  0.389385  0.013289  0.172692  1
  O  O48  1  0.969599  0.547768  0.148489  1
  O  O49  1  0.030401  0.452232  0.851511  1
  O  O50  1  0.724626  0.194364  0.672943  1
  O  O51  1  0.275374  0.805636  0.327057  1
  O  O52  1  0.644760  0.322958  0.889239  1
  O  O53  1  0.355240  0.677042  0.110761  1
  O  O54  1  0.925179  0.403451  0.371669  1
  O  O55  1  0.074821  0.596549  0.628331  1
  O  O56  1  0.758311  0.536029  0.523049  1
  O  O57  1  0.241689  0.463971  0.476951  1
  O  O58  1  0.901311  0.784154  0.704400  1
  O  O59  1  0.098689  0.215846  0.295600  1
  O  O60  1  0.064487  0.814606  0.515567  1
  O  O61  1  0.935513  0.185394  0.484433  1
  O  O62  1  0.554016  0.241261  0.383544  1
  O  O63  1  0.445984  0.758739  0.616456  1
  O  O64  1  0.706472  0.521254  0.307455  1
  O  O65  1  0.293528  0.478746  0.692545  1
  O  O66  1  0.644198  0.590761  0.827014  1
  O  O67  1  0.355802  0.409239  0.172986  1
