# generated using pymatgen
data_Ti4VO8
_symmetry_space_group_name_H-M   'P 1'
_cell_length_a   5.84170055
_cell_length_b   5.84170055
_cell_length_c   5.84109159
_cell_angle_alpha   61.10493534
_cell_angle_beta   118.89506466
_cell_angle_gamma   119.02915258
_symmetry_Int_Tables_number   1
_chemical_formula_structural   Ti4VO8
_chemical_formula_sum   'Ti4 V1 O8'
_cell_volume   144.31176297
_cell_formula_units_Z   1
loop_
 _symmetry_equiv_pos_site_id
 _symmetry_equiv_pos_as_xyz
  1  'x, y, z'
loop_
 _atom_site_type_symbol
 _atom_site_label
 _atom_site_symmetry_multiplicity
 _atom_site_fract_x
 _atom_site_fract_y
 _atom_site_fract_z
 _atom_site_occupancy
  Ti  Ti0  1  0.500000  0.500000  0.000000  1
  Ti  Ti1  1  0.000000  0.000000  0.500000  1
  Ti  Ti2  1  0.000000  0.500000  0.000000  1
  Ti  Ti3  1  0.500000  0.000000  0.000000  1
  V  V4  1  0.500000  0.500000  0.500000  1
  O  O5  1  0.261565  0.738435  0.227282  1
  O  O6  1  0.259581  0.248607  0.750979  1
  O  O7  1  0.751393  0.740419  0.750979  1
  O  O8  1  0.749141  0.250859  0.239001  1
  O  O9  1  0.250859  0.749141  0.760999  1
  O  O10  1  0.248607  0.259581  0.249021  1
  O  O11  1  0.740419  0.751393  0.249021  1
  O  O12  1  0.738435  0.261565  0.772718  1
