# generated using pymatgen
data_Li3Fe8(BO3)8
_symmetry_space_group_name_H-M   'P 1'
_cell_length_a   5.22810498
_cell_length_b   9.15960278
_cell_length_c   11.38694212
_cell_angle_alpha   112.76625478
_cell_angle_beta   102.92267769
_cell_angle_gamma   90.62097472
_symmetry_Int_Tables_number   1
_chemical_formula_structural   Li3Fe8(BO3)8
_chemical_formula_sum   'Li3 Fe8 B8 O24'
_cell_volume   487.18780111
_cell_formula_units_Z   1
loop_
 _symmetry_equiv_pos_site_id
 _symmetry_equiv_pos_as_xyz
  1  'x, y, z'
loop_
 _atom_site_type_symbol
 _atom_site_label
 _atom_site_symmetry_multiplicity
 _atom_site_fract_x
 _atom_site_fract_y
 _atom_site_fract_z
 _atom_site_occupancy
  Li  Li0  1  0.636631  0.972361  0.607696  1
  Li  Li1  1  0.100569  0.737144  0.835012  1
  Li  Li2  1  0.326253  0.001392  0.350423  1
  Fe  Fe3  1  0.638535  0.645731  0.617022  1
  Fe  Fe4  1  0.396551  0.072236  0.124582  1
  Fe  Fe5  1  0.837892  0.838396  0.370773  1
  Fe  Fe6  1  0.106281  0.423427  0.869405  1
  Fe  Fe7  1  0.889096  0.565704  0.122165  1
  Fe  Fe8  1  0.152572  0.155578  0.618373  1
  Fe  Fe9  1  0.353266  0.356512  0.374542  1
  Fe  Fe10  1  0.602962  0.935146  0.869112  1
  B  B11  1  0.652142  0.305204  0.616623  1
  B  B12  1  0.390568  0.394108  0.119849  1
  B  B13  1  0.857244  0.180192  0.365882  1
  B  B14  1  0.104703  0.099210  0.869275  1
  B  B15  1  0.142839  0.827057  0.633761  1
  B  B16  1  0.885812  0.897541  0.123141  1
  B  B17  1  0.336968  0.688829  0.372800  1
  B  B18  1  0.608910  0.607916  0.877251  1
  O  O19  1  0.152820  0.934487  0.145435  1
  O  O20  1  0.303500  0.287826  0.168886  1
  O  O21  1  0.200857  0.472457  0.066562  1
  O  O22  1  0.474181  0.830236  0.396562  1
  O  O23  1  0.462530  0.577394  0.413999  1
  O  O24  1  0.572864  0.161453  0.325489  1
  O  O25  1  0.921436  0.341912  0.679987  1
  O  O26  1  0.646007  0.416594  0.123649  1
  O  O27  1  0.786993  0.782264  0.155006  1
  O  O28  1  0.007684  0.924994  0.580902  1
  O  O29  1  0.020377  0.712522  0.656094  1
  O  O30  1  0.707600  0.982793  0.068621  1
  O  O31  1  0.269179  0.002297  0.919830  1
  O  O32  1  0.997563  0.302386  0.361523  1
  O  O33  1  0.979486  0.069024  0.406353  1
  O  O34  1  0.217231  0.210886  0.837835  1
  O  O35  1  0.345682  0.588627  0.869990  1
  O  O36  1  0.069854  0.657649  0.313025  1
  O  O37  1  0.424948  0.850721  0.672574  1
  O  O38  1  0.526904  0.408303  0.564458  1
  O  O39  1  0.519452  0.167825  0.601716  1
  O  O40  1  0.788548  0.518600  0.921841  1
  O  O41  1  0.712228  0.720468  0.838944  1
  O  O42  1  0.840438  0.073784  0.851628  1
