# generated using pymatgen
data_Li2Si2NiO6
_symmetry_space_group_name_H-M   'P 1'
_cell_length_a   5.54444843
_cell_length_b   5.54444843
_cell_length_c   9.48728244
_cell_angle_alpha   88.79270378
_cell_angle_beta   91.20729622
_cell_angle_gamma   62.74105984
_symmetry_Int_Tables_number   1
_chemical_formula_structural   Li2Si2NiO6
_chemical_formula_sum   'Li4 Si4 Ni2 O12'
_cell_volume   259.04650514
_cell_formula_units_Z   2
loop_
 _symmetry_equiv_pos_site_id
 _symmetry_equiv_pos_as_xyz
  1  'x, y, z'
loop_
 _atom_site_type_symbol
 _atom_site_label
 _atom_site_symmetry_multiplicity
 _atom_site_fract_x
 _atom_site_fract_y
 _atom_site_fract_z
 _atom_site_occupancy
  Li  Li0  1  0.751049  0.612536  0.883170  1
  Li  Li1  1  0.387464  0.248951  0.383170  1
  Li  Li2  1  0.612536  0.751049  0.616830  1
  Li  Li3  1  0.248951  0.387464  0.116830  1
  Si  Si4  1  0.807539  0.144968  0.631159  1
  Si  Si5  1  0.855032  0.192461  0.131159  1
  Si  Si6  1  0.144968  0.807539  0.868841  1
  Si  Si7  1  0.192461  0.855032  0.368841  1
  Ni  Ni8  1  0.262069  0.262069  0.750000  1
  Ni  Ni9  1  0.737931  0.737931  0.250000  1
  O  O10  1  0.870326  0.381315  0.696310  1
  O  O11  1  0.618685  0.129674  0.196310  1
  O  O12  1  0.492479  0.230864  0.586723  1
  O  O13  1  0.769136  0.507521  0.086723  1
  O  O14  1  0.890373  0.890373  0.750000  1
  O  O15  1  0.000000  0.000000  0.500000  1
  O  O16  1  0.109627  0.109627  0.250000  1
  O  O17  1  0.000000  0.000000  0.000000  1
  O  O18  1  0.230864  0.492479  0.913277  1
  O  O19  1  0.507521  0.769136  0.413277  1
  O  O20  1  0.381315  0.870326  0.803690  1
  O  O21  1  0.129674  0.618685  0.303690  1
