# generated using pymatgen
data_Li3FeF6
_symmetry_space_group_name_H-M   'P 1'
_cell_length_a   5.16052738
_cell_length_b   5.23015564
_cell_length_c   9.26144358
_cell_angle_alpha   90.00000000
_cell_angle_beta   123.60076599
_cell_angle_gamma   90.00000000
_symmetry_Int_Tables_number   1
_chemical_formula_structural   Li3FeF6
_chemical_formula_sum   'Li6 Fe2 F12'
_cell_volume   208.20323079
_cell_formula_units_Z   2
loop_
 _symmetry_equiv_pos_site_id
 _symmetry_equiv_pos_as_xyz
  1  'x, y, z'
loop_
 _atom_site_type_symbol
 _atom_site_label
 _atom_site_symmetry_multiplicity
 _atom_site_fract_x
 _atom_site_fract_y
 _atom_site_fract_z
 _atom_site_occupancy
  Li  Li0  1  0.740972  0.532794  0.735665  1
  Li  Li1  1  0.500000  0.000000  0.500000  1
  Li  Li2  1  0.259028  0.467206  0.264335  1
  Li  Li3  1  0.259028  0.032794  0.764335  1
  Li  Li4  1  0.740972  0.967206  0.235665  1
  Li  Li5  1  0.500000  0.500000  0.000000  1
  Fe  Fe6  1  0.000000  0.000000  0.000000  1
  Fe  Fe7  1  0.000000  0.500000  0.500000  1
  F  F8  1  0.103877  0.088765  0.233769  1
  F  F9  1  0.755899  0.314830  0.915979  1
  F  F10  1  0.380360  0.326813  0.556006  1
  F  F11  1  0.619640  0.826813  0.943994  1
  F  F12  1  0.244101  0.814830  0.584021  1
  F  F13  1  0.896123  0.588765  0.266231  1
  F  F14  1  0.103877  0.411235  0.733769  1
  F  F15  1  0.755899  0.185170  0.415979  1
  F  F16  1  0.380360  0.173187  0.056006  1
  F  F17  1  0.619640  0.673187  0.443994  1
  F  F18  1  0.244101  0.685170  0.084021  1
  F  F19  1  0.896123  0.911235  0.766231  1
