# generated using pymatgen
data_Ti3Fe7O15
_symmetry_space_group_name_H-M   'P 1'
_cell_length_a   5.50106030
_cell_length_b   8.92983235
_cell_length_c   11.71415722
_cell_angle_alpha   75.14625535
_cell_angle_beta   81.52458850
_cell_angle_gamma   74.57108972
_symmetry_Int_Tables_number   1
_chemical_formula_structural   Ti3Fe7O15
_chemical_formula_sum   'Ti6 Fe14 O30'
_cell_volume   534.22677676
_cell_formula_units_Z   2
loop_
 _symmetry_equiv_pos_site_id
 _symmetry_equiv_pos_as_xyz
  1  'x, y, z'
loop_
 _atom_site_type_symbol
 _atom_site_label
 _atom_site_symmetry_multiplicity
 _atom_site_fract_x
 _atom_site_fract_y
 _atom_site_fract_z
 _atom_site_occupancy
  Ti  Ti0  1  0.353606  0.972060  0.912327  1
  Ti  Ti1  1  0.749006  0.765897  0.313790  1
  Ti  Ti2  1  0.156778  0.573242  0.709446  1
  Ti  Ti3  1  0.148229  0.070600  0.211127  1
  Ti  Ti4  1  0.544622  0.372144  0.108940  1
  Ti  Ti5  1  0.950873  0.173560  0.518438  1
  Fe  Fe6  1  0.057042  0.829845  0.487019  1
  Fe  Fe7  1  0.558806  0.867041  0.612081  1
  Fe  Fe8  1  0.459991  0.627963  0.885120  1
  Fe  Fe9  1  0.954193  0.674074  0.008913  1
  Fe  Fe10  1  0.847120  0.929045  0.789442  1
  Fe  Fe11  1  0.857822  0.430432  0.283615  1
  Fe  Fe12  1  0.352421  0.470117  0.412649  1
  Fe  Fe13  1  0.249357  0.728154  0.187427  1
  Fe  Fe14  1  0.260749  0.227816  0.684050  1
  Fe  Fe15  1  0.752838  0.272447  0.812151  1
  Fe  Fe16  1  0.645755  0.530799  0.590514  1
  Fe  Fe17  1  0.645102  0.030062  0.088115  1
  Fe  Fe18  1  0.046167  0.327975  0.984954  1
  Fe  Fe19  1  0.451534  0.129956  0.388258  1
  O  O20  1  0.954062  0.937553  0.192724  1
  O  O21  1  0.673048  0.905479  0.420216  1
  O  O22  1  0.532963  0.842678  0.786803  1
  O  O23  1  0.335060  0.735873  0.601620  1
  O  O24  1  0.064903  0.705788  0.826025  1
  O  O25  1  0.933326  0.644821  0.183280  1
  O  O26  1  0.853731  0.986491  0.609308  1
  O  O27  1  0.718605  0.883094  0.970023  1
  O  O28  1  0.750203  0.522944  0.002311  1
  O  O29  1  0.468625  0.864986  0.213816  1
  O  O30  1  0.469977  0.504315  0.220933  1
  O  O31  1  0.319752  0.440703  0.583969  1
  O  O32  1  0.260718  0.783454  0.009871  1
  O  O33  1  0.114351  0.683019  0.364710  1
  O  O34  1  0.147800  0.326530  0.396678  1
  O  O35  1  0.867509  0.667420  0.623244  1
  O  O36  1  0.871343  0.295920  0.627180  1
  O  O37  1  0.736628  0.236429  0.987694  1
  O  O38  1  0.646219  0.589162  0.403250  1
  O  O39  1  0.508989  0.476185  0.775370  1
  O  O40  1  0.547742  0.126841  0.799437  1
  O  O41  1  0.264536  0.457778  0.022017  1
  O  O42  1  0.276521  0.107308  0.025103  1
  O  O43  1  0.137956  0.039693  0.374866  1
  O  O44  1  0.052322  0.384551  0.810478  1
  O  O45  1  0.930126  0.270183  0.170544  1
  O  O46  1  0.670190  0.261247  0.417951  1
  O  O47  1  0.462808  0.180007  0.208337  1
  O  O48  1  0.317192  0.076896  0.563343  1
  O  O49  1  0.070782  0.059423  0.820522  1
