# generated using pymatgen
data_K5H(CN2)2
_symmetry_space_group_name_H-M   'P 1'
_cell_length_a   9.13228421
_cell_length_b   9.13228421
_cell_length_c   11.10360252
_cell_angle_alpha   90.00000000
_cell_angle_beta   90.00000000
_cell_angle_gamma   90.00000000
_symmetry_Int_Tables_number   1
_chemical_formula_structural   K5H(CN2)2
_chemical_formula_sum   'K20 H4 C8 N16'
_cell_volume   926.02507048
_cell_formula_units_Z   4
loop_
 _symmetry_equiv_pos_site_id
 _symmetry_equiv_pos_as_xyz
  1  'x, y, z'
loop_
 _atom_site_type_symbol
 _atom_site_label
 _atom_site_symmetry_multiplicity
 _atom_site_fract_x
 _atom_site_fract_y
 _atom_site_fract_z
 _atom_site_occupancy
  K  K0  1  0.294714  0.396066  0.101522  1
  K  K1  1  0.294714  0.603934  0.601522  1
  K  K2  1  0.396066  0.294714  0.398478  1
  K  K3  1  0.396066  0.705286  0.898478  1
  K  K4  1  0.500000  0.000000  0.152344  1
  K  K5  1  0.500000  0.000000  0.652344  1
  K  K6  1  0.603934  0.294714  0.898478  1
  K  K7  1  0.603934  0.705286  0.398478  1
  K  K8  1  0.705286  0.396066  0.601522  1
  K  K9  1  0.705286  0.603934  0.101522  1
  K  K10  1  0.794714  0.896066  0.898478  1
  K  K11  1  0.794714  0.103934  0.398478  1
  K  K12  1  0.896066  0.794714  0.601522  1
  K  K13  1  0.896066  0.205286  0.101522  1
  K  K14  1  0.000000  0.500000  0.347656  1
  K  K15  1  0.000000  0.500000  0.847656  1
  K  K16  1  0.103934  0.794714  0.101522  1
  K  K17  1  0.103934  0.205286  0.601522  1
  K  K18  1  0.205286  0.103934  0.898478  1
  K  K19  1  0.205286  0.896066  0.398478  1
  H  H20  1  0.500000  0.000000  0.399582  1
  H  H21  1  0.500000  0.000000  0.899582  1
  H  H22  1  0.000000  0.500000  0.100418  1
  H  H23  1  0.000000  0.500000  0.600418  1
  C  C24  1  0.352931  0.352931  0.750000  1
  C  C25  1  0.352931  0.647069  0.250000  1
  C  C26  1  0.647069  0.352931  0.250000  1
  C  C27  1  0.647069  0.647069  0.750000  1
  C  C28  1  0.852931  0.852931  0.250000  1
  C  C29  1  0.852931  0.147069  0.750000  1
  C  C30  1  0.147069  0.852931  0.750000  1
  C  C31  1  0.147069  0.147069  0.250000  1
  N  N32  1  0.305670  0.599132  0.347529  1
  N  N33  1  0.305670  0.400868  0.847529  1
  N  N34  1  0.400868  0.694330  0.152471  1
  N  N35  1  0.400868  0.305670  0.652471  1
  N  N36  1  0.599132  0.305670  0.152471  1
  N  N37  1  0.599132  0.694330  0.652471  1
  N  N38  1  0.694330  0.400868  0.347529  1
  N  N39  1  0.694330  0.599132  0.847529  1
  N  N40  1  0.805670  0.900868  0.152471  1
  N  N41  1  0.805670  0.099132  0.652471  1
  N  N42  1  0.900868  0.805670  0.347529  1
  N  N43  1  0.900868  0.194330  0.847529  1
  N  N44  1  0.099132  0.194330  0.347529  1
  N  N45  1  0.099132  0.805670  0.847529  1
  N  N46  1  0.194330  0.900868  0.652471  1
  N  N47  1  0.194330  0.099132  0.152471  1
