# generated using pymatgen
data_NaDyO2
_symmetry_space_group_name_H-M   'P 1'
_cell_length_a   6.13573882
_cell_length_b   6.13573882
_cell_length_c   6.13573882
_cell_angle_alpha   135.67572795
_cell_angle_beta   135.67572795
_cell_angle_gamma   64.48206523
_symmetry_Int_Tables_number   1
_chemical_formula_structural   NaDyO2
_chemical_formula_sum   'Na2 Dy2 O4'
_cell_volume   111.21000591
_cell_formula_units_Z   2
loop_
 _symmetry_equiv_pos_site_id
 _symmetry_equiv_pos_as_xyz
  1  'x, y, z'
loop_
 _atom_site_type_symbol
 _atom_site_label
 _atom_site_symmetry_multiplicity
 _atom_site_fract_x
 _atom_site_fract_y
 _atom_site_fract_z
 _atom_site_occupancy
  Na  Na0  1  0.750000  0.250000  0.500000  1
  Na  Na1  1  1.000000  1.000000  0.000000  1
  Dy  Dy2  1  0.250000  0.750000  0.500000  1
  Dy  Dy3  1  0.500000  0.500000  0.000000  1
  O  O4  1  0.721476  0.721476  0.000000  1
  O  O5  1  0.028524  0.528524  0.500000  1
  O  O6  1  0.471476  0.971476  0.500000  1
  O  O7  1  0.278524  0.278524  0.000000  1
