# generated using pymatgen
data_TiV4CuO12
_symmetry_space_group_name_H-M   'P 1'
_cell_length_a   6.79262728
_cell_length_b   6.79262728
_cell_length_c   5.81758578
_cell_angle_alpha   75.04498158
_cell_angle_beta   104.95501842
_cell_angle_gamma   95.50595880
_symmetry_Int_Tables_number   1
_chemical_formula_structural   TiV4CuO12
_chemical_formula_sum   'Ti1 V4 Cu1 O12'
_cell_volume   250.42258165
_cell_formula_units_Z   1
loop_
 _symmetry_equiv_pos_site_id
 _symmetry_equiv_pos_as_xyz
  1  'x, y, z'
loop_
 _atom_site_type_symbol
 _atom_site_label
 _atom_site_symmetry_multiplicity
 _atom_site_fract_x
 _atom_site_fract_y
 _atom_site_fract_z
 _atom_site_occupancy
  Ti  Ti0  1  0.091475  0.091475  0.500000  1
  V  V1  1  0.388117  0.798507  0.006567  1
  V  V2  1  0.205771  0.609862  0.516765  1
  V  V3  1  0.798507  0.388117  0.993433  1
  V  V4  1  0.609862  0.205771  0.483235  1
  Cu  Cu5  1  0.905183  0.905183  0.000000  1
  O  O6  1  0.190389  0.971946  0.863211  1
  O  O7  1  0.618995  0.915283  0.039970  1
  O  O8  1  0.036143  0.809117  0.409869  1
  O  O9  1  0.365713  0.630231  0.805103  1
  O  O10  1  0.915283  0.618995  0.960030  1
  O  O11  1  0.359120  0.652025  0.302365  1
  O  O12  1  0.630231  0.365713  0.194897  1
  O  O13  1  0.090444  0.361678  0.532848  1
  O  O14  1  0.652025  0.359120  0.697635  1
  O  O15  1  0.971946  0.190389  0.136789  1
  O  O16  1  0.361678  0.090444  0.467152  1
  O  O17  1  0.809117  0.036143  0.590131  1
