# generated using pymatgen
data_Li3Fe2F9
_symmetry_space_group_name_H-M   'P 1'
_cell_length_a   7.81677555
_cell_length_b   9.52244783
_cell_length_c   10.68220760
_cell_angle_alpha   90.00000000
_cell_angle_beta   90.00000000
_cell_angle_gamma   90.00000000
_symmetry_Int_Tables_number   1
_chemical_formula_structural   Li3Fe2F9
_chemical_formula_sum   'Li12 Fe8 F36'
_cell_volume   795.12838550
_cell_formula_units_Z   4
loop_
 _symmetry_equiv_pos_site_id
 _symmetry_equiv_pos_as_xyz
  1  'x, y, z'
loop_
 _atom_site_type_symbol
 _atom_site_label
 _atom_site_symmetry_multiplicity
 _atom_site_fract_x
 _atom_site_fract_y
 _atom_site_fract_z
 _atom_site_occupancy
  Li  Li0  1  0.250000  0.983957  0.841594  1
  Li  Li1  1  0.250000  0.967137  0.530676  1
  Li  Li2  1  0.750000  0.886660  0.848639  1
  Li  Li3  1  0.250000  0.613340  0.348639  1
  Li  Li4  1  0.750000  0.532863  0.030676  1
  Li  Li5  1  0.750000  0.516043  0.341594  1
  Li  Li6  1  0.250000  0.483957  0.658406  1
  Li  Li7  1  0.250000  0.467137  0.969324  1
  Li  Li8  1  0.750000  0.386660  0.651361  1
  Li  Li9  1  0.250000  0.113340  0.151361  1
  Li  Li10  1  0.750000  0.032863  0.469324  1
  Li  Li11  1  0.750000  0.016043  0.158406  1
  Fe  Fe12  1  0.060457  0.773243  0.068110  1
  Fe  Fe13  1  0.439543  0.773243  0.068110  1
  Fe  Fe14  1  0.939543  0.726757  0.568110  1
  Fe  Fe15  1  0.560457  0.726757  0.568110  1
  Fe  Fe16  1  0.439543  0.273243  0.431890  1
  Fe  Fe17  1  0.060457  0.273243  0.431890  1
  Fe  Fe18  1  0.939543  0.226757  0.931890  1
  Fe  Fe19  1  0.560457  0.226757  0.931890  1
  F  F20  1  0.250000  0.923899  0.024432  1
  F  F21  1  0.947471  0.905216  0.168577  1
  F  F22  1  0.552529  0.905216  0.168577  1
  F  F23  1  0.439607  0.892594  0.608938  1
  F  F24  1  0.060393  0.892594  0.608938  1
  F  F25  1  0.750000  0.837513  0.473038  1
  F  F26  1  0.947678  0.806944  0.915939  1
  F  F27  1  0.552322  0.806944  0.915939  1
  F  F28  1  0.750000  0.767984  0.696197  1
  F  F29  1  0.250000  0.732016  0.196197  1
  F  F30  1  0.052322  0.693056  0.415939  1
  F  F31  1  0.447678  0.693056  0.415939  1
  F  F32  1  0.250000  0.662487  0.973038  1
  F  F33  1  0.939607  0.607406  0.108938  1
  F  F34  1  0.560393  0.607406  0.108938  1
  F  F35  1  0.447471  0.594784  0.668577  1
  F  F36  1  0.052529  0.594784  0.668577  1
  F  F37  1  0.750000  0.576101  0.524432  1
  F  F38  1  0.250000  0.423899  0.475568  1
  F  F39  1  0.947471  0.405216  0.331423  1
  F  F40  1  0.552529  0.405216  0.331423  1
  F  F41  1  0.439607  0.392594  0.891062  1
  F  F42  1  0.060393  0.392594  0.891062  1
  F  F43  1  0.750000  0.337513  0.026962  1
  F  F44  1  0.947678  0.306944  0.584061  1
  F  F45  1  0.552322  0.306944  0.584061  1
  F  F46  1  0.750000  0.267984  0.803803  1
  F  F47  1  0.250000  0.232016  0.303803  1
  F  F48  1  0.447678  0.193056  0.084061  1
  F  F49  1  0.052322  0.193056  0.084061  1
  F  F50  1  0.250000  0.162487  0.526962  1
  F  F51  1  0.939607  0.107406  0.391062  1
  F  F52  1  0.560393  0.107406  0.391062  1
  F  F53  1  0.447471  0.094784  0.831423  1
  F  F54  1  0.052529  0.094784  0.831423  1
  F  F55  1  0.750000  0.076101  0.975568  1
