# generated using pymatgen
data_Li4V2Si(PO6)2
_symmetry_space_group_name_H-M   'P 1'
_cell_length_a   8.49436450
_cell_length_b   8.49436450
_cell_length_c   8.51281855
_cell_angle_alpha   63.92268804
_cell_angle_beta   116.07731196
_cell_angle_gamma   116.02429512
_symmetry_Int_Tables_number   1
_chemical_formula_structural   Li4V2Si(PO6)2
_chemical_formula_sum   'Li8 V4 Si2 P4 O24'
_cell_volume   472.04036780
_cell_formula_units_Z   2
loop_
 _symmetry_equiv_pos_site_id
 _symmetry_equiv_pos_as_xyz
  1  'x, y, z'
loop_
 _atom_site_type_symbol
 _atom_site_label
 _atom_site_symmetry_multiplicity
 _atom_site_fract_x
 _atom_site_fract_y
 _atom_site_fract_z
 _atom_site_occupancy
  Li  Li0  1  0.832176  0.264673  0.338741  1
  Li  Li1  1  0.735327  0.167824  0.838741  1
  Li  Li2  1  0.512640  0.016039  0.494178  1
  Li  Li3  1  0.668307  0.647411  0.744410  1
  Li  Li4  1  0.352589  0.331693  0.244410  1
  Li  Li5  1  0.257523  0.844119  0.161186  1
  Li  Li6  1  0.983961  0.487360  0.994178  1
  Li  Li7  1  0.155881  0.742477  0.661186  1
  V  V8  1  0.856659  0.639254  0.142670  1
  V  V9  1  0.360746  0.143341  0.642670  1
  V  V10  1  0.645077  0.858991  0.361628  1
  V  V11  1  0.141009  0.354923  0.861628  1
  Si  Si12  1  0.547561  0.250326  0.044104  1
  Si  Si13  1  0.749674  0.452439  0.544104  1
  P  P14  1  0.953916  0.954602  0.751826  1
  P  P15  1  0.251701  0.550198  0.453953  1
  P  P16  1  0.045398  0.046084  0.251826  1
  P  P17  1  0.449802  0.748299  0.953953  1
  O  O18  1  0.986411  0.112715  0.815127  1
  O  O19  1  0.887285  0.013589  0.315127  1
  O  O20  1  0.572887  0.091948  0.248957  1
  O  O21  1  0.748625  0.414061  0.058228  1
  O  O22  1  0.374083  0.305463  0.017335  1
  O  O23  1  0.517106  0.187020  0.874958  1
  O  O24  1  0.937155  0.764378  0.906478  1
  O  O25  1  0.908052  0.427113  0.748957  1
  O  O26  1  0.585939  0.251375  0.558228  1
  O  O27  1  0.694537  0.625917  0.517335  1
  O  O28  1  0.812980  0.482894  0.374958  1
  O  O29  1  0.761355  0.933784  0.602178  1
  O  O30  1  0.235622  0.062845  0.406478  1
  O  O31  1  0.187903  0.520363  0.611136  1
  O  O32  1  0.312845  0.390336  0.486395  1
  O  O33  1  0.406900  0.740923  0.437058  1
  O  O34  1  0.103419  0.574980  0.260000  1
  O  O35  1  0.066216  0.238645  0.102178  1
  O  O36  1  0.479637  0.812097  0.111136  1
  O  O37  1  0.609664  0.687155  0.986395  1
  O  O38  1  0.259077  0.593100  0.937058  1
  O  O39  1  0.425020  0.896581  0.760000  1
  O  O40  1  0.112165  0.984831  0.689452  1
  O  O41  1  0.015169  0.887835  0.189452  1
