# generated using pymatgen
data_Fe10O11F9
_symmetry_space_group_name_H-M   'P 1'
_cell_length_a   4.75896262
_cell_length_b   4.75896262
_cell_length_c   15.30827424
_cell_angle_alpha   89.87125475
_cell_angle_beta   90.12874525
_cell_angle_gamma   86.08749749
_symmetry_Int_Tables_number   1
_chemical_formula_structural   Fe10O11F9
_chemical_formula_sum   'Fe10 O11 F9'
_cell_volume   345.88770510
_cell_formula_units_Z   1
loop_
 _symmetry_equiv_pos_site_id
 _symmetry_equiv_pos_as_xyz
  1  'x, y, z'
loop_
 _atom_site_type_symbol
 _atom_site_label
 _atom_site_symmetry_multiplicity
 _atom_site_fract_x
 _atom_site_fract_y
 _atom_site_fract_z
 _atom_site_occupancy
  Fe  Fe0  1  0.014274  0.003734  0.205549  1
  Fe  Fe1  1  0.000038  0.000038  0.000000  1
  Fe  Fe2  1  0.003734  0.014274  0.794451  1
  Fe  Fe3  1  0.051441  0.994377  0.598861  1
  Fe  Fe4  1  0.994377  0.051441  0.401139  1
  Fe  Fe5  1  0.504852  0.503185  0.098684  1
  Fe  Fe6  1  0.461903  0.483409  0.708015  1
  Fe  Fe7  1  0.503185  0.504852  0.901316  1
  Fe  Fe8  1  0.475744  0.475744  0.500000  1
  Fe  Fe9  1  0.483409  0.461903  0.291985  1
  O  O10  1  0.194877  0.186787  0.701123  1
  O  O11  1  0.195313  0.195313  0.500000  1
  O  O12  1  0.186787  0.194877  0.298877  1
  O  O13  1  0.700553  0.297498  0.192346  1
  O  O14  1  0.698014  0.307134  0.999890  1
  O  O15  1  0.693224  0.305785  0.805715  1
  O  O16  1  0.677684  0.321584  0.398631  1
  O  O17  1  0.305785  0.693224  0.194285  1
  O  O18  1  0.307134  0.698014  0.000110  1
  O  O19  1  0.297498  0.700553  0.807654  1
  O  O20  1  0.321584  0.677684  0.601369  1
  F  F21  1  0.196102  0.189882  0.097426  1
  F  F22  1  0.189882  0.196102  0.902574  1
  F  F23  1  0.705718  0.288322  0.602172  1
  F  F24  1  0.288322  0.705718  0.397828  1
  F  F25  1  0.813297  0.807914  0.098381  1
  F  F26  1  0.811050  0.803744  0.699252  1
  F  F27  1  0.807914  0.813297  0.901619  1
  F  F28  1  0.803744  0.811050  0.300748  1
  F  F29  1  0.812561  0.812561  0.500000  1
