# generated using pymatgen
data_AlVO3
_symmetry_space_group_name_H-M   'P 1'
_cell_length_a   13.21367962
_cell_length_b   13.21367962
_cell_length_c   5.83720962
_cell_angle_alpha   77.30273808
_cell_angle_beta   102.69726192
_cell_angle_gamma   154.28942043
_symmetry_Int_Tables_number   1
_chemical_formula_structural   AlVO3
_chemical_formula_sum   'Al8 V8 O24'
_cell_volume   430.76493967
_cell_formula_units_Z   8
loop_
 _symmetry_equiv_pos_site_id
 _symmetry_equiv_pos_as_xyz
  1  'x, y, z'
loop_
 _atom_site_type_symbol
 _atom_site_label
 _atom_site_symmetry_multiplicity
 _atom_site_fract_x
 _atom_site_fract_y
 _atom_site_fract_z
 _atom_site_occupancy
  Al  Al0  1  0.003775  0.996225  0.008063  1
  Al  Al1  1  0.539642  0.460358  0.300811  1
  Al  Al2  1  0.539490  0.460510  0.782161  1
  Al  Al3  1  0.661400  0.338600  0.658265  1
  Al  Al4  1  0.207789  0.792211  0.460560  1
  Al  Al5  1  0.753911  0.246089  0.255997  1
  Al  Al6  1  0.877783  0.122217  0.134592  1
  Al  Al7  1  0.415023  0.584977  0.925377  1
  V  V8  1  0.881300  0.630605  0.126724  1
  V  V9  1  0.369395  0.118700  0.126724  1
  V  V10  1  0.207461  0.792539  0.958877  1
  V  V11  1  0.534322  0.952905  0.794162  1
  V  V12  1  0.047095  0.465678  0.794162  1
  V  V13  1  0.877773  0.122227  0.625375  1
  V  V14  1  0.709175  0.790701  0.461296  1
  V  V15  1  0.209299  0.290825  0.461296  1
  O  O16  1  0.741831  0.670761  0.538048  1
  O  O17  1  0.329239  0.258169  0.538048  1
  O  O18  1  0.771878  0.688058  0.044795  1
  O  O19  1  0.311942  0.228122  0.044795  1
  O  O20  1  0.619144  0.380856  0.872587  1
  O  O21  1  0.618793  0.381207  0.363166  1
  O  O22  1  0.129783  0.870217  0.905813  1
  O  O23  1  0.135959  0.864041  0.356895  1
  O  O24  1  0.458616  0.036427  0.218450  1
  O  O25  1  0.963573  0.541384  0.218450  1
  O  O26  1  0.958107  0.548998  0.699047  1
  O  O27  1  0.451002  0.041893  0.699047  1
  O  O28  1  0.284819  0.715181  0.011829  1
  O  O29  1  0.279947  0.720053  0.561820  1
  O  O30  1  0.794702  0.205298  0.552975  1
  O  O31  1  0.796941  0.203059  0.045303  1
  O  O32  1  0.114119  0.364334  0.892172  1
  O  O33  1  0.635666  0.885881  0.892172  1
  O  O34  1  0.668442  0.904129  0.371038  1
  O  O35  1  0.095871  0.331558  0.371038  1
  O  O36  1  0.957958  0.042042  0.200438  1
  O  O37  1  0.960419  0.039581  0.714349  1
  O  O38  1  0.460829  0.539171  0.210276  1
  O  O39  1  0.459668  0.540332  0.723406  1
