# generated using pymatgen
data_Li11Ti24O48
_symmetry_space_group_name_H-M   'P 1'
_cell_length_a   10.36542989
_cell_length_b   10.36542989
_cell_length_c   10.36539178
_cell_angle_alpha   80.40941240
_cell_angle_beta   99.59058760
_cell_angle_gamma   60.00062584
_symmetry_Int_Tables_number   1
_chemical_formula_structural   Li11Ti24O48
_chemical_formula_sum   'Li11 Ti24 O48'
_cell_volume   909.36343463
_cell_formula_units_Z   1
loop_
 _symmetry_equiv_pos_site_id
 _symmetry_equiv_pos_as_xyz
  1  'x, y, z'
loop_
 _atom_site_type_symbol
 _atom_site_label
 _atom_site_symmetry_multiplicity
 _atom_site_fract_x
 _atom_site_fract_y
 _atom_site_fract_z
 _atom_site_occupancy
  Li  Li0  1  0.208349  0.458357  0.625053  1
  Li  Li1  1  0.166696  0.166590  0.500064  1
  Li  Li2  1  0.541643  0.791651  0.625053  1
  Li  Li3  1  0.041562  0.291077  0.124684  1
  Li  Li4  1  0.499958  0.500042  0.500062  1
  Li  Li5  1  0.833410  0.833304  0.500064  1
  Li  Li6  1  0.333307  0.333359  0.999933  1
  Li  Li7  1  0.875303  0.124697  0.625784  1
  Li  Li8  1  0.374202  0.625798  0.124680  1
  Li  Li9  1  0.708923  0.958438  0.124684  1
  Li  Li10  1  0.666641  0.666693  0.999933  1
  Ti  Ti11  1  0.103035  0.730737  0.813913  1
  Ti  Ti12  1  0.104241  0.227072  0.813904  1
  Ti  Ti13  1  0.269263  0.896965  0.813913  1
  Ti  Ti14  1  0.606641  0.228304  0.813899  1
  Ti  Ti15  1  0.437400  0.062632  0.812050  1
  Ti  Ti16  1  0.103573  0.731369  0.310831  1
  Ti  Ti17  1  0.437263  0.562737  0.812047  1
  Ti  Ti18  1  0.772928  0.895759  0.813904  1
  Ti  Ti19  1  0.187970  0.812030  0.562800  1
  Ti  Ti20  1  0.020429  0.648225  0.061331  1
  Ti  Ti21  1  0.520619  0.145653  0.563021  1
  Ti  Ti22  1  0.270193  0.396050  0.312505  1
  Ti  Ti23  1  0.771696  0.393359  0.813899  1
  Ti  Ti24  1  0.268631  0.896427  0.310831  1
  Ti  Ti25  1  0.437970  0.061835  0.312510  1
  Ti  Ti26  1  0.604377  0.229575  0.312547  1
  Ti  Ti27  1  0.937368  0.562600  0.812050  1
  Ti  Ti28  1  0.603950  0.729807  0.312505  1
  Ti  Ti29  1  0.351775  0.979571  0.061331  1
  Ti  Ti30  1  0.854347  0.479381  0.563021  1
  Ti  Ti31  1  0.770425  0.395623  0.312547  1
  Ti  Ti32  1  0.938165  0.562030  0.312510  1
  Ti  Ti33  1  0.938631  0.061369  0.310853  1
  Ti  Ti34  1  0.689132  0.310868  0.061314  1
  O  O35  1  0.127564  0.538728  0.931383  1
  O  O36  1  0.231311  0.618621  0.693653  1
  O  O37  1  0.047955  0.435604  0.693625  1
  O  O38  1  0.163911  0.023423  0.929725  1
  O  O39  1  0.310822  0.173367  0.931316  1
  O  O40  1  0.492967  0.356543  0.931326  1
  O  O41  1  0.461272  0.872436  0.931383  1
  O  O42  1  0.235391  0.098241  0.705518  1
  O  O43  1  0.306703  0.693297  0.918817  1
  O  O44  1  0.414349  0.252184  0.693569  1
  O  O45  1  0.081165  0.918835  0.693276  1
  O  O46  1  0.139688  0.526851  0.418955  1
  O  O47  1  0.639235  0.027014  0.918788  1
  O  O48  1  0.381379  0.768689  0.693653  1
  O  O49  1  0.564396  0.952045  0.693625  1
  O  O50  1  0.064551  0.451788  0.193806  1
  O  O51  1  0.214995  0.601608  0.193951  1
  O  O52  1  0.714380  0.102246  0.693286  1
  O  O53  1  0.143937  0.006605  0.431785  1
  O  O54  1  0.643457  0.507033  0.931326  1
  O  O55  1  0.826633  0.689178  0.931316  1
  O  O56  1  0.477086  0.339762  0.431344  1
  O  O57  1  0.326865  0.189482  0.431278  1
  O  O58  1  0.976577  0.836089  0.929725  1
  O  O59  1  0.789229  0.210771  0.929772  1
  O  O60  1  0.294452  0.705548  0.431743  1
  O  O61  1  0.627332  0.039370  0.431398  1
  O  O62  1  0.568249  0.431751  0.705526  1
  O  O63  1  0.901759  0.764609  0.705518  1
  O  O64  1  0.070220  0.929780  0.210789  1
  O  O65  1  0.401964  0.264672  0.206082  1
  O  O66  1  0.473149  0.860312  0.418955  1
  O  O67  1  0.972986  0.360765  0.918788  1
  O  O68  1  0.248048  0.085706  0.193897  1
  O  O69  1  0.747816  0.585651  0.693569  1
  O  O70  1  0.398392  0.785005  0.193951  1
  O  O71  1  0.548212  0.935449  0.193806  1
  O  O72  1  0.897754  0.285620  0.693286  1
  O  O73  1  0.730883  0.118748  0.193948  1
  O  O74  1  0.660238  0.522914  0.431344  1
  O  O75  1  0.810518  0.673135  0.431278  1
  O  O76  1  0.993395  0.856063  0.431785  1
  O  O77  1  0.735328  0.598036  0.206082  1
  O  O78  1  0.960630  0.372668  0.431398  1
  O  O79  1  0.806271  0.193729  0.419023  1
  O  O80  1  0.581016  0.418984  0.193757  1
  O  O81  1  0.914294  0.751952  0.193897  1
  O  O82  1  0.881252  0.269117  0.193948  1
