# generated using pymatgen
data_KCo2As2HO8
_symmetry_space_group_name_H-M   'P 1'
_cell_length_a   8.89893677
_cell_length_b   5.08287789
_cell_length_c   16.07942714
_cell_angle_alpha   90.00000000
_cell_angle_beta   96.73462634
_cell_angle_gamma   90.00000000
_symmetry_Int_Tables_number   1
_chemical_formula_structural   KCo2As2HO8
_chemical_formula_sum   'K4 Co8 As8 H4 O32'
_cell_volume   722.28955301
_cell_formula_units_Z   4
loop_
 _symmetry_equiv_pos_site_id
 _symmetry_equiv_pos_as_xyz
  1  'x, y, z'
loop_
 _atom_site_type_symbol
 _atom_site_label
 _atom_site_symmetry_multiplicity
 _atom_site_fract_x
 _atom_site_fract_y
 _atom_site_fract_z
 _atom_site_occupancy
  K  K0  1  0.000000  0.131055  0.250000  1
  K  K1  1  0.000000  0.868945  0.750000  1
  K  K2  1  0.500000  0.161213  0.750000  1
  K  K3  1  0.500000  0.838787  0.250000  1
  Co  Co4  1  0.914532  0.238530  0.994504  1
  Co  Co5  1  0.085468  0.238530  0.505496  1
  Co  Co6  1  0.085468  0.761470  0.005496  1
  Co  Co7  1  0.914532  0.761470  0.494504  1
  Co  Co8  1  0.416862  0.241282  0.500421  1
  Co  Co9  1  0.583138  0.241282  0.999579  1
  Co  Co10  1  0.583138  0.758718  0.499579  1
  Co  Co11  1  0.416862  0.758718  0.000421  1
  As  As12  1  0.772407  0.274924  0.603951  1
  As  As13  1  0.227593  0.274924  0.896049  1
  As  As14  1  0.227593  0.725076  0.396049  1
  As  As15  1  0.772407  0.725076  0.103951  1
  As  As16  1  0.725965  0.269899  0.389190  1
  As  As17  1  0.274035  0.269899  0.110810  1
  As  As18  1  0.274035  0.730101  0.610810  1
  As  As19  1  0.725965  0.730101  0.889190  1
  H  H20  1  0.762414  0.528260  0.240487  1
  H  H21  1  0.237586  0.528260  0.259513  1
  H  H22  1  0.237586  0.471740  0.759513  1
  H  H23  1  0.762414  0.471740  0.740487  1
  O  O24  1  0.801593  0.294796  0.713341  1
  O  O25  1  0.198407  0.294796  0.786659  1
  O  O26  1  0.198407  0.705204  0.286659  1
  O  O27  1  0.801593  0.705204  0.213341  1
  O  O28  1  0.925639  0.092229  0.578986  1
  O  O29  1  0.074361  0.092229  0.921014  1
  O  O30  1  0.074361  0.907771  0.421014  1
  O  O31  1  0.925639  0.907771  0.078986  1
  O  O32  1  0.605734  0.100184  0.577983  1
  O  O33  1  0.394266  0.100184  0.922017  1
  O  O34  1  0.394266  0.899816  0.422017  1
  O  O35  1  0.605734  0.899816  0.077983  1
  O  O36  1  0.766432  0.598683  0.571564  1
  O  O37  1  0.233568  0.598683  0.928436  1
  O  O38  1  0.233568  0.401317  0.428436  1
  O  O39  1  0.766432  0.401317  0.071564  1
  O  O40  1  0.707236  0.297836  0.282847  1
  O  O41  1  0.292764  0.297836  0.217153  1
  O  O42  1  0.292764  0.702164  0.717153  1
  O  O43  1  0.707236  0.702164  0.782847  1
  O  O44  1  0.728934  0.938891  0.418791  1
  O  O45  1  0.271066  0.938891  0.081209  1
  O  O46  1  0.271066  0.061109  0.581209  1
  O  O47  1  0.728934  0.061109  0.918791  1
  O  O48  1  0.898563  0.411102  0.428460  1
  O  O49  1  0.101437  0.411102  0.071540  1
  O  O50  1  0.101437  0.588898  0.571540  1
  O  O51  1  0.898563  0.588898  0.928460  1
  O  O52  1  0.570238  0.418863  0.425993  1
  O  O53  1  0.429762  0.418863  0.074007  1
  O  O54  1  0.429762  0.581137  0.574007  1
  O  O55  1  0.570238  0.581137  0.925993  1
