# generated using pymatgen
data_Li2CoSiO4
_symmetry_space_group_name_H-M   'P 1'
_cell_length_a   6.34091172
_cell_length_b   5.03242961
_cell_length_c   10.81251600
_cell_angle_alpha   90.00000000
_cell_angle_beta   90.75381867
_cell_angle_gamma   90.00000000
_symmetry_Int_Tables_number   1
_chemical_formula_structural   Li2CoSiO4
_chemical_formula_sum   'Li8 Co4 Si4 O16'
_cell_volume   344.99959897
_cell_formula_units_Z   4
loop_
 _symmetry_equiv_pos_site_id
 _symmetry_equiv_pos_as_xyz
  1  'x, y, z'
loop_
 _atom_site_type_symbol
 _atom_site_label
 _atom_site_symmetry_multiplicity
 _atom_site_fract_x
 _atom_site_fract_y
 _atom_site_fract_z
 _atom_site_occupancy
  Li  Li0  1  0.000082  0.314131  0.913498  1
  Li  Li1  1  0.000082  0.185869  0.413498  1
  Li  Li2  1  0.768242  0.812960  0.830533  1
  Li  Li3  1  0.768242  0.687040  0.330533  1
  Li  Li4  1  0.231758  0.312960  0.669467  1
  Li  Li5  1  0.231758  0.187040  0.169467  1
  Li  Li6  1  0.999918  0.814131  0.586502  1
  Li  Li7  1  0.999918  0.685869  0.086502  1
  Co  Co8  1  0.493339  0.803338  0.595173  1
  Co  Co9  1  0.493339  0.696662  0.095173  1
  Co  Co10  1  0.506661  0.303338  0.904827  1
  Co  Co11  1  0.506661  0.196662  0.404827  1
  Si  Si12  1  0.758354  0.315752  0.661680  1
  Si  Si13  1  0.758354  0.184248  0.161680  1
  Si  Si14  1  0.241646  0.815752  0.838320  1
  Si  Si15  1  0.241646  0.684248  0.338320  1
  O  O16  1  0.965926  0.206619  0.592248  1
  O  O17  1  0.965926  0.293381  0.092248  1
  O  O18  1  0.749989  0.645268  0.662055  1
  O  O19  1  0.749989  0.854732  0.162055  1
  O  O20  1  0.751422  0.206842  0.806836  1
  O  O21  1  0.751422  0.293158  0.306836  1
  O  O22  1  0.533551  0.210702  0.591119  1
  O  O23  1  0.533551  0.289298  0.091119  1
  O  O24  1  0.466449  0.710702  0.908881  1
  O  O25  1  0.466449  0.789298  0.408881  1
  O  O26  1  0.248578  0.706842  0.693164  1
  O  O27  1  0.248578  0.793158  0.193164  1
  O  O28  1  0.250011  0.145268  0.837945  1
  O  O29  1  0.250011  0.354732  0.337945  1
  O  O30  1  0.034074  0.706619  0.907752  1
  O  O31  1  0.034074  0.793381  0.407752  1
