# generated using pymatgen
data_Na4(NiO2)5
_symmetry_space_group_name_H-M   'P 1'
_cell_length_a   5.15731643
_cell_length_b   6.34548902
_cell_length_c   6.92602617
_cell_angle_alpha   110.13288409
_cell_angle_beta   96.28482003
_cell_angle_gamma   105.92946521
_symmetry_Int_Tables_number   1
_chemical_formula_structural   Na4(NiO2)5
_chemical_formula_sum   'Na4 Ni5 O10'
_cell_volume   199.34861619
_cell_formula_units_Z   1
loop_
 _symmetry_equiv_pos_site_id
 _symmetry_equiv_pos_as_xyz
  1  'x, y, z'
loop_
 _atom_site_type_symbol
 _atom_site_label
 _atom_site_symmetry_multiplicity
 _atom_site_fract_x
 _atom_site_fract_y
 _atom_site_fract_z
 _atom_site_occupancy
  Na  Na0  1  0.812921  0.621282  0.623344  1
  Na  Na1  1  0.599538  0.191771  0.188943  1
  Na  Na2  1  0.400462  0.808229  0.811057  1
  Na  Na3  1  0.187079  0.378718  0.376656  1
  Ni  Ni4  1  0.796207  0.098039  0.598069  1
  Ni  Ni5  1  0.398832  0.301348  0.795580  1
  Ni  Ni6  1  0.601168  0.698652  0.204420  1
  Ni  Ni7  1  0.203793  0.901961  0.401931  1
  Ni  Ni8  1  0.000000  0.500000  0.000000  1
  O  O9  1  0.869890  0.008705  0.325658  1
  O  O10  1  0.667486  0.613385  0.926738  1
  O  O11  1  0.895396  0.592158  0.286979  1
  O  O12  1  0.685397  0.181961  0.858966  1
  O  O13  1  0.482067  0.224074  0.524928  1
  O  O14  1  0.517933  0.775926  0.475072  1
  O  O15  1  0.314603  0.818039  0.141034  1
  O  O16  1  0.104604  0.407842  0.713021  1
  O  O17  1  0.332514  0.386615  0.073262  1
  O  O18  1  0.130110  0.991295  0.674342  1
