# generated using pymatgen
data_Li2VF4
_symmetry_space_group_name_H-M   'P 1'
_cell_length_a   5.38217688
_cell_length_b   6.19203717
_cell_length_c   11.04075226
_cell_angle_alpha   90.00000000
_cell_angle_beta   114.19677662
_cell_angle_gamma   90.00000000
_symmetry_Int_Tables_number   1
_chemical_formula_structural   Li2VF4
_chemical_formula_sum   'Li8 V4 F16'
_cell_volume   335.62414715
_cell_formula_units_Z   4
loop_
 _symmetry_equiv_pos_site_id
 _symmetry_equiv_pos_as_xyz
  1  'x, y, z'
loop_
 _atom_site_type_symbol
 _atom_site_label
 _atom_site_symmetry_multiplicity
 _atom_site_fract_x
 _atom_site_fract_y
 _atom_site_fract_z
 _atom_site_occupancy
  Li  Li0  1  0.409001  0.066117  0.224109  1
  Li  Li1  1  0.798710  0.613060  0.551739  1
  Li  Li2  1  0.590999  0.566117  0.275891  1
  Li  Li3  1  0.201290  0.113060  0.948261  1
  Li  Li4  1  0.798710  0.886940  0.051739  1
  Li  Li5  1  0.409001  0.433883  0.724109  1
  Li  Li6  1  0.201290  0.386940  0.448261  1
  Li  Li7  1  0.590999  0.933883  0.775891  1
  V  V8  1  0.766731  0.134036  0.512336  1
  V  V9  1  0.233269  0.634036  0.987664  1
  V  V10  1  0.766731  0.365964  0.012336  1
  V  V11  1  0.233269  0.865964  0.487664  1
  F  F12  1  0.490742  0.893535  0.383555  1
  F  F13  1  0.503010  0.378124  0.392631  1
  F  F14  1  0.956068  0.877022  0.885888  1
  F  F15  1  0.982779  0.370980  0.890794  1
  F  F16  1  0.496990  0.878124  0.107369  1
  F  F17  1  0.509258  0.393535  0.116445  1
  F  F18  1  0.017221  0.870980  0.609206  1
  F  F19  1  0.043932  0.377022  0.614112  1
  F  F20  1  0.956068  0.622978  0.385888  1
  F  F21  1  0.982779  0.129020  0.390794  1
  F  F22  1  0.490742  0.606465  0.883555  1
  F  F23  1  0.503010  0.121876  0.892631  1
  F  F24  1  0.017221  0.629020  0.109206  1
  F  F25  1  0.043932  0.122978  0.114112  1
  F  F26  1  0.496990  0.621876  0.607369  1
  F  F27  1  0.509258  0.106465  0.616445  1
