# generated using pymatgen
data_Li2VFeP2(HO5)2
_symmetry_space_group_name_H-M   'P 1'
_cell_length_a   6.96751114
_cell_length_b   7.40938419
_cell_length_c   7.98916078
_cell_angle_alpha   91.17818736
_cell_angle_beta   92.66569693
_cell_angle_gamma   117.27858980
_symmetry_Int_Tables_number   1
_chemical_formula_structural   Li2VFeP2(HO5)2
_chemical_formula_sum   'Li4 V2 Fe2 P4 H4 O20'
_cell_volume   365.76785571
_cell_formula_units_Z   2
loop_
 _symmetry_equiv_pos_site_id
 _symmetry_equiv_pos_as_xyz
  1  'x, y, z'
loop_
 _atom_site_type_symbol
 _atom_site_label
 _atom_site_symmetry_multiplicity
 _atom_site_fract_x
 _atom_site_fract_y
 _atom_site_fract_z
 _atom_site_occupancy
  Li  Li0  1  0.072768  0.822564  0.675609  1
  Li  Li1  1  0.428913  0.176756  0.825037  1
  Li  Li2  1  0.571087  0.823244  0.174963  1
  Li  Li3  1  0.927232  0.177436  0.324391  1
  V  V4  1  0.000000  0.000000  0.000000  1
  V  V5  1  0.500000  0.500000  0.500000  1
  Fe  Fe6  1  0.000000  0.500000  0.000000  1
  Fe  Fe7  1  0.500000  0.000000  0.500000  1
  P  P8  1  0.480571  0.767729  0.842135  1
  P  P9  1  0.017505  0.231009  0.657588  1
  P  P10  1  0.982495  0.768991  0.342412  1
  P  P11  1  0.519429  0.232271  0.157865  1
  H  H12  1  0.790498  0.659226  0.849187  1
  H  H13  1  0.290830  0.662573  0.350617  1
  H  H14  1  0.709170  0.337427  0.649383  1
  H  H15  1  0.209502  0.340774  0.150813  1
  O  O16  1  0.324765  0.657878  0.980723  1
  O  O17  1  0.111657  0.118599  0.773085  1
  O  O18  1  0.386767  0.880756  0.728017  1
  O  O19  1  0.688755  0.926279  0.940158  1
  O  O20  1  0.190344  0.928904  0.441721  1
  O  O21  1  0.534034  0.619975  0.737523  1
  O  O22  1  0.174852  0.340751  0.519822  1
  O  O23  1  0.034748  0.620543  0.238717  1
  O  O24  1  0.942904  0.721979  0.895150  1
  O  O25  1  0.444241  0.727405  0.393749  1
  O  O26  1  0.555759  0.272595  0.606251  1
  O  O27  1  0.057096  0.278021  0.104850  1
  O  O28  1  0.965252  0.379457  0.761283  1
  O  O29  1  0.825148  0.659249  0.480178  1
  O  O30  1  0.465966  0.380025  0.262477  1
  O  O31  1  0.809656  0.071096  0.558279  1
  O  O32  1  0.311245  0.073721  0.059842  1
  O  O33  1  0.613233  0.119244  0.271983  1
  O  O34  1  0.888343  0.881401  0.226915  1
  O  O35  1  0.675235  0.342122  0.019277  1
