# generated using pymatgen
data_Ti3Cu2Sn(PO4)6
_symmetry_space_group_name_H-M   'P 1'
_cell_length_a   8.70600171
_cell_length_b   8.70600171
_cell_length_c   8.70600171
_cell_angle_alpha   59.85058823
_cell_angle_beta   59.85058823
_cell_angle_gamma   59.85058823
_symmetry_Int_Tables_number   1
_chemical_formula_structural   Ti3Cu2Sn(PO4)6
_chemical_formula_sum   'Ti3 Cu2 Sn1 P6 O24'
_cell_volume   465.01416128
_cell_formula_units_Z   1
loop_
 _symmetry_equiv_pos_site_id
 _symmetry_equiv_pos_as_xyz
  1  'x, y, z'
loop_
 _atom_site_type_symbol
 _atom_site_label
 _atom_site_symmetry_multiplicity
 _atom_site_fract_x
 _atom_site_fract_y
 _atom_site_fract_z
 _atom_site_occupancy
  Ti  Ti0  1  0.858505  0.858505  0.858505  1
  Ti  Ti1  1  0.642359  0.642359  0.642359  1
  Ti  Ti2  1  0.358417  0.358417  0.358417  1
  Cu  Cu3  1  0.996224  0.996224  0.996224  1
  Cu  Cu4  1  0.500062  0.500062  0.500062  1
  Sn  Sn5  1  0.142600  0.142600  0.142600  1
  P  P6  1  0.543431  0.958814  0.251404  1
  P  P7  1  0.463184  0.038472  0.747825  1
  P  P8  1  0.038472  0.747825  0.463184  1
  P  P9  1  0.747825  0.463184  0.038472  1
  P  P10  1  0.251404  0.543431  0.958814  1
  P  P11  1  0.958814  0.251404  0.543431  1
  O  O12  1  0.694609  0.503489  0.875375  1
  O  O13  1  0.503489  0.875375  0.694609  1
  O  O14  1  0.084203  0.731162  0.940335  1
  O  O15  1  0.875375  0.694609  0.503489  1
  O  O16  1  0.200434  0.385040  0.985589  1
  O  O17  1  0.417847  0.564144  0.770790  1
  O  O18  1  0.940335  0.084203  0.731162  1
  O  O19  1  0.770790  0.417847  0.564144  1
  O  O20  1  0.625280  0.999851  0.802240  1
  O  O21  1  0.564144  0.770790  0.417847  1
  O  O22  1  0.271388  0.054549  0.912006  1
  O  O23  1  0.999851  0.802240  0.625280  1
  O  O24  1  0.985589  0.200434  0.385040  1
  O  O25  1  0.731162  0.940335  0.084203  1
  O  O26  1  0.443287  0.227944  0.581716  1
  O  O27  1  0.385040  0.985589  0.200434  1
  O  O28  1  0.227944  0.581716  0.443287  1
  O  O29  1  0.054549  0.912006  0.271388  1
  O  O30  1  0.581716  0.443287  0.227944  1
  O  O31  1  0.802240  0.625280  0.999851  1
  O  O32  1  0.125959  0.301942  0.499525  1
  O  O33  1  0.912006  0.271388  0.054549  1
  O  O34  1  0.499525  0.125959  0.301942  1
  O  O35  1  0.301942  0.499525  0.125959  1
