# generated using pymatgen
data_Li2Fe2Si2O7
_symmetry_space_group_name_H-M   'P 1'
_cell_length_a   5.39312079
_cell_length_b   5.39312079
_cell_length_c   8.07134703
_cell_angle_alpha   90.00000000
_cell_angle_beta   90.00000000
_cell_angle_gamma   120.00000000
_symmetry_Int_Tables_number   1
_chemical_formula_structural   Li2Fe2Si2O7
_chemical_formula_sum   'Li2 Fe2 Si2 O7'
_cell_volume   203.30916019
_cell_formula_units_Z   1
loop_
 _symmetry_equiv_pos_site_id
 _symmetry_equiv_pos_as_xyz
  1  'x, y, z'
loop_
 _atom_site_type_symbol
 _atom_site_label
 _atom_site_symmetry_multiplicity
 _atom_site_fract_x
 _atom_site_fract_y
 _atom_site_fract_z
 _atom_site_occupancy
  Li  Li0  1  0.333333  0.666667  0.213015  1
  Li  Li1  1  0.666667  0.333333  0.786985  1
  Fe  Fe2  1  0.333333  0.666667  0.772260  1
  Fe  Fe3  1  0.666667  0.333333  0.227740  1
  Si  Si4  1  0.000000  0.000000  0.295837  1
  Si  Si5  1  0.000000  0.000000  0.704163  1
  O  O6  1  0.712302  0.715576  0.764651  1
  O  O7  1  0.284424  0.996726  0.764651  1
  O  O8  1  0.000000  0.000000  0.500000  1
  O  O9  1  0.996726  0.712302  0.235349  1
  O  O10  1  0.003274  0.287698  0.764651  1
  O  O11  1  0.715576  0.003274  0.235349  1
  O  O12  1  0.287698  0.284424  0.235349  1
