# generated using pymatgen
data_Li3Mn3(OF)4
_symmetry_space_group_name_H-M   'P 1'
_cell_length_a   6.04071180
_cell_length_b   6.04071180
_cell_length_c   6.06731496
_cell_angle_alpha   61.12457121
_cell_angle_beta   118.87542879
_cell_angle_gamma   122.71926766
_symmetry_Int_Tables_number   1
_chemical_formula_structural   Li3Mn3(OF)4
_chemical_formula_sum   'Li3 Mn3 O4 F4'
_cell_volume   155.53637387
_cell_formula_units_Z   1
loop_
 _symmetry_equiv_pos_site_id
 _symmetry_equiv_pos_as_xyz
  1  'x, y, z'
loop_
 _atom_site_type_symbol
 _atom_site_label
 _atom_site_symmetry_multiplicity
 _atom_site_fract_x
 _atom_site_fract_y
 _atom_site_fract_z
 _atom_site_occupancy
  Li  Li0  1  0.347940  0.652060  0.083897  1
  Li  Li1  1  0.000000  1.000000  0.500000  1
  Li  Li2  1  0.652060  0.347940  0.916103  1
  Mn  Mn3  1  0.000000  0.000000  0.000000  1
  Mn  Mn4  1  0.500000  0.000000  0.500000  1
  Mn  Mn5  1  0.000000  0.500000  0.500000  1
  O  O6  1  0.239472  0.760528  0.694594  1
  O  O7  1  0.215185  0.784815  0.244727  1
  O  O8  1  0.784815  0.215185  0.755273  1
  O  O9  1  0.760528  0.239472  0.305406  1
  F  F10  1  0.770124  0.747256  0.761897  1
  F  F11  1  0.252744  0.229876  0.761897  1
  F  F12  1  0.747256  0.770124  0.238103  1
  F  F13  1  0.229876  0.252744  0.238103  1
