# generated using pymatgen
data_TmHO2
_symmetry_space_group_name_H-M   'P 1'
_cell_length_a   3.47927449
_cell_length_b   4.90481856
_cell_length_c   10.96099453
_cell_angle_alpha   90.00000000
_cell_angle_beta   90.00000000
_cell_angle_gamma   90.00000000
_symmetry_Int_Tables_number   1
_chemical_formula_structural   TmHO2
_chemical_formula_sum   'Tm4 H4 O8'
_cell_volume   187.05167449
_cell_formula_units_Z   4
loop_
 _symmetry_equiv_pos_site_id
 _symmetry_equiv_pos_as_xyz
  1  'x, y, z'
loop_
 _atom_site_type_symbol
 _atom_site_label
 _atom_site_symmetry_multiplicity
 _atom_site_fract_x
 _atom_site_fract_y
 _atom_site_fract_z
 _atom_site_occupancy
  Tm  Tm0  1  0.250000  0.067634  0.855270  1
  Tm  Tm1  1  0.250000  0.432366  0.355270  1
  Tm  Tm2  1  0.750000  0.567634  0.644730  1
  Tm  Tm3  1  0.750000  0.932366  0.144730  1
  H  H4  1  0.250000  0.108339  0.588553  1
  H  H5  1  0.250000  0.391661  0.088553  1
  H  H6  1  0.750000  0.608339  0.911447  1
  H  H7  1  0.750000  0.891661  0.411447  1
  O  O8  1  0.250000  0.198625  0.059219  1
  O  O9  1  0.750000  0.187064  0.307196  1
  O  O10  1  0.750000  0.312936  0.807196  1
  O  O11  1  0.250000  0.301375  0.559219  1
  O  O12  1  0.750000  0.698625  0.440781  1
  O  O13  1  0.250000  0.687064  0.192804  1
  O  O14  1  0.250000  0.812936  0.692804  1
  O  O15  1  0.750000  0.801375  0.940781  1
