# generated using pymatgen
data_H14RuS2(N2O3)2
_symmetry_space_group_name_H-M   'P 1'
_cell_length_a   6.31507539
_cell_length_b   7.09179190
_cell_length_c   11.76688311
_cell_angle_alpha   90.00000000
_cell_angle_beta   114.40858648
_cell_angle_gamma   90.00000000
_symmetry_Int_Tables_number   1
_chemical_formula_structural   H14RuS2(N2O3)2
_chemical_formula_sum   'H28 Ru2 S4 N8 O12'
_cell_volume   479.88146660
_cell_formula_units_Z   2
loop_
 _symmetry_equiv_pos_site_id
 _symmetry_equiv_pos_as_xyz
  1  'x, y, z'
loop_
 _atom_site_type_symbol
 _atom_site_label
 _atom_site_symmetry_multiplicity
 _atom_site_fract_x
 _atom_site_fract_y
 _atom_site_fract_z
 _atom_site_occupancy
  H  H0  1  0.206030  0.117014  0.269878  1
  H  H1  1  0.183830  0.888003  0.270248  1
  H  H2  1  0.276990  0.539004  0.411803  1
  H  H3  1  0.839039  0.717057  0.977356  1
  H  H4  1  0.683699  0.607246  0.844170  1
  H  H5  1  0.045482  0.023362  0.333105  1
  H  H6  1  0.954518  0.523362  0.166895  1
  H  H7  1  0.413079  0.303044  0.618495  1
  H  H8  1  0.586921  0.803044  0.881505  1
  H  H9  1  0.723010  0.039004  0.088197  1
  H  H10  1  0.816170  0.388003  0.229752  1
  H  H11  1  0.316301  0.107246  0.655830  1
  H  H12  1  0.793970  0.617014  0.230122  1
  H  H13  1  0.160961  0.217057  0.522644  1
  H  H14  1  0.839039  0.782943  0.477356  1
  H  H15  1  0.206030  0.382986  0.769878  1
  H  H16  1  0.683699  0.892754  0.344170  1
  H  H17  1  0.183830  0.611997  0.770248  1
  H  H18  1  0.276990  0.960996  0.911803  1
  H  H19  1  0.413079  0.196956  0.118495  1
  H  H20  1  0.586921  0.696956  0.381505  1
  H  H21  1  0.045482  0.476638  0.833105  1
  H  H22  1  0.954518  0.976638  0.666895  1
  H  H23  1  0.316301  0.392754  0.155830  1
  H  H24  1  0.160961  0.282943  0.022644  1
  H  H25  1  0.723010  0.460996  0.588197  1
  H  H26  1  0.816170  0.111997  0.729752  1
  H  H27  1  0.793970  0.882986  0.730122  1
  Ru  Ru28  1  0.500000  0.000000  0.500000  1
  Ru  Ru29  1  0.500000  0.500000  0.000000  1
  S  S30  1  0.360614  0.743815  0.563158  1
  S  S31  1  0.639386  0.243815  0.936842  1
  S  S32  1  0.360614  0.756185  0.063158  1
  S  S33  1  0.639386  0.256185  0.436842  1
  N  N34  1  0.198781  0.006336  0.323739  1
  N  N35  1  0.673178  0.679675  0.917314  1
  N  N36  1  0.801219  0.506336  0.176261  1
  N  N37  1  0.326822  0.179675  0.582686  1
  N  N38  1  0.673178  0.820325  0.417314  1
  N  N39  1  0.198781  0.493664  0.823739  1
  N  N40  1  0.326822  0.320325  0.082686  1
  N  N41  1  0.801219  0.993664  0.676261  1
  O  O42  1  0.793212  0.286123  0.872363  1
  O  O43  1  0.543891  0.600773  0.635927  1
  O  O44  1  0.181306  0.621312  0.441640  1
  O  O45  1  0.818694  0.121312  0.058360  1
  O  O46  1  0.456109  0.100773  0.864073  1
  O  O47  1  0.206788  0.786123  0.627637  1
  O  O48  1  0.793212  0.213877  0.372363  1
  O  O49  1  0.543891  0.899227  0.135927  1
  O  O50  1  0.181306  0.878688  0.941640  1
  O  O51  1  0.818694  0.378688  0.558360  1
  O  O52  1  0.456109  0.399227  0.364073  1
  O  O53  1  0.206788  0.713877  0.127637  1
