# generated using pymatgen
data_Li4Co3WO8
_symmetry_space_group_name_H-M   'P 1'
_cell_length_a   6.00948534
_cell_length_b   6.00948534
_cell_length_c   6.00948534
_cell_angle_alpha   60.53831405
_cell_angle_beta   60.53831405
_cell_angle_gamma   60.53831405
_symmetry_Int_Tables_number   1
_chemical_formula_structural   Li4Co3WO8
_chemical_formula_sum   'Li4 Co3 W1 O8'
_cell_volume   155.32709182
_cell_formula_units_Z   1
loop_
 _symmetry_equiv_pos_site_id
 _symmetry_equiv_pos_as_xyz
  1  'x, y, z'
loop_
 _atom_site_type_symbol
 _atom_site_label
 _atom_site_symmetry_multiplicity
 _atom_site_fract_x
 _atom_site_fract_y
 _atom_site_fract_z
 _atom_site_occupancy
  Li  Li0  1  0.500000  0.500000  0.500000  1
  Li  Li1  1  0.000000  0.000000  0.500000  1
  Li  Li2  1  0.000000  0.500000  0.000000  1
  Li  Li3  1  0.500000  0.000000  0.000000  1
  Co  Co4  1  0.500000  0.500000  0.000000  1
  Co  Co5  1  0.500000  0.000000  0.500000  1
  Co  Co6  1  0.000000  0.500000  0.500000  1
  W  W7  1  0.000000  0.000000  0.000000  1
  O  O8  1  0.738525  0.738525  0.738525  1
  O  O9  1  0.231306  0.231306  0.774721  1
  O  O10  1  0.231306  0.774721  0.231306  1
  O  O11  1  0.261475  0.261475  0.261475  1
  O  O12  1  0.774721  0.231306  0.231306  1
  O  O13  1  0.768694  0.768694  0.225279  1
  O  O14  1  0.768694  0.225279  0.768694  1
  O  O15  1  0.225279  0.768694  0.768694  1
