# generated using pymatgen
data_Li2TiCo3O8
_symmetry_space_group_name_H-M   'P 1'
_cell_length_a   5.71601972
_cell_length_b   5.71601972
_cell_length_c   9.24316173
_cell_angle_alpha   89.96972681
_cell_angle_beta   90.03027319
_cell_angle_gamma   60.01306222
_symmetry_Int_Tables_number   1
_chemical_formula_structural   Li2TiCo3O8
_chemical_formula_sum   'Li4 Ti2 Co6 O16'
_cell_volume   261.57457343
_cell_formula_units_Z   2
loop_
 _symmetry_equiv_pos_site_id
 _symmetry_equiv_pos_as_xyz
  1  'x, y, z'
loop_
 _atom_site_type_symbol
 _atom_site_label
 _atom_site_symmetry_multiplicity
 _atom_site_fract_x
 _atom_site_fract_y
 _atom_site_fract_z
 _atom_site_occupancy
  Li  Li0  1  0.665767  0.668695  0.111853  1
  Li  Li1  1  0.998632  0.000398  0.002404  1
  Li  Li2  1  0.999602  0.001368  0.502404  1
  Li  Li3  1  0.331305  0.334233  0.611853  1
  Ti  Ti4  1  0.673140  0.660169  0.503154  1
  Ti  Ti5  1  0.339831  0.326860  0.003154  1
  Co  Co6  1  0.341086  0.829210  0.784282  1
  Co  Co7  1  0.829933  0.340354  0.784851  1
  Co  Co8  1  0.830117  0.829415  0.784954  1
  Co  Co9  1  0.170585  0.169883  0.284954  1
  Co  Co10  1  0.170790  0.658914  0.284282  1
  Co  Co11  1  0.659646  0.170067  0.284851  1
  O  O12  1  0.329537  0.833241  0.399237  1
  O  O13  1  0.516970  0.521609  0.664777  1
  O  O14  1  0.664332  0.667397  0.889451  1
  O  O15  1  0.002751  0.998725  0.692781  1
  O  O16  1  0.001275  0.997249  0.192781  1
  O  O17  1  0.832720  0.333483  0.400975  1
  O  O18  1  0.516903  0.961652  0.664678  1
  O  O19  1  0.959958  0.520359  0.663326  1
  O  O20  1  0.166166  0.163605  0.899358  1
  O  O21  1  0.836395  0.833834  0.399358  1
  O  O22  1  0.038348  0.483097  0.164678  1
  O  O23  1  0.479641  0.040042  0.163326  1
  O  O24  1  0.332603  0.335668  0.389451  1
  O  O25  1  0.166759  0.670463  0.899237  1
  O  O26  1  0.478391  0.483030  0.164777  1
  O  O27  1  0.666517  0.167280  0.900975  1
