# generated using pymatgen
data_ZrO2
_symmetry_space_group_name_H-M   'P 1'
_cell_length_a   6.11014962
_cell_length_b   6.11014962
_cell_length_c   6.11014962
_cell_angle_alpha   141.16145170
_cell_angle_beta   141.16145170
_cell_angle_gamma   56.09397232
_symmetry_Int_Tables_number   1
_chemical_formula_structural   ZrO2
_chemical_formula_sum   'Zr2 O4'
_cell_volume   89.02004248
_cell_formula_units_Z   2
loop_
 _symmetry_equiv_pos_site_id
 _symmetry_equiv_pos_as_xyz
  1  'x, y, z'
loop_
 _atom_site_type_symbol
 _atom_site_label
 _atom_site_symmetry_multiplicity
 _atom_site_fract_x
 _atom_site_fract_y
 _atom_site_fract_z
 _atom_site_occupancy
  Zr  Zr0  1  0.000000  0.000000  0.000000  1
  Zr  Zr1  1  0.750000  0.250000  0.500000  1
  O  O2  1  0.201734  0.201734  0.000000  1
  O  O3  1  0.798266  0.798266  0.000000  1
  O  O4  1  0.548266  0.048266  0.500000  1
  O  O5  1  0.951734  0.451734  0.500000  1
