# generated using pymatgen
data_KNaZrSi3H4O11
_symmetry_space_group_name_H-M   'P 1'
_cell_length_a   6.81270866
_cell_length_b   11.94617715
_cell_length_c   13.13272121
_cell_angle_alpha   90.00000000
_cell_angle_beta   90.00000000
_cell_angle_gamma   90.00000000
_symmetry_Int_Tables_number   1
_chemical_formula_structural   KNaZrSi3H4O11
_chemical_formula_sum   'K4 Na4 Zr4 Si12 H16 O44'
_cell_volume   1068.81734392
_cell_formula_units_Z   4
loop_
 _symmetry_equiv_pos_site_id
 _symmetry_equiv_pos_as_xyz
  1  'x, y, z'
loop_
 _atom_site_type_symbol
 _atom_site_label
 _atom_site_symmetry_multiplicity
 _atom_site_fract_x
 _atom_site_fract_y
 _atom_site_fract_z
 _atom_site_occupancy
  K  K0  1  0.912086  0.250763  0.350503  1
  K  K1  1  0.587914  0.250763  0.850503  1
  K  K2  1  0.412086  0.750763  0.149497  1
  K  K3  1  0.087914  0.750763  0.649497  1
  Na  Na4  1  0.828755  0.497938  0.108571  1
  Na  Na5  1  0.671245  0.497938  0.608571  1
  Na  Na6  1  0.328755  0.997938  0.391429  1
  Na  Na7  1  0.171245  0.997938  0.891429  1
  Zr  Zr8  1  0.147793  0.249193  0.052656  1
  Zr  Zr9  1  0.352207  0.249193  0.552656  1
  Zr  Zr10  1  0.647793  0.749193  0.447344  1
  Zr  Zr11  1  0.852207  0.749193  0.947344  1
  Si  Si12  1  0.646131  0.212779  0.110235  1
  Si  Si13  1  0.853869  0.212779  0.610235  1
  Si  Si14  1  0.112355  0.281780  0.786844  1
  Si  Si15  1  0.387645  0.281780  0.286844  1
  Si  Si16  1  0.389051  0.497930  0.414793  1
  Si  Si17  1  0.110949  0.497930  0.914793  1
  Si  Si18  1  0.146131  0.712779  0.389765  1
  Si  Si19  1  0.353869  0.712779  0.889765  1
  Si  Si20  1  0.887645  0.781780  0.213156  1
  Si  Si21  1  0.612355  0.781780  0.713156  1
  Si  Si22  1  0.889051  0.997930  0.085207  1
  Si  Si23  1  0.610949  0.997930  0.585207  1
  H  H24  1  0.266029  0.012768  0.166137  1
  H  H25  1  0.233971  0.012768  0.666137  1
  H  H26  1  0.492223  0.011199  0.179805  1
  H  H27  1  0.007777  0.011199  0.679805  1
  H  H28  1  0.450166  0.484704  0.191871  1
  H  H29  1  0.049834  0.484704  0.691871  1
  H  H30  1  0.378880  0.485980  0.079207  1
  H  H31  1  0.121120  0.485980  0.579207  1
  H  H32  1  0.766029  0.512768  0.333863  1
  H  H33  1  0.733971  0.512768  0.833863  1
  H  H34  1  0.992223  0.511199  0.320195  1
  H  H35  1  0.507777  0.511199  0.820195  1
  H  H36  1  0.950166  0.984704  0.308129  1
  H  H37  1  0.549834  0.984704  0.808129  1
  H  H38  1  0.621120  0.985980  0.920793  1
  H  H39  1  0.878880  0.985980  0.420793  1
  O  O40  1  0.980168  0.017846  0.375300  1
  O  O41  1  0.519832  0.017846  0.875300  1
  O  O42  1  0.083886  0.075305  0.071238  1
  O  O43  1  0.416114  0.075305  0.571238  1
  O  O44  1  0.695291  0.075972  0.112116  1
  O  O45  1  0.804709  0.075972  0.612116  1
  O  O46  1  0.363678  0.214863  0.393332  1
  O  O47  1  0.136322  0.214863  0.893332  1
  O  O48  1  0.453607  0.233233  0.040761  1
  O  O49  1  0.046393  0.233233  0.540761  1
  O  O50  1  0.593523  0.243786  0.229997  1
  O  O51  1  0.906477  0.243786  0.729997  1
  O  O52  1  0.203627  0.269373  0.209189  1
  O  O53  1  0.296373  0.269373  0.709189  1
  O  O54  1  0.840692  0.279525  0.073646  1
  O  O55  1  0.659308  0.279525  0.573646  1
  O  O56  1  0.419085  0.417447  0.313437  1
  O  O57  1  0.080915  0.417447  0.813437  1
  O  O58  1  0.156735  0.422585  0.015193  1
  O  O59  1  0.343265  0.422585  0.515193  1
  O  O60  1  0.870477  0.480034  0.290840  1
  O  O61  1  0.629523  0.480034  0.790840  1
  O  O62  1  0.480168  0.517846  0.124700  1
  O  O63  1  0.019832  0.517846  0.624700  1
  O  O64  1  0.583886  0.575305  0.428762  1
  O  O65  1  0.916114  0.575305  0.928762  1
  O  O66  1  0.195291  0.575972  0.387884  1
  O  O67  1  0.304709  0.575972  0.887884  1
  O  O68  1  0.863678  0.714863  0.106668  1
  O  O69  1  0.636322  0.714863  0.606668  1
  O  O70  1  0.546393  0.733233  0.959239  1
  O  O71  1  0.953607  0.733233  0.459239  1
  O  O72  1  0.093523  0.743786  0.270003  1
  O  O73  1  0.406477  0.743786  0.770003  1
  O  O74  1  0.703627  0.769373  0.290811  1
  O  O75  1  0.796373  0.769373  0.790811  1
  O  O76  1  0.340692  0.779525  0.426354  1
  O  O77  1  0.159308  0.779525  0.926354  1
  O  O78  1  0.919085  0.917447  0.186563  1
  O  O79  1  0.580915  0.917447  0.686563  1
  O  O80  1  0.843265  0.922585  0.984807  1
  O  O81  1  0.656735  0.922585  0.484807  1
  O  O82  1  0.370477  0.980034  0.209160  1
  O  O83  1  0.129523  0.980034  0.709160  1
