# generated using pymatgen
data_ZnH12N3Cl5
_symmetry_space_group_name_H-M   'P 1'
_cell_length_a   8.84860226
_cell_length_b   9.97809488
_cell_length_c   12.59119396
_cell_angle_alpha   90.00000000
_cell_angle_beta   90.00000000
_cell_angle_gamma   90.00000000
_symmetry_Int_Tables_number   1
_chemical_formula_structural   ZnH12N3Cl5
_chemical_formula_sum   'Zn4 H48 N12 Cl20'
_cell_volume   1111.70412603
_cell_formula_units_Z   4
loop_
 _symmetry_equiv_pos_site_id
 _symmetry_equiv_pos_as_xyz
  1  'x, y, z'
loop_
 _atom_site_type_symbol
 _atom_site_label
 _atom_site_symmetry_multiplicity
 _atom_site_fract_x
 _atom_site_fract_y
 _atom_site_fract_z
 _atom_site_occupancy
  Zn  Zn0  1  0.815046  0.250000  0.393601  1
  Zn  Zn1  1  0.315046  0.250000  0.106399  1
  Zn  Zn2  1  0.184954  0.750000  0.606399  1
  Zn  Zn3  1  0.684954  0.750000  0.893601  1
  H  H4  1  0.003613  0.250000  0.893303  1
  H  H5  1  0.503613  0.250000  0.606697  1
  H  H6  1  0.996387  0.750000  0.106697  1
  H  H7  1  0.496387  0.750000  0.393303  1
  H  H8  1  0.814280  0.250000  0.918225  1
  H  H9  1  0.314280  0.250000  0.581775  1
  H  H10  1  0.185720  0.750000  0.081775  1
  H  H11  1  0.685720  0.750000  0.418225  1
  H  H12  1  0.934110  0.165840  0.998772  1
  H  H13  1  0.434110  0.334160  0.501228  1
  H  H14  1  0.065890  0.665840  0.001228  1
  H  H15  1  0.565890  0.834160  0.498772  1
  H  H16  1  0.065890  0.834160  0.001228  1
  H  H17  1  0.565890  0.665840  0.498772  1
  H  H18  1  0.934110  0.334160  0.998772  1
  H  H19  1  0.434110  0.165840  0.501228  1
  H  H20  1  0.005338  0.076294  0.664010  1
  H  H21  1  0.505338  0.423706  0.835990  1
  H  H22  1  0.994662  0.576294  0.335990  1
  H  H23  1  0.494662  0.923706  0.164010  1
  H  H24  1  0.994662  0.923706  0.335990  1
  H  H25  1  0.494662  0.576294  0.164010  1
  H  H26  1  0.005338  0.423706  0.664010  1
  H  H27  1  0.505338  0.076294  0.835990  1
  H  H28  1  0.891152  0.962292  0.605482  1
  H  H29  1  0.391152  0.537708  0.894518  1
  H  H30  1  0.108848  0.462292  0.394518  1
  H  H31  1  0.608848  0.037708  0.105482  1
  H  H32  1  0.108848  0.037708  0.394518  1
  H  H33  1  0.608848  0.462292  0.105482  1
  H  H34  1  0.891152  0.537708  0.605482  1
  H  H35  1  0.391152  0.962292  0.894518  1
  H  H36  1  0.818037  0.083820  0.686961  1
  H  H37  1  0.318037  0.416180  0.813039  1
  H  H38  1  0.181963  0.583820  0.313039  1
  H  H39  1  0.681963  0.916180  0.186961  1
  H  H40  1  0.181963  0.916180  0.313039  1
  H  H41  1  0.681963  0.583820  0.186961  1
  H  H42  1  0.818037  0.416180  0.686961  1
  H  H43  1  0.318037  0.083820  0.813039  1
  H  H44  1  0.921227  0.955312  0.737155  1
  H  H45  1  0.421227  0.544688  0.762845  1
  H  H46  1  0.078773  0.455312  0.262845  1
  H  H47  1  0.578773  0.044688  0.237155  1
  H  H48  1  0.078773  0.044688  0.262845  1
  H  H49  1  0.578773  0.455312  0.237155  1
  H  H50  1  0.921227  0.544688  0.737155  1
  H  H51  1  0.421227  0.955312  0.762845  1
  N  N52  1  0.920427  0.250000  0.952326  1
  N  N53  1  0.420427  0.250000  0.547674  1
  N  N54  1  0.079573  0.750000  0.047674  1
  N  N55  1  0.579573  0.750000  0.452326  1
  N  N56  1  0.908715  0.018832  0.673094  1
  N  N57  1  0.408715  0.481168  0.826906  1
  N  N58  1  0.091285  0.518832  0.326906  1
  N  N59  1  0.591285  0.981168  0.173094  1
  N  N60  1  0.091285  0.981168  0.326906  1
  N  N61  1  0.591285  0.518832  0.173094  1
  N  N62  1  0.908715  0.481168  0.673094  1
  N  N63  1  0.408715  0.018832  0.826906  1
  Cl  Cl64  1  0.873204  0.250000  0.218075  1
  Cl  Cl65  1  0.373204  0.250000  0.281925  1
  Cl  Cl66  1  0.126796  0.750000  0.781925  1
  Cl  Cl67  1  0.626796  0.750000  0.718075  1
  Cl  Cl68  1  0.039283  0.250000  0.488525  1
  Cl  Cl69  1  0.539283  0.250000  0.011475  1
  Cl  Cl70  1  0.960717  0.750000  0.511475  1
  Cl  Cl71  1  0.460717  0.750000  0.988525  1
  Cl  Cl72  1  0.667134  0.250000  0.736159  1
  Cl  Cl73  1  0.167134  0.250000  0.763841  1
  Cl  Cl74  1  0.332866  0.750000  0.263841  1
  Cl  Cl75  1  0.832866  0.750000  0.236159  1
  Cl  Cl76  1  0.690923  0.057114  0.436205  1
  Cl  Cl77  1  0.190923  0.442886  0.063795  1
  Cl  Cl78  1  0.309077  0.557114  0.563795  1
  Cl  Cl79  1  0.809077  0.942886  0.936205  1
  Cl  Cl80  1  0.309077  0.942886  0.563795  1
  Cl  Cl81  1  0.809077  0.557114  0.936205  1
  Cl  Cl82  1  0.690923  0.442886  0.436205  1
  Cl  Cl83  1  0.190923  0.057114  0.063795  1
