# generated using pymatgen
data_V5O9
_symmetry_space_group_name_H-M   'P 1'
_cell_length_a   5.62930638
_cell_length_b   7.10963705
_cell_length_c   8.58128401
_cell_angle_alpha   69.79770412
_cell_angle_beta   74.46411903
_cell_angle_gamma   70.95880583
_symmetry_Int_Tables_number   1
_chemical_formula_structural   V5O9
_chemical_formula_sum   'V10 O18'
_cell_volume   299.98106294
_cell_formula_units_Z   2
loop_
 _symmetry_equiv_pos_site_id
 _symmetry_equiv_pos_as_xyz
  1  'x, y, z'
loop_
 _atom_site_type_symbol
 _atom_site_label
 _atom_site_symmetry_multiplicity
 _atom_site_fract_x
 _atom_site_fract_y
 _atom_site_fract_z
 _atom_site_occupancy
  V  V0  1  0.719692  0.824774  0.417652  1
  V  V1  1  0.282416  0.175662  0.574890  1
  V  V2  1  0.724987  0.316543  0.428046  1
  V  V3  1  0.273745  0.679938  0.577094  1
  V  V4  1  0.360183  0.652193  0.214372  1
  V  V5  1  0.653465  0.351014  0.791000  1
  V  V6  1  0.340771  0.171479  0.198779  1
  V  V7  1  0.638073  0.840759  0.802287  1
  V  V8  1  0.002761  0.496020  0.003881  1
  V  V9  1  0.992317  0.002098  0.995594  1
  O  O10  1  0.054807  0.203846  0.415669  1
  O  O11  1  0.940918  0.792604  0.578618  1
  O  O12  1  0.720511  0.507298  0.204725  1
  O  O13  1  0.297846  0.483799  0.797763  1
  O  O14  1  0.617562  0.159785  0.015708  1
  O  O15  1  0.373810  0.850073  0.971217  1
  O  O16  1  0.907329  0.805240  0.915729  1
  O  O17  1  0.094278  0.182549  0.083398  1
  O  O18  1  0.264156  0.458936  0.143863  1
  O  O19  1  0.745645  0.538899  0.861643  1
  O  O20  1  0.320938  0.466600  0.463396  1
  O  O21  1  0.684665  0.535085  0.540156  1
  O  O22  1  0.003890  0.198804  0.758890  1
  O  O23  1  0.971259  0.809522  0.245825  1
  O  O24  1  0.580634  0.132802  0.365290  1
  O  O25  1  0.425420  0.862220  0.631405  1
  O  O26  1  0.408761  0.853256  0.328084  1
  O  O27  1  0.599162  0.148203  0.675024  1
