# generated using pymatgen
data_Na3CoPCO7
_symmetry_space_group_name_H-M   'P 1'
_cell_length_a   5.31415758
_cell_length_b   6.61034078
_cell_length_c   9.00190855
_cell_angle_alpha   90.00000000
_cell_angle_beta   90.58114291
_cell_angle_gamma   90.00000000
_symmetry_Int_Tables_number   1
_chemical_formula_structural   Na3CoPCO7
_chemical_formula_sum   'Na6 Co2 P2 C2 O14'
_cell_volume   316.20631169
_cell_formula_units_Z   2
loop_
 _symmetry_equiv_pos_site_id
 _symmetry_equiv_pos_as_xyz
  1  'x, y, z'
loop_
 _atom_site_type_symbol
 _atom_site_label
 _atom_site_symmetry_multiplicity
 _atom_site_fract_x
 _atom_site_fract_y
 _atom_site_fract_z
 _atom_site_occupancy
  Na  Na0  1  0.000903  0.510807  0.992585  1
  Na  Na1  1  0.543017  0.817806  0.833852  1
  Na  Na2  1  0.489218  0.508520  0.513504  1
  Na  Na3  1  0.510782  0.008520  0.486496  1
  Na  Na4  1  0.456983  0.317806  0.166148  1
  Na  Na5  1  0.999097  0.010807  0.007415  1
  Co  Co6  1  0.983625  0.246267  0.706517  1
  Co  Co7  1  0.016375  0.746267  0.293483  1
  P  P8  1  0.023151  0.758458  0.652490  1
  P  P9  1  0.976849  0.258458  0.347510  1
  C  C10  1  0.513991  0.261390  0.847335  1
  C  C11  1  0.486009  0.761390  0.152665  1
  O  O12  1  0.681376  0.257384  0.954003  1
  O  O13  1  0.274527  0.251576  0.880946  1
  O  O14  1  0.924525  0.941928  0.747968  1
  O  O15  1  0.959685  0.565994  0.744037  1
  O  O16  1  0.583294  0.270359  0.710820  1
  O  O17  1  0.307432  0.779018  0.628951  1
  O  O18  1  0.875835  0.755893  0.501414  1
  O  O19  1  0.124165  0.255893  0.498586  1
  O  O20  1  0.692568  0.279018  0.371049  1
  O  O21  1  0.416706  0.770359  0.289180  1
  O  O22  1  0.040315  0.065994  0.255963  1
  O  O23  1  0.075475  0.441928  0.252032  1
  O  O24  1  0.725473  0.751576  0.119054  1
  O  O25  1  0.318624  0.757384  0.045997  1
