# generated using pymatgen
data_Ce4ThO9
_symmetry_space_group_name_H-M   'P 1'
_cell_length_a   6.79341202
_cell_length_b   6.79341202
_cell_length_c   6.79341202
_cell_angle_alpha   99.80678002
_cell_angle_beta   99.80678002
_cell_angle_gamma   131.25015053
_symmetry_Int_Tables_number   1
_chemical_formula_structural   Ce4ThO9
_chemical_formula_sum   'Ce4 Th1 O9'
_cell_volume   214.70486997
_cell_formula_units_Z   1
loop_
 _symmetry_equiv_pos_site_id
 _symmetry_equiv_pos_as_xyz
  1  'x, y, z'
loop_
 _atom_site_type_symbol
 _atom_site_label
 _atom_site_symmetry_multiplicity
 _atom_site_fract_x
 _atom_site_fract_y
 _atom_site_fract_z
 _atom_site_occupancy
  Ce  Ce0  1  0.615241  0.936119  0.100687  1
  Ce  Ce1  1  0.063881  0.164568  0.679122  1
  Ce  Ce2  1  0.835432  0.514554  0.899313  1
  Ce  Ce3  1  0.485446  0.384759  0.320878  1
  Th  Th4  1  0.250000  0.750000  0.500000  1
  O  O5  1  0.500000  0.500000  0.000000  1
  O  O6  1  0.185248  0.584677  0.782256  1
  O  O7  1  0.597009  0.814752  0.399429  1
  O  O8  1  0.909966  0.730569  0.631288  1
  O  O9  1  0.099281  0.278678  0.368712  1
  O  O10  1  0.415323  0.197580  0.600571  1
  O  O11  1  0.721322  0.090034  0.820603  1
  O  O12  1  0.269431  0.900719  0.179397  1
  O  O13  1  0.802420  0.402991  0.217744  1
