# generated using pymatgen
data_Li4VFe3O8
_symmetry_space_group_name_H-M   'P 1'
_cell_length_a   5.08180662
_cell_length_b   5.67760542
_cell_length_c   6.56522438
_cell_angle_alpha   90.78611430
_cell_angle_beta   90.34174354
_cell_angle_gamma   89.99767286
_symmetry_Int_Tables_number   1
_chemical_formula_structural   Li4VFe3O8
_chemical_formula_sum   'Li4 V1 Fe3 O8'
_cell_volume   189.40189127
_cell_formula_units_Z   1
loop_
 _symmetry_equiv_pos_site_id
 _symmetry_equiv_pos_as_xyz
  1  'x, y, z'
loop_
 _atom_site_type_symbol
 _atom_site_label
 _atom_site_symmetry_multiplicity
 _atom_site_fract_x
 _atom_site_fract_y
 _atom_site_fract_z
 _atom_site_occupancy
  Li  Li0  1  0.987902  0.088255  0.620722  1
  Li  Li1  1  0.499302  0.421477  0.128138  1
  Li  Li2  1  0.991621  0.576324  0.875627  1
  Li  Li3  1  0.495509  0.909180  0.372552  1
  V  V4  1  0.487480  0.908944  0.870242  1
  Fe  Fe5  1  0.990332  0.085234  0.129824  1
  Fe  Fe6  1  0.493339  0.417691  0.621429  1
  Fe  Fe7  1  0.005339  0.584161  0.374459  1
  O  O8  1  0.371775  0.072303  0.105636  1
  O  O9  1  0.391581  0.072153  0.650167  1
  O  O10  1  0.889648  0.407374  0.132453  1
  O  O11  1  0.899761  0.430299  0.611366  1
  O  O12  1  0.378299  0.582370  0.372391  1
  O  O13  1  0.396400  0.604073  0.885413  1
  O  O14  1  0.889590  0.913031  0.363288  1
  O  O15  1  0.858522  0.927129  0.886293  1
