# generated using pymatgen
data_Na5Li3Ti5O14
_symmetry_space_group_name_H-M   'P 1'
_cell_length_a   5.22810692
_cell_length_b   7.03750950
_cell_length_c   8.19284370
_cell_angle_alpha   88.47939472
_cell_angle_beta   101.75013801
_cell_angle_gamma   97.62297441
_symmetry_Int_Tables_number   1
_chemical_formula_structural   Na5Li3Ti5O14
_chemical_formula_sum   'Na5 Li3 Ti5 O14'
_cell_volume   292.51325416
_cell_formula_units_Z   1
loop_
 _symmetry_equiv_pos_site_id
 _symmetry_equiv_pos_as_xyz
  1  'x, y, z'
loop_
 _atom_site_type_symbol
 _atom_site_label
 _atom_site_symmetry_multiplicity
 _atom_site_fract_x
 _atom_site_fract_y
 _atom_site_fract_z
 _atom_site_occupancy
  Na  Na0  1  0.649250  0.293278  0.799548  1
  Na  Na1  1  0.071897  0.136345  0.639919  1
  Na  Na2  1  0.510244  0.002369  0.494190  1
  Na  Na3  1  0.904603  0.856805  0.358156  1
  Na  Na4  1  0.356927  0.729540  0.220694  1
  Li  Li5  1  0.225947  0.436316  0.938402  1
  Li  Li6  1  0.860575  0.704821  0.714436  1
  Li  Li7  1  0.778282  0.570296  0.066178  1
  Ti  Ti8  1  0.005838  0.991785  0.997584  1
  Ti  Ti9  1  0.438305  0.859596  0.869862  1
  Ti  Ti10  1  0.288188  0.576307  0.589749  1
  Ti  Ti11  1  0.705538  0.425301  0.415546  1
  Ti  Ti12  1  0.132279  0.283802  0.265402  1
  O  O13  1  0.117403  0.746586  0.958867  1
  O  O14  1  0.299853  0.092932  0.895868  1
  O  O15  1  0.494219  0.581388  0.811858  1
  O  O16  1  0.743015  0.984285  0.784555  1
  O  O17  1  0.209752  0.824458  0.625413  1
  O  O18  1  0.973887  0.448406  0.649718  1
  O  O19  1  0.399675  0.312967  0.511781  1
  O  O20  1  0.595408  0.675714  0.484093  1
  O  O21  1  0.025220  0.545854  0.334280  1
  O  O22  1  0.842346  0.188977  0.382217  1
  O  O23  1  0.197353  0.028615  0.230700  1
  O  O24  1  0.463636  0.425855  0.206265  1
  O  O25  1  0.688202  0.845136  0.071040  1
  O  O26  1  0.954060  0.281674  0.043955  1
