# generated using pymatgen
data_Li3V4(OF3)3
_symmetry_space_group_name_H-M   'P 1'
_cell_length_a   5.19065239
_cell_length_b   5.53048377
_cell_length_c   17.31966908
_cell_angle_alpha   88.11742643
_cell_angle_beta   97.67410237
_cell_angle_gamma   117.96601669
_symmetry_Int_Tables_number   1
_chemical_formula_structural   Li3V4(OF3)3
_chemical_formula_sum   'Li6 V8 O6 F18'
_cell_volume   434.94855431
_cell_formula_units_Z   2
loop_
 _symmetry_equiv_pos_site_id
 _symmetry_equiv_pos_as_xyz
  1  'x, y, z'
loop_
 _atom_site_type_symbol
 _atom_site_label
 _atom_site_symmetry_multiplicity
 _atom_site_fract_x
 _atom_site_fract_y
 _atom_site_fract_z
 _atom_site_occupancy
  Li  Li0  1  0.890034  0.445807  0.304622  1
  Li  Li1  1  0.902714  0.031169  0.820215  1
  Li  Li2  1  0.654505  0.358681  0.948341  1
  Li  Li3  1  0.342205  0.100878  0.551695  1
  Li  Li4  1  0.198405  0.167075  0.199324  1
  Li  Li5  1  0.062055  0.454375  0.674361  1
  V  V6  1  0.973037  0.005662  0.004853  1
  V  V7  1  0.987913  0.487259  0.500951  1
  V  V8  1  0.748248  0.362846  0.124211  1
  V  V9  1  0.506670  0.712369  0.250201  1
  V  V10  1  0.537246  0.261392  0.752225  1
  V  V11  1  0.758950  0.908791  0.626535  1
  V  V12  1  0.252432  0.137086  0.371528  1
  V  V13  1  0.216707  0.622661  0.872345  1
  O  O14  1  0.802523  0.207322  0.033464  1
  O  O15  1  0.766657  0.206544  0.565116  1
  O  O16  1  0.703998  0.052778  0.717953  1
  O  O17  1  0.667788  0.503342  0.214185  1
  O  O18  1  0.811374  0.387108  0.847164  1
  O  O19  1  0.250810  0.421719  0.311314  1
  F  F20  1  0.770667  0.057459  0.193820  1
  F  F21  1  0.731303  0.656574  0.050593  1
  F  F22  1  0.706913  0.338626  0.401991  1
  F  F23  1  0.822886  0.729920  0.536688  1
  F  F24  1  0.828214  0.887497  0.344500  1
  F  F25  1  0.297344  0.133528  0.098341  1
  F  F26  1  0.782782  0.587740  0.687693  1
  F  F27  1  0.214847  0.140622  0.652976  1
  F  F28  1  0.211973  0.291514  0.472672  1
  F  F29  1  0.666608  0.833833  0.901182  1
  F  F30  1  0.179196  0.571874  0.157431  1
  F  F31  1  0.304331  0.469628  0.777058  1
  F  F32  1  0.313275  0.954370  0.279678  1
  F  F33  1  0.302118  0.682537  0.595767  1
  F  F34  1  0.244687  0.300663  0.933267  1
  F  F35  1  0.246473  0.831549  0.446034  1
  F  F36  1  0.227291  0.945603  0.810914  1
  F  F37  1  0.167071  0.789298  0.963151  1
