# generated using pymatgen
data_Ge11N11O5
_symmetry_space_group_name_H-M   'P 1'
_cell_length_a   5.91523389
_cell_length_b   5.91523389
_cell_length_c   10.22390314
_cell_angle_alpha   73.18841694
_cell_angle_beta   106.81158306
_cell_angle_gamma   120.28835058
_symmetry_Int_Tables_number   1
_chemical_formula_structural   Ge11N11O5
_chemical_formula_sum   'Ge11 N11 O5'
_cell_volume   291.21984075
_cell_formula_units_Z   1
loop_
 _symmetry_equiv_pos_site_id
 _symmetry_equiv_pos_as_xyz
  1  'x, y, z'
loop_
 _atom_site_type_symbol
 _atom_site_label
 _atom_site_symmetry_multiplicity
 _atom_site_fract_x
 _atom_site_fract_y
 _atom_site_fract_z
 _atom_site_occupancy
  Ge  Ge0  1  0.686785  0.812291  0.562124  1
  Ge  Ge1  1  0.197677  0.314728  0.065930  1
  Ge  Ge2  1  0.685272  0.802323  0.065930  1
  Ge  Ge3  1  0.617045  0.382955  0.873950  1
  Ge  Ge4  1  0.123668  0.876332  0.372878  1
  Ge  Ge5  1  0.943396  0.056604  0.810241  1
  Ge  Ge6  1  0.189840  0.810160  0.061427  1
  Ge  Ge7  1  0.436120  0.563880  0.311403  1
  Ge  Ge8  1  0.687296  0.312704  0.564537  1
  Ge  Ge9  1  0.251390  0.748610  0.749904  1
  Ge  Ge10  1  0.187709  0.313215  0.562124  1
  N  N11  1  0.788846  0.675777  0.438273  1
  N  N12  1  0.323525  0.676475  0.437701  1
  N  N13  1  0.057396  0.942604  0.173881  1
  N  N14  1  0.554670  0.445330  0.672897  1
  N  N15  1  0.823694  0.711621  0.944321  1
  N  N16  1  0.288379  0.176306  0.944321  1
  N  N17  1  0.049839  0.416451  0.685568  1
  N  N18  1  0.324223  0.211154  0.438273  1
  N  N19  1  0.583549  0.950161  0.685568  1
  N  N20  1  0.052375  0.947625  0.683557  1
  N  N21  1  0.316356  0.683644  0.947679  1
  O  O22  1  0.540326  0.898136  0.176910  1
  O  O23  1  0.825762  0.174238  0.947436  1
  O  O24  1  0.541028  0.458972  0.180251  1
  O  O25  1  0.821984  0.178016  0.466007  1
  O  O26  1  0.101864  0.459674  0.176910  1
