# generated using pymatgen
data_Li3Bi2(PO4)3
_symmetry_space_group_name_H-M   'P 1'
_cell_length_a   9.02465360
_cell_length_b   9.02465360
_cell_length_c   8.87696843
_cell_angle_alpha   63.29495385
_cell_angle_beta   116.70504615
_cell_angle_gamma   116.35622708
_symmetry_Int_Tables_number   1
_chemical_formula_structural   Li3Bi2(PO4)3
_chemical_formula_sum   'Li6 Bi4 P6 O24'
_cell_volume   549.80185397
_cell_formula_units_Z   2
loop_
 _symmetry_equiv_pos_site_id
 _symmetry_equiv_pos_as_xyz
  1  'x, y, z'
loop_
 _atom_site_type_symbol
 _atom_site_label
 _atom_site_symmetry_multiplicity
 _atom_site_fract_x
 _atom_site_fract_y
 _atom_site_fract_z
 _atom_site_occupancy
  Li  Li0  1  0.000000  0.500000  0.000000  1
  Li  Li1  1  0.722397  0.334298  0.615816  1
  Li  Li2  1  0.665702  0.277603  0.115816  1
  Li  Li3  1  0.500000  0.000000  0.500000  1
  Li  Li4  1  0.334298  0.722397  0.884184  1
  Li  Li5  1  0.277603  0.665702  0.384184  1
  Bi  Bi6  1  0.859485  0.668505  0.148005  1
  Bi  Bi7  1  0.668505  0.859485  0.351995  1
  Bi  Bi8  1  0.331495  0.140515  0.648005  1
  Bi  Bi9  1  0.140515  0.331495  0.851995  1
  P  P10  1  0.900974  0.256521  0.436030  1
  P  P11  1  0.440156  0.440156  0.250000  1
  P  P12  1  0.743479  0.099026  0.936030  1
  P  P13  1  0.256521  0.900974  0.063970  1
  P  P14  1  0.559844  0.559844  0.750000  1
  P  P15  1  0.099026  0.743479  0.563970  1
  O  O16  1  0.673822  0.094234  0.068513  1
  O  O17  1  0.943635  0.809946  0.494937  1
  O  O18  1  0.899557  0.397979  0.248839  1
  O  O19  1  0.905766  0.326178  0.568513  1
  O  O20  1  0.888950  0.280138  0.902408  1
  O  O21  1  0.470558  0.590595  0.309955  1
  O  O22  1  0.590595  0.470558  0.190045  1
  O  O23  1  0.719862  0.111050  0.402408  1
  O  O24  1  0.431566  0.263636  0.406550  1
  O  O25  1  0.263636  0.431566  0.093450  1
  O  O26  1  0.809946  0.943635  0.005063  1
  O  O27  1  0.602021  0.100443  0.748839  1
  O  O28  1  0.397979  0.899557  0.251161  1
  O  O29  1  0.190054  0.056365  0.994937  1
  O  O30  1  0.736364  0.568434  0.906550  1
  O  O31  1  0.568434  0.736364  0.593450  1
  O  O32  1  0.280138  0.888950  0.597592  1
  O  O33  1  0.409405  0.529442  0.809955  1
  O  O34  1  0.529442  0.409405  0.690045  1
  O  O35  1  0.111050  0.719862  0.097592  1
  O  O36  1  0.094234  0.673822  0.431487  1
  O  O37  1  0.100443  0.602021  0.751161  1
  O  O38  1  0.056365  0.190054  0.505063  1
  O  O39  1  0.326178  0.905766  0.931487  1
