# generated using pymatgen
data_Na5LiMn2P2(CO7)2
_symmetry_space_group_name_H-M   'P 1'
_cell_length_a   6.81677414
_cell_length_b   8.96649428
_cell_length_c   10.33163375
_cell_angle_alpha   90.21896000
_cell_angle_beta   90.11111575
_cell_angle_gamma   90.29750426
_symmetry_Int_Tables_number   1
_chemical_formula_structural   Na5LiMn2P2(CO7)2
_chemical_formula_sum   'Na10 Li2 Mn4 P4 C4 O28'
_cell_volume   631.48163260
_cell_formula_units_Z   2
loop_
 _symmetry_equiv_pos_site_id
 _symmetry_equiv_pos_as_xyz
  1  'x, y, z'
loop_
 _atom_site_type_symbol
 _atom_site_label
 _atom_site_symmetry_multiplicity
 _atom_site_fract_x
 _atom_site_fract_y
 _atom_site_fract_z
 _atom_site_occupancy
  Na  Na0  1  0.252349  0.083072  0.121288  1
  Na  Na1  1  0.251906  0.083725  0.618881  1
  Na  Na2  1  0.001290  0.257606  0.375996  1
  Na  Na3  1  0.001767  0.259582  0.876296  1
  Na  Na4  1  0.498342  0.259131  0.876407  1
  Na  Na5  1  0.501801  0.741846  0.124893  1
  Na  Na6  1  0.998316  0.741451  0.124710  1
  Na  Na7  1  0.501908  0.741146  0.622961  1
  Na  Na8  1  0.998224  0.741042  0.622609  1
  Na  Na9  1  0.750298  0.916767  0.879401  1
  Li  Li10  1  0.490737  0.266650  0.379556  1
  Li  Li11  1  0.745920  0.917855  0.377841  1
  Mn  Mn12  1  0.749022  0.360626  0.113187  1
  Mn  Mn13  1  0.747685  0.360353  0.608834  1
  Mn  Mn14  1  0.249684  0.639907  0.387938  1
  Mn  Mn15  1  0.250132  0.637875  0.889600  1
  P  P16  1  0.253100  0.409272  0.150486  1
  P  P17  1  0.249784  0.410503  0.646258  1
  P  P18  1  0.746304  0.591459  0.350545  1
  P  P19  1  0.750023  0.588458  0.851285  1
  C  C20  1  0.748324  0.059384  0.137880  1
  C  C21  1  0.749172  0.055366  0.627550  1
  C  C22  1  0.256100  0.943941  0.368403  1
  C  C23  1  0.250067  0.939852  0.867847  1
  O  O24  1  0.267644  0.088542  0.358806  1
  O  O25  1  0.249116  0.083957  0.857170  1
  O  O26  1  0.749624  0.117596  0.022404  1
  O  O27  1  0.748422  0.108895  0.510608  1
  O  O28  1  0.744859  0.146537  0.238892  1
  O  O29  1  0.748153  0.145852  0.727321  1
  O  O30  1  0.067099  0.318082  0.111230  1
  O  O31  1  0.433505  0.318101  0.104850  1
  O  O32  1  0.064769  0.318709  0.606211  1
  O  O33  1  0.431207  0.318323  0.601826  1
  O  O34  1  0.262016  0.424195  0.301844  1
  O  O35  1  0.736567  0.431535  0.409566  1
  O  O36  1  0.252890  0.427411  0.797071  1
  O  O37  1  0.750415  0.430715  0.912425  1
  O  O38  1  0.250167  0.568108  0.091228  1
  O  O39  1  0.748716  0.572920  0.200180  1
  O  O40  1  0.249845  0.568942  0.586808  1
  O  O41  1  0.749403  0.570208  0.700707  1
  O  O42  1  0.567978  0.689438  0.390635  1
  O  O43  1  0.931663  0.681438  0.393179  1
  O  O44  1  0.567356  0.680712  0.892444  1
  O  O45  1  0.933646  0.681258  0.892495  1
  O  O46  1  0.249666  0.860229  0.264864  1
  O  O47  1  0.250441  0.855438  0.764872  1
  O  O48  1  0.250141  0.880177  0.481195  1
  O  O49  1  0.250744  0.877660  0.981500  1
  O  O50  1  0.750822  0.915633  0.153502  1
  O  O51  1  0.750864  0.912519  0.645519  1
