# generated using pymatgen
data_Ba2YBr7
_symmetry_space_group_name_H-M   'P 1'
_cell_length_a   8.20914138
_cell_length_b   13.66924764
_cell_length_c   15.29706823
_cell_angle_alpha   90.00000000
_cell_angle_beta   90.00000000
_cell_angle_gamma   90.00000000
_symmetry_Int_Tables_number   1
_chemical_formula_structural   Ba2YBr7
_chemical_formula_sum   'Ba8 Y4 Br28'
_cell_volume   1716.52665037
_cell_formula_units_Z   4
loop_
 _symmetry_equiv_pos_site_id
 _symmetry_equiv_pos_as_xyz
  1  'x, y, z'
loop_
 _atom_site_type_symbol
 _atom_site_label
 _atom_site_symmetry_multiplicity
 _atom_site_fract_x
 _atom_site_fract_y
 _atom_site_fract_z
 _atom_site_occupancy
  Ba  Ba0  1  0.750000  0.759476  0.470961  1
  Ba  Ba1  1  0.750000  0.746709  0.770077  1
  Ba  Ba2  1  0.250000  0.753291  0.270077  1
  Ba  Ba3  1  0.250000  0.740524  0.970961  1
  Ba  Ba4  1  0.750000  0.259476  0.029039  1
  Ba  Ba5  1  0.750000  0.246709  0.729923  1
  Ba  Ba6  1  0.250000  0.253291  0.229923  1
  Ba  Ba7  1  0.250000  0.240524  0.529039  1
  Y  Y8  1  0.750000  0.061375  0.286963  1
  Y  Y9  1  0.250000  0.438625  0.786963  1
  Y  Y10  1  0.750000  0.561375  0.213037  1
  Y  Y11  1  0.250000  0.938625  0.713037  1
  Br  Br12  1  0.250000  0.898148  0.116573  1
  Br  Br13  1  0.970559  0.912337  0.347756  1
  Br  Br14  1  0.529441  0.912337  0.347756  1
  Br  Br15  1  0.033653  0.894581  0.853302  1
  Br  Br16  1  0.466347  0.894581  0.853302  1
  Br  Br17  1  0.031486  0.817312  0.622988  1
  Br  Br18  1  0.468514  0.817312  0.622988  1
  Br  Br19  1  0.968514  0.682688  0.122988  1
  Br  Br20  1  0.531486  0.682688  0.122988  1
  Br  Br21  1  0.966347  0.605419  0.353302  1
  Br  Br22  1  0.533653  0.605419  0.353302  1
  Br  Br23  1  0.470559  0.587663  0.847756  1
  Br  Br24  1  0.029441  0.587663  0.847756  1
  Br  Br25  1  0.750000  0.601852  0.616573  1
  Br  Br26  1  0.250000  0.398148  0.383427  1
  Br  Br27  1  0.970559  0.412337  0.152244  1
  Br  Br28  1  0.529441  0.412337  0.152244  1
  Br  Br29  1  0.033653  0.394581  0.646698  1
  Br  Br30  1  0.466347  0.394581  0.646698  1
  Br  Br31  1  0.031486  0.317312  0.877012  1
  Br  Br32  1  0.468514  0.317312  0.877012  1
  Br  Br33  1  0.531486  0.182688  0.377012  1
  Br  Br34  1  0.968514  0.182688  0.377012  1
  Br  Br35  1  0.533653  0.105419  0.146698  1
  Br  Br36  1  0.966347  0.105419  0.146698  1
  Br  Br37  1  0.470559  0.087663  0.652244  1
  Br  Br38  1  0.029441  0.087663  0.652244  1
  Br  Br39  1  0.750000  0.101852  0.883427  1
