# generated using pymatgen
data_LiAgF3
_symmetry_space_group_name_H-M   'P 1'
_cell_length_a   5.49420144
_cell_length_b   5.64040250
_cell_length_c   9.81356730
_cell_angle_alpha   90.00000000
_cell_angle_beta   121.44076794
_cell_angle_gamma   90.00000000
_symmetry_Int_Tables_number   1
_chemical_formula_structural   LiAgF3
_chemical_formula_sum   'Li4 Ag4 F12'
_cell_volume   259.46702819
_cell_formula_units_Z   4
loop_
 _symmetry_equiv_pos_site_id
 _symmetry_equiv_pos_as_xyz
  1  'x, y, z'
loop_
 _atom_site_type_symbol
 _atom_site_label
 _atom_site_symmetry_multiplicity
 _atom_site_fract_x
 _atom_site_fract_y
 _atom_site_fract_z
 _atom_site_occupancy
  Li  Li0  1  0.256909  0.018342  0.229672  1
  Li  Li1  1  0.743091  0.518342  0.270328  1
  Li  Li2  1  0.256909  0.481658  0.729672  1
  Li  Li3  1  0.743091  0.981658  0.770328  1
  Ag  Ag4  1  0.000000  0.500000  0.000000  1
  Ag  Ag5  1  0.500000  0.500000  0.500000  1
  Ag  Ag6  1  0.500000  0.000000  0.000000  1
  Ag  Ag7  1  0.000000  0.000000  0.500000  1
  F  F8  1  0.100875  0.161957  0.947825  1
  F  F9  1  0.790254  0.136724  0.609321  1
  F  F10  1  0.449093  0.338645  0.283879  1
  F  F11  1  0.209746  0.636724  0.890679  1
  F  F12  1  0.899125  0.661957  0.552175  1
  F  F13  1  0.550907  0.838645  0.216121  1
  F  F14  1  0.449093  0.161355  0.783879  1
  F  F15  1  0.100875  0.338043  0.447825  1
  F  F16  1  0.790254  0.363276  0.109321  1
  F  F17  1  0.550907  0.661355  0.716121  1
  F  F18  1  0.209746  0.863276  0.390679  1
  F  F19  1  0.899125  0.838043  0.052175  1
