# generated using pymatgen
data_CaSeO3
_symmetry_space_group_name_H-M   'P 1'
_cell_length_a   5.46070025
_cell_length_b   6.49213175
_cell_length_c   8.44653725
_cell_angle_alpha   90.00000000
_cell_angle_beta   90.00000000
_cell_angle_gamma   90.00000000
_symmetry_Int_Tables_number   1
_chemical_formula_structural   CaSeO3
_chemical_formula_sum   'Ca4 Se4 O12'
_cell_volume   299.44313725
_cell_formula_units_Z   4
loop_
 _symmetry_equiv_pos_site_id
 _symmetry_equiv_pos_as_xyz
  1  'x, y, z'
loop_
 _atom_site_type_symbol
 _atom_site_label
 _atom_site_symmetry_multiplicity
 _atom_site_fract_x
 _atom_site_fract_y
 _atom_site_fract_z
 _atom_site_occupancy
  Ca  Ca0  1  0.000000  0.500000  0.000000  1
  Ca  Ca1  1  0.000000  0.500000  0.500000  1
  Ca  Ca2  1  0.500000  0.000000  0.000000  1
  Ca  Ca3  1  0.500000  0.000000  0.500000  1
  Se  Se4  1  0.017778  0.025646  0.750000  1
  Se  Se5  1  0.482222  0.525646  0.750000  1
  Se  Se6  1  0.517778  0.474354  0.250000  1
  Se  Se7  1  0.982222  0.974354  0.250000  1
  O  O8  1  0.204918  0.427236  0.250000  1
  O  O9  1  0.128905  0.170485  0.591864  1
  O  O10  1  0.128905  0.170485  0.908136  1
  O  O11  1  0.371095  0.670485  0.591864  1
  O  O12  1  0.371095  0.670485  0.908136  1
  O  O13  1  0.295082  0.927236  0.250000  1
  O  O14  1  0.704918  0.072764  0.750000  1
  O  O15  1  0.628905  0.329515  0.091864  1
  O  O16  1  0.628905  0.329515  0.408136  1
  O  O17  1  0.871095  0.829515  0.091864  1
  O  O18  1  0.871095  0.829515  0.408136  1
  O  O19  1  0.795082  0.572764  0.750000  1
