# generated using pymatgen
data_K2ZnCr4(HO4)4
_symmetry_space_group_name_H-M   'P 1'
_cell_length_a   6.89690555
_cell_length_b   7.84235646
_cell_length_c   8.00460037
_cell_angle_alpha   89.32577882
_cell_angle_beta   98.31622949
_cell_angle_gamma   115.88428779
_symmetry_Int_Tables_number   1
_chemical_formula_structural   K2ZnCr4(HO4)4
_chemical_formula_sum   'K2 Zn1 Cr4 H4 O16'
_cell_volume   384.77967827
_cell_formula_units_Z   1
loop_
 _symmetry_equiv_pos_site_id
 _symmetry_equiv_pos_as_xyz
  1  'x, y, z'
loop_
 _atom_site_type_symbol
 _atom_site_label
 _atom_site_symmetry_multiplicity
 _atom_site_fract_x
 _atom_site_fract_y
 _atom_site_fract_z
 _atom_site_occupancy
  K  K0  1  0.708134  0.264782  0.826045  1
  K  K1  1  0.291866  0.735218  0.173955  1
  Zn  Zn2  1  0.000000  0.000000  0.500000  1
  Cr  Cr3  1  0.276055  0.506158  0.667001  1
  Cr  Cr4  1  0.723945  0.493842  0.332999  1
  Cr  Cr5  1  0.739706  0.794575  0.843359  1
  Cr  Cr6  1  0.260294  0.205425  0.156641  1
  H  H7  1  0.736536  0.144464  0.388903  1
  H  H8  1  0.263464  0.855536  0.611097  1
  H  H9  1  0.826579  0.091944  0.235540  1
  H  H10  1  0.173421  0.908056  0.764460  1
  O  O11  1  0.152315  0.536647  0.812979  1
  O  O12  1  0.847685  0.463353  0.187021  1
  O  O13  1  0.844956  0.714200  0.412544  1
  O  O14  1  0.155044  0.285800  0.587456  1
  O  O15  1  0.286554  0.658162  0.521712  1
  O  O16  1  0.713446  0.341838  0.478288  1
  O  O17  1  0.550235  0.558441  0.762254  1
  O  O18  1  0.449765  0.441559  0.237746  1
  O  O19  1  0.961648  0.784636  0.933963  1
  O  O20  1  0.038352  0.215364  0.066037  1
  O  O21  1  0.628771  0.864822  0.975852  1
  O  O22  1  0.371229  0.135178  0.024148  1
  O  O23  1  0.793452  0.940173  0.686455  1
  O  O24  1  0.206548  0.059827  0.313545  1
  O  O25  1  0.758987  0.040942  0.336674  1
  O  O26  1  0.241013  0.959058  0.663326  1
