# generated using pymatgen
data_Li2Cr3BiO8
_symmetry_space_group_name_H-M   'P 1'
_cell_length_a   6.22909460
_cell_length_b   6.22909460
_cell_length_c   6.22909460
_cell_angle_alpha   58.18966994
_cell_angle_beta   58.18966994
_cell_angle_gamma   58.18966994
_symmetry_Int_Tables_number   1
_chemical_formula_structural   Li2Cr3BiO8
_chemical_formula_sum   'Li2 Cr3 Bi1 O8'
_cell_volume   163.81704241
_cell_formula_units_Z   1
loop_
 _symmetry_equiv_pos_site_id
 _symmetry_equiv_pos_as_xyz
  1  'x, y, z'
loop_
 _atom_site_type_symbol
 _atom_site_label
 _atom_site_symmetry_multiplicity
 _atom_site_fract_x
 _atom_site_fract_y
 _atom_site_fract_z
 _atom_site_occupancy
  Li  Li0  1  0.126634  0.126634  0.126634  1
  Li  Li1  1  0.873366  0.873366  0.873366  1
  Cr  Cr2  1  0.500000  0.500000  0.000000  1
  Cr  Cr3  1  0.000000  0.500000  0.500000  1
  Cr  Cr4  1  0.500000  1.000000  0.500000  1
  Bi  Bi5  1  0.500000  0.500000  0.500000  1
  O  O6  1  0.718811  0.253089  0.253089  1
  O  O7  1  0.253089  0.253089  0.718811  1
  O  O8  1  0.732796  0.732796  0.732796  1
  O  O9  1  0.253089  0.718811  0.253089  1
  O  O10  1  0.746911  0.281189  0.746911  1
  O  O11  1  0.267204  0.267204  0.267204  1
  O  O12  1  0.746911  0.746911  0.281189  1
  O  O13  1  0.281189  0.746911  0.746911  1
