# generated using pymatgen
data_Li4Ti3Ni2Sn3O16
_symmetry_space_group_name_H-M   'P 1'
_cell_length_a   6.11114572
_cell_length_b   6.11114572
_cell_length_c   9.74967684
_cell_angle_alpha   89.57893038
_cell_angle_beta   90.42106962
_cell_angle_gamma   120.24624988
_symmetry_Int_Tables_number   1
_chemical_formula_structural   Li4Ti3Ni2Sn3O16
_chemical_formula_sum   'Li4 Ti3 Ni2 Sn3 O16'
_cell_volume   314.53394920
_cell_formula_units_Z   1
loop_
 _symmetry_equiv_pos_site_id
 _symmetry_equiv_pos_as_xyz
  1  'x, y, z'
loop_
 _atom_site_type_symbol
 _atom_site_label
 _atom_site_symmetry_multiplicity
 _atom_site_fract_x
 _atom_site_fract_y
 _atom_site_fract_z
 _atom_site_occupancy
  Li  Li0  1  0.668494  0.331506  0.115177  1
  Li  Li1  1  0.991772  0.008228  0.003335  1
  Li  Li2  1  0.993411  0.006589  0.497866  1
  Li  Li3  1  0.334903  0.665097  0.610230  1
  Ti  Ti4  1  0.830979  0.169021  0.784666  1
  Ti  Ti5  1  0.661871  0.830497  0.284830  1
  Ti  Ti6  1  0.169503  0.338129  0.284830  1
  Ni  Ni7  1  0.668997  0.331003  0.508653  1
  Ni  Ni8  1  0.335636  0.664364  0.012565  1
  Sn  Sn9  1  0.832172  0.661280  0.785238  1
  Sn  Sn10  1  0.338720  0.167828  0.785238  1
  Sn  Sn11  1  0.170017  0.829983  0.285923  1
  O  O12  1  0.833036  0.683435  0.396330  1
  O  O13  1  0.517930  0.482070  0.658861  1
  O  O14  1  0.674493  0.325507  0.903293  1
  O  O15  1  0.994107  0.005893  0.680607  1
  O  O16  1  0.993445  0.006555  0.185691  1
  O  O17  1  0.316565  0.166964  0.396330  1
  O  O18  1  0.965784  0.471679  0.664081  1
  O  O19  1  0.528321  0.034216  0.664081  1
  O  O20  1  0.157590  0.842410  0.904566  1
  O  O21  1  0.840396  0.159604  0.388595  1
  O  O22  1  0.491311  0.962389  0.165082  1
  O  O23  1  0.037611  0.508689  0.165082  1
  O  O24  1  0.343328  0.656672  0.398494  1
  O  O25  1  0.679810  0.850058  0.895298  1
  O  O26  1  0.480254  0.519746  0.171892  1
  O  O27  1  0.149942  0.320190  0.895298  1
