# generated using pymatgen
data_ZrBiO4
_symmetry_space_group_name_H-M   'P 1'
_cell_length_a   6.59814558
_cell_length_b   6.59814558
_cell_length_c   6.59814558
_cell_angle_alpha   132.39138516
_cell_angle_beta   132.39138516
_cell_angle_gamma   69.61157458
_symmetry_Int_Tables_number   1
_chemical_formula_structural   ZrBiO4
_chemical_formula_sum   'Zr2 Bi2 O8'
_cell_volume   153.69150948
_cell_formula_units_Z   2
loop_
 _symmetry_equiv_pos_site_id
 _symmetry_equiv_pos_as_xyz
  1  'x, y, z'
loop_
 _atom_site_type_symbol
 _atom_site_label
 _atom_site_symmetry_multiplicity
 _atom_site_fract_x
 _atom_site_fract_y
 _atom_site_fract_z
 _atom_site_occupancy
  Zr  Zr0  1  0.750000  0.250000  0.500000  1
  Zr  Zr1  1  0.000000  0.000000  0.000000  1
  Bi  Bi2  1  0.250000  0.750000  0.500000  1
  Bi  Bi3  1  0.500000  0.500000  0.000000  1
  O  O4  1  0.615903  0.586822  0.494198  1
  O  O5  1  0.092625  0.121705  0.505802  1
  O  O6  1  0.878295  0.384097  0.970920  1
  O  O7  1  0.413178  0.907375  0.029080  1
  O  O8  1  0.336822  0.342625  0.470920  1
  O  O9  1  0.871705  0.865903  0.529080  1
  O  O10  1  0.657375  0.128295  0.994198  1
  O  O11  1  0.134097  0.663178  0.005802  1
