# generated using pymatgen
data_Li3Si2BiO7
_symmetry_space_group_name_H-M   'P 1'
_cell_length_a   9.05586259
_cell_length_b   9.05586259
_cell_length_c   13.86474068
_cell_angle_alpha   90.00000000
_cell_angle_beta   90.00000000
_cell_angle_gamma   120.00000000
_symmetry_Int_Tables_number   1
_chemical_formula_structural   Li3Si2BiO7
_chemical_formula_sum   'Li18 Si12 Bi6 O42'
_cell_volume   984.69567651
_cell_formula_units_Z   6
loop_
 _symmetry_equiv_pos_site_id
 _symmetry_equiv_pos_as_xyz
  1  'x, y, z'
loop_
 _atom_site_type_symbol
 _atom_site_label
 _atom_site_symmetry_multiplicity
 _atom_site_fract_x
 _atom_site_fract_y
 _atom_site_fract_z
 _atom_site_occupancy
  Li  Li0  1  0.313481  0.985718  0.087992  1
  Li  Li1  1  0.313044  0.984343  0.413286  1
  Li  Li2  1  0.014282  0.327763  0.087992  1
  Li  Li3  1  0.015657  0.328700  0.413286  1
  Li  Li4  1  0.000000  0.000000  0.499597  1
  Li  Li5  1  0.000000  0.000000  0.999597  1
  Li  Li6  1  0.333333  0.666667  0.251720  1
  Li  Li7  1  0.333333  0.666667  0.762227  1
  Li  Li8  1  0.327763  0.313481  0.587992  1
  Li  Li9  1  0.328700  0.313044  0.913286  1
  Li  Li10  1  0.672237  0.686519  0.087992  1
  Li  Li11  1  0.671300  0.686956  0.413286  1
  Li  Li12  1  0.666667  0.333333  0.262227  1
  Li  Li13  1  0.666667  0.333333  0.751720  1
  Li  Li14  1  0.984343  0.671300  0.913286  1
  Li  Li15  1  0.985718  0.672237  0.587992  1
  Li  Li16  1  0.686519  0.014282  0.587992  1
  Li  Li17  1  0.686956  0.015657  0.913286  1
  Si  Si18  1  0.325625  0.980384  0.859096  1
  Si  Si19  1  0.325338  0.979992  0.641174  1
  Si  Si20  1  0.020008  0.345345  0.641174  1
  Si  Si21  1  0.019616  0.345241  0.859096  1
  Si  Si22  1  0.345241  0.325625  0.359096  1
  Si  Si23  1  0.345345  0.325338  0.141174  1
  Si  Si24  1  0.654655  0.674662  0.641174  1
  Si  Si25  1  0.654759  0.674375  0.859096  1
  Si  Si26  1  0.980384  0.654759  0.359096  1
  Si  Si27  1  0.979992  0.654655  0.141174  1
  Si  Si28  1  0.674375  0.019616  0.359096  1
  Si  Si29  1  0.674662  0.020008  0.141174  1
  Bi  Bi30  1  0.333333  0.666667  0.022084  1
  Bi  Bi31  1  0.000000  0.000000  0.250165  1
  Bi  Bi32  1  0.000000  0.000000  0.750165  1
  Bi  Bi33  1  0.333333  0.666667  0.480583  1
  Bi  Bi34  1  0.666667  0.333333  0.522084  1
  Bi  Bi35  1  0.666667  0.333333  0.980583  1
  O  O36  1  0.087462  0.863042  0.136341  1
  O  O37  1  0.086477  0.863151  0.364691  1
  O  O38  1  0.099950  0.567245  0.128953  1
  O  O39  1  0.101618  0.568889  0.371622  1
  O  O40  1  0.233768  0.825732  0.561841  1
  O  O41  1  0.234718  0.822750  0.936453  1
  O  O42  1  0.292579  0.881233  0.750148  1
  O  O43  1  0.118767  0.411346  0.750148  1
  O  O44  1  0.174268  0.408036  0.561841  1
  O  O45  1  0.177250  0.411968  0.936453  1
  O  O46  1  0.467295  0.900050  0.128953  1
  O  O47  1  0.467271  0.898382  0.371622  1
  O  O48  1  0.136958  0.224420  0.136341  1
  O  O49  1  0.136849  0.223326  0.364691  1
  O  O50  1  0.432755  0.532705  0.128953  1
  O  O51  1  0.431111  0.532729  0.371622  1
  O  O52  1  0.223326  0.086477  0.864691  1
  O  O53  1  0.224420  0.087462  0.636341  1
  O  O54  1  0.591964  0.766232  0.561841  1
  O  O55  1  0.588032  0.765282  0.936453  1
  O  O56  1  0.588654  0.707421  0.750148  1
  O  O57  1  0.411346  0.292579  0.250148  1
  O  O58  1  0.408036  0.233768  0.061841  1
  O  O59  1  0.411968  0.234718  0.436453  1
  O  O60  1  0.775580  0.912538  0.136341  1
  O  O61  1  0.776674  0.913523  0.364691  1
  O  O62  1  0.567245  0.467295  0.628953  1
  O  O63  1  0.568889  0.467271  0.871622  1
  O  O64  1  0.863042  0.775580  0.636341  1
  O  O65  1  0.863151  0.776674  0.864691  1
  O  O66  1  0.532729  0.101618  0.871622  1
  O  O67  1  0.532705  0.099950  0.628953  1
  O  O68  1  0.822750  0.588032  0.436453  1
  O  O69  1  0.825732  0.591964  0.061841  1
  O  O70  1  0.881233  0.588654  0.250148  1
  O  O71  1  0.707421  0.118767  0.250148  1
  O  O72  1  0.765282  0.177250  0.436453  1
  O  O73  1  0.766232  0.174268  0.061841  1
  O  O74  1  0.900050  0.432755  0.628953  1
  O  O75  1  0.898382  0.431111  0.871622  1
  O  O76  1  0.912538  0.136958  0.636341  1
  O  O77  1  0.913523  0.136849  0.864691  1
