# generated using pymatgen
data_NaCaAlH2OF6
_symmetry_space_group_name_H-M   'P 1'
_cell_length_a   8.07319741
_cell_length_b   8.07319741
_cell_length_c   10.04886506
_cell_angle_alpha   62.77369380
_cell_angle_beta   117.22630620
_cell_angle_gamma   98.42398258
_symmetry_Int_Tables_number   1
_chemical_formula_structural   NaCaAlH2OF6
_chemical_formula_sum   'Na4 Ca4 Al4 H8 O4 F24'
_cell_volume   516.22439069
_cell_formula_units_Z   4
loop_
 _symmetry_equiv_pos_site_id
 _symmetry_equiv_pos_as_xyz
  1  'x, y, z'
loop_
 _atom_site_type_symbol
 _atom_site_label
 _atom_site_symmetry_multiplicity
 _atom_site_fract_x
 _atom_site_fract_y
 _atom_site_fract_z
 _atom_site_occupancy
  Na  Na0  1  0.739443  0.506359  0.991985  1
  Na  Na1  1  0.493641  0.260557  0.491985  1
  Na  Na2  1  0.506359  0.739443  0.508015  1
  Na  Na3  1  0.260557  0.493641  0.008015  1
  Ca  Ca4  1  0.077819  0.077819  0.250000  1
  Ca  Ca5  1  0.922181  0.922181  0.750000  1
  Ca  Ca6  1  0.679340  0.679340  0.250000  1
  Ca  Ca7  1  0.320660  0.320660  0.750000  1
  Al  Al8  1  0.399208  0.847830  0.743835  1
  Al  Al9  1  0.152170  0.600792  0.243835  1
  Al  Al10  1  0.847830  0.399208  0.756165  1
  Al  Al11  1  0.600792  0.152170  0.256165  1
  H  H12  1  0.772671  0.994168  0.975663  1
  H  H13  1  0.005832  0.227329  0.475663  1
  H  H14  1  0.687907  0.083795  0.042725  1
  H  H15  1  0.916205  0.312093  0.542725  1
  H  H16  1  0.994168  0.772671  0.524337  1
  H  H17  1  0.227329  0.005832  0.024337  1
  H  H18  1  0.083795  0.687907  0.457275  1
  H  H19  1  0.312093  0.916205  0.957275  1
  O  O20  1  0.772564  0.980192  0.077609  1
  O  O21  1  0.019808  0.227436  0.577609  1
  O  O22  1  0.980192  0.772564  0.422391  1
  O  O23  1  0.227436  0.019808  0.922391  1
  F  F24  1  0.586993  0.913143  0.282676  1
  F  F25  1  0.086857  0.413007  0.782676  1
  F  F26  1  0.350197  0.169908  0.200386  1
  F  F27  1  0.830092  0.649803  0.700386  1
  F  F28  1  0.331999  0.939038  0.520479  1
  F  F29  1  0.060962  0.668001  0.020479  1
  F  F30  1  0.457823  0.755842  0.969101  1
  F  F31  1  0.244158  0.542177  0.469101  1
  F  F32  1  0.155449  0.846011  0.204813  1
  F  F33  1  0.153989  0.844551  0.704813  1
  F  F34  1  0.391793  0.601653  0.270293  1
  F  F35  1  0.398347  0.608207  0.770293  1
  F  F36  1  0.913143  0.586993  0.217324  1
  F  F37  1  0.413007  0.086857  0.717324  1
  F  F38  1  0.169908  0.350197  0.299614  1
  F  F39  1  0.649803  0.830092  0.799614  1
  F  F40  1  0.939038  0.331999  0.979521  1
  F  F41  1  0.668001  0.060962  0.479521  1
  F  F42  1  0.755842  0.457823  0.530899  1
  F  F43  1  0.542177  0.244158  0.030899  1
  F  F44  1  0.846011  0.155449  0.295187  1
  F  F45  1  0.844551  0.153989  0.795187  1
  F  F46  1  0.601653  0.391793  0.229707  1
  F  F47  1  0.608207  0.398347  0.729707  1
