# generated using pymatgen
data_Er2TeO6
_symmetry_space_group_name_H-M   'P 1'
_cell_length_a   9.15262995
_cell_length_b   9.15262995
_cell_length_c   5.13740999
_cell_angle_alpha   90.00000000
_cell_angle_beta   90.00000000
_cell_angle_gamma   120.00000000
_symmetry_Int_Tables_number   1
_chemical_formula_structural   Er2TeO6
_chemical_formula_sum   'Er6 Te3 O18'
_cell_volume   372.70624081
_cell_formula_units_Z   3
loop_
 _symmetry_equiv_pos_site_id
 _symmetry_equiv_pos_as_xyz
  1  'x, y, z'
loop_
 _atom_site_type_symbol
 _atom_site_label
 _atom_site_symmetry_multiplicity
 _atom_site_fract_x
 _atom_site_fract_y
 _atom_site_fract_z
 _atom_site_occupancy
  Er  Er0  1  0.624661  0.624661  0.000000  1
  Er  Er1  1  0.000000  0.712319  0.500000  1
  Er  Er2  1  0.287681  0.287681  0.500000  1
  Er  Er3  1  0.000000  0.375339  0.000000  1
  Er  Er4  1  0.375339  0.000000  0.000000  1
  Er  Er5  1  0.712319  0.000000  0.500000  1
  Te  Te6  1  0.666667  0.333333  0.507036  1
  Te  Te7  1  0.333333  0.666667  0.492964  1
  Te  Te8  1  0.000000  0.000000  0.000000  1
  O  O9  1  0.880720  0.797894  0.788087  1
  O  O10  1  0.119280  0.917173  0.211913  1
  O  O11  1  0.758517  0.536822  0.292267  1
  O  O12  1  0.241483  0.778305  0.707733  1
  O  O13  1  0.542581  0.410750  0.723424  1
  O  O14  1  0.457419  0.868169  0.276576  1
  O  O15  1  0.131831  0.589250  0.276576  1
  O  O16  1  0.868169  0.457419  0.723424  1
  O  O17  1  0.463178  0.221695  0.292267  1
  O  O18  1  0.536822  0.758517  0.707733  1
  O  O19  1  0.202106  0.082827  0.788087  1
  O  O20  1  0.797894  0.880720  0.211913  1
  O  O21  1  0.778305  0.241483  0.292267  1
  O  O22  1  0.221695  0.463178  0.707733  1
  O  O23  1  0.589250  0.131831  0.723424  1
  O  O24  1  0.410750  0.542581  0.276576  1
  O  O25  1  0.082827  0.202106  0.211913  1
  O  O26  1  0.917173  0.119280  0.788087  1
