# generated using pymatgen
data_Li6Fe2B4SO16
_symmetry_space_group_name_H-M   'P 1'
_cell_length_a   9.49151318
_cell_length_b   9.49151318
_cell_length_c   9.49151318
_cell_angle_alpha   60.00000000
_cell_angle_beta   60.00000000
_cell_angle_gamma   60.00000000
_symmetry_Int_Tables_number   1
_chemical_formula_structural   Li6Fe2B4SO16
_chemical_formula_sum   'Li12 Fe4 B8 S2 O32'
_cell_volume   604.63233306
_cell_formula_units_Z   2
loop_
 _symmetry_equiv_pos_site_id
 _symmetry_equiv_pos_as_xyz
  1  'x, y, z'
loop_
 _atom_site_type_symbol
 _atom_site_label
 _atom_site_symmetry_multiplicity
 _atom_site_fract_x
 _atom_site_fract_y
 _atom_site_fract_z
 _atom_site_occupancy
  Li  Li0  1  0.780550  0.219450  0.219450  1
  Li  Li1  1  0.469450  0.030550  0.469450  1
  Li  Li2  1  0.780550  0.780550  0.219450  1
  Li  Li3  1  0.219450  0.219450  0.780550  1
  Li  Li4  1  0.030550  0.469450  0.030550  1
  Li  Li5  1  0.030550  0.469450  0.469450  1
  Li  Li6  1  0.219450  0.780550  0.780550  1
  Li  Li7  1  0.219450  0.780550  0.219450  1
  Li  Li8  1  0.030550  0.030550  0.469450  1
  Li  Li9  1  0.469450  0.469450  0.030550  1
  Li  Li10  1  0.780550  0.219450  0.780550  1
  Li  Li11  1  0.469450  0.030550  0.030550  1
  Fe  Fe12  1  0.125000  0.625000  0.625000  1
  Fe  Fe13  1  0.625000  0.625000  0.125000  1
  Fe  Fe14  1  0.625000  0.125000  0.625000  1
  Fe  Fe15  1  0.625000  0.625000  0.625000  1
  B  B16  1  0.780017  0.406661  0.406661  1
  B  B17  1  0.406661  0.406661  0.406661  1
  B  B18  1  0.406661  0.406661  0.780017  1
  B  B19  1  0.406661  0.780017  0.406661  1
  B  B20  1  0.843339  0.469983  0.843339  1
  B  B21  1  0.843339  0.843339  0.469983  1
  B  B22  1  0.843339  0.843339  0.843339  1
  B  B23  1  0.469983  0.843339  0.843339  1
  S  S24  1  1.000000  1.000000  1.000000  1
  S  S25  1  0.250000  0.250000  0.250000  1
  O  O26  1  0.706354  0.830198  0.468271  1
  O  O27  1  0.468271  0.995178  0.706354  1
  O  O28  1  0.781729  0.419802  0.254822  1
  O  O29  1  0.543646  0.254822  0.419802  1
  O  O30  1  0.781729  0.543646  0.419802  1
  O  O31  1  0.064331  0.807006  0.064331  1
  O  O32  1  0.419802  0.254822  0.781729  1
  O  O33  1  0.064331  0.064331  0.807006  1
  O  O34  1  0.064331  0.064331  0.064331  1
  O  O35  1  0.419802  0.543646  0.254822  1
  O  O36  1  0.254822  0.419802  0.543646  1
  O  O37  1  0.807006  0.064331  0.064331  1
  O  O38  1  0.543646  0.781729  0.254822  1
  O  O39  1  0.254822  0.543646  0.781729  1
  O  O40  1  0.419802  0.781729  0.543646  1
  O  O41  1  0.995178  0.468271  0.830198  1
  O  O42  1  0.254822  0.781729  0.419802  1
  O  O43  1  0.830198  0.468271  0.706354  1
  O  O44  1  0.995178  0.706354  0.468271  1
  O  O45  1  0.706354  0.468271  0.995178  1
  O  O46  1  0.442994  0.185669  0.185669  1
  O  O47  1  0.995178  0.830198  0.706354  1
  O  O48  1  0.830198  0.706354  0.995178  1
  O  O49  1  0.185669  0.185669  0.185669  1
  O  O50  1  0.185669  0.185669  0.442994  1
  O  O51  1  0.830198  0.995178  0.468271  1
  O  O52  1  0.185669  0.442994  0.185669  1
  O  O53  1  0.468271  0.706354  0.830198  1
  O  O54  1  0.706354  0.995178  0.830198  1
  O  O55  1  0.468271  0.830198  0.995178  1
  O  O56  1  0.781729  0.254822  0.543646  1
  O  O57  1  0.543646  0.419802  0.781729  1
