# generated using pymatgen
data_LiV2(PO4)2
_symmetry_space_group_name_H-M   'P 1'
_cell_length_a   4.83055360
_cell_length_b   10.33911621
_cell_length_c   5.91902873
_cell_angle_alpha   90.00000000
_cell_angle_beta   90.92858910
_cell_angle_gamma   90.00000000
_symmetry_Int_Tables_number   1
_chemical_formula_structural   LiV2(PO4)2
_chemical_formula_sum   'Li2 V4 P4 O16'
_cell_volume   295.57910552
_cell_formula_units_Z   2
loop_
 _symmetry_equiv_pos_site_id
 _symmetry_equiv_pos_as_xyz
  1  'x, y, z'
loop_
 _atom_site_type_symbol
 _atom_site_label
 _atom_site_symmetry_multiplicity
 _atom_site_fract_x
 _atom_site_fract_y
 _atom_site_fract_z
 _atom_site_occupancy
  Li  Li0  1  0.744808  0.748798  0.238484  1
  Li  Li1  1  0.255192  0.248798  0.761516  1
  V  V2  1  0.273190  0.974066  0.003143  1
  V  V3  1  0.219203  0.524383  0.499604  1
  V  V4  1  0.726810  0.474066  0.996857  1
  V  V5  1  0.780797  0.024383  0.500396  1
  P  P6  1  0.347009  0.841878  0.503439  1
  P  P7  1  0.169781  0.655036  0.000361  1
  P  P8  1  0.652991  0.341878  0.496561  1
  P  P9  1  0.830219  0.155036  0.999639  1
  O  O10  1  0.487946  0.920685  0.700724  1
  O  O11  1  0.504571  0.909591  0.299018  1
  O  O12  1  0.033332  0.859026  0.490298  1
  O  O13  1  0.058707  0.793084  0.007134  1
  O  O14  1  0.433850  0.699378  0.499199  1
  O  O15  1  0.483227  0.644225  0.013531  1
  O  O16  1  0.042653  0.576470  0.792828  1
  O  O17  1  0.025789  0.581459  0.208523  1
  O  O18  1  0.512054  0.420685  0.299276  1
  O  O19  1  0.495429  0.409591  0.700982  1
  O  O20  1  0.966668  0.359026  0.509702  1
  O  O21  1  0.941293  0.293084  0.992866  1
  O  O22  1  0.566150  0.199378  0.500801  1
  O  O23  1  0.516773  0.144225  0.986469  1
  O  O24  1  0.957347  0.076470  0.207172  1
  O  O25  1  0.974211  0.081459  0.791477  1
