# generated using pymatgen
data_CoH12SO10
_symmetry_space_group_name_H-M   'P 1'
_cell_length_a   6.20330983
_cell_length_b   6.20330983
_cell_length_c   24.22142015
_cell_angle_alpha   82.69165190
_cell_angle_beta   97.30834810
_cell_angle_gamma   108.14409284
_symmetry_Int_Tables_number   1
_chemical_formula_structural   CoH12SO10
_chemical_formula_sum   'Co4 H48 S4 O40'
_cell_volume   874.72240166
_cell_formula_units_Z   4
loop_
 _symmetry_equiv_pos_site_id
 _symmetry_equiv_pos_as_xyz
  1  'x, y, z'
loop_
 _atom_site_type_symbol
 _atom_site_label
 _atom_site_symmetry_multiplicity
 _atom_site_fract_x
 _atom_site_fract_y
 _atom_site_fract_z
 _atom_site_occupancy
  Co  Co0  1  0.000000  0.000000  0.000000  1
  Co  Co1  1  0.000000  0.000000  0.500000  1
  Co  Co2  1  0.944063  0.944063  0.750000  1
  Co  Co3  1  0.055937  0.055937  0.250000  1
  H  H4  1  0.036422  0.354359  0.922661  1
  H  H5  1  0.354359  0.036422  0.577339  1
  H  H6  1  0.963578  0.645641  0.077339  1
  H  H7  1  0.645641  0.963578  0.422661  1
  H  H8  1  0.292159  0.361907  0.945731  1
  H  H9  1  0.361907  0.292159  0.554269  1
  H  H10  1  0.707841  0.638093  0.054269  1
  H  H11  1  0.638093  0.707841  0.445731  1
  H  H12  1  0.267760  0.298130  0.067967  1
  H  H13  1  0.298130  0.267760  0.432033  1
  H  H14  1  0.732240  0.701870  0.932033  1
  H  H15  1  0.701870  0.732240  0.567967  1
  H  H16  1  0.305594  0.061933  0.092704  1
  H  H17  1  0.061933  0.305594  0.407296  1
  H  H18  1  0.694406  0.938067  0.907296  1
  H  H19  1  0.938067  0.694406  0.592704  1
  H  H20  1  0.653817  0.063467  0.050122  1
  H  H21  1  0.063467  0.653817  0.449878  1
  H  H22  1  0.346183  0.936533  0.949878  1
  H  H23  1  0.936533  0.346183  0.550122  1
  H  H24  1  0.697132  0.248697  0.996334  1
  H  H25  1  0.248697  0.697132  0.503666  1
  H  H26  1  0.302868  0.751303  0.003666  1
  H  H27  1  0.751303  0.302868  0.496334  1
  H  H28  1  0.272696  0.934429  0.689216  1
  H  H29  1  0.934429  0.272696  0.810784  1
  H  H30  1  0.727304  0.065571  0.310784  1
  H  H31  1  0.065571  0.727304  0.189216  1
  H  H32  1  0.327266  0.190425  0.700747  1
  H  H33  1  0.190425  0.327267  0.799253  1
  H  H34  1  0.672733  0.809575  0.299253  1
  H  H35  1  0.809575  0.672733  0.200747  1
  H  H36  1  0.710738  0.560156  0.699567  1
  H  H37  1  0.560156  0.710738  0.800433  1
  H  H38  1  0.289262  0.439844  0.300433  1
  H  H39  1  0.439844  0.289262  0.199567  1
  H  H40  1  0.929229  0.509786  0.734760  1
  H  H41  1  0.509786  0.929229  0.765240  1
  H  H42  1  0.070771  0.490214  0.265240  1
  H  H43  1  0.490214  0.070771  0.234760  1
  H  H44  1  0.671606  0.999468  0.656381  1
  H  H45  1  0.999468  0.671606  0.843619  1
  H  H46  1  0.328394  0.000532  0.343619  1
  H  H47  1  0.000532  0.328394  0.156381  1
  H  H48  1  0.895788  0.217816  0.654735  1
  H  H49  1  0.217816  0.895788  0.845265  1
  H  H50  1  0.104212  0.782184  0.345265  1
  H  H51  1  0.782184  0.104212  0.154735  1
  S  S52  1  0.580306  0.321854  0.877197  1
  S  S53  1  0.321854  0.580306  0.622803  1
  S  S54  1  0.419694  0.678146  0.122803  1
  S  S55  1  0.678146  0.419694  0.377197  1
  O  O56  1  0.823093  0.374403  0.865078  1
  O  O57  1  0.374403  0.823093  0.634922  1
  O  O58  1  0.176907  0.625597  0.134922  1
  O  O59  1  0.625597  0.176907  0.365078  1
  O  O60  1  0.455053  0.431490  0.831886  1
  O  O61  1  0.431490  0.455053  0.668114  1
  O  O62  1  0.544947  0.568510  0.168114  1
  O  O63  1  0.568510  0.544947  0.331886  1
  O  O64  1  0.578062  0.410998  0.932071  1
  O  O65  1  0.410998  0.578062  0.567929  1
  O  O66  1  0.421938  0.589002  0.067929  1
  O  O67  1  0.589002  0.421938  0.432071  1
  O  O68  1  0.470578  0.068943  0.882840  1
  O  O69  1  0.068943  0.470578  0.617160  1
  O  O70  1  0.529422  0.931057  0.117160  1
  O  O71  1  0.931057  0.529422  0.382840  1
  O  O72  1  0.134407  0.322313  0.956165  1
  O  O73  1  0.322313  0.134407  0.543835  1
  O  O74  1  0.865593  0.677687  0.043835  1
  O  O75  1  0.677687  0.865593  0.456165  1
  O  O76  1  0.192478  0.131173  0.071917  1
  O  O77  1  0.131173  0.192478  0.428083  1
  O  O78  1  0.807522  0.868827  0.928083  1
  O  O79  1  0.868827  0.807522  0.571917  1
  O  O80  1  0.752076  0.132014  0.019718  1
  O  O81  1  0.132014  0.752076  0.480282  1
  O  O82  1  0.247924  0.867986  0.980282  1
  O  O83  1  0.867986  0.247924  0.519718  1
  O  O84  1  0.271091  0.031594  0.718575  1
  O  O85  1  0.031594  0.271091  0.781425  1
  O  O86  1  0.728909  0.968406  0.281425  1
  O  O87  1  0.968406  0.728909  0.218575  1
  O  O88  1  0.865669  0.631438  0.716951  1
  O  O89  1  0.631438  0.865669  0.783049  1
  O  O90  1  0.134331  0.368562  0.283049  1
  O  O91  1  0.368562  0.134331  0.216951  1
  O  O92  1  0.799577  0.095915  0.679184  1
  O  O93  1  0.095915  0.799577  0.820816  1
  O  O94  1  0.200423  0.904085  0.320816  1
  O  O95  1  0.904085  0.200423  0.179184  1
