# generated using pymatgen
data_Li11Ti8Fe5O32
_symmetry_space_group_name_H-M   'P 1'
_cell_length_a   8.35569212
_cell_length_b   8.42189638
_cell_length_c   8.43889853
_cell_angle_alpha   90.14081063
_cell_angle_beta   90.06528005
_cell_angle_gamma   90.02932636
_symmetry_Int_Tables_number   1
_chemical_formula_structural   Li11Ti8Fe5O32
_chemical_formula_sum   'Li11 Ti8 Fe5 O32'
_cell_volume   593.84955786
_cell_formula_units_Z   1
loop_
 _symmetry_equiv_pos_site_id
 _symmetry_equiv_pos_as_xyz
  1  'x, y, z'
loop_
 _atom_site_type_symbol
 _atom_site_label
 _atom_site_symmetry_multiplicity
 _atom_site_fract_x
 _atom_site_fract_y
 _atom_site_fract_z
 _atom_site_occupancy
  Li  Li0  1  0.997613  0.506962  0.494698  1
  Li  Li1  1  0.883813  0.372908  0.875322  1
  Li  Li2  1  0.757960  0.751354  0.749636  1
  Li  Li3  1  0.750073  0.249400  0.252693  1
  Li  Li4  1  0.625190  0.875017  0.124346  1
  Li  Li5  1  0.498825  0.002720  0.500556  1
  Li  Li6  1  0.494490  0.499206  0.000385  1
  Li  Li7  1  0.366401  0.624030  0.620530  1
  Li  Li8  1  0.248521  0.742992  0.252330  1
  Li  Li9  1  0.124740  0.129371  0.377504  1
  Li  Li10  1  0.999174  0.002825  0.998354  1
  Ti  Ti11  1  0.865861  0.132190  0.618498  1
  Ti  Ti12  1  0.878971  0.879382  0.364712  1
  Ti  Ti13  1  0.865741  0.619213  0.122804  1
  Ti  Ti14  1  0.639157  0.128500  0.885020  1
  Ti  Ti15  1  0.629422  0.388527  0.636290  1
  Ti  Ti16  1  0.619812  0.634666  0.377277  1
  Ti  Ti17  1  0.383114  0.865878  0.872346  1
  Ti  Ti18  1  0.373832  0.115606  0.137434  1
  Fe  Fe19  1  0.376803  0.376228  0.373267  1
  Fe  Fe20  1  0.252918  0.245840  0.751637  1
  Fe  Fe21  1  0.123907  0.871993  0.626284  1
  Fe  Fe22  1  0.123267  0.627355  0.874832  1
  Fe  Fe23  1  0.127942  0.372608  0.126663  1
  O  O24  1  0.905169  0.388063  0.127978  1
  O  O25  1  0.896752  0.886836  0.614954  1
  O  O26  1  0.901376  0.621944  0.892720  1
  O  O27  1  0.874110  0.103303  0.392037  1
  O  O28  1  0.888418  0.854568  0.145918  1
  O  O29  1  0.860792  0.356329  0.620712  1
  O  O30  1  0.861242  0.634391  0.360531  1
  O  O31  1  0.856375  0.125206  0.859007  1
  O  O32  1  0.645488  0.620048  0.137536  1
  O  O33  1  0.639829  0.134776  0.637546  1
  O  O34  1  0.640883  0.854782  0.376316  1
  O  O35  1  0.621397  0.359400  0.855363  1
  O  O36  1  0.626770  0.607482  0.609068  1
  O  O37  1  0.605203  0.127072  0.105155  1
  O  O38  1  0.605293  0.384596  0.390037  1
  O  O39  1  0.602593  0.891794  0.872030  1
  O  O40  1  0.391944  0.600580  0.374451  1
  O  O41  1  0.380855  0.116315  0.882460  1
  O  O42  1  0.383277  0.370928  0.615964  1
  O  O43  1  0.362899  0.897182  0.105974  1
  O  O44  1  0.374309  0.148520  0.357083  1
  O  O45  1  0.349758  0.643571  0.874284  1
  O  O46  1  0.355179  0.363033  0.129813  1
  O  O47  1  0.346952  0.877465  0.640730  1
  O  O48  1  0.146856  0.377898  0.351526  1
  O  O49  1  0.132335  0.867743  0.854959  1
  O  O50  1  0.137971  0.153056  0.122521  1
  O  O51  1  0.122737  0.648590  0.644227  1
  O  O52  1  0.130587  0.384896  0.888626  1
  O  O53  1  0.113313  0.871383  0.406011  1
  O  O54  1  0.119690  0.602347  0.109053  1
  O  O55  1  0.112101  0.111149  0.632010  1
