# generated using pymatgen
data_Li4Fe2Co3Ni3O16
_symmetry_space_group_name_H-M   'P 1'
_cell_length_a   5.77808243
_cell_length_b   5.77808243
_cell_length_c   9.41408496
_cell_angle_alpha   88.59936270
_cell_angle_beta   91.40063730
_cell_angle_gamma   120.94974122
_symmetry_Int_Tables_number   1
_chemical_formula_structural   Li4Fe2Co3Ni3O16
_chemical_formula_sum   'Li4 Fe2 Co3 Ni3 O16'
_cell_volume   269.44394325
_cell_formula_units_Z   1
loop_
 _symmetry_equiv_pos_site_id
 _symmetry_equiv_pos_as_xyz
  1  'x, y, z'
loop_
 _atom_site_type_symbol
 _atom_site_label
 _atom_site_symmetry_multiplicity
 _atom_site_fract_x
 _atom_site_fract_y
 _atom_site_fract_z
 _atom_site_occupancy
  Li  Li0  1  0.661941  0.338059  0.894747  1
  Li  Li1  1  0.997948  0.002052  0.995752  1
  Li  Li2  1  0.003557  0.996443  0.498155  1
  Li  Li3  1  0.333646  0.666354  0.395110  1
  Fe  Fe4  1  0.672648  0.327352  0.492263  1
  Fe  Fe5  1  0.331589  0.668411  0.986015  1
  Co  Co6  1  0.335915  0.170599  0.213008  1
  Co  Co7  1  0.829401  0.664085  0.213008  1
  Co  Co8  1  0.169896  0.830104  0.712927  1
  Ni  Ni9  1  0.829151  0.170849  0.213763  1
  Ni  Ni10  1  0.169521  0.338352  0.714673  1
  Ni  Ni11  1  0.661648  0.830479  0.714673  1
  O  O12  1  0.331285  0.147371  0.601297  1
  O  O13  1  0.518724  0.481276  0.329186  1
  O  O14  1  0.660248  0.339752  0.108485  1
  O  O15  1  0.002550  0.997450  0.309326  1
  O  O16  1  0.004515  0.995485  0.806291  1
  O  O17  1  0.852629  0.668715  0.601297  1
  O  O18  1  0.510128  0.038019  0.332131  1
  O  O19  1  0.961981  0.489872  0.332131  1
  O  O20  1  0.157716  0.842284  0.109502  1
  O  O21  1  0.843341  0.156659  0.600017  1
  O  O22  1  0.031153  0.531947  0.839030  1
  O  O23  1  0.468053  0.968847  0.839030  1
  O  O24  1  0.331075  0.668925  0.611994  1
  O  O25  1  0.168854  0.325413  0.104300  1
  O  O26  1  0.479240  0.520760  0.835781  1
  O  O27  1  0.674587  0.831146  0.104300  1
