# generated using pymatgen
data_Li5Fe8(BO3)8
_symmetry_space_group_name_H-M   'P 1'
_cell_length_a   5.22970275
_cell_length_b   9.12321676
_cell_length_c   11.38655928
_cell_angle_alpha   112.72032977
_cell_angle_beta   102.64372218
_cell_angle_gamma   89.93667548
_symmetry_Int_Tables_number   1
_chemical_formula_structural   Li5Fe8(BO3)8
_chemical_formula_sum   'Li5 Fe8 B8 O24'
_cell_volume   486.85726658
_cell_formula_units_Z   1
loop_
 _symmetry_equiv_pos_site_id
 _symmetry_equiv_pos_as_xyz
  1  'x, y, z'
loop_
 _atom_site_type_symbol
 _atom_site_label
 _atom_site_symmetry_multiplicity
 _atom_site_fract_x
 _atom_site_fract_y
 _atom_site_fract_z
 _atom_site_occupancy
  Li  Li0  1  0.294703  0.274224  0.917096  1
  Li  Li1  1  0.480164  0.505597  0.658944  1
  Li  Li2  1  0.532773  0.535915  0.410864  1
  Li  Li3  1  0.985579  0.005465  0.664874  1
  Li  Li4  1  0.767768  0.755629  0.165190  1
  Fe  Fe5  1  0.035042  0.342281  0.376355  1
  Fe  Fe6  1  0.262474  0.927396  0.881690  1
  Fe  Fe7  1  0.462598  0.155814  0.622349  1
  Fe  Fe8  1  0.245296  0.559522  0.135921  1
  Fe  Fe9  1  0.776651  0.438100  0.879213  1
  Fe  Fe10  1  0.512376  0.859491  0.381553  1
  Fe  Fe11  1  0.972152  0.652883  0.632386  1
  Fe  Fe12  1  0.739366  0.073445  0.127296  1
  B  B13  1  0.009047  0.681092  0.377591  1
  B  B14  1  0.262270  0.593568  0.871366  1
  B  B15  1  0.470141  0.813362  0.621777  1
  B  B16  1  0.238912  0.898732  0.133245  1
  B  B17  1  0.533503  0.189478  0.373680  1
  B  B18  1  0.772985  0.114108  0.883142  1
  B  B19  1  0.980319  0.317821  0.633712  1
  B  B20  1  0.730835  0.395003  0.122963  1
  O  O21  1  0.019798  0.096755  0.860033  1
  O  O22  1  0.118838  0.702217  0.837301  1
  O  O23  1  0.150296  0.492076  0.917533  1
  O  O24  1  0.093968  0.183953  0.635292  1
  O  O25  1  0.090974  0.422538  0.592603  1
  O  O26  1  0.240318  0.846056  0.664284  1
  O  O27  1  0.263950  0.675565  0.352966  1
  O  O28  1  0.518540  0.577616  0.859504  1
  O  O29  1  0.621925  0.228228  0.848581  1
  O  O30  1  0.448100  0.079179  0.418718  1
  O  O31  1  0.417516  0.327161  0.391599  1
  O  O32  1  0.654241  0.024224  0.933007  1
  O  O33  1  0.369987  0.988563  0.087911  1
  O  O34  1  0.584657  0.674302  0.611360  1
  O  O35  1  0.587659  0.922715  0.582924  1
  O  O36  1  0.385738  0.793767  0.180293  1
  O  O37  1  0.466233  0.384052  0.111771  1
  O  O38  1  0.744259  0.351925  0.677412  1
  O  O39  1  0.750413  0.157319  0.318746  1
  O  O40  1  0.916354  0.572171  0.417260  1
  O  O41  1  0.852724  0.794845  0.355405  1
  O  O42  1  0.840976  0.510181  0.086522  1
  O  O43  1  0.888332  0.291859  0.162229  1
  O  O44  1  0.976284  0.907148  0.131503  1
