# generated using pymatgen
data_Li3V2P4(HO8)2
_symmetry_space_group_name_H-M   'P 1'
_cell_length_a   7.88549189
_cell_length_b   8.07677046
_cell_length_c   9.76563113
_cell_angle_alpha   90.05255372
_cell_angle_beta   111.99475319
_cell_angle_gamma   90.04444916
_symmetry_Int_Tables_number   1
_chemical_formula_structural   Li3V2P4(HO8)2
_chemical_formula_sum   'Li6 V4 P8 H4 O32'
_cell_volume   576.69777139
_cell_formula_units_Z   2
loop_
 _symmetry_equiv_pos_site_id
 _symmetry_equiv_pos_as_xyz
  1  'x, y, z'
loop_
 _atom_site_type_symbol
 _atom_site_label
 _atom_site_symmetry_multiplicity
 _atom_site_fract_x
 _atom_site_fract_y
 _atom_site_fract_z
 _atom_site_occupancy
  Li  Li0  1  0.346879  0.630574  0.724731  1
  Li  Li1  1  0.653429  0.369918  0.771560  1
  Li  Li2  1  0.851888  0.865571  0.729070  1
  Li  Li3  1  0.155353  0.133043  0.275665  1
  Li  Li4  1  0.354697  0.636924  0.222958  1
  Li  Li5  1  0.844930  0.869623  0.226970  1
  V  V6  1  0.002571  0.495288  0.752052  1
  V  V7  1  0.489947  0.001926  0.749343  1
  V  V8  1  0.997856  0.499822  0.250883  1
  V  V9  1  0.501697  0.006329  0.250080  1
  P  P10  1  0.232582  0.851932  0.931626  1
  P  P11  1  0.732462  0.655226  0.933003  1
  P  P12  1  0.268525  0.344999  0.566270  1
  P  P13  1  0.231422  0.847581  0.431149  1
  P  P14  1  0.760095  0.149554  0.568702  1
  P  P15  1  0.739917  0.651056  0.432516  1
  P  P16  1  0.263626  0.353338  0.067289  1
  P  P17  1  0.765063  0.159607  0.064056  1
  H  H18  1  0.488643  0.501158  0.006919  1
  H  H19  1  0.516795  0.505212  0.488358  1
  H  H20  1  0.982444  0.007786  0.514537  1
  H  H21  1  0.995007  0.008923  0.003670  1
  O  O22  1  0.053343  0.942025  0.909081  1
  O  O23  1  0.140019  0.331040  0.905061  1
  O  O24  1  0.191145  0.685034  0.850204  1
  O  O25  1  0.351808  0.952910  0.860050  1
  O  O26  1  0.553737  0.559091  0.905618  1
  O  O27  1  0.644150  0.177141  0.897739  1
  O  O28  1  0.686148  0.826128  0.855236  1
  O  O29  1  0.840242  0.550993  0.859850  1
  O  O30  1  0.162184  0.445966  0.642522  1
  O  O31  1  0.317941  0.169877  0.632984  1
  O  O32  1  0.350853  0.826340  0.599293  1
  O  O33  1  0.445430  0.444047  0.593346  1
  O  O34  1  0.654108  0.043400  0.647121  1
  O  O35  1  0.807901  0.316503  0.647158  1
  O  O36  1  0.052750  0.942330  0.402790  1
  O  O37  1  0.144819  0.327086  0.398744  1
  O  O38  1  0.851876  0.671479  0.598874  1
  O  O39  1  0.937466  0.044406  0.597534  1
  O  O40  1  0.189982  0.675047  0.355210  1
  O  O41  1  0.341048  0.951346  0.359262  1
  O  O42  1  0.556353  0.557232  0.404667  1
  O  O43  1  0.643388  0.168475  0.404942  1
  O  O44  1  0.689598  0.815457  0.349752  1
  O  O45  1  0.856640  0.550129  0.362596  1
  O  O46  1  0.157383  0.459934  0.146896  1
  O  O47  1  0.310872  0.187535  0.147691  1
  O  O48  1  0.354440  0.831360  0.097104  1
  O  O49  1  0.437814  0.459154  0.091223  1
  O  O50  1  0.665105  0.054466  0.141608  1
  O  O51  1  0.821579  0.330609  0.135281  1
  O  O52  1  0.852245  0.676306  0.100608  1
  O  O53  1  0.945665  0.059412  0.090384  1
