# generated using pymatgen
data_LiFe2(BO3)2
_symmetry_space_group_name_H-M   'P 1'
_cell_length_a   5.24445039
_cell_length_b   9.08336208
_cell_length_c   10.17436507
_cell_angle_alpha   89.48006920
_cell_angle_beta   88.81761929
_cell_angle_gamma   89.65272244
_symmetry_Int_Tables_number   1
_chemical_formula_structural   LiFe2(BO3)2
_chemical_formula_sum   'Li4 Fe8 B8 O24'
_cell_volume   484.54717433
_cell_formula_units_Z   4
loop_
 _symmetry_equiv_pos_site_id
 _symmetry_equiv_pos_as_xyz
  1  'x, y, z'
loop_
 _atom_site_type_symbol
 _atom_site_label
 _atom_site_symmetry_multiplicity
 _atom_site_fract_x
 _atom_site_fract_y
 _atom_site_fract_z
 _atom_site_occupancy
  Li  Li0  1  0.149980  0.177359  0.666801  1
  Li  Li1  1  0.190361  0.164740  0.160290  1
  Li  Li2  1  0.329721  0.332513  0.402182  1
  Li  Li3  1  0.684793  0.663928  0.153355  1
  Fe  Fe4  1  0.165046  0.833474  0.633983  1
  Fe  Fe5  1  0.188107  0.493299  0.123450  1
  Fe  Fe6  1  0.325010  0.993303  0.878266  1
  Fe  Fe7  1  0.322332  0.668314  0.378369  1
  Fe  Fe8  1  0.653274  0.346291  0.634710  1
  Fe  Fe9  1  0.676027  0.002402  0.124257  1
  Fe  Fe10  1  0.832778  0.151023  0.387318  1
  Fe  Fe11  1  0.828681  0.498890  0.877027  1
  B  B12  1  0.152831  0.500140  0.621740  1
  B  B13  1  0.168561  0.835611  0.133834  1
  B  B14  1  0.342809  0.998115  0.373793  1
  B  B15  1  0.330463  0.661306  0.876421  1
  B  B16  1  0.671579  0.002941  0.630675  1
  B  B17  1  0.678693  0.327747  0.129366  1
  B  B18  1  0.821893  0.494099  0.373098  1
  B  B19  1  0.826792  0.169722  0.880142  1
  O  O20  1  0.087034  0.500252  0.345699  1
  O  O21  1  0.080368  0.154272  0.855471  1
  O  O22  1  0.219880  0.786867  0.821838  1
  O  O23  1  0.237467  0.870256  0.428291  1
  O  O24  1  0.208001  0.128544  0.369743  1
  O  O25  1  0.172944  0.549721  0.924155  1
  O  O26  1  0.279724  0.368303  0.603292  1
  O  O27  1  0.304988  0.960860  0.093978  1
  O  O28  1  0.262304  0.631668  0.574077  1
  O  O29  1  0.302666  0.711289  0.177500  1
  O  O30  1  0.419233  0.323195  0.145078  1
  O  O31  1  0.405730  0.003614  0.657361  1
  O  O32  1  0.587678  0.994813  0.319117  1
  O  O33  1  0.586739  0.650798  0.891682  1
  O  O34  1  0.701857  0.301479  0.846448  1
  O  O35  1  0.713411  0.364784  0.419271  1
  O  O36  1  0.671015  0.614975  0.348202  1
  O  O37  1  0.681553  0.055499  0.936016  1
  O  O38  1  0.802497  0.456610  0.088886  1
  O  O39  1  0.815154  0.878082  0.636928  1
  O  O40  1  0.787981  0.136015  0.595319  1
  O  O41  1  0.825119  0.201210  0.159793  1
  O  O42  1  0.908164  0.836853  0.129761  1
  O  O43  1  0.914704  0.505716  0.681896  1
