# generated using pymatgen
data_Li2FeF4
_symmetry_space_group_name_H-M   'P 1'
_cell_length_a   5.42164705
_cell_length_b   5.42164705
_cell_length_c   5.42164705
_cell_angle_alpha   126.43190903
_cell_angle_beta   126.43190903
_cell_angle_gamma   79.17942122
_symmetry_Int_Tables_number   1
_chemical_formula_structural   Li2FeF4
_chemical_formula_sum   'Li2 Fe1 F4'
_cell_volume   99.75543271
_cell_formula_units_Z   1
loop_
 _symmetry_equiv_pos_site_id
 _symmetry_equiv_pos_as_xyz
  1  'x, y, z'
loop_
 _atom_site_type_symbol
 _atom_site_label
 _atom_site_symmetry_multiplicity
 _atom_site_fract_x
 _atom_site_fract_y
 _atom_site_fract_z
 _atom_site_occupancy
  Li  Li0  1  0.500000  0.500000  0.000000  1
  Li  Li1  1  0.250000  0.750000  0.500000  1
  Fe  Fe2  1  0.000000  0.000000  0.000000  1
  F  F3  1  0.187084  0.673273  0.075948  1
  F  F4  1  0.888864  0.812916  0.486188  1
  F  F5  1  0.597325  0.111136  0.924052  1
  F  F6  1  0.326727  0.402675  0.513812  1
