# generated using pymatgen
data_LiMn3(NiO4)2
_symmetry_space_group_name_H-M   'P 1'
_cell_length_a   5.95560697
_cell_length_b   5.95560697
_cell_length_c   5.95560697
_cell_angle_alpha   121.21523203
_cell_angle_beta   120.47304227
_cell_angle_gamma   88.54525867
_symmetry_Int_Tables_number   1
_chemical_formula_structural   LiMn3(NiO4)2
_chemical_formula_sum   'Li1 Mn3 Ni2 O8'
_cell_volume   147.40453580
_cell_formula_units_Z   1
loop_
 _symmetry_equiv_pos_site_id
 _symmetry_equiv_pos_as_xyz
  1  'x, y, z'
loop_
 _atom_site_type_symbol
 _atom_site_label
 _atom_site_symmetry_multiplicity
 _atom_site_fract_x
 _atom_site_fract_y
 _atom_site_fract_z
 _atom_site_occupancy
  Li  Li0  1  0.385179  0.385179  1.000000  1
  Mn  Mn1  1  0.115271  0.615271  0.500000  1
  Mn  Mn2  1  0.746367  0.000179  0.253812  1
  Mn  Mn3  1  0.746367  0.492555  0.746188  1
  Ni  Ni4  1  0.253447  0.001142  0.252305  1
  Ni  Ni5  1  0.748837  0.001142  0.747695  1
  O  O6  1  0.976521  0.204797  0.228276  1
  O  O7  1  0.976521  0.748245  0.771724  1
  O  O8  1  0.972265  0.753111  0.219154  1
  O  O9  1  0.533957  0.753111  0.780846  1
  O  O10  1  0.966603  0.248575  0.718029  1
  O  O11  1  0.530546  0.248575  0.281971  1
  O  O12  1  0.524059  0.793349  0.269290  1
  O  O13  1  0.524059  0.254769  0.730710  1
