# generated using pymatgen
data_Mn2OF2
_symmetry_space_group_name_H-M   'P 1'
_cell_length_a   8.83524515
_cell_length_b   8.90951405
_cell_length_c   8.92245227
_cell_angle_alpha   109.55191104
_cell_angle_beta   109.41351970
_cell_angle_gamma   109.19499165
_symmetry_Int_Tables_number   1
_chemical_formula_structural   Mn2OF2
_chemical_formula_sum   'Mn16 O8 F16'
_cell_volume   542.35252836
_cell_formula_units_Z   8
loop_
 _symmetry_equiv_pos_site_id
 _symmetry_equiv_pos_as_xyz
  1  'x, y, z'
loop_
 _atom_site_type_symbol
 _atom_site_label
 _atom_site_symmetry_multiplicity
 _atom_site_fract_x
 _atom_site_fract_y
 _atom_site_fract_z
 _atom_site_occupancy
  Mn  Mn0  1  0.727088  0.189613  0.954578  1
  Mn  Mn1  1  0.966931  0.962044  0.961252  1
  Mn  Mn2  1  0.988398  0.481887  0.508666  1
  Mn  Mn3  1  0.488985  0.516047  0.003232  1
  Mn  Mn4  1  0.722378  0.477400  0.736469  1
  Mn  Mn5  1  0.794086  0.041726  0.249915  1
  Mn  Mn6  1  0.535183  0.261588  0.311266  1
  Mn  Mn7  1  0.039001  0.248218  0.768341  1
  Mn  Mn8  1  0.777894  0.729864  0.497444  1
  Mn  Mn9  1  0.249808  0.281862  0.525819  1
  Mn  Mn10  1  0.955415  0.734846  0.192065  1
  Mn  Mn11  1  0.481406  0.775918  0.730845  1
  Mn  Mn12  1  0.483920  0.022680  0.517543  1
  Mn  Mn13  1  0.222730  0.974281  0.751695  1
  Mn  Mn14  1  0.279436  0.531202  0.235270  1
  Mn  Mn15  1  0.228373  0.758836  0.021064  1
  O  O16  1  0.000951  0.255545  0.521456  1
  O  O17  1  0.960741  0.716562  0.956229  1
  O  O18  1  0.454497  0.000788  0.731486  1
  O  O19  1  0.775954  0.513242  0.536039  1
  O  O20  1  0.731741  0.957689  0.976364  1
  O  O21  1  0.462297  0.244837  0.508267  1
  O  O22  1  0.254784  0.527871  0.991017  1
  O  O23  1  0.981175  0.979279  0.733265  1
  F  F24  1  0.780278  0.241504  0.738629  1
  F  F25  1  0.302195  0.243637  0.772096  1
  F  F26  1  0.504669  0.560954  0.780862  1
  F  F27  1  0.747723  0.272587  0.220676  1
  F  F28  1  0.054873  0.022444  0.266866  1
  F  F29  1  0.715168  0.453415  0.009427  1
  F  F30  1  0.547556  0.771441  0.498411  1
  F  F31  1  0.228317  0.720202  0.767311  1
  F  F32  1  0.485960  0.450689  0.222301  1
  F  F33  1  0.288801  0.043863  0.045545  1
  F  F34  1  0.239517  0.508901  0.456244  1
  F  F35  1  0.733012  0.773101  0.244588  1
  F  F36  1  0.534803  0.984899  0.269002  1
  F  F37  1  0.028819  0.275114  0.059943  1
  F  F38  1  0.012679  0.725219  0.442737  1
  F  F39  1  0.232456  0.768204  0.285777  1
