# generated using pymatgen
data_Li2Co2Si2O7
_symmetry_space_group_name_H-M   'P 1'
_cell_length_a   5.26986492
_cell_length_b   5.26986492
_cell_length_c   13.43407764
_cell_angle_alpha   90.00000000
_cell_angle_beta   90.00000000
_cell_angle_gamma   123.41270258
_symmetry_Int_Tables_number   1
_chemical_formula_structural   Li2Co2Si2O7
_chemical_formula_sum   'Li4 Co4 Si4 O14'
_cell_volume   311.42298139
_cell_formula_units_Z   2
loop_
 _symmetry_equiv_pos_site_id
 _symmetry_equiv_pos_as_xyz
  1  'x, y, z'
loop_
 _atom_site_type_symbol
 _atom_site_label
 _atom_site_symmetry_multiplicity
 _atom_site_fract_x
 _atom_site_fract_y
 _atom_site_fract_z
 _atom_site_occupancy
  Li  Li0  1  0.012338  0.012338  0.000000  1
  Li  Li1  1  0.012338  0.012338  0.500000  1
  Li  Li2  1  0.975321  0.013303  0.750000  1
  Li  Li3  1  0.013303  0.975321  0.250000  1
  Co  Co4  1  0.780046  0.346368  0.418291  1
  Co  Co5  1  0.780046  0.346368  0.081709  1
  Co  Co6  1  0.346368  0.780046  0.918291  1
  Co  Co7  1  0.346368  0.780046  0.581709  1
  Si  Si8  1  0.663263  0.433623  0.860457  1
  Si  Si9  1  0.663263  0.433623  0.639543  1
  Si  Si10  1  0.433623  0.663263  0.360457  1
  Si  Si11  1  0.433623  0.663263  0.139543  1
  O  O12  1  0.321632  0.130295  0.875655  1
  O  O13  1  0.321632  0.130295  0.624345  1
  O  O14  1  0.806006  0.429549  0.750000  1
  O  O15  1  0.747907  0.672007  0.131311  1
  O  O16  1  0.747907  0.672007  0.368689  1
  O  O17  1  0.910553  0.443985  0.938731  1
  O  O18  1  0.910553  0.443985  0.561269  1
  O  O19  1  0.130295  0.321632  0.124345  1
  O  O20  1  0.130295  0.321632  0.375655  1
  O  O21  1  0.429549  0.806006  0.250000  1
  O  O22  1  0.672007  0.747907  0.631311  1
  O  O23  1  0.672007  0.747907  0.868689  1
  O  O24  1  0.443985  0.910553  0.438731  1
  O  O25  1  0.443985  0.910553  0.061269  1
