# generated using pymatgen
data_VOF2
_symmetry_space_group_name_H-M   'P 1'
_cell_length_a   5.11502366
_cell_length_b   5.11502366
_cell_length_c   5.48573949
_cell_angle_alpha   59.88428351
_cell_angle_beta   120.11571649
_cell_angle_gamma   117.70181879
_symmetry_Int_Tables_number   1
_chemical_formula_structural   VOF2
_chemical_formula_sum   'V2 O2 F4'
_cell_volume   102.94491185
_cell_formula_units_Z   2
loop_
 _symmetry_equiv_pos_site_id
 _symmetry_equiv_pos_as_xyz
  1  'x, y, z'
loop_
 _atom_site_type_symbol
 _atom_site_label
 _atom_site_symmetry_multiplicity
 _atom_site_fract_x
 _atom_site_fract_y
 _atom_site_fract_z
 _atom_site_occupancy
  V  V0  1  0.000000  0.500000  0.500000  1
  V  V1  1  0.500000  0.000000  0.000000  1
  O  O2  1  0.329603  0.329603  0.750000  1
  O  O3  1  0.670397  0.670397  0.250000  1
  F  F4  1  0.746669  0.147547  0.747080  1
  F  F5  1  0.147547  0.746669  0.752920  1
  F  F6  1  0.852453  0.253331  0.247080  1
  F  F7  1  0.253331  0.852453  0.252920  1
