# generated using pymatgen
data_Li2Co(SiO3)2
_symmetry_space_group_name_H-M   'P 1'
_cell_length_a   15.73318655
_cell_length_b   11.97912225
_cell_length_c   11.14388789
_cell_angle_alpha   85.67115564
_cell_angle_beta   49.39547764
_cell_angle_gamma   44.93336672
_symmetry_Int_Tables_number   1
_chemical_formula_structural   Li2Co(SiO3)2
_chemical_formula_sum   'Li12 Co6 Si12 O36'
_cell_volume   783.35094398
_cell_formula_units_Z   6
loop_
 _symmetry_equiv_pos_site_id
 _symmetry_equiv_pos_as_xyz
  1  'x, y, z'
loop_
 _atom_site_type_symbol
 _atom_site_label
 _atom_site_symmetry_multiplicity
 _atom_site_fract_x
 _atom_site_fract_y
 _atom_site_fract_z
 _atom_site_occupancy
  Li  Li0  1  0.988837  0.988837  0.511163  1
  Li  Li1  1  0.645031  0.645031  0.854969  1
  Li  Li2  1  0.106431  0.455116  0.536852  1
  Li  Li3  1  0.796471  0.062541  0.924543  1
  Li  Li4  1  0.325457  0.033556  0.453529  1
  Li  Li5  1  0.713148  0.348399  0.143569  1
  Li  Li6  1  0.738837  0.738837  0.261163  1
  Li  Li7  1  0.395031  0.395031  0.604969  1
  Li  Li8  1  0.348399  0.713148  0.794884  1
  Li  Li9  1  0.033556  0.325457  0.187459  1
  Li  Li10  1  0.062541  0.796471  0.216444  1
  Li  Li11  1  0.455116  0.106431  0.901601  1
  Co  Co12  1  0.868265  0.868265  0.631735  1
  Co  Co13  1  0.923273  0.216938  0.744584  1
  Co  Co14  1  0.505416  0.134796  0.326727  1
  Co  Co15  1  0.618265  0.618265  0.381735  1
  Co  Co16  1  0.134796  0.505416  0.033062  1
  Co  Co17  1  0.216938  0.923273  0.115204  1
  Si  Si18  1  0.158729  0.158729  0.341271  1
  Si  Si19  1  0.484956  0.484956  0.015044  1
  Si  Si20  1  0.560572  0.952038  0.050192  1
  Si  Si21  1  0.287270  0.573642  0.429415  1
  Si  Si22  1  0.820585  0.540327  0.962730  1
  Si  Si23  1  0.199808  0.812802  0.689428  1
  Si  Si24  1  0.234956  0.234956  0.765044  1
  Si  Si25  1  0.908729  0.908729  0.091271  1
  Si  Si26  1  0.812802  0.199808  0.297962  1
  Si  Si27  1  0.540327  0.820585  0.676358  1
  Si  Si28  1  0.573642  0.287270  0.709673  1
  Si  Si29  1  0.952038  0.560572  0.437198  1
  O  O30  1  0.747066  0.294136  0.774784  1
  O  O31  1  0.601699  0.023882  0.921807  1
  O  O32  1  0.029002  0.826009  0.602708  1
  O  O33  1  0.470247  0.415501  0.158220  1
  O  O34  1  0.181091  0.068956  0.451184  1
  O  O35  1  0.804726  0.675091  0.886249  1
  O  O36  1  0.423382  0.977637  0.088238  1
  O  O37  1  0.756792  0.490885  0.940307  1
  O  O38  1  0.401228  0.117177  0.299033  1
  O  O39  1  0.950967  0.067438  0.848772  1
  O  O40  1  0.309693  0.437984  0.493208  1
  O  O41  1  0.161762  0.739258  0.826618  1
  O  O42  1  0.363751  0.616065  0.445274  1
  O  O43  1  0.798816  0.951231  0.068909  1
  O  O44  1  0.091780  0.293968  0.779753  1
  O  O45  1  0.647292  0.707719  0.220998  1
  O  O46  1  0.328193  0.797388  0.648301  1
  O  O47  1  0.475216  0.065986  0.502934  1
  O  O48  1  0.065986  0.475216  0.955864  1
  O  O49  1  0.797388  0.328193  0.226118  1
  O  O50  1  0.707719  0.647292  0.423991  1
  O  O51  1  0.293968  0.091780  0.834499  1
  O  O52  1  0.951231  0.798816  0.181044  1
  O  O53  1  0.616065  0.363751  0.574909  1
  O  O54  1  0.739258  0.161762  0.272363  1
  O  O55  1  0.437984  0.309693  0.759115  1
  O  O56  1  0.067438  0.950967  0.132823  1
  O  O57  1  0.117177  0.401228  0.182562  1
  O  O58  1  0.490885  0.756792  0.812016  1
  O  O59  1  0.977637  0.423382  0.510742  1
  O  O60  1  0.675091  0.804726  0.633935  1
  O  O61  1  0.068956  0.181091  0.298769  1
  O  O62  1  0.415501  0.470247  0.956032  1
  O  O63  1  0.826009  0.029002  0.542281  1
  O  O64  1  0.023882  0.601699  0.452612  1
  O  O65  1  0.294136  0.747066  0.184014  1
