# generated using pymatgen
data_Na2Ge2O5
_symmetry_space_group_name_H-M   'P 1'
_cell_length_a   5.08702708
_cell_length_b   6.61246237
_cell_length_c   16.30858044
_cell_angle_alpha   90.00000000
_cell_angle_beta   90.00000000
_cell_angle_gamma   90.00000000
_symmetry_Int_Tables_number   1
_chemical_formula_structural   Na2Ge2O5
_chemical_formula_sum   'Na8 Ge8 O20'
_cell_volume   548.58436172
_cell_formula_units_Z   4
loop_
 _symmetry_equiv_pos_site_id
 _symmetry_equiv_pos_as_xyz
  1  'x, y, z'
loop_
 _atom_site_type_symbol
 _atom_site_label
 _atom_site_symmetry_multiplicity
 _atom_site_fract_x
 _atom_site_fract_y
 _atom_site_fract_z
 _atom_site_occupancy
  Na  Na0  1  0.222275  0.900078  0.056107  1
  Na  Na1  1  0.777725  0.900078  0.556107  1
  Na  Na2  1  0.722275  0.599922  0.056107  1
  Na  Na3  1  0.277725  0.599922  0.556107  1
  Na  Na4  1  0.722275  0.400078  0.443893  1
  Na  Na5  1  0.277725  0.400078  0.943893  1
  Na  Na6  1  0.222275  0.099922  0.443893  1
  Na  Na7  1  0.777725  0.099922  0.943893  1
  Ge  Ge8  1  0.695191  0.899900  0.345325  1
  Ge  Ge9  1  0.304809  0.899900  0.845325  1
  Ge  Ge10  1  0.804809  0.600100  0.845325  1
  Ge  Ge11  1  0.195191  0.600100  0.345325  1
  Ge  Ge12  1  0.804809  0.399900  0.654675  1
  Ge  Ge13  1  0.195191  0.399900  0.154675  1
  Ge  Ge14  1  0.695191  0.100100  0.154675  1
  Ge  Ge15  1  0.304809  0.100100  0.654675  1
  O  O16  1  0.796679  0.000000  0.250000  1
  O  O17  1  0.203321  0.000000  0.750000  1
  O  O18  1  0.763882  0.944377  0.072389  1
  O  O19  1  0.236118  0.944377  0.572389  1
  O  O20  1  0.347911  0.845842  0.351783  1
  O  O21  1  0.652089  0.845842  0.851783  1
  O  O22  1  0.847911  0.654158  0.351783  1
  O  O23  1  0.152089  0.654158  0.851783  1
  O  O24  1  0.263882  0.555623  0.072389  1
  O  O25  1  0.736118  0.555623  0.572389  1
  O  O26  1  0.296679  0.500000  0.250000  1
  O  O27  1  0.703321  0.500000  0.750000  1
  O  O28  1  0.263882  0.444377  0.427611  1
  O  O29  1  0.736118  0.444377  0.927611  1
  O  O30  1  0.847911  0.345842  0.148217  1
  O  O31  1  0.152089  0.345842  0.648217  1
  O  O32  1  0.347911  0.154158  0.148217  1
  O  O33  1  0.652089  0.154158  0.648217  1
  O  O34  1  0.763882  0.055623  0.427611  1
  O  O35  1  0.236118  0.055623  0.927611  1
