# generated using pymatgen
data_Li12Mn2Fe3O16
_symmetry_space_group_name_H-M   'P 1'
_cell_length_a   5.81716474
_cell_length_b   5.85858208
_cell_length_c   9.73529660
_cell_angle_alpha   91.61792532
_cell_angle_beta   89.71965245
_cell_angle_gamma   118.89135442
_symmetry_Int_Tables_number   1
_chemical_formula_structural   Li12Mn2Fe3O16
_chemical_formula_sum   'Li12 Mn2 Fe3 O16'
_cell_volume   290.35741346
_cell_formula_units_Z   1
loop_
 _symmetry_equiv_pos_site_id
 _symmetry_equiv_pos_as_xyz
  1  'x, y, z'
loop_
 _atom_site_type_symbol
 _atom_site_label
 _atom_site_symmetry_multiplicity
 _atom_site_fract_x
 _atom_site_fract_y
 _atom_site_fract_z
 _atom_site_occupancy
  Li  Li0  1  0.849799  0.695699  0.040878  1
  Li  Li1  1  0.988366  0.016690  0.487210  1
  Li  Li2  1  0.793213  0.139514  0.768489  1
  Li  Li3  1  0.181180  0.361717  0.263724  1
  Li  Li4  1  0.193647  0.418589  0.517504  1
  Li  Li5  1  0.846061  0.184576  0.023025  1
  Li  Li6  1  0.315043  0.146660  0.770941  1
  Li  Li7  1  0.292000  0.612384  0.767082  1
  Li  Li8  1  0.361645  0.190994  0.022015  1
  Li  Li9  1  0.611398  0.794939  0.558879  1
  Li  Li10  1  0.685481  0.362675  0.254658  1
  Li  Li11  1  0.160051  0.803840  0.559646  1
  Mn  Mn12  1  0.635905  0.303355  0.530140  1
  Mn  Mn13  1  0.337599  0.675571  0.018673  1
  Fe  Fe14  1  0.661532  0.847501  0.278231  1
  Fe  Fe15  1  0.817113  0.653930  0.784496  1
  Fe  Fe16  1  0.170600  0.850797  0.280349  1
  O  O17  1  0.812476  0.172668  0.404226  1
  O  O18  1  0.187163  0.363865  0.921288  1
  O  O19  1  0.494690  0.016522  0.638603  1
  O  O20  1  0.510488  0.550126  0.148767  1
  O  O21  1  0.324679  0.169106  0.407893  1
  O  O22  1  0.651032  0.821848  0.903978  1
  O  O23  1  0.685742  0.367997  0.894508  1
  O  O24  1  0.951607  0.473563  0.645393  1
  O  O25  1  0.332229  0.696794  0.387573  1
  O  O26  1  0.039116  0.553554  0.149849  1
  O  O27  1  0.487221  0.473113  0.646155  1
  O  O28  1  0.170442  0.818549  0.902476  1
  O  O29  1  0.823433  0.676341  0.399517  1
  O  O30  1  0.496730  0.001298  0.148357  1
  O  O31  1  0.958257  0.943160  0.675023  1
  O  O32  1  0.998905  0.002907  0.180700  1
