# generated using pymatgen
data_Na2LiP3H8O13
_symmetry_space_group_name_H-M   'P 1'
_cell_length_a   6.97850488
_cell_length_b   9.46257993
_cell_length_c   9.99527997
_cell_angle_alpha   94.91305713
_cell_angle_beta   104.25883205
_cell_angle_gamma   107.92012398
_symmetry_Int_Tables_number   1
_chemical_formula_structural   Na2LiP3H8O13
_chemical_formula_sum   'Na4 Li2 P6 H16 O26'
_cell_volume   599.26858745
_cell_formula_units_Z   2
loop_
 _symmetry_equiv_pos_site_id
 _symmetry_equiv_pos_as_xyz
  1  'x, y, z'
loop_
 _atom_site_type_symbol
 _atom_site_label
 _atom_site_symmetry_multiplicity
 _atom_site_fract_x
 _atom_site_fract_y
 _atom_site_fract_z
 _atom_site_occupancy
  Na  Na0  1  0.568812  0.946703  0.849947  1
  Na  Na1  1  0.431188  0.053297  0.150053  1
  Na  Na2  1  0.189978  0.659685  0.964939  1
  Na  Na3  1  0.810022  0.340315  0.035061  1
  Li  Li4  1  0.636286  0.748303  0.610720  1
  Li  Li5  1  0.363714  0.251697  0.389280  1
  P  P6  1  0.267089  0.296139  0.964646  1
  P  P7  1  0.732911  0.703861  0.035354  1
  P  P8  1  0.177162  0.220739  0.660758  1
  P  P9  1  0.822838  0.779261  0.339242  1
  P  P10  1  0.077238  0.980801  0.821170  1
  P  P11  1  0.922762  0.019199  0.178830  1
  H  H12  1  0.271976  0.797259  0.545417  1
  H  H13  1  0.728024  0.202741  0.454583  1
  H  H14  1  0.280938  0.693564  0.656577  1
  H  H15  1  0.719062  0.306436  0.343423  1
  H  H16  1  0.570299  0.211709  0.715160  1
  H  H17  1  0.429701  0.788291  0.284840  1
  H  H18  1  0.795585  0.206698  0.744233  1
  H  H19  1  0.204415  0.793302  0.255767  1
  H  H20  1  0.515190  0.458817  0.633393  1
  H  H21  1  0.484810  0.541183  0.366607  1
  H  H22  1  0.656956  0.566099  0.774899  1
  H  H23  1  0.343044  0.433901  0.225101  1
  H  H24  1  0.922586  0.576996  0.680377  1
  H  H25  1  0.077414  0.423004  0.319623  1
  H  H26  1  0.026875  0.454823  0.677296  1
  H  H27  1  0.973125  0.545177  0.322704  1
  O  O28  1  0.303830  0.327943  0.812729  1
  O  O29  1  0.696170  0.672057  0.187271  1
  O  O30  1  0.079865  0.131081  0.915858  1
  O  O31  1  0.920135  0.868919  0.084142  1
  O  O32  1  0.826140  0.594941  0.982455  1
  O  O33  1  0.173860  0.405059  0.017545  1
  O  O34  1  0.536433  0.717763  0.945247  1
  O  O35  1  0.463567  0.282237  0.054753  1
  O  O36  1  0.161444  0.053456  0.693888  1
  O  O37  1  0.838556  0.946544  0.306112  1
  O  O38  1  0.328423  0.258998  0.574178  1
  O  O39  1  0.671577  0.741002  0.425822  1
  O  O40  1  0.963032  0.235826  0.613436  1
  O  O41  1  0.036968  0.764174  0.386564  1
  O  O42  1  0.850710  0.884573  0.764690  1
  O  O43  1  0.149290  0.115427  0.235310  1
  O  O44  1  0.237235  0.918992  0.898689  1
  O  O45  1  0.762765  0.081008  0.101311  1
  O  O46  1  0.372630  0.776289  0.622636  1
  O  O47  1  0.627370  0.223711  0.377364  1
  O  O48  1  0.679910  0.193702  0.787068  1
  O  O49  1  0.320090  0.806298  0.212932  1
  O  O50  1  0.632828  0.554759  0.672660  1
  O  O51  1  0.367172  0.445241  0.327340  1
  O  O52  1  0.060539  0.563218  0.708904  1
  O  O53  1  0.939461  0.436782  0.291096  1
