# generated using pymatgen
data_Sr2U4O11
_symmetry_space_group_name_H-M   'P 1'
_cell_length_a   10.21915718
_cell_length_b   10.21915718
_cell_length_c   6.82425175
_cell_angle_alpha   70.76190209
_cell_angle_beta   109.23809791
_cell_angle_gamma   158.29022956
_symmetry_Int_Tables_number   1
_chemical_formula_structural   Sr2U4O11
_chemical_formula_sum   'Sr2 U4 O11'
_cell_volume   248.33931563
_cell_formula_units_Z   1
loop_
 _symmetry_equiv_pos_site_id
 _symmetry_equiv_pos_as_xyz
  1  'x, y, z'
loop_
 _atom_site_type_symbol
 _atom_site_label
 _atom_site_symmetry_multiplicity
 _atom_site_fract_x
 _atom_site_fract_y
 _atom_site_fract_z
 _atom_site_occupancy
  Sr  Sr0  1  0.163385  0.836615  0.503756  1
  Sr  Sr1  1  0.838878  0.161122  0.511859  1
  U  U2  1  0.000979  0.999021  0.003986  1
  U  U3  1  0.498167  0.501833  0.491213  1
  U  U4  1  0.331589  0.668411  0.995302  1
  U  U5  1  0.662624  0.337376  0.971002  1
  O  O6  1  0.880859  0.119141  0.916075  1
  O  O7  1  0.293370  0.706630  0.665720  1
  O  O8  1  0.615764  0.384236  0.622678  1
  O  O9  1  0.030452  0.969548  0.355129  1
  O  O10  1  0.463620  0.536380  0.112870  1
  O  O11  1  0.779334  0.220666  0.110200  1
  O  O12  1  0.203495  0.796505  0.882081  1
  O  O13  1  0.543098  0.456902  0.883054  1
  O  O14  1  0.967789  0.032211  0.641684  1
  O  O15  1  0.382779  0.617221  0.344701  1
  O  O16  1  0.127309  0.872691  0.119998  1
