# generated using pymatgen
data_Na5Fe11O16
_symmetry_space_group_name_H-M   'P 1'
_cell_length_a   6.20220684
_cell_length_b   6.20220684
_cell_length_c   10.95614009
_cell_angle_alpha   74.23776694
_cell_angle_beta   105.76223306
_cell_angle_gamma   120.06689957
_symmetry_Int_Tables_number   1
_chemical_formula_structural   Na5Fe11O16
_chemical_formula_sum   'Na5 Fe11 O16'
_cell_volume   346.34838779
_cell_formula_units_Z   1
loop_
 _symmetry_equiv_pos_site_id
 _symmetry_equiv_pos_as_xyz
  1  'x, y, z'
loop_
 _atom_site_type_symbol
 _atom_site_label
 _atom_site_symmetry_multiplicity
 _atom_site_fract_x
 _atom_site_fract_y
 _atom_site_fract_z
 _atom_site_occupancy
  Na  Na0  1  0.811948  0.684554  0.940278  1
  Na  Na1  1  0.315446  0.188052  0.940278  1
  Na  Na2  1  0.811672  0.685587  0.433638  1
  Na  Na3  1  0.811877  0.188123  0.936353  1
  Na  Na4  1  0.314413  0.188328  0.433638  1
  Fe  Fe5  1  0.063926  0.936074  0.684928  1
  Fe  Fe6  1  0.315979  0.684021  0.941877  1
  Fe  Fe7  1  0.564903  0.940657  0.185909  1
  Fe  Fe8  1  0.063080  0.433586  0.686130  1
  Fe  Fe9  1  0.566414  0.936920  0.686130  1
  Fe  Fe10  1  0.811678  0.188322  0.432684  1
  Fe  Fe11  1  0.564620  0.435380  0.686510  1
  Fe  Fe12  1  0.061001  0.938999  0.185382  1
  Fe  Fe13  1  0.562595  0.437405  0.189867  1
  Fe  Fe14  1  0.313736  0.686264  0.433005  1
  Fe  Fe15  1  0.059343  0.435097  0.185909  1
  O  O16  1  0.957395  0.583354  0.791751  1
  O  O17  1  0.698116  0.832050  0.569305  1
  O  O18  1  0.198157  0.801843  0.080370  1
  O  O19  1  0.932761  0.067239  0.786846  1
  O  O20  1  0.701805  0.298195  0.582299  1
  O  O21  1  0.422209  0.577791  0.299869  1
  O  O22  1  0.426718  0.573282  0.790951  1
  O  O23  1  0.202635  0.797365  0.575205  1
  O  O24  1  0.445627  0.047622  0.307541  1
  O  O25  1  0.416646  0.042605  0.791751  1
  O  O26  1  0.952378  0.554373  0.307541  1
  O  O27  1  0.669470  0.808883  0.074569  1
  O  O28  1  0.191117  0.330530  0.074569  1
  O  O29  1  0.167950  0.301884  0.569305  1
  O  O30  1  0.926783  0.073217  0.293910  1
  O  O31  1  0.697915  0.302085  0.086235  1
