# generated using pymatgen
data_Li4MnCrO6
_symmetry_space_group_name_H-M   'P 1'
_cell_length_a   5.04342922
_cell_length_b   8.65993306
_cell_length_c   9.75427861
_cell_angle_alpha   98.20585256
_cell_angle_beta   95.26574887
_cell_angle_gamma   89.76047177
_symmetry_Int_Tables_number   1
_chemical_formula_structural   Li4MnCrO6
_chemical_formula_sum   'Li16 Mn4 Cr4 O24'
_cell_volume   419.86700774
_cell_formula_units_Z   4
loop_
 _symmetry_equiv_pos_site_id
 _symmetry_equiv_pos_as_xyz
  1  'x, y, z'
loop_
 _atom_site_type_symbol
 _atom_site_label
 _atom_site_symmetry_multiplicity
 _atom_site_fract_x
 _atom_site_fract_y
 _atom_site_fract_z
 _atom_site_occupancy
  Li  Li0  1  0.996548  0.167376  0.498747  1
  Li  Li1  1  0.874733  0.376213  0.749723  1
  Li  Li2  1  0.750139  0.250043  0.000621  1
  Li  Li3  1  0.740712  0.920478  0.999600  1
  Li  Li4  1  0.755127  0.579968  0.000198  1
  Li  Li5  1  0.623844  0.122688  0.249962  1
  Li  Li6  1  0.502678  0.331951  0.500566  1
  Li  Li7  1  0.499924  0.000367  0.500084  1
  Li  Li8  1  0.492074  0.667845  0.499377  1
  Li  Li9  1  0.374135  0.875257  0.750246  1
  Li  Li10  1  0.253738  0.750778  0.999190  1
  Li  Li11  1  0.242819  0.420679  0.000106  1
  Li  Li12  1  0.258146  0.078584  0.999861  1
  Li  Li13  1  0.123788  0.622861  0.250088  1
  Li  Li14  1  0.005949  0.831220  0.500944  1
  Li  Li15  1  0.003452  0.501361  0.499773  1
  Mn  Mn16  1  0.625387  0.791854  0.250368  1
  Mn  Mn17  1  0.373265  0.542727  0.750191  1
  Mn  Mn18  1  0.376133  0.207687  0.749847  1
  Mn  Mn19  1  0.125676  0.291385  0.249795  1
  Cr  Cr20  1  0.872136  0.704926  0.748471  1
  Cr  Cr21  1  0.877657  0.045099  0.751604  1
  Cr  Cr22  1  0.622452  0.455280  0.249811  1
  Cr  Cr23  1  0.122872  0.955122  0.249699  1
  O  O24  1  0.966512  0.107050  0.137808  1
  O  O25  1  0.927314  0.787093  0.138809  1
  O  O26  1  0.931915  0.427011  0.134235  1
  O  O27  1  0.817555  0.964440  0.363132  1
  O  O28  1  0.824067  0.325126  0.363407  1
  O  O29  1  0.785902  0.643875  0.362621  1
  O  O30  1  0.718198  0.856443  0.638357  1
  O  O31  1  0.677753  0.535327  0.638775  1
  O  O32  1  0.677572  0.175579  0.637226  1
  O  O33  1  0.466642  0.606796  0.138160  1
  O  O34  1  0.566839  0.712642  0.862352  1
  O  O35  1  0.568112  0.074164  0.865770  1
  O  O36  1  0.431902  0.926830  0.134651  1
  O  O37  1  0.426722  0.287112  0.138620  1
  O  O38  1  0.538026  0.392841  0.861757  1
  O  O39  1  0.324129  0.824978  0.363232  1
  O  O40  1  0.317629  0.464284  0.362883  1
  O  O41  1  0.286156  0.144051  0.362030  1
  O  O42  1  0.210538  0.356468  0.638510  1
  O  O43  1  0.181603  0.676593  0.634728  1
  O  O44  1  0.184045  0.036580  0.637324  1
  O  O45  1  0.072633  0.574591  0.862861  1
  O  O46  1  0.071980  0.214136  0.860830  1
  O  O47  1  0.032873  0.894243  0.863055  1
