# generated using pymatgen
data_Sr3(RhO2)16
_symmetry_space_group_name_H-M   'P 1'
_cell_length_a   8.20123897
_cell_length_b   8.75325826
_cell_length_c   9.86898903
_cell_angle_alpha   66.91288257
_cell_angle_beta   72.38196212
_cell_angle_gamma   77.30034493
_symmetry_Int_Tables_number   1
_chemical_formula_structural   Sr3(RhO2)16
_chemical_formula_sum   'Sr3 Rh16 O32'
_cell_volume   617.01203338
_cell_formula_units_Z   1
loop_
 _symmetry_equiv_pos_site_id
 _symmetry_equiv_pos_as_xyz
  1  'x, y, z'
loop_
 _atom_site_type_symbol
 _atom_site_label
 _atom_site_symmetry_multiplicity
 _atom_site_fract_x
 _atom_site_fract_y
 _atom_site_fract_z
 _atom_site_occupancy
  Sr  Sr0  1  0.984138  0.983684  0.015924  1
  Sr  Sr1  1  0.672126  0.672283  0.327476  1
  Sr  Sr2  1  0.304631  0.304308  0.696017  1
  Rh  Rh3  1  0.943971  0.219943  0.246138  1
  Rh  Rh4  1  0.879620  0.199849  0.620563  1
  Rh  Rh5  1  0.370546  0.050418  0.129258  1
  Rh  Rh6  1  0.806405  0.530548  0.005005  1
  Rh  Rh7  1  0.555391  0.280810  0.255462  1
  Rh  Rh8  1  0.305528  0.029549  0.504512  1
  Rh  Rh9  1  0.621868  0.299319  0.880961  1
  Rh  Rh10  1  0.870208  0.548178  0.632431  1
  Rh  Rh11  1  0.130097  0.450913  0.368727  1
  Rh  Rh12  1  0.377512  0.700835  0.118844  1
  Rh  Rh13  1  0.192624  0.470155  0.995999  1
  Rh  Rh14  1  0.694382  0.969629  0.495279  1
  Rh  Rh15  1  0.444412  0.718147  0.744802  1
  Rh  Rh16  1  0.628142  0.949142  0.871055  1
  Rh  Rh17  1  0.119529  0.798797  0.380697  1
  Rh  Rh18  1  0.056085  0.779858  0.754197  1
  O  O19  1  0.869418  0.110452  0.470946  1
  O  O20  1  0.756599  0.086813  0.261160  1
  O  O21  1  0.632568  0.050624  0.024529  1
  O  O22  1  0.882560  0.299098  0.775814  1
  O  O23  1  0.620357  0.195545  0.728471  1
  O  O24  1  0.872224  0.445899  0.477769  1
  O  O25  1  0.493460  0.162321  0.488862  1
  O  O26  1  0.745430  0.414172  0.237769  1
  O  O27  1  0.381083  0.139384  0.279474  1
  O  O28  1  0.632378  0.388257  0.030620  1
  O  O29  1  0.113264  0.027697  0.212334  1
  O  O30  1  0.994353  0.666415  0.987963  1
  O  O31  1  0.880191  0.638715  0.780715  1
  O  O32  1  0.363783  0.278897  0.960616  1
  O  O33  1  0.861872  0.775919  0.461926  1
  O  O34  1  0.615145  0.526948  0.714751  1
  O  O35  1  0.137247  0.222632  0.538195  1
  O  O36  1  0.635306  0.721281  0.041104  1
  O  O37  1  0.385121  0.472845  0.284982  1
  O  O38  1  0.119199  0.361228  0.220294  1
  O  O39  1  0.004785  0.335738  0.012922  1
  O  O40  1  0.885829  0.971609  0.788380  1
  O  O41  1  0.618176  0.860423  0.720448  1
  O  O42  1  0.367970  0.611768  0.969205  1
  O  O43  1  0.253642  0.584495  0.763440  1
  O  O44  1  0.505757  0.836725  0.511493  1
  O  O45  1  0.128449  0.551821  0.523831  1
  O  O46  1  0.377385  0.804244  0.272206  1
  O  O47  1  0.116349  0.700489  0.224467  1
  O  O48  1  0.366983  0.949255  0.975997  1
  O  O49  1  0.244723  0.912103  0.737635  1
  O  O50  1  0.129876  0.888520  0.529639  1
