# generated using pymatgen
data_Rb4I2O
_symmetry_space_group_name_H-M   'P 1'
_cell_length_a   10.11079733
_cell_length_b   10.11079733
_cell_length_c   10.11079733
_cell_angle_alpha   147.51818287
_cell_angle_beta   147.51818287
_cell_angle_gamma   46.59713576
_symmetry_Int_Tables_number   1
_chemical_formula_structural   Rb4I2O
_chemical_formula_sum   'Rb4 I2 O1'
_cell_volume   297.02101759
_cell_formula_units_Z   1
loop_
 _symmetry_equiv_pos_site_id
 _symmetry_equiv_pos_as_xyz
  1  'x, y, z'
loop_
 _atom_site_type_symbol
 _atom_site_label
 _atom_site_symmetry_multiplicity
 _atom_site_fract_x
 _atom_site_fract_y
 _atom_site_fract_z
 _atom_site_occupancy
  Rb  Rb0  1  0.000000  0.500000  0.500000  1
  Rb  Rb1  1  0.146706  0.146706  0.000000  1
  Rb  Rb2  1  0.853294  0.853294  1.000000  1
  Rb  Rb3  1  0.500000  0.000000  0.500000  1
  I  I4  1  0.354909  0.354909  0.000000  1
  I  I5  1  0.645091  0.645091  1.000000  1
  O  O6  1  0.000000  0.000000  0.000000  1
