# generated using pymatgen
data_Li3CuS2
_symmetry_space_group_name_H-M   'P 1'
_cell_length_a   7.95579419
_cell_length_b   7.95579419
_cell_length_c   7.95579419
_cell_angle_alpha   109.47122063
_cell_angle_beta   109.47122063
_cell_angle_gamma   109.47122063
_symmetry_Int_Tables_number   1
_chemical_formula_structural   Li3CuS2
_chemical_formula_sum   'Li12 Cu4 S8'
_cell_volume   387.64012888
_cell_formula_units_Z   4
loop_
 _symmetry_equiv_pos_site_id
 _symmetry_equiv_pos_as_xyz
  1  'x, y, z'
loop_
 _atom_site_type_symbol
 _atom_site_label
 _atom_site_symmetry_multiplicity
 _atom_site_fract_x
 _atom_site_fract_y
 _atom_site_fract_z
 _atom_site_occupancy
  Li  Li0  1  0.865816  0.250000  0.115816  1
  Li  Li1  1  0.865816  0.115816  0.750000  1
  Li  Li2  1  0.634184  0.384184  0.250000  1
  Li  Li3  1  0.750000  0.384184  0.634184  1
  Li  Li4  1  0.750000  0.865816  0.115816  1
  Li  Li5  1  0.634184  0.750000  0.384184  1
  Li  Li6  1  0.384184  0.250000  0.634184  1
  Li  Li7  1  0.250000  0.634184  0.384184  1
  Li  Li8  1  0.250000  0.115816  0.865816  1
  Li  Li9  1  0.115816  0.865816  0.250000  1
  Li  Li10  1  0.384184  0.634184  0.750000  1
  Li  Li11  1  0.115816  0.750000  0.865816  1
  Cu  Cu12  1  0.500000  1.000000  0.250000  1
  Cu  Cu13  1  0.250000  0.500000  0.000000  1
  Cu  Cu14  1  0.250000  0.250000  0.250000  1
  Cu  Cu15  1  1.000000  0.250000  0.500000  1
  S  S16  1  0.980696  0.500000  1.000000  1
  S  S17  1  0.519304  0.500000  1.000000  1
  S  S18  1  0.500000  1.000000  0.519304  1
  S  S19  1  0.500000  1.000000  0.980696  1
  S  S20  1  0.519304  0.519304  0.519304  1
  S  S21  1  0.980696  0.980696  0.980696  1
  S  S22  1  1.000000  0.519304  0.500000  1
  S  S23  1  1.000000  0.980696  0.500000  1
