# generated using pymatgen
data_Mg5Ti13O30
_symmetry_space_group_name_H-M   'P 1'
_cell_length_a   5.25633805
_cell_length_b   10.10629826
_cell_length_c   10.67672215
_cell_angle_alpha   90.00000000
_cell_angle_beta   96.19062654
_cell_angle_gamma   90.00000000
_symmetry_Int_Tables_number   1
_chemical_formula_structural   Mg5Ti13O30
_chemical_formula_sum   'Mg5 Ti13 O30'
_cell_volume   563.86273103
_cell_formula_units_Z   1
loop_
 _symmetry_equiv_pos_site_id
 _symmetry_equiv_pos_as_xyz
  1  'x, y, z'
loop_
 _atom_site_type_symbol
 _atom_site_label
 _atom_site_symmetry_multiplicity
 _atom_site_fract_x
 _atom_site_fract_y
 _atom_site_fract_z
 _atom_site_occupancy
  Mg  Mg0  1  0.323094  0.000000  0.934255  1
  Mg  Mg1  1  0.340351  0.500000  0.731478  1
  Mg  Mg2  1  0.009420  0.500000  0.399722  1
  Mg  Mg3  1  0.991436  0.000000  0.603609  1
  Mg  Mg4  1  0.672778  0.500000  0.064180  1
  Ti  Ti5  1  0.227016  0.683086  0.954447  1
  Ti  Ti6  1  0.227016  0.316914  0.954447  1
  Ti  Ti7  1  0.442808  0.182266  0.711219  1
  Ti  Ti8  1  0.442808  0.817734  0.711219  1
  Ti  Ti9  1  0.107603  0.188624  0.381054  1
  Ti  Ti10  1  0.107603  0.811376  0.381054  1
  Ti  Ti11  1  0.890272  0.682697  0.623358  1
  Ti  Ti12  1  0.561774  0.318082  0.286523  1
  Ti  Ti13  1  0.890272  0.317303  0.623358  1
  Ti  Ti14  1  0.561774  0.681918  0.286523  1
  Ti  Ti15  1  0.658485  0.000000  0.267891  1
  Ti  Ti16  1  0.778001  0.188042  0.042133  1
  Ti  Ti17  1  0.778001  0.811958  0.042133  1
  O  O18  1  0.074834  0.863382  0.984973  1
  O  O19  1  0.074834  0.136618  0.984973  1
  O  O20  1  0.145835  0.313031  0.770634  1
  O  O21  1  0.145835  0.686969  0.770634  1
  O  O22  1  0.367114  0.500000  0.926263  1
  O  O23  1  0.033506  0.500000  0.592699  1
  O  O24  1  0.299196  0.000000  0.740374  1
  O  O25  1  0.522384  0.184100  0.896835  1
  O  O26  1  0.522384  0.815900  0.896835  1
  O  O27  1  0.188082  0.816737  0.561193  1
  O  O28  1  0.188082  0.183263  0.561193  1
  O  O29  1  0.590802  0.636682  0.681963  1
  O  O30  1  0.590802  0.363318  0.681963  1
  O  O31  1  0.259133  0.639000  0.347489  1
  O  O32  1  0.259133  0.361000  0.347489  1
  O  O33  1  0.742002  0.863037  0.651164  1
  O  O34  1  0.742002  0.136963  0.651164  1
  O  O35  1  0.414570  0.869886  0.317158  1
  O  O36  1  0.414570  0.130114  0.317158  1
  O  O37  1  0.479090  0.314548  0.104548  1
  O  O38  1  0.815974  0.687990  0.436593  1
  O  O39  1  0.815974  0.312010  0.436593  1
  O  O40  1  0.479090  0.685452  0.104548  1
  O  O41  1  0.702562  0.500000  0.260293  1
  O  O42  1  0.950191  0.000000  0.402357  1
  O  O43  1  0.625017  0.000000  0.082689  1
  O  O44  1  0.848425  0.180723  0.229940  1
  O  O45  1  0.848425  0.819277  0.229940  1
  O  O46  1  0.924819  0.636605  0.015870  1
  O  O47  1  0.924819  0.363395  0.015870  1
