# generated using pymatgen
data_Li6CoNi9O20
_symmetry_space_group_name_H-M   'P 1'
_cell_length_a   11.56472318
_cell_length_b   11.56472318
_cell_length_c   11.71624078
_cell_angle_alpha   65.84183908
_cell_angle_beta   114.15816092
_cell_angle_gamma   165.93927239
_symmetry_Int_Tables_number   1
_chemical_formula_structural   Li6CoNi9O20
_chemical_formula_sum   'Li6 Co1 Ni9 O20'
_cell_volume   346.82066538
_cell_formula_units_Z   1
loop_
 _symmetry_equiv_pos_site_id
 _symmetry_equiv_pos_as_xyz
  1  'x, y, z'
loop_
 _atom_site_type_symbol
 _atom_site_label
 _atom_site_symmetry_multiplicity
 _atom_site_fract_x
 _atom_site_fract_y
 _atom_site_fract_z
 _atom_site_occupancy
  Li  Li0  1  0.292684  0.707316  0.831902  1
  Li  Li1  1  0.901867  0.098133  0.551609  1
  Li  Li2  1  0.707316  0.292684  0.168098  1
  Li  Li3  1  0.908694  0.091306  0.064093  1
  Li  Li4  1  0.091306  0.908694  0.935907  1
  Li  Li5  1  0.098133  0.901867  0.448391  1
  Co  Co6  1  0.500000  0.500000  0.500000  1
  Ni  Ni7  1  0.297831  0.702169  0.599952  1
  Ni  Ni8  1  0.299675  0.700325  0.097045  1
  Ni  Ni9  1  0.500000  0.500000  0.000000  1
  Ni  Ni10  1  0.099233  0.900767  0.700365  1
  Ni  Ni11  1  0.700325  0.299675  0.902955  1
  Ni  Ni12  1  0.901942  0.098058  0.798222  1
  Ni  Ni13  1  0.098058  0.901942  0.201778  1
  Ni  Ni14  1  0.702169  0.297831  0.400048  1
  Ni  Ni15  1  0.900767  0.099233  0.299635  1
  O  O16  1  0.591461  0.408539  0.074847  1
  O  O17  1  0.613174  0.386826  0.331575  1
  O  O18  1  0.200039  0.799961  0.798823  1
  O  O19  1  0.198692  0.801308  0.288951  1
  O  O20  1  0.205814  0.794186  0.509456  1
  O  O21  1  0.410002  0.589998  0.422946  1
  O  O22  1  0.589998  0.410002  0.577054  1
  O  O23  1  0.206022  0.793978  0.017868  1
  O  O24  1  0.388069  0.611931  0.170507  1
  O  O25  1  0.386826  0.613174  0.668425  1
  O  O26  1  0.408539  0.591461  0.925153  1
  O  O27  1  0.611931  0.388069  0.829493  1
  O  O28  1  0.793978  0.206022  0.982132  1
  O  O29  1  0.001271  0.998729  0.106972  1
  O  O30  1  0.794186  0.205814  0.490544  1
  O  O31  1  0.801308  0.198692  0.711049  1
  O  O32  1  0.799961  0.200039  0.201177  1
  O  O33  1  0.000755  0.999245  0.606743  1
  O  O34  1  0.999245  0.000755  0.393257  1
  O  O35  1  0.998729  0.001271  0.893028  1
