# generated using pymatgen
data_Li5Fe3(BO3)4
_symmetry_space_group_name_H-M   'P 1'
_cell_length_a   5.24550566
_cell_length_b   8.98109553
_cell_length_c   11.23094377
_cell_angle_alpha   90.00000000
_cell_angle_beta   116.15083930
_cell_angle_gamma   90.00000000
_symmetry_Int_Tables_number   1
_chemical_formula_structural   Li5Fe3(BO3)4
_chemical_formula_sum   'Li10 Fe6 B8 O24'
_cell_volume   474.93437732
_cell_formula_units_Z   2
loop_
 _symmetry_equiv_pos_site_id
 _symmetry_equiv_pos_as_xyz
  1  'x, y, z'
loop_
 _atom_site_type_symbol
 _atom_site_label
 _atom_site_symmetry_multiplicity
 _atom_site_fract_x
 _atom_site_fract_y
 _atom_site_fract_z
 _atom_site_occupancy
  Li  Li0  1  0.501362  0.232927  0.661829  1
  Li  Li1  1  0.456989  0.914547  0.616055  1
  Li  Li2  1  0.915176  0.238885  0.095181  1
  Li  Li3  1  0.549752  0.406469  0.886569  1
  Li  Li4  1  0.066756  0.740088  0.387800  1
  Li  Li5  1  0.501362  0.767073  0.161829  1
  Li  Li6  1  0.915176  0.761115  0.595181  1
  Li  Li7  1  0.456989  0.085453  0.116055  1
  Li  Li8  1  0.066756  0.259912  0.887800  1
  Li  Li9  1  0.549752  0.593531  0.386569  1
  Fe  Fe10  1  0.976984  0.572667  0.129578  1
  Fe  Fe11  1  0.487547  0.723204  0.832564  1
  Fe  Fe12  1  0.032501  0.071356  0.376637  1
  Fe  Fe13  1  0.976984  0.427333  0.629578  1
  Fe  Fe14  1  0.032501  0.928644  0.876637  1
  Fe  Fe15  1  0.487547  0.276796  0.332564  1
  B  B16  1  0.457231  0.574909  0.620762  1
  B  B17  1  0.963391  0.915987  0.128867  1
  B  B18  1  0.550316  0.077874  0.880049  1
  B  B19  1  0.030256  0.417165  0.372289  1
  B  B20  1  0.963391  0.084013  0.628867  1
  B  B21  1  0.457231  0.425091  0.120762  1
  B  B22  1  0.030256  0.582835  0.872289  1
  B  B23  1  0.550316  0.922126  0.380049  1
  O  O24  1  0.807431  0.579994  0.907265  1
  O  O25  1  0.318365  0.916909  0.409316  1
  O  O26  1  0.701069  0.202573  0.882491  1
  O  O27  1  0.145459  0.541636  0.345649  1
  O  O28  1  0.629986  0.939379  0.847571  1
  O  O29  1  0.139800  0.275699  0.362390  1
  O  O30  1  0.377112  0.436948  0.648508  1
  O  O31  1  0.837814  0.785408  0.135624  1
  O  O32  1  0.891654  0.048374  0.175030  1
  O  O33  1  0.312278  0.705488  0.629210  1
  O  O34  1  0.166327  0.076836  0.577759  1
  O  O35  1  0.684444  0.409038  0.091006  1
  O  O36  1  0.318365  0.083091  0.909316  1
  O  O37  1  0.807431  0.420006  0.407265  1
  O  O38  1  0.701069  0.797427  0.382491  1
  O  O39  1  0.145459  0.458364  0.845649  1
  O  O40  1  0.139800  0.724301  0.862390  1
  O  O41  1  0.629986  0.060621  0.347571  1
  O  O42  1  0.837814  0.214592  0.635624  1
  O  O43  1  0.377112  0.563052  0.148508  1
  O  O44  1  0.891654  0.951626  0.675030  1
  O  O45  1  0.312278  0.294512  0.129210  1
  O  O46  1  0.684444  0.590962  0.591006  1
  O  O47  1  0.166327  0.923164  0.077759  1
