# generated using pymatgen
data_V6O11F
_symmetry_space_group_name_H-M   'P 1'
_cell_length_a   10.33089959
_cell_length_b   10.33089959
_cell_length_c   2.93809470
_cell_angle_alpha   90.00000000
_cell_angle_beta   90.00000000
_cell_angle_gamma   142.68721752
_symmetry_Int_Tables_number   1
_chemical_formula_structural   V6O11F
_chemical_formula_sum   'V6 O11 F1'
_cell_volume   190.07873718
_cell_formula_units_Z   1
loop_
 _symmetry_equiv_pos_site_id
 _symmetry_equiv_pos_as_xyz
  1  'x, y, z'
loop_
 _atom_site_type_symbol
 _atom_site_label
 _atom_site_symmetry_multiplicity
 _atom_site_fract_x
 _atom_site_fract_y
 _atom_site_fract_z
 _atom_site_occupancy
  V  V0  1  0.998722  0.665450  1.000000  1
  V  V1  1  0.166358  0.500247  0.500000  1
  V  V2  1  0.500247  0.166358  0.500000  1
  V  V3  1  0.665450  0.998722  0.000000  1
  V  V4  1  0.318045  0.318045  0.000000  1
  V  V5  1  0.849473  0.849473  0.500000  1
  O  O6  1  0.065584  0.601290  0.500000  1
  O  O7  1  0.696455  0.362914  1.000000  1
  O  O8  1  0.302901  0.971169  0.000000  1
  O  O9  1  0.971169  0.302901  1.000000  1
  O  O10  1  0.601290  0.065584  0.500000  1
  O  O11  1  0.270866  0.401227  0.500000  1
  O  O12  1  0.730450  0.930798  0.500000  1
  O  O13  1  0.401227  0.270866  0.500000  1
  O  O14  1  0.362914  0.696455  1.000000  1
  O  O15  1  0.035531  0.035531  0.000000  1
  O  O16  1  0.930798  0.730450  0.500000  1
  F  F17  1  0.632394  0.632394  0.000000  1
