# generated using pymatgen
data_LiMo2(PO4)3
_symmetry_space_group_name_H-M   'P 1'
_cell_length_a   8.85651550
_cell_length_b   8.85651550
_cell_length_c   8.92124749
_cell_angle_alpha   60.30256921
_cell_angle_beta   119.69743079
_cell_angle_gamma   120.17817498
_symmetry_Int_Tables_number   1
_chemical_formula_structural   LiMo2(PO4)3
_chemical_formula_sum   'Li2 Mo4 P6 O24'
_cell_volume   496.37967333
_cell_formula_units_Z   2
loop_
 _symmetry_equiv_pos_site_id
 _symmetry_equiv_pos_as_xyz
  1  'x, y, z'
loop_
 _atom_site_type_symbol
 _atom_site_label
 _atom_site_symmetry_multiplicity
 _atom_site_fract_x
 _atom_site_fract_y
 _atom_site_fract_z
 _atom_site_occupancy
  Li  Li0  1  0.040736  0.642321  0.045608  1
  Li  Li1  1  0.357679  0.959264  0.545608  1
  Mo  Mo2  1  0.360510  0.143848  0.077673  1
  Mo  Mo3  1  0.145090  0.354491  0.426535  1
  Mo  Mo4  1  0.856152  0.639490  0.577673  1
  Mo  Mo5  1  0.645509  0.854910  0.926535  1
  P  P6  1  0.752712  0.466075  0.242782  1
  P  P7  1  0.042541  0.037778  0.258373  1
  P  P8  1  0.466682  0.753451  0.251259  1
  P  P9  1  0.533925  0.247288  0.742782  1
  P  P10  1  0.962222  0.957459  0.758373  1
  P  P11  1  0.246549  0.533318  0.751259  1
  O  O12  1  0.116807  0.982696  0.942056  1
  O  O13  1  0.003753  0.114522  0.589717  1
  O  O14  1  0.212545  0.495846  0.583595  1
  O  O15  1  0.058940  0.222587  0.254211  1
  O  O16  1  0.591459  0.281002  0.239825  1
  O  O17  1  0.017304  0.883193  0.442056  1
  O  O18  1  0.276723  0.595875  0.246269  1
  O  O19  1  0.704740  0.620201  0.059934  1
  O  O20  1  0.445349  0.923269  0.235865  1
  O  O21  1  0.492362  0.210354  0.906000  1
  O  O22  1  0.777413  0.941060  0.754211  1
  O  O23  1  0.076731  0.554651  0.735865  1
  O  O24  1  0.379799  0.295260  0.559934  1
  O  O25  1  0.624005  0.710766  0.430748  1
  O  O26  1  0.926295  0.454849  0.249641  1
  O  O27  1  0.232605  0.056542  0.270855  1
  O  O28  1  0.504154  0.787455  0.083595  1
  O  O29  1  0.289234  0.375995  0.930748  1
  O  O30  1  0.545151  0.073705  0.749641  1
  O  O31  1  0.718998  0.408541  0.739825  1
  O  O32  1  0.404125  0.723277  0.746269  1
  O  O33  1  0.943458  0.767395  0.770855  1
  O  O34  1  0.789646  0.507638  0.406000  1
  O  O35  1  0.885478  0.996247  0.089717  1
