# generated using pymatgen
data_Li7Cr2O8
_symmetry_space_group_name_H-M   'P 1'
_cell_length_a   5.17662090
_cell_length_b   5.18608142
_cell_length_c   7.81010074
_cell_angle_alpha   70.86979608
_cell_angle_beta   83.02453601
_cell_angle_gamma   68.53067380
_symmetry_Int_Tables_number   1
_chemical_formula_structural   Li7Cr2O8
_chemical_formula_sum   'Li7 Cr2 O8'
_cell_volume   184.34870693
_cell_formula_units_Z   1
loop_
 _symmetry_equiv_pos_site_id
 _symmetry_equiv_pos_as_xyz
  1  'x, y, z'
loop_
 _atom_site_type_symbol
 _atom_site_label
 _atom_site_symmetry_multiplicity
 _atom_site_fract_x
 _atom_site_fract_y
 _atom_site_fract_z
 _atom_site_occupancy
  Li  Li0  1  0.762806  0.237670  0.994631  1
  Li  Li1  1  0.276718  0.202055  0.202367  1
  Li  Li2  1  0.741402  0.038898  0.452263  1
  Li  Li3  1  0.261270  0.948260  0.562416  1
  Li  Li4  1  0.755080  0.499374  0.588715  1
  Li  Li5  1  0.711072  0.808964  0.802566  1
  Li  Li6  1  0.240239  0.770951  0.989114  1
  Cr  Cr7  1  0.713600  0.602326  0.235064  1
  Cr  Cr8  1  0.275640  0.388680  0.762803  1
  O  O9  1  0.838626  0.801678  0.039776  1
  O  O10  1  0.518051  0.443419  0.171404  1
  O  O11  1  0.961973  0.310216  0.378746  1
  O  O12  1  0.543750  0.831136  0.365951  1
  O  O13  1  0.479055  0.163287  0.633095  1
  O  O14  1  0.002511  0.697084  0.631636  1
  O  O15  1  0.500892  0.563293  0.802163  1
  O  O16  1  0.163370  0.182817  0.972506  1
