# generated using pymatgen
data_Li2Fe3NiO8
_symmetry_space_group_name_H-M   'P 1'
_cell_length_a   8.36042781
_cell_length_b   8.36042781
_cell_length_c   8.36042781
_cell_angle_alpha   90.00000000
_cell_angle_beta   90.00000000
_cell_angle_gamma   90.00000000
_symmetry_Int_Tables_number   1
_chemical_formula_structural   Li2Fe3NiO8
_chemical_formula_sum   'Li8 Fe12 Ni4 O32'
_cell_volume   584.36675938
_cell_formula_units_Z   4
loop_
 _symmetry_equiv_pos_site_id
 _symmetry_equiv_pos_as_xyz
  1  'x, y, z'
loop_
 _atom_site_type_symbol
 _atom_site_label
 _atom_site_symmetry_multiplicity
 _atom_site_fract_x
 _atom_site_fract_y
 _atom_site_fract_z
 _atom_site_occupancy
  Li  Li0  1  0.248052  0.248052  0.248052  1
  Li  Li1  1  0.001948  0.001948  0.001948  1
  Li  Li2  1  0.501948  0.498052  0.998052  1
  Li  Li3  1  0.748052  0.251948  0.751948  1
  Li  Li4  1  0.251948  0.751948  0.748052  1
  Li  Li5  1  0.498052  0.998052  0.501948  1
  Li  Li6  1  0.998052  0.501948  0.498052  1
  Li  Li7  1  0.751948  0.748052  0.251948  1
  Fe  Fe8  1  0.625000  0.128177  0.121823  1
  Fe  Fe9  1  0.371823  0.878177  0.125000  1
  Fe  Fe10  1  0.121823  0.625000  0.128177  1
  Fe  Fe11  1  0.621823  0.875000  0.871823  1
  Fe  Fe12  1  0.871823  0.621823  0.875000  1
  Fe  Fe13  1  0.125000  0.371823  0.878177  1
  Fe  Fe14  1  0.875000  0.871823  0.621823  1
  Fe  Fe15  1  0.128177  0.121823  0.625000  1
  Fe  Fe16  1  0.378177  0.375000  0.628177  1
  Fe  Fe17  1  0.878177  0.125000  0.371823  1
  Fe  Fe18  1  0.628177  0.378177  0.375000  1
  Fe  Fe19  1  0.375000  0.628177  0.378177  1
  Ni  Ni20  1  0.875000  0.375000  0.125000  1
  Ni  Ni21  1  0.375000  0.125000  0.875000  1
  Ni  Ni22  1  0.625000  0.625000  0.625000  1
  Ni  Ni23  1  0.125000  0.875000  0.375000  1
  O  O24  1  0.865094  0.148406  0.130565  1
  O  O25  1  0.648406  0.369435  0.134906  1
  O  O26  1  0.362791  0.637209  0.137209  1
  O  O27  1  0.384906  0.119435  0.101594  1
  O  O28  1  0.130565  0.865094  0.148406  1
  O  O29  1  0.612791  0.887209  0.112791  1
  O  O30  1  0.880565  0.601594  0.115094  1
  O  O31  1  0.101594  0.384906  0.119435  1
  O  O32  1  0.601594  0.115094  0.880565  1
  O  O33  1  0.380565  0.898406  0.884906  1
  O  O34  1  0.112791  0.612791  0.887209  1
  O  O35  1  0.630565  0.634906  0.851594  1
  O  O36  1  0.884906  0.380565  0.898406  1
  O  O37  1  0.862791  0.862791  0.862791  1
  O  O38  1  0.148406  0.130565  0.865094  1
  O  O39  1  0.365094  0.351594  0.869435  1
  O  O40  1  0.634906  0.851594  0.630565  1
  O  O41  1  0.851594  0.630565  0.634906  1
  O  O42  1  0.137209  0.362791  0.637209  1
  O  O43  1  0.115094  0.880565  0.601594  1
  O  O44  1  0.369435  0.134906  0.648406  1
  O  O45  1  0.887209  0.112791  0.612791  1
  O  O46  1  0.619435  0.398406  0.615094  1
  O  O47  1  0.398406  0.615094  0.619435  1
  O  O48  1  0.898406  0.884906  0.380565  1
  O  O49  1  0.119435  0.101594  0.384906  1
  O  O50  1  0.387209  0.387209  0.387209  1
  O  O51  1  0.869435  0.365094  0.351594  1
  O  O52  1  0.615094  0.619435  0.398406  1
  O  O53  1  0.637209  0.137209  0.362791  1
  O  O54  1  0.351594  0.869435  0.365094  1
  O  O55  1  0.134906  0.648406  0.369435  1
