# generated using pymatgen
data_Li2MnO2F
_symmetry_space_group_name_H-M   'P 1'
_cell_length_a   5.12180587
_cell_length_b   5.19465379
_cell_length_c   9.84387671
_cell_angle_alpha   95.91383145
_cell_angle_beta   93.56152109
_cell_angle_gamma   119.40737380
_symmetry_Int_Tables_number   1
_chemical_formula_structural   Li2MnO2F
_chemical_formula_sum   'Li8 Mn4 O8 F4'
_cell_volume   225.01747302
_cell_formula_units_Z   4
loop_
 _symmetry_equiv_pos_site_id
 _symmetry_equiv_pos_as_xyz
  1  'x, y, z'
loop_
 _atom_site_type_symbol
 _atom_site_label
 _atom_site_symmetry_multiplicity
 _atom_site_fract_x
 _atom_site_fract_y
 _atom_site_fract_z
 _atom_site_occupancy
  Li  Li0  1  0.136690  0.330347  0.002831  1
  Li  Li1  1  0.319122  0.151750  0.503361  1
  Li  Li2  1  0.494156  0.004519  0.003812  1
  Li  Li3  1  0.760470  0.235615  0.748187  1
  Li  Li4  1  0.219172  0.728955  0.246812  1
  Li  Li5  1  0.036208  0.509966  0.501267  1
  Li  Li6  1  0.639113  0.813468  0.493131  1
  Li  Li7  1  0.857015  0.683572  0.992538  1
  Mn  Mn8  1  0.414248  0.595370  0.751792  1
  Mn  Mn9  1  0.093385  0.922278  0.749073  1
  Mn  Mn10  1  0.931166  0.089241  0.251022  1
  Mn  Mn11  1  0.577159  0.418321  0.250129  1
  O  O12  1  0.086592  0.227261  0.647625  1
  O  O13  1  0.221347  0.071229  0.136563  1
  O  O14  1  0.136983  0.653492  0.864811  1
  O  O15  1  0.308152  0.454927  0.369798  1
  O  O16  1  0.358057  0.874701  0.629025  1
  O  O17  1  0.854048  0.345948  0.142050  1
  O  O18  1  0.784761  0.927996  0.857602  1
  O  O19  1  0.923820  0.787565  0.354052  1
  F  F20  1  0.484008  0.309334  0.886339  1
  F  F21  1  0.645018  0.124126  0.384915  1
  F  F22  1  0.696116  0.530971  0.619142  1
  F  F23  1  0.523191  0.709047  0.114124  1
