# generated using pymatgen
data_Li4Cr3CoO8
_symmetry_space_group_name_H-M   'P 1'
_cell_length_a   5.10198472
_cell_length_b   7.75050169
_cell_length_c   7.75206027
_cell_angle_alpha   81.67775271
_cell_angle_beta   83.74370179
_cell_angle_gamma   71.03310129
_symmetry_Int_Tables_number   1
_chemical_formula_structural   Li4Cr3CoO8
_chemical_formula_sum   'Li8 Cr6 Co2 O16'
_cell_volume   286.21453241
_cell_formula_units_Z   2
loop_
 _symmetry_equiv_pos_site_id
 _symmetry_equiv_pos_as_xyz
  1  'x, y, z'
loop_
 _atom_site_type_symbol
 _atom_site_label
 _atom_site_symmetry_multiplicity
 _atom_site_fract_x
 _atom_site_fract_y
 _atom_site_fract_z
 _atom_site_occupancy
  Li  Li0  1  0.503450  0.685841  0.936833  1
  Li  Li1  1  0.505373  0.434936  0.687942  1
  Li  Li2  1  0.494627  0.565064  0.312058  1
  Li  Li3  1  0.498503  0.064007  0.810781  1
  Li  Li4  1  0.503879  0.185276  0.440441  1
  Li  Li5  1  0.496550  0.314159  0.063167  1
  Li  Li6  1  0.496121  0.814724  0.559559  1
  Li  Li7  1  0.501497  0.935993  0.189219  1
  Cr  Cr8  1  0.000039  0.373849  0.873903  1
  Cr  Cr9  1  0.000000  0.500000  0.500000  1
  Cr  Cr10  1  0.999961  0.626151  0.126097  1
  Cr  Cr11  1  0.999442  0.246354  0.254003  1
  Cr  Cr12  1  0.000558  0.753646  0.745997  1
  Cr  Cr13  1  0.000000  0.000000  0.000000  1
  Co  Co14  1  0.999877  0.124204  0.624204  1
  Co  Co15  1  0.000123  0.875796  0.375796  1
  O  O16  1  0.226937  0.537177  0.906022  1
  O  O17  1  0.772474  0.590200  0.717057  1
  O  O18  1  0.224308  0.665308  0.527847  1
  O  O19  1  0.776062  0.211748  0.838060  1
  O  O20  1  0.223207  0.282075  0.656012  1
  O  O21  1  0.227526  0.409800  0.282943  1
  O  O22  1  0.775692  0.334692  0.472153  1
  O  O23  1  0.224132  0.916223  0.778350  1
  O  O24  1  0.217553  0.032720  0.413293  1
  O  O25  1  0.773063  0.462823  0.093978  1
  O  O26  1  0.782447  0.967280  0.586707  1
  O  O27  1  0.227329  0.160655  0.033641  1
  O  O28  1  0.775868  0.083777  0.221650  1
  O  O29  1  0.223938  0.788252  0.161940  1
  O  O30  1  0.776793  0.717925  0.343988  1
  O  O31  1  0.772671  0.839345  0.966359  1
