# generated using pymatgen
data_Nb4ReO4
_symmetry_space_group_name_H-M   'P 1'
_cell_length_a   5.12805917
_cell_length_b   5.47497774
_cell_length_c   8.80925754
_cell_angle_alpha   84.41447287
_cell_angle_beta   79.78109899
_cell_angle_gamma   75.75227466
_symmetry_Int_Tables_number   1
_chemical_formula_structural   Nb4ReO4
_chemical_formula_sum   'Nb8 Re2 O8'
_cell_volume   235.54475826
_cell_formula_units_Z   2
loop_
 _symmetry_equiv_pos_site_id
 _symmetry_equiv_pos_as_xyz
  1  'x, y, z'
loop_
 _atom_site_type_symbol
 _atom_site_label
 _atom_site_symmetry_multiplicity
 _atom_site_fract_x
 _atom_site_fract_y
 _atom_site_fract_z
 _atom_site_occupancy
  Nb  Nb0  1  0.390146  0.864005  0.640248  1
  Nb  Nb1  1  0.155747  0.177434  0.206815  1
  Nb  Nb2  1  0.785699  0.303291  0.957975  1
  Nb  Nb3  1  0.214301  0.696709  0.042025  1
  Nb  Nb4  1  0.923587  0.259332  0.626226  1
  Nb  Nb5  1  0.076413  0.740668  0.373774  1
  Nb  Nb6  1  0.844253  0.822566  0.793185  1
  Nb  Nb7  1  0.609854  0.135995  0.359752  1
  Re  Re8  1  0.667984  0.686659  0.192055  1
  Re  Re9  1  0.332016  0.313341  0.807945  1
  O  O10  1  0.195036  0.089187  0.985051  1
  O  O11  1  0.804964  0.910813  0.014949  1
  O  O12  1  0.786736  0.940021  0.551069  1
  O  O13  1  0.213264  0.059979  0.448931  1
  O  O14  1  0.365947  0.468164  0.241866  1
  O  O15  1  0.634053  0.531836  0.758134  1
  O  O16  1  0.168623  0.575151  0.629971  1
  O  O17  1  0.831377  0.424849  0.370029  1
