# generated using pymatgen
data_Li24Mn11CrO36
_symmetry_space_group_name_H-M   'P 1'
_cell_length_a   5.00806911
_cell_length_b   10.55935688
_cell_length_c   13.01255290
_cell_angle_alpha   112.74387361
_cell_angle_beta   97.17888483
_cell_angle_gamma   94.77849587
_symmetry_Int_Tables_number   1
_chemical_formula_structural   Li24Mn11CrO36
_chemical_formula_sum   'Li24 Mn11 Cr1 O36'
_cell_volume   623.09941880
_cell_formula_units_Z   1
loop_
 _symmetry_equiv_pos_site_id
 _symmetry_equiv_pos_as_xyz
  1  'x, y, z'
loop_
 _atom_site_type_symbol
 _atom_site_label
 _atom_site_symmetry_multiplicity
 _atom_site_fract_x
 _atom_site_fract_y
 _atom_site_fract_z
 _atom_site_occupancy
  Li  Li0  1  0.781528  0.058298  0.058512  1
  Li  Li1  1  0.666958  0.333475  0.083524  1
  Li  Li2  1  0.883368  0.274647  0.274320  1
  Li  Li3  1  0.333646  0.166940  0.166706  1
  Li  Li4  1  0.557894  0.607621  0.107893  1
  Li  Li5  1  0.000062  0.000110  0.250050  1
  Li  Li6  1  0.999684  0.500018  0.000228  1
  Li  Li7  1  0.777452  0.058740  0.558129  1
  Li  Li8  1  0.449416  0.390702  0.391806  1
  Li  Li9  1  0.666714  0.333419  0.583454  1
  Li  Li10  1  0.667592  0.833728  0.333310  1
  Li  Li11  1  0.108616  0.725495  0.224370  1
  Li  Li12  1  0.889237  0.274707  0.775258  1
  Li  Li13  1  0.333363  0.166739  0.666717  1
  Li  Li14  1  0.333841  0.667672  0.417654  1
  Li  Li15  1  0.552742  0.608691  0.608235  1
  Li  Li16  1  0.999136  0.499845  0.500282  1
  Li  Li17  1  0.222380  0.941419  0.441871  1
  Li  Li18  1  0.443594  0.391884  0.891629  1
  Li  Li19  1  0.666685  0.833357  0.833390  1
  Li  Li20  1  0.114198  0.724574  0.725195  1
  Li  Li21  1  0.333361  0.666727  0.916746  1
  Li  Li22  1  0.999998  0.999981  0.749971  1
  Li  Li23  1  0.219180  0.942066  0.941552  1
  Mn  Mn24  1  0.888991  0.777953  0.027953  1
  Mn  Mn25  1  0.555604  0.111256  0.361274  1
  Mn  Mn26  1  0.778098  0.555511  0.305286  1
  Mn  Mn27  1  0.444300  0.888552  0.138563  1
  Mn  Mn28  1  0.111002  0.221913  0.471925  1
  Mn  Mn29  1  0.889025  0.778104  0.528117  1
  Mn  Mn30  1  0.555669  0.111442  0.861394  1
  Mn  Mn31  1  0.777583  0.555238  0.805213  1
  Mn  Mn32  1  0.222310  0.444631  0.694604  1
  Mn  Mn33  1  0.444380  0.888729  0.638734  1
  Mn  Mn34  1  0.110846  0.221737  0.971991  1
  Cr  Cr35  1  0.224340  0.446841  0.196859  1
  O  O36  1  0.428159  0.139539  0.001637  1
  O  O37  1  0.642968  0.075834  0.211967  1
  O  O38  1  0.898804  0.529019  0.165149  1
  O  O39  1  0.306728  0.409127  0.045331  1
  O  O40  1  0.880308  0.044200  0.406266  1
  O  O41  1  0.024941  0.256973  0.121021  1
  O  O42  1  0.554042  0.377506  0.241200  1
  O  O43  1  0.786459  0.289080  0.427120  1
  O  O44  1  0.761307  0.806405  0.168458  1
  O  O45  1  0.238608  0.193710  0.331556  1
  O  O46  1  0.213776  0.710831  0.072972  1
  O  O47  1  0.452329  0.621302  0.259318  1
  O  O48  1  0.428179  0.139598  0.501735  1
  O  O49  1  0.977656  0.742894  0.378926  1
  O  O50  1  0.119560  0.955614  0.093644  1
  O  O51  1  0.689287  0.590952  0.454874  1
  O  O52  1  0.094476  0.471664  0.333628  1
  O  O53  1  0.642902  0.075824  0.711817  1
  O  O54  1  0.356987  0.923929  0.288009  1
  O  O55  1  0.905221  0.526933  0.664811  1
  O  O56  1  0.309601  0.409282  0.545179  1
  O  O57  1  0.880248  0.044023  0.906102  1
  O  O58  1  0.023635  0.257303  0.621304  1
  O  O59  1  0.571810  0.860145  0.497954  1
  O  O60  1  0.546971  0.377592  0.739590  1
  O  O61  1  0.786026  0.288966  0.926953  1
  O  O62  1  0.761382  0.806427  0.668425  1
  O  O63  1  0.238515  0.193525  0.831411  1
  O  O64  1  0.213570  0.710562  0.572705  1
  O  O65  1  0.452794  0.622418  0.760267  1
  O  O66  1  0.976375  0.742605  0.878613  1
  O  O67  1  0.119715  0.955690  0.593754  1
  O  O68  1  0.690208  0.590653  0.954518  1
  O  O69  1  0.094755  0.472996  0.835007  1
  O  O70  1  0.356940  0.923844  0.787848  1
  O  O71  1  0.571963  0.860272  0.998214  1
