# generated using pymatgen
data_Li6MnS4
_symmetry_space_group_name_H-M   'P 1'
_cell_length_a   8.04711242
_cell_length_b   8.04711242
_cell_length_c   5.80386019
_cell_angle_alpha   90.00000000
_cell_angle_beta   90.00000000
_cell_angle_gamma   90.00000000
_symmetry_Int_Tables_number   1
_chemical_formula_structural   Li6MnS4
_chemical_formula_sum   'Li12 Mn2 S8'
_cell_volume   375.83487628
_cell_formula_units_Z   2
loop_
 _symmetry_equiv_pos_site_id
 _symmetry_equiv_pos_as_xyz
  1  'x, y, z'
loop_
 _atom_site_type_symbol
 _atom_site_label
 _atom_site_symmetry_multiplicity
 _atom_site_fract_x
 _atom_site_fract_y
 _atom_site_fract_z
 _atom_site_occupancy
  Li  Li0  1  0.274322  0.274322  0.500000  1
  Li  Li1  1  0.725678  0.274322  0.500000  1
  Li  Li2  1  0.000000  0.500000  0.462347  1
  Li  Li3  1  0.000000  0.500000  0.962347  1
  Li  Li4  1  0.274322  0.725678  0.500000  1
  Li  Li5  1  0.725678  0.725678  0.500000  1
  Li  Li6  1  0.774322  0.774322  0.000000  1
  Li  Li7  1  0.225678  0.774322  0.000000  1
  Li  Li8  1  0.500000  0.000000  0.037653  1
  Li  Li9  1  0.500000  0.000000  0.537653  1
  Li  Li10  1  0.774322  0.225678  0.000000  1
  Li  Li11  1  0.225678  0.225678  0.000000  1
  Mn  Mn12  1  0.500000  0.500000  0.000000  1
  Mn  Mn13  1  0.000000  0.000000  0.500000  1
  S  S14  1  0.000000  0.256917  0.715703  1
  S  S15  1  0.756917  0.500000  0.215703  1
  S  S16  1  0.243083  0.500000  0.215703  1
  S  S17  1  0.000000  0.743083  0.715703  1
  S  S18  1  0.500000  0.756917  0.784297  1
  S  S19  1  0.743083  0.000000  0.284297  1
  S  S20  1  0.256917  0.000000  0.284297  1
  S  S21  1  0.500000  0.243083  0.784297  1
