# generated using pymatgen
data_Lu2TiO5
_symmetry_space_group_name_H-M   'P 1'
_cell_length_a   3.56453169
_cell_length_b   7.38730348
_cell_length_c   15.25307738
_cell_angle_alpha   90.00000000
_cell_angle_beta   90.00000000
_cell_angle_gamma   90.00000000
_symmetry_Int_Tables_number   1
_chemical_formula_structural   Lu2TiO5
_chemical_formula_sum   'Lu8 Ti4 O20'
_cell_volume   401.64826413
_cell_formula_units_Z   4
loop_
 _symmetry_equiv_pos_site_id
 _symmetry_equiv_pos_as_xyz
  1  'x, y, z'
loop_
 _atom_site_type_symbol
 _atom_site_label
 _atom_site_symmetry_multiplicity
 _atom_site_fract_x
 _atom_site_fract_y
 _atom_site_fract_z
 _atom_site_occupancy
  Lu  Lu0  1  0.750000  0.902039  0.084665  1
  Lu  Lu1  1  0.750000  0.833675  0.737516  1
  Lu  Lu2  1  0.250000  0.666325  0.237516  1
  Lu  Lu3  1  0.250000  0.597961  0.584665  1
  Lu  Lu4  1  0.750000  0.402039  0.415335  1
  Lu  Lu5  1  0.750000  0.333675  0.762484  1
  Lu  Lu6  1  0.250000  0.166325  0.262484  1
  Lu  Lu7  1  0.250000  0.097961  0.915335  1
  Ti  Ti8  1  0.750000  0.887054  0.422739  1
  Ti  Ti9  1  0.250000  0.612946  0.922739  1
  Ti  Ti10  1  0.750000  0.387054  0.077261  1
  Ti  Ti11  1  0.250000  0.112946  0.577261  1
  O  O12  1  0.250000  0.934547  0.174972  1
  O  O13  1  0.250000  0.926559  0.453125  1
  O  O14  1  0.250000  0.873907  0.648728  1
  O  O15  1  0.250000  0.845067  0.995696  1
  O  O16  1  0.750000  0.755122  0.320489  1
  O  O17  1  0.250000  0.744878  0.820489  1
  O  O18  1  0.750000  0.654933  0.495696  1
  O  O19  1  0.750000  0.626093  0.148728  1
  O  O20  1  0.750000  0.573441  0.953125  1
  O  O21  1  0.750000  0.565453  0.674972  1
  O  O22  1  0.250000  0.434547  0.325028  1
  O  O23  1  0.250000  0.426559  0.046875  1
  O  O24  1  0.250000  0.373907  0.851272  1
  O  O25  1  0.250000  0.345067  0.504304  1
  O  O26  1  0.750000  0.255122  0.179511  1
  O  O27  1  0.250000  0.244878  0.679511  1
  O  O28  1  0.750000  0.154933  0.004304  1
  O  O29  1  0.750000  0.126093  0.351272  1
  O  O30  1  0.750000  0.073441  0.546875  1
  O  O31  1  0.750000  0.065453  0.825028  1
