# generated using pymatgen
data_Fe6OF11
_symmetry_space_group_name_H-M   'P 1'
_cell_length_a   5.83781764
_cell_length_b   5.83781764
_cell_length_c   7.50707451
_cell_angle_alpha   73.92788479
_cell_angle_beta   106.07211521
_cell_angle_gamma   108.32306750
_symmetry_Int_Tables_number   1
_chemical_formula_structural   Fe6OF11
_chemical_formula_sum   'Fe6 O1 F11'
_cell_volume   228.26925322
_cell_formula_units_Z   1
loop_
 _symmetry_equiv_pos_site_id
 _symmetry_equiv_pos_as_xyz
  1  'x, y, z'
loop_
 _atom_site_type_symbol
 _atom_site_label
 _atom_site_symmetry_multiplicity
 _atom_site_fract_x
 _atom_site_fract_y
 _atom_site_fract_z
 _atom_site_occupancy
  Fe  Fe0  1  0.331095  0.668905  0.836792  1
  Fe  Fe1  1  0.663636  0.336364  0.654285  1
  Fe  Fe2  1  0.353675  0.646325  0.334355  1
  Fe  Fe3  1  0.660562  0.339438  0.172003  1
  Fe  Fe4  1  0.003006  0.996994  0.497376  1
  Fe  Fe5  1  0.996606  0.003394  0.001825  1
  O  O6  1  0.554711  0.445289  0.360985  1
  F  F7  1  0.965848  0.636019  0.675137  1
  F  F8  1  0.631334  0.958266  0.331372  1
  F  F9  1  0.119571  0.880429  0.310167  1
  F  F10  1  0.762406  0.237594  0.967602  1
  F  F11  1  0.418522  0.581478  0.620677  1
  F  F12  1  0.240807  0.759193  0.050465  1
  F  F13  1  0.899344  0.100656  0.696123  1
  F  F14  1  0.041734  0.368666  0.331372  1
  F  F15  1  0.363981  0.034152  0.675137  1
  F  F16  1  0.701236  0.708074  0.992164  1
  F  F17  1  0.291926  0.298764  0.992164  1
