# generated using pymatgen
data_Y2HgO4
_symmetry_space_group_name_H-M   'P 1'
_cell_length_a   6.87213462
_cell_length_b   6.87213462
_cell_length_c   6.87213462
_cell_angle_alpha   60.00000000
_cell_angle_beta   60.00000000
_cell_angle_gamma   60.00000000
_symmetry_Int_Tables_number   1
_chemical_formula_structural   Y2HgO4
_chemical_formula_sum   'Y4 Hg2 O8'
_cell_volume   229.48799839
_cell_formula_units_Z   2
loop_
 _symmetry_equiv_pos_site_id
 _symmetry_equiv_pos_as_xyz
  1  'x, y, z'
loop_
 _atom_site_type_symbol
 _atom_site_label
 _atom_site_symmetry_multiplicity
 _atom_site_fract_x
 _atom_site_fract_y
 _atom_site_fract_z
 _atom_site_occupancy
  Y  Y0  1  0.625000  0.625000  0.125000  1
  Y  Y1  1  0.125000  0.625000  0.625000  1
  Y  Y2  1  0.625000  0.125000  0.625000  1
  Y  Y3  1  0.625000  0.625000  0.625000  1
  Hg  Hg4  1  0.000000  0.000000  0.000000  1
  Hg  Hg5  1  0.250000  0.250000  0.250000  1
  O  O6  1  0.389813  0.830561  0.389813  1
  O  O7  1  0.389813  0.389813  0.389813  1
  O  O8  1  0.389813  0.389813  0.830561  1
  O  O9  1  0.830561  0.389813  0.389813  1
  O  O10  1  0.860187  0.860187  0.419439  1
  O  O11  1  0.419439  0.860187  0.860187  1
  O  O12  1  0.860187  0.419439  0.860187  1
  O  O13  1  0.860187  0.860187  0.860187  1
