# generated using pymatgen
data_V2OF5
_symmetry_space_group_name_H-M   'P 1'
_cell_length_a   5.27781888
_cell_length_b   5.46873275
_cell_length_c   11.67020458
_cell_angle_alpha   100.59299881
_cell_angle_beta   102.97846153
_cell_angle_gamma   89.99071697
_symmetry_Int_Tables_number   1
_chemical_formula_structural   V2OF5
_chemical_formula_sum   'V6 O3 F15'
_cell_volume   322.34095901
_cell_formula_units_Z   3
loop_
 _symmetry_equiv_pos_site_id
 _symmetry_equiv_pos_as_xyz
  1  'x, y, z'
loop_
 _atom_site_type_symbol
 _atom_site_label
 _atom_site_symmetry_multiplicity
 _atom_site_fract_x
 _atom_site_fract_y
 _atom_site_fract_z
 _atom_site_occupancy
  V  V0  1  0.167937  0.168595  0.337393  1
  V  V1  1  0.353110  0.342524  0.685329  1
  V  V2  1  0.496372  0.506506  0.012558  1
  V  V3  1  0.665379  0.666447  0.332381  1
  V  V4  1  0.997411  0.997781  0.995658  1
  V  V5  1  0.835998  0.825708  0.651204  1
  O  O6  1  0.494803  0.414788  0.831402  1
  O  O7  1  0.833994  0.754667  0.505119  1
  O  O8  1  0.497955  0.579128  0.159524  1
  F  F9  1  0.820860  0.912174  0.824696  1
  F  F10  1  0.616024  0.119233  0.635296  1
  F  F11  1  0.517076  0.617241  0.635753  1
  F  F12  1  0.163430  0.255006  0.508798  1
  F  F13  1  0.815098  0.709648  0.027355  1
  F  F14  1  0.149321  0.048487  0.699138  1
  F  F15  1  0.955246  0.450114  0.302733  1
  F  F16  1  0.283054  0.781917  0.963316  1
  F  F17  1  0.713836  0.213899  0.028735  1
  F  F18  1  0.180838  0.286452  0.964500  1
  F  F19  1  0.846109  0.950563  0.301413  1
  F  F20  1  0.048527  0.548868  0.698685  1
  F  F21  1  0.487457  0.385453  0.367536  1
  F  F22  1  0.376701  0.881594  0.365573  1
  F  F23  1  0.183466  0.083203  0.165906  1
