# generated using pymatgen
data_Li3Fe3O8
_symmetry_space_group_name_H-M   'P 1'
_cell_length_a   5.89835439
_cell_length_b   5.89835439
_cell_length_c   5.89835439
_cell_angle_alpha   59.59413954
_cell_angle_beta   59.59413954
_cell_angle_gamma   59.59413954
_symmetry_Int_Tables_number   1
_chemical_formula_structural   Li3Fe3O8
_chemical_formula_sum   'Li3 Fe3 O8'
_cell_volume   143.76481212
_cell_formula_units_Z   1
loop_
 _symmetry_equiv_pos_site_id
 _symmetry_equiv_pos_as_xyz
  1  'x, y, z'
loop_
 _atom_site_type_symbol
 _atom_site_label
 _atom_site_symmetry_multiplicity
 _atom_site_fract_x
 _atom_site_fract_y
 _atom_site_fract_z
 _atom_site_occupancy
  Li  Li0  1  0.000000  1.000000  0.000000  1
  Li  Li1  1  0.618383  0.618383  0.618383  1
  Li  Li2  1  0.381617  0.381617  0.381617  1
  Fe  Fe3  1  0.500000  0.000000  0.000000  1
  Fe  Fe4  1  0.000000  0.500000  0.000000  1
  Fe  Fe5  1  0.000000  0.000000  0.500000  1
  O  O6  1  0.752402  0.752402  0.204709  1
  O  O7  1  0.752402  0.204709  0.752402  1
  O  O8  1  0.204709  0.752402  0.752402  1
  O  O9  1  0.244426  0.244426  0.244426  1
  O  O10  1  0.247598  0.247598  0.795291  1
  O  O11  1  0.247598  0.795291  0.247598  1
  O  O12  1  0.795291  0.247598  0.247598  1
  O  O13  1  0.755574  0.755574  0.755574  1
