# generated using pymatgen
data_LiFe(PO3)4
_symmetry_space_group_name_H-M   'P 1'
_cell_length_a   6.84593559
_cell_length_b   9.17080497
_cell_length_c   7.19514710
_cell_angle_alpha   90.00000000
_cell_angle_beta   95.02666819
_cell_angle_gamma   90.00000000
_symmetry_Int_Tables_number   1
_chemical_formula_structural   LiFe(PO3)4
_chemical_formula_sum   'Li2 Fe2 P8 O24'
_cell_volume   449.99370389
_cell_formula_units_Z   2
loop_
 _symmetry_equiv_pos_site_id
 _symmetry_equiv_pos_as_xyz
  1  'x, y, z'
loop_
 _atom_site_type_symbol
 _atom_site_label
 _atom_site_symmetry_multiplicity
 _atom_site_fract_x
 _atom_site_fract_y
 _atom_site_fract_z
 _atom_site_occupancy
  Li  Li0  1  0.737161  0.256475  0.281792  1
  Li  Li1  1  0.262839  0.756475  0.718208  1
  Fe  Fe2  1  0.730102  0.969982  0.744870  1
  Fe  Fe3  1  0.269898  0.469982  0.255130  1
  P  P4  1  0.030277  0.363387  0.594185  1
  P  P5  1  0.939679  0.569183  0.910874  1
  P  P6  1  0.578420  0.748073  0.412475  1
  P  P7  1  0.570662  0.399012  0.936615  1
  P  P8  1  0.429338  0.899012  0.063385  1
  P  P9  1  0.421580  0.248073  0.587525  1
  P  P10  1  0.060321  0.069183  0.089126  1
  P  P11  1  0.969723  0.863387  0.405815  1
  O  O12  1  0.983724  0.930918  0.202648  1
  O  O13  1  0.038120  0.551259  0.106964  1
  O  O14  1  0.877611  0.977188  0.525248  1
  O  O15  1  0.955396  0.708809  0.807451  1
  O  O16  1  0.803120  0.737037  0.363096  1
  O  O17  1  0.840865  0.297693  0.525864  1
  O  O18  1  0.707563  0.539771  0.924322  1
  O  O19  1  0.675004  0.270094  0.021374  1
  O  O20  1  0.569536  0.796337  0.613871  1
  O  O21  1  0.493455  0.878982  0.282904  1
  O  O22  1  0.612021  0.947343  0.976963  1
  O  O23  1  0.482105  0.605167  0.357884  1
  O  O24  1  0.517895  0.105167  0.642116  1
  O  O25  1  0.387979  0.447343  0.023037  1
  O  O26  1  0.506545  0.378982  0.717096  1
  O  O27  1  0.430464  0.296337  0.386129  1
  O  O28  1  0.324996  0.770094  0.978626  1
  O  O29  1  0.292437  0.039771  0.075678  1
  O  O30  1  0.159135  0.797693  0.474136  1
  O  O31  1  0.196880  0.237037  0.636904  1
  O  O32  1  0.044604  0.208809  0.192549  1
  O  O33  1  0.122389  0.477188  0.474752  1
  O  O34  1  0.961880  0.051259  0.893036  1
  O  O35  1  0.016276  0.430918  0.797352  1
