# generated using pymatgen
data_Li2V2FeO6
_symmetry_space_group_name_H-M   'P 1'
_cell_length_a   6.54901092
_cell_length_b   6.67625392
_cell_length_c   8.43004974
_cell_angle_alpha   71.88341986
_cell_angle_beta   69.53140947
_cell_angle_gamma   81.39040844
_symmetry_Int_Tables_number   1
_chemical_formula_structural   Li2V2FeO6
_chemical_formula_sum   'Li6 V6 Fe3 O18'
_cell_volume   327.84866612
_cell_formula_units_Z   3
loop_
 _symmetry_equiv_pos_site_id
 _symmetry_equiv_pos_as_xyz
  1  'x, y, z'
loop_
 _atom_site_type_symbol
 _atom_site_label
 _atom_site_symmetry_multiplicity
 _atom_site_fract_x
 _atom_site_fract_y
 _atom_site_fract_z
 _atom_site_occupancy
  Li  Li0  1  0.669844  0.006583  0.830555  1
  Li  Li1  1  0.673964  0.329102  0.500274  1
  Li  Li2  1  0.003560  0.658237  0.838981  1
  Li  Li3  1  0.996440  0.341763  0.161019  1
  Li  Li4  1  0.330156  0.993417  0.169445  1
  Li  Li5  1  0.326036  0.670898  0.499726  1
  V  V6  1  0.339629  0.661969  0.003479  1
  V  V7  1  0.315323  0.337574  0.342463  1
  V  V8  1  0.321353  0.008345  0.673988  1
  V  V9  1  0.684677  0.662426  0.657537  1
  V  V10  1  0.660371  0.338031  0.996521  1
  V  V11  1  0.678647  0.991655  0.326012  1
  Fe  Fe12  1  0.000000  0.000000  0.000000  1
  Fe  Fe13  1  0.992553  0.672550  0.332723  1
  Fe  Fe14  1  0.007447  0.327450  0.667277  1
  O  O15  1  0.680997  0.349499  0.750292  1
  O  O16  1  0.679042  0.016995  0.084732  1
  O  O17  1  0.663495  0.680680  0.427854  1
  O  O18  1  0.018729  0.001659  0.760151  1
  O  O19  1  0.026897  0.688580  0.072546  1
  O  O20  1  0.355766  0.691715  0.748640  1
  O  O21  1  0.973103  0.311420  0.927454  1
  O  O22  1  0.981271  0.998341  0.239849  1
  O  O23  1  0.320958  0.983005  0.915268  1
  O  O24  1  0.016712  0.347304  0.409599  1
  O  O25  1  0.341432  0.339868  0.097106  1
  O  O26  1  0.356527  0.016040  0.419157  1
  O  O27  1  0.983288  0.652696  0.590401  1
  O  O28  1  0.319003  0.650501  0.249708  1
  O  O29  1  0.336505  0.319320  0.572146  1
  O  O30  1  0.658568  0.660132  0.902894  1
  O  O31  1  0.644234  0.308285  0.251360  1
  O  O32  1  0.643473  0.983960  0.580843  1
