# generated using pymatgen
data_HgTe(HO)7
_symmetry_space_group_name_H-M   'P 1'
_cell_length_a   6.01055466
_cell_length_b   6.97083981
_cell_length_c   8.67770552
_cell_angle_alpha   91.70999427
_cell_angle_beta   104.65501951
_cell_angle_gamma   91.04044773
_symmetry_Int_Tables_number   1
_chemical_formula_structural   HgTe(HO)7
_chemical_formula_sum   'Hg2 Te2 H14 O14'
_cell_volume   351.47432833
_cell_formula_units_Z   2
loop_
 _symmetry_equiv_pos_site_id
 _symmetry_equiv_pos_as_xyz
  1  'x, y, z'
loop_
 _atom_site_type_symbol
 _atom_site_label
 _atom_site_symmetry_multiplicity
 _atom_site_fract_x
 _atom_site_fract_y
 _atom_site_fract_z
 _atom_site_occupancy
  Hg  Hg0  1  0.314545  0.055388  0.404537  1
  Hg  Hg1  1  0.685455  0.944612  0.595463  1
  Te  Te2  1  0.000000  0.500000  0.500000  1
  Te  Te3  1  0.000000  0.000000  0.000000  1
  H  H4  1  0.122775  0.705239  0.746717  1
  H  H5  1  0.090841  0.244217  0.701976  1
  H  H6  1  0.205491  0.320908  0.997300  1
  H  H7  1  0.257982  0.481600  0.309042  1
  H  H8  1  0.492545  0.537132  0.817582  1
  H  H9  1  0.566851  0.038285  0.908656  1
  H  H10  1  0.338424  0.628105  0.105124  1
  H  H11  1  0.661576  0.371895  0.894876  1
  H  H12  1  0.433149  0.961715  0.091344  1
  H  H13  1  0.507455  0.462868  0.182418  1
  H  H14  1  0.742018  0.518400  0.690958  1
  H  H15  1  0.794509  0.679092  0.002700  1
  H  H16  1  0.909159  0.755783  0.298024  1
  H  H17  1  0.877225  0.294761  0.253283  1
  O  O18  1  0.145403  0.214487  0.914691  1
  O  O19  1  0.035611  0.238207  0.583278  1
  O  O20  1  0.206899  0.603267  0.699817  1
  O  O21  1  0.040945  0.133034  0.199877  1
  O  O22  1  0.269529  0.450890  0.423370  1
  O  O23  1  0.303847  0.870194  0.071959  1
  O  O24  1  0.343669  0.491157  0.135424  1
  O  O25  1  0.656331  0.508843  0.864576  1
  O  O26  1  0.696153  0.129806  0.928041  1
  O  O27  1  0.730471  0.549110  0.576630  1
  O  O28  1  0.959055  0.866966  0.800123  1
  O  O29  1  0.793101  0.396733  0.300183  1
  O  O30  1  0.964389  0.761793  0.416722  1
  O  O31  1  0.854597  0.785513  0.085309  1
