# generated using pymatgen
data_Li2CuNiO4
_symmetry_space_group_name_H-M   'P 1'
_cell_length_a   5.69617653
_cell_length_b   5.69617653
_cell_length_c   6.02103771
_cell_angle_alpha   61.65651626
_cell_angle_beta   118.34348374
_cell_angle_gamma   92.19470265
_symmetry_Int_Tables_number   1
_chemical_formula_structural   Li2CuNiO4
_chemical_formula_sum   'Li4 Cu2 Ni2 O8'
_cell_volume   146.84734100
_cell_formula_units_Z   2
loop_
 _symmetry_equiv_pos_site_id
 _symmetry_equiv_pos_as_xyz
  1  'x, y, z'
loop_
 _atom_site_type_symbol
 _atom_site_label
 _atom_site_symmetry_multiplicity
 _atom_site_fract_x
 _atom_site_fract_y
 _atom_site_fract_z
 _atom_site_occupancy
  Li  Li0  1  0.500000  0.500000  0.500000  1
  Li  Li1  1  0.000000  0.500000  0.000000  1
  Li  Li2  1  0.500000  0.500000  0.000000  1
  Li  Li3  1  0.500000  1.000000  0.500000  1
  Cu  Cu4  1  0.500000  0.000000  0.000000  1
  Cu  Cu5  1  0.000000  0.500000  0.500000  1
  Ni  Ni6  1  0.000000  0.000000  0.000000  1
  Ni  Ni7  1  0.000000  1.000000  0.500000  1
  O  O8  1  0.207963  0.759969  0.434763  1
  O  O9  1  0.812171  0.711689  0.553083  1
  O  O10  1  0.759969  0.207963  0.065237  1
  O  O11  1  0.711689  0.812171  0.946917  1
  O  O12  1  0.288311  0.187829  0.053083  1
  O  O13  1  0.240031  0.792037  0.934763  1
  O  O14  1  0.187829  0.288311  0.446917  1
  O  O15  1  0.792037  0.240031  0.565237  1
