# generated using pymatgen
data_TbGdO3
_symmetry_space_group_name_H-M   'P 1'
_cell_length_a   5.78441390
_cell_length_b   6.03343615
_cell_length_c   8.49043783
_cell_angle_alpha   90.00000000
_cell_angle_beta   90.00000000
_cell_angle_gamma   90.00000000
_symmetry_Int_Tables_number   1
_chemical_formula_structural   TbGdO3
_chemical_formula_sum   'Tb4 Gd4 O12'
_cell_volume   296.31536271
_cell_formula_units_Z   4
loop_
 _symmetry_equiv_pos_site_id
 _symmetry_equiv_pos_as_xyz
  1  'x, y, z'
loop_
 _atom_site_type_symbol
 _atom_site_label
 _atom_site_symmetry_multiplicity
 _atom_site_fract_x
 _atom_site_fract_y
 _atom_site_fract_z
 _atom_site_occupancy
  Tb  Tb0  1  0.500000  0.000000  0.000000  1
  Tb  Tb1  1  0.500000  0.000000  0.500000  1
  Tb  Tb2  1  0.000000  0.500000  0.000000  1
  Tb  Tb3  1  0.000000  0.500000  0.500000  1
  Gd  Gd4  1  0.988923  0.048223  0.250000  1
  Gd  Gd5  1  0.488923  0.451777  0.750000  1
  Gd  Gd6  1  0.511077  0.548223  0.250000  1
  Gd  Gd7  1  0.011077  0.951777  0.750000  1
  O  O8  1  0.645776  0.079898  0.750000  1
  O  O9  1  0.176608  0.180175  0.575036  1
  O  O10  1  0.176608  0.180175  0.924964  1
  O  O11  1  0.676608  0.319825  0.424964  1
  O  O12  1  0.676608  0.319825  0.075036  1
  O  O13  1  0.145776  0.420102  0.250000  1
  O  O14  1  0.854224  0.579898  0.750000  1
  O  O15  1  0.323392  0.680175  0.575036  1
  O  O16  1  0.323392  0.680175  0.924964  1
  O  O17  1  0.823392  0.819825  0.075036  1
  O  O18  1  0.823392  0.819825  0.424964  1
  O  O19  1  0.354224  0.920102  0.250000  1
