# generated using pymatgen
data_NaSr3NdTi5O15
_symmetry_space_group_name_H-M   'P 1'
_cell_length_a   20.16092019
_cell_length_b   20.16092019
_cell_length_c   20.16092019
_cell_angle_alpha   164.27680365
_cell_angle_beta   164.27680365
_cell_angle_gamma   22.30686773
_symmetry_Int_Tables_number   1
_chemical_formula_structural   NaSr3NdTi5O15
_chemical_formula_sum   'Na2 Sr6 Nd2 Ti10 O30'
_cell_volume   601.67114737
_cell_formula_units_Z   2
loop_
 _symmetry_equiv_pos_site_id
 _symmetry_equiv_pos_as_xyz
  1  'x, y, z'
loop_
 _atom_site_type_symbol
 _atom_site_label
 _atom_site_symmetry_multiplicity
 _atom_site_fract_x
 _atom_site_fract_y
 _atom_site_fract_z
 _atom_site_occupancy
  Na  Na0  1  0.799350  0.799350  0.000000  1
  Na  Na1  1  0.200650  0.200650  0.000000  1
  Sr  Sr2  1  0.100773  0.100773  0.000000  1
  Sr  Sr3  1  0.500000  0.500000  0.000000  1
  Sr  Sr4  1  0.600622  0.600622  0.000000  1
  Sr  Sr5  1  0.899227  0.899227  0.000000  1
  Sr  Sr6  1  0.000000  0.000000  0.000000  1
  Sr  Sr7  1  0.399378  0.399378  0.000000  1
  Nd  Nd8  1  0.299408  0.299408  0.000000  1
  Nd  Nd9  1  0.700592  0.700592  0.000000  1
  Ti  Ti10  1  0.250000  0.750000  0.500000  1
  Ti  Ti11  1  0.750000  0.250000  0.500000  1
  Ti  Ti12  1  0.050412  0.550412  0.500000  1
  Ti  Ti13  1  0.151382  0.651382  0.500000  1
  Ti  Ti14  1  0.449588  0.949588  0.500000  1
  Ti  Ti15  1  0.550412  0.050412  0.500000  1
  Ti  Ti16  1  0.651382  0.151382  0.500000  1
  Ti  Ti17  1  0.848618  0.348618  0.500000  1
  Ti  Ti18  1  0.949588  0.449588  0.500000  1
  Ti  Ti19  1  0.348618  0.848618  0.500000  1
  O  O20  1  0.299340  0.799340  0.500000  1
  O  O21  1  0.050242  0.050242  0.596855  1
  O  O22  1  0.949758  0.546613  0.000000  1
  O  O23  1  0.700660  0.200660  0.500000  1
  O  O24  1  0.799340  0.299340  0.500000  1
  O  O25  1  0.442463  0.442463  0.580124  1
  O  O26  1  0.546613  0.949758  0.000000  1
  O  O27  1  0.372199  0.929273  0.000000  1
  O  O28  1  0.453387  0.453387  0.403145  1
  O  O29  1  0.100811  0.600811  0.500000  1
  O  O30  1  0.200660  0.700660  0.500000  1
  O  O31  1  0.823781  0.823781  0.546283  1
  O  O32  1  0.929273  0.372199  0.000000  1
  O  O33  1  0.776885  0.323653  0.000000  1
  O  O34  1  0.862340  0.862340  0.419876  1
  O  O35  1  0.500000  0.000000  0.500000  1
  O  O36  1  0.600811  0.100811  0.500000  1
  O  O37  1  0.223115  0.223115  0.546768  1
  O  O38  1  0.323653  0.776885  0.000000  1
  O  O39  1  0.176219  0.722502  0.000000  1
  O  O40  1  0.277498  0.277498  0.453717  1
  O  O41  1  0.899189  0.399189  0.500000  1
  O  O42  1  0.000000  0.500000  0.500000  1
  O  O43  1  0.627801  0.627801  0.557074  1
  O  O44  1  0.722502  0.176219  0.000000  1
  O  O45  1  0.557537  0.137660  0.000000  1
  O  O46  1  0.676347  0.676347  0.453232  1
  O  O47  1  0.399189  0.899189  0.500000  1
  O  O48  1  0.137660  0.557537  0.000000  1
  O  O49  1  0.070727  0.070727  0.442926  1
