# generated using pymatgen
data_Li2P5WO15
_symmetry_space_group_name_H-M   'P 1'
_cell_length_a   5.36256499
_cell_length_b   13.56228914
_cell_length_c   8.98238400
_cell_angle_alpha   90.00000000
_cell_angle_beta   102.28130085
_cell_angle_gamma   90.00000000
_symmetry_Int_Tables_number   1
_chemical_formula_structural   Li2P5WO15
_chemical_formula_sum   'Li4 P10 W2 O30'
_cell_volume   638.32651685
_cell_formula_units_Z   2
loop_
 _symmetry_equiv_pos_site_id
 _symmetry_equiv_pos_as_xyz
  1  'x, y, z'
loop_
 _atom_site_type_symbol
 _atom_site_label
 _atom_site_symmetry_multiplicity
 _atom_site_fract_x
 _atom_site_fract_y
 _atom_site_fract_z
 _atom_site_occupancy
  Li  Li0  1  0.053922  0.875952  0.079836  1
  Li  Li1  1  0.053922  0.624048  0.079836  1
  Li  Li2  1  0.946078  0.375952  0.920164  1
  Li  Li3  1  0.946078  0.124048  0.920164  1
  P  P4  1  0.993052  0.357788  0.483277  1
  P  P5  1  0.993052  0.142212  0.483277  1
  P  P6  1  0.335630  0.923023  0.818953  1
  P  P7  1  0.335630  0.576977  0.818953  1
  P  P8  1  0.457917  0.250000  0.986535  1
  P  P9  1  0.542083  0.750000  0.013465  1
  P  P10  1  0.664370  0.423023  0.181047  1
  P  P11  1  0.664370  0.076977  0.181047  1
  P  P12  1  0.006948  0.642212  0.516723  1
  P  P13  1  0.006948  0.857788  0.516723  1
  W  W14  1  0.500000  0.000000  0.500000  1
  W  W15  1  0.500000  0.500000  0.500000  1
  O  O16  1  0.066439  0.750000  0.462318  1
  O  O17  1  0.188211  0.963139  0.928327  1
  O  O18  1  0.188211  0.536861  0.928327  1
  O  O19  1  0.196073  0.250000  0.885930  1
  O  O20  1  0.145316  0.855963  0.692728  1
  O  O21  1  0.145316  0.644037  0.692728  1
  O  O22  1  0.136861  0.926558  0.424786  1
  O  O23  1  0.136861  0.573442  0.424786  1
  O  O24  1  0.275516  0.367923  0.496966  1
  O  O25  1  0.275516  0.132077  0.496966  1
  O  O26  1  0.543374  0.842441  0.896499  1
  O  O27  1  0.543374  0.657559  0.896499  1
  O  O28  1  0.476886  0.993440  0.736155  1
  O  O29  1  0.476886  0.506560  0.736155  1
  O  O30  1  0.299931  0.750000  0.072154  1
  O  O31  1  0.700069  0.250000  0.927846  1
  O  O32  1  0.523114  0.493440  0.263845  1
  O  O33  1  0.523114  0.006560  0.263845  1
  O  O34  1  0.456626  0.342441  0.103501  1
  O  O35  1  0.456626  0.157559  0.103501  1
  O  O36  1  0.724484  0.867923  0.503034  1
  O  O37  1  0.724484  0.632077  0.503034  1
  O  O38  1  0.863139  0.426558  0.575214  1
  O  O39  1  0.863139  0.073442  0.575214  1
  O  O40  1  0.854684  0.355963  0.307272  1
  O  O41  1  0.854684  0.144037  0.307272  1
  O  O42  1  0.803927  0.750000  0.114070  1
  O  O43  1  0.811789  0.463139  0.071673  1
  O  O44  1  0.811789  0.036861  0.071673  1
  O  O45  1  0.933561  0.250000  0.537682  1
