# generated using pymatgen
data_Li4Nb3V3(SnO8)2
_symmetry_space_group_name_H-M   'P 1'
_cell_length_a   6.09505478
_cell_length_b   6.09505478
_cell_length_c   10.14552999
_cell_angle_alpha   89.74086655
_cell_angle_beta   90.25913345
_cell_angle_gamma   120.45358396
_symmetry_Int_Tables_number   1
_chemical_formula_structural   Li4Nb3V3(SnO8)2
_chemical_formula_sum   'Li4 Nb3 V3 Sn2 O16'
_cell_volume   324.90134454
_cell_formula_units_Z   1
loop_
 _symmetry_equiv_pos_site_id
 _symmetry_equiv_pos_as_xyz
  1  'x, y, z'
loop_
 _atom_site_type_symbol
 _atom_site_label
 _atom_site_symmetry_multiplicity
 _atom_site_fract_x
 _atom_site_fract_y
 _atom_site_fract_z
 _atom_site_occupancy
  Li  Li0  1  0.667284  0.332716  0.096523  1
  Li  Li1  1  0.003748  0.996252  0.009242  1
  Li  Li2  1  0.005498  0.994502  0.509030  1
  Li  Li3  1  0.336147  0.663853  0.609116  1
  Nb  Nb4  1  0.831355  0.168645  0.782805  1
  Nb  Nb5  1  0.640452  0.819171  0.286529  1
  Nb  Nb6  1  0.180829  0.359548  0.286529  1
  V  V7  1  0.820489  0.648910  0.787241  1
  V  V8  1  0.351090  0.179511  0.787241  1
  V  V9  1  0.174378  0.825622  0.286768  1
  Sn  Sn10  1  0.661909  0.338091  0.509900  1
  Sn  Sn11  1  0.324429  0.675571  0.003621  1
  O  O12  1  0.831818  0.677482  0.401068  1
  O  O13  1  0.519930  0.480070  0.655598  1
  O  O14  1  0.677521  0.322479  0.899941  1
  O  O15  1  0.999012  0.000988  0.692531  1
  O  O16  1  0.998015  0.001985  0.193258  1
  O  O17  1  0.322518  0.168182  0.401068  1
  O  O18  1  0.966423  0.473554  0.659004  1
  O  O19  1  0.526446  0.033577  0.659004  1
  O  O20  1  0.156393  0.843607  0.901854  1
  O  O21  1  0.834595  0.165405  0.403089  1
  O  O22  1  0.495841  0.969870  0.156011  1
  O  O23  1  0.030130  0.504159  0.156011  1
  O  O24  1  0.332352  0.667648  0.414568  1
  O  O25  1  0.670639  0.843620  0.897881  1
  O  O26  1  0.484049  0.515951  0.148884  1
  O  O27  1  0.156380  0.329361  0.897881  1
