# generated using pymatgen
data_SrSc2O4
_symmetry_space_group_name_H-M   'P 1'
_cell_length_a   3.20939056
_cell_length_b   9.76036468
_cell_length_c   11.34946784
_cell_angle_alpha   90.00000000
_cell_angle_beta   90.00000000
_cell_angle_gamma   90.00000000
_symmetry_Int_Tables_number   1
_chemical_formula_structural   SrSc2O4
_chemical_formula_sum   'Sr4 Sc8 O16'
_cell_volume   355.52006290
_cell_formula_units_Z   4
loop_
 _symmetry_equiv_pos_site_id
 _symmetry_equiv_pos_as_xyz
  1  'x, y, z'
loop_
 _atom_site_type_symbol
 _atom_site_label
 _atom_site_symmetry_multiplicity
 _atom_site_fract_x
 _atom_site_fract_y
 _atom_site_fract_z
 _atom_site_occupancy
  Sr  Sr0  1  0.750000  0.245256  0.652126  1
  Sr  Sr1  1  0.250000  0.254744  0.152126  1
  Sr  Sr2  1  0.750000  0.745256  0.847874  1
  Sr  Sr3  1  0.250000  0.754744  0.347874  1
  Sc  Sc4  1  0.750000  0.070904  0.890028  1
  Sc  Sc5  1  0.750000  0.077890  0.393194  1
  Sc  Sc6  1  0.250000  0.422110  0.893194  1
  Sc  Sc7  1  0.250000  0.429096  0.390028  1
  Sc  Sc8  1  0.750000  0.570904  0.609972  1
  Sc  Sc9  1  0.750000  0.577890  0.106806  1
  Sc  Sc10  1  0.250000  0.922110  0.606806  1
  Sc  Sc11  1  0.250000  0.929096  0.109972  1
  O  O12  1  0.250000  0.020884  0.283281  1
  O  O13  1  0.750000  0.073910  0.074016  1
  O  O14  1  0.250000  0.116851  0.520279  1
  O  O15  1  0.250000  0.208231  0.840193  1
  O  O16  1  0.750000  0.291769  0.340193  1
  O  O17  1  0.750000  0.383149  0.020279  1
  O  O18  1  0.250000  0.426090  0.574016  1
  O  O19  1  0.750000  0.479116  0.783281  1
  O  O20  1  0.250000  0.520884  0.216719  1
  O  O21  1  0.750000  0.573910  0.425984  1
  O  O22  1  0.250000  0.616851  0.979721  1
  O  O23  1  0.250000  0.708231  0.659807  1
  O  O24  1  0.750000  0.791769  0.159807  1
  O  O25  1  0.750000  0.883149  0.479721  1
  O  O26  1  0.250000  0.926090  0.925984  1
  O  O27  1  0.750000  0.979116  0.716719  1
