# generated using pymatgen
data_Al10ZnO16
_symmetry_space_group_name_H-M   'P 1'
_cell_length_a   9.70320883
_cell_length_b   9.70320883
_cell_length_c   9.70320883
_cell_angle_alpha   34.25733138
_cell_angle_beta   34.25733138
_cell_angle_gamma   34.25733138
_symmetry_Int_Tables_number   1
_chemical_formula_structural   Al10ZnO16
_chemical_formula_sum   'Al10 Zn1 O16'
_cell_volume   258.15037687
_cell_formula_units_Z   1
loop_
 _symmetry_equiv_pos_site_id
 _symmetry_equiv_pos_as_xyz
  1  'x, y, z'
loop_
 _atom_site_type_symbol
 _atom_site_label
 _atom_site_symmetry_multiplicity
 _atom_site_fract_x
 _atom_site_fract_y
 _atom_site_fract_z
 _atom_site_occupancy
  Al  Al0  1  0.501646  0.501646  0.501646  1
  Al  Al1  1  0.307746  0.307746  0.307746  1
  Al  Al2  1  0.249738  0.755342  0.755342  1
  Al  Al3  1  0.755342  0.249738  0.755342  1
  Al  Al4  1  0.240569  0.755884  0.240569  1
  Al  Al5  1  0.811108  0.811108  0.811108  1
  Al  Al6  1  0.240569  0.240569  0.755884  1
  Al  Al7  1  0.755342  0.755342  0.249738  1
  Al  Al8  1  0.755884  0.240569  0.240569  1
  Al  Al9  1  0.690289  0.690289  0.690289  1
  Zn  Zn10  1  0.189804  0.189804  0.189804  1
  O  O11  1  0.399644  0.399644  0.836027  1
  O  O12  1  0.399644  0.836027  0.399644  1
  O  O13  1  0.376757  0.376757  0.376757  1
  O  O14  1  0.117595  0.622998  0.117595  1
  O  O15  1  0.877714  0.877714  0.877714  1
  O  O16  1  0.117595  0.117595  0.622998  1
  O  O17  1  0.149237  0.611506  0.611506  1
  O  O18  1  0.622998  0.117595  0.117595  1
  O  O19  1  0.836027  0.399644  0.399644  1
  O  O20  1  0.879485  0.879485  0.381427  1
  O  O21  1  0.381427  0.879485  0.879485  1
  O  O22  1  0.879485  0.381427  0.879485  1
  O  O23  1  0.624594  0.624594  0.624594  1
  O  O24  1  0.116741  0.116741  0.116741  1
  O  O25  1  0.611506  0.149237  0.611506  1
  O  O26  1  0.611506  0.611506  0.149237  1
