# generated using pymatgen
data_Na3PH22(SO4)3
_symmetry_space_group_name_H-M   'P 1'
_cell_length_a   9.53422196
_cell_length_b   12.99038294
_cell_length_c   14.28264480
_cell_angle_alpha   90.00000000
_cell_angle_beta   90.00000000
_cell_angle_gamma   90.00000000
_symmetry_Int_Tables_number   1
_chemical_formula_structural   Na3PH22(SO4)3
_chemical_formula_sum   'Na12 P4 H88 S12 O48'
_cell_volume   1768.95118147
_cell_formula_units_Z   4
loop_
 _symmetry_equiv_pos_site_id
 _symmetry_equiv_pos_as_xyz
  1  'x, y, z'
loop_
 _atom_site_type_symbol
 _atom_site_label
 _atom_site_symmetry_multiplicity
 _atom_site_fract_x
 _atom_site_fract_y
 _atom_site_fract_z
 _atom_site_occupancy
  Na  Na0  1  0.485304  0.009210  0.399352  1
  Na  Na1  1  0.506326  0.792163  0.766962  1
  Na  Na2  1  0.493255  0.763318  0.461137  1
  Na  Na3  1  0.993255  0.736682  0.961137  1
  Na  Na4  1  0.006326  0.707837  0.266962  1
  Na  Na5  1  0.985304  0.490790  0.899352  1
  Na  Na6  1  0.014696  0.509210  0.399352  1
  Na  Na7  1  0.993674  0.292163  0.766962  1
  Na  Na8  1  0.006745  0.263318  0.461137  1
  Na  Na9  1  0.506745  0.236682  0.961137  1
  Na  Na10  1  0.493674  0.207837  0.266962  1
  Na  Na11  1  0.514696  0.990790  0.899352  1
  P  P12  1  0.024764  0.911665  0.597591  1
  P  P13  1  0.524764  0.588335  0.097591  1
  P  P14  1  0.475236  0.411665  0.597591  1
  P  P15  1  0.975236  0.088335  0.097591  1
  H  H16  1  0.644632  0.003429  0.209145  1
  H  H17  1  0.490748  0.966009  0.183875  1
  H  H18  1  0.128232  0.938340  0.962692  1
  H  H19  1  0.758665  0.923368  0.760455  1
  H  H20  1  0.405835  0.920123  0.584037  1
  H  H21  1  0.047936  0.917879  0.292392  1
  H  H22  1  0.275040  0.921183  0.516262  1
  H  H23  1  0.732096  0.899843  0.449305  1
  H  H24  1  0.113208  0.908077  0.854180  1
  H  H25  1  0.835117  0.919515  0.011455  1
  H  H26  1  0.377942  0.878365  0.300871  1
  H  H27  1  0.761924  0.881546  0.867220  1
  H  H28  1  0.303157  0.846520  0.918106  1
  H  H29  1  0.715253  0.849788  0.347541  1
  H  H30  1  0.098790  0.885428  0.392276  1
  H  H31  1  0.823964  0.860426  0.211667  1
  H  H32  1  0.151921  0.823271  0.109894  1
  H  H33  1  0.730268  0.822290  0.026597  1
  H  H34  1  0.328202  0.771301  0.279157  1
  H  H35  1  0.434763  0.796276  0.971546  1
  H  H36  1  0.704706  0.791903  0.605935  1
  H  H37  1  0.711159  0.771843  0.200720  1
  H  H38  1  0.211159  0.728157  0.700720  1
  H  H39  1  0.204706  0.708097  0.105935  1
  H  H40  1  0.934763  0.703724  0.471546  1
  H  H41  1  0.828202  0.728699  0.779157  1
  H  H42  1  0.230268  0.677710  0.526597  1
  H  H43  1  0.651921  0.676729  0.609894  1
  H  H44  1  0.323964  0.639574  0.711667  1
  H  H45  1  0.598790  0.614572  0.892276  1
  H  H46  1  0.215253  0.650212  0.847541  1
  H  H47  1  0.803157  0.653480  0.418106  1
  H  H48  1  0.261924  0.618454  0.367220  1
  H  H49  1  0.877942  0.621635  0.800871  1
  H  H50  1  0.335117  0.580485  0.511455  1
  H  H51  1  0.613208  0.591923  0.354180  1
  H  H52  1  0.232096  0.600157  0.949305  1
  H  H53  1  0.775040  0.578817  0.016262  1
  H  H54  1  0.547936  0.582121  0.792392  1
  H  H55  1  0.905835  0.579877  0.084037  1
  H  H56  1  0.258665  0.576632  0.260455  1
  H  H57  1  0.628232  0.561660  0.462692  1
  H  H58  1  0.990748  0.533991  0.683875  1
  H  H59  1  0.144632  0.496571  0.709145  1
  H  H60  1  0.855368  0.503429  0.209145  1
  H  H61  1  0.009252  0.466009  0.183875  1
  H  H62  1  0.371768  0.438340  0.962692  1
  H  H63  1  0.741335  0.423368  0.760455  1
  H  H64  1  0.094165  0.420123  0.584037  1
  H  H65  1  0.452064  0.417879  0.292392  1
  H  H66  1  0.224960  0.421183  0.516262  1
  H  H67  1  0.767904  0.399843  0.449305  1
  H  H68  1  0.386792  0.408077  0.854180  1
  H  H69  1  0.664883  0.419515  0.011455  1
  H  H70  1  0.122058  0.378365  0.300871  1
  H  H71  1  0.738076  0.381546  0.867220  1
  H  H72  1  0.196843  0.346520  0.918106  1
  H  H73  1  0.784747  0.349788  0.347541  1
  H  H74  1  0.401210  0.385428  0.392276  1
  H  H75  1  0.676036  0.360426  0.211667  1
  H  H76  1  0.348079  0.323271  0.109894  1
  H  H77  1  0.769732  0.322290  0.026597  1
  H  H78  1  0.171798  0.271301  0.279157  1
  H  H79  1  0.065237  0.296276  0.971546  1
  H  H80  1  0.795294  0.291903  0.605935  1
  H  H81  1  0.788841  0.271843  0.200720  1
  H  H82  1  0.288841  0.228157  0.700720  1
  H  H83  1  0.295294  0.208097  0.105935  1
  H  H84  1  0.565237  0.203724  0.471546  1
  H  H85  1  0.671798  0.228699  0.779157  1
  H  H86  1  0.269732  0.177710  0.526597  1
  H  H87  1  0.848079  0.176729  0.609894  1
  H  H88  1  0.176036  0.139574  0.711667  1
  H  H89  1  0.901210  0.114572  0.892276  1
  H  H90  1  0.284747  0.150212  0.847541  1
  H  H91  1  0.696843  0.153480  0.418106  1
  H  H92  1  0.238076  0.118454  0.367220  1
  H  H93  1  0.622058  0.121635  0.800871  1
  H  H94  1  0.164883  0.080485  0.511455  1
  H  H95  1  0.886792  0.091923  0.354180  1
  H  H96  1  0.267904  0.100157  0.949305  1
  H  H97  1  0.724960  0.078817  0.016262  1
  H  H98  1  0.952064  0.082121  0.792392  1
  H  H99  1  0.594165  0.079877  0.084037  1
  H  H100  1  0.241335  0.076632  0.260455  1
  H  H101  1  0.871768  0.061660  0.462692  1
  H  H102  1  0.509252  0.033991  0.683875  1
  H  H103  1  0.355368  0.996571  0.709145  1
  S  S104  1  0.116178  0.976496  0.715874  1
  S  S105  1  0.817954  0.960032  0.591931  1
  S  S106  1  0.532080  0.745724  0.103320  1
  S  S107  1  0.032080  0.754276  0.603320  1
  S  S108  1  0.317954  0.539968  0.091931  1
  S  S109  1  0.616178  0.523504  0.215874  1
  S  S110  1  0.383822  0.476496  0.715874  1
  S  S111  1  0.682046  0.460032  0.591931  1
  S  S112  1  0.967920  0.245724  0.103320  1
  S  S113  1  0.467920  0.254276  0.603320  1
  S  S114  1  0.182046  0.039968  0.091931  1
  S  S115  1  0.883822  0.023504  0.215874  1
  O  O116  1  0.456072  0.976515  0.710307  1
  O  O117  1  0.105835  0.951632  0.510480  1
  O  O118  1  0.380151  0.913229  0.517783  1
  O  O119  1  0.700681  0.900683  0.813804  1
  O  O120  1  0.130095  0.879966  0.918257  1
  O  O121  1  0.663341  0.882798  0.399902  1
  O  O122  1  0.099173  0.863381  0.325745  1
  O  O123  1  0.407380  0.838164  0.916349  1
  O  O124  1  0.807552  0.849944  0.988060  1
  O  O125  1  0.404114  0.807045  0.311414  1
  O  O126  1  0.791923  0.794579  0.239853  1
  O  O127  1  0.120330  0.751829  0.114028  1
  O  O128  1  0.620330  0.748171  0.614028  1
  O  O129  1  0.291923  0.705421  0.739853  1
  O  O130  1  0.904114  0.692955  0.811414  1
  O  O131  1  0.307552  0.650056  0.488060  1
  O  O132  1  0.907380  0.661836  0.416349  1
  O  O133  1  0.599173  0.636619  0.825745  1
  O  O134  1  0.163341  0.617202  0.899902  1
  O  O135  1  0.630095  0.620034  0.418257  1
  O  O136  1  0.200681  0.599317  0.313804  1
  O  O137  1  0.880151  0.586771  0.017783  1
  O  O138  1  0.605835  0.548368  0.010480  1
  O  O139  1  0.956072  0.523485  0.210307  1
  O  O140  1  0.043928  0.476515  0.710307  1
  O  O141  1  0.394165  0.451632  0.510480  1
  O  O142  1  0.119849  0.413229  0.517783  1
  O  O143  1  0.799319  0.400683  0.813804  1
  O  O144  1  0.369905  0.379966  0.918257  1
  O  O145  1  0.836659  0.382798  0.399902  1
  O  O146  1  0.400827  0.363381  0.325745  1
  O  O147  1  0.092620  0.338164  0.916349  1
  O  O148  1  0.692448  0.349944  0.988060  1
  O  O149  1  0.095886  0.307045  0.311414  1
  O  O150  1  0.708077  0.294579  0.239853  1
  O  O151  1  0.379670  0.251829  0.114028  1
  O  O152  1  0.879670  0.248171  0.614028  1
  O  O153  1  0.208077  0.205421  0.739853  1
  O  O154  1  0.595886  0.192955  0.811414  1
  O  O155  1  0.192448  0.150056  0.488060  1
  O  O156  1  0.592620  0.161836  0.416349  1
  O  O157  1  0.900827  0.136619  0.825745  1
  O  O158  1  0.336659  0.117202  0.899902  1
  O  O159  1  0.869905  0.120034  0.418257  1
  O  O160  1  0.299319  0.099317  0.313804  1
  O  O161  1  0.619849  0.086771  0.017783  1
  O  O162  1  0.894165  0.048368  0.010480  1
  O  O163  1  0.543928  0.023485  0.210307  1
