# generated using pymatgen
data_Fe6O5F7
_symmetry_space_group_name_H-M   'P 1'
_cell_length_a   4.69195394
_cell_length_b   5.65748962
_cell_length_c   7.96414227
_cell_angle_alpha   86.32796351
_cell_angle_beta   89.89300100
_cell_angle_gamma   89.06850316
_symmetry_Int_Tables_number   1
_chemical_formula_structural   Fe6O5F7
_chemical_formula_sum   'Fe6 O5 F7'
_cell_volume   210.94364374
_cell_formula_units_Z   1
loop_
 _symmetry_equiv_pos_site_id
 _symmetry_equiv_pos_as_xyz
  1  'x, y, z'
loop_
 _atom_site_type_symbol
 _atom_site_label
 _atom_site_symmetry_multiplicity
 _atom_site_fract_x
 _atom_site_fract_y
 _atom_site_fract_z
 _atom_site_occupancy
  Fe  Fe0  1  0.549355  0.161696  0.353550  1
  Fe  Fe1  1  0.463649  0.494715  0.974486  1
  Fe  Fe2  1  0.499697  0.833732  0.664975  1
  Fe  Fe3  1  0.016788  0.674221  0.307087  1
  Fe  Fe4  1  0.971160  0.336841  0.690813  1
  Fe  Fe5  1  0.981359  0.003523  0.016422  1
  O  O6  1  0.803333  0.960684  0.234043  1
  O  O7  1  0.794535  0.293184  0.911517  1
  O  O8  1  0.707773  0.141236  0.568742  1
  O  O9  1  0.292333  0.525627  0.759093  1
  O  O10  1  0.200560  0.705890  0.095605  1
  F  F11  1  0.818592  0.629016  0.547264  1
  F  F12  1  0.705156  0.787624  0.903835  1
  F  F13  1  0.695172  0.462978  0.236653  1
  F  F14  1  0.298529  0.875539  0.424424  1
  F  F15  1  0.305404  0.205052  0.110450  1
  F  F16  1  0.190943  0.036341  0.782509  1
  F  F17  1  0.205661  0.372101  0.418531  1
