# generated using pymatgen
data_Tm(ClO4)3
_symmetry_space_group_name_H-M   'P 1'
_cell_length_a   9.22392379
_cell_length_b   9.22392379
_cell_length_c   5.67582948
_cell_angle_alpha   90.00000000
_cell_angle_beta   90.00000000
_cell_angle_gamma   120.00000000
_symmetry_Int_Tables_number   1
_chemical_formula_structural   Tm(ClO4)3
_chemical_formula_sum   'Tm2 Cl6 O24'
_cell_volume   418.20708263
_cell_formula_units_Z   2
loop_
 _symmetry_equiv_pos_site_id
 _symmetry_equiv_pos_as_xyz
  1  'x, y, z'
loop_
 _atom_site_type_symbol
 _atom_site_label
 _atom_site_symmetry_multiplicity
 _atom_site_fract_x
 _atom_site_fract_y
 _atom_site_fract_z
 _atom_site_occupancy
  Tm  Tm0  1  0.333333  0.666667  0.750000  1
  Tm  Tm1  1  0.666667  0.333333  0.250000  1
  Cl  Cl2  1  0.090667  0.707514  0.250000  1
  Cl  Cl3  1  0.292486  0.383154  0.250000  1
  Cl  Cl4  1  0.616846  0.909333  0.250000  1
  Cl  Cl5  1  0.383154  0.090667  0.750000  1
  Cl  Cl6  1  0.707514  0.616846  0.750000  1
  Cl  Cl7  1  0.909333  0.292486  0.750000  1
  O  O8  1  0.019954  0.812890  0.250000  1
  O  O9  1  0.035888  0.471217  0.750000  1
  O  O10  1  0.198176  0.741497  0.041914  1
  O  O11  1  0.198176  0.741497  0.458086  1
  O  O12  1  0.435329  0.964112  0.750000  1
  O  O13  1  0.258503  0.456680  0.458086  1
  O  O14  1  0.258503  0.456680  0.041914  1
  O  O15  1  0.187110  0.207064  0.250000  1
  O  O16  1  0.543320  0.801824  0.041914  1
  O  O17  1  0.543320  0.801824  0.458086  1
  O  O18  1  0.207064  0.019954  0.750000  1
  O  O19  1  0.471217  0.435329  0.250000  1
  O  O20  1  0.528783  0.564671  0.750000  1
  O  O21  1  0.792936  0.980046  0.250000  1
  O  O22  1  0.456680  0.198176  0.541914  1
  O  O23  1  0.456680  0.198176  0.958086  1
  O  O24  1  0.812890  0.792936  0.750000  1
  O  O25  1  0.741497  0.543320  0.958086  1
  O  O26  1  0.741497  0.543320  0.541914  1
  O  O27  1  0.564671  0.035888  0.250000  1
  O  O28  1  0.801824  0.258503  0.958086  1
  O  O29  1  0.801824  0.258503  0.541914  1
  O  O30  1  0.964112  0.528783  0.250000  1
  O  O31  1  0.980046  0.187110  0.750000  1
