# generated using pymatgen
data_V3OF11
_symmetry_space_group_name_H-M   'P 1'
_cell_length_a   5.19886405
_cell_length_b   5.35095511
_cell_length_c   15.02917618
_cell_angle_alpha   79.74537785
_cell_angle_beta   89.69311257
_cell_angle_gamma   88.36609686
_symmetry_Int_Tables_number   1
_chemical_formula_structural   V3OF11
_chemical_formula_sum   'V6 O2 F22'
_cell_volume   411.24917272
_cell_formula_units_Z   2
loop_
 _symmetry_equiv_pos_site_id
 _symmetry_equiv_pos_as_xyz
  1  'x, y, z'
loop_
 _atom_site_type_symbol
 _atom_site_label
 _atom_site_symmetry_multiplicity
 _atom_site_fract_x
 _atom_site_fract_y
 _atom_site_fract_z
 _atom_site_occupancy
  V  V0  1  0.000000  0.000000  0.000000  1
  V  V1  1  0.500084  0.166259  0.666759  1
  V  V2  1  0.000144  0.333696  0.333224  1
  V  V3  1  0.500000  0.500000  0.000000  1
  V  V4  1  0.999856  0.666304  0.666776  1
  V  V5  1  0.499916  0.833741  0.333241  1
  O  O6  1  0.231554  0.726418  0.012694  1
  O  O7  1  0.768446  0.273582  0.987306  1
  F  F8  1  0.186664  0.009649  0.362399  1
  F  F9  1  0.273036  0.215046  0.026772  1
  F  F10  1  0.690223  0.152302  0.309928  1
  F  F11  1  0.074816  0.071880  0.882329  1
  F  F12  1  0.407068  0.210883  0.551653  1
  F  F13  1  0.091767  0.362014  0.218871  1
  F  F14  1  0.590919  0.118845  0.781431  1
  F  F15  1  0.907966  0.304741  0.448148  1
  F  F16  1  0.573916  0.467748  0.117444  1
  F  F17  1  0.186503  0.342562  0.694990  1
  F  F18  1  0.310313  0.515380  0.357079  1
  F  F19  1  0.689687  0.484620  0.642921  1
  F  F20  1  0.813497  0.657438  0.305010  1
  F  F21  1  0.426084  0.532252  0.882556  1
  F  F22  1  0.092034  0.695259  0.551852  1
  F  F23  1  0.409081  0.881155  0.218569  1
  F  F24  1  0.908233  0.637986  0.781129  1
  F  F25  1  0.592932  0.789117  0.448347  1
  F  F26  1  0.925184  0.928120  0.117671  1
  F  F27  1  0.309777  0.847698  0.690072  1
  F  F28  1  0.726964  0.784954  0.973228  1
  F  F29  1  0.813336  0.990351  0.637601  1
