# generated using pymatgen
data_Hf2N2O
_symmetry_space_group_name_H-M   'P 1'
_cell_length_a   8.71948008
_cell_length_b   8.72188408
_cell_length_c   8.72730299
_cell_angle_alpha   109.49246454
_cell_angle_beta   109.56109536
_cell_angle_gamma   109.18316465
_symmetry_Int_Tables_number   1
_chemical_formula_structural   Hf2N2O
_chemical_formula_sum   'Hf16 N16 O8'
_cell_volume   512.03514972
_cell_formula_units_Z   8
loop_
 _symmetry_equiv_pos_site_id
 _symmetry_equiv_pos_as_xyz
  1  'x, y, z'
loop_
 _atom_site_type_symbol
 _atom_site_label
 _atom_site_symmetry_multiplicity
 _atom_site_fract_x
 _atom_site_fract_y
 _atom_site_fract_z
 _atom_site_occupancy
  Hf  Hf0  1  0.488686  0.490857  0.501149  1
  Hf  Hf1  1  0.788516  0.536785  0.243250  1
  Hf  Hf2  1  0.529480  0.750470  0.279785  1
  Hf  Hf3  1  0.031382  0.743768  0.789734  1
  Hf  Hf4  1  0.704553  0.963964  0.749319  1
  Hf  Hf5  1  0.747293  0.714624  0.972862  1
  Hf  Hf6  1  0.748375  0.214970  0.466355  1
  Hf  Hf7  1  0.251392  0.292306  0.033894  1
  Hf  Hf8  1  0.008465  0.006088  0.496142  1
  Hf  Hf9  1  0.508749  0.998624  0.000783  1
  Hf  Hf10  1  0.255662  0.786658  0.530671  1
  Hf  Hf11  1  0.000101  0.510686  0.002462  1
  Hf  Hf12  1  0.289014  0.036620  0.255493  1
  Hf  Hf13  1  0.465418  0.251116  0.715442  1
  Hf  Hf14  1  0.974379  0.250211  0.220311  1
  Hf  Hf15  1  0.212754  0.456026  0.749632  1
  N  N16  1  0.228808  0.261718  0.266854  1
  N  N17  1  0.460938  0.729956  0.488929  1
  N  N18  1  0.493453  0.956836  0.227061  1
  N  N19  1  0.042233  0.529638  0.274749  1
  N  N20  1  0.546869  0.275487  0.513651  1
  N  N21  1  0.760500  0.770692  0.233110  1
  N  N22  1  0.955994  0.470170  0.726770  1
  N  N23  1  0.005487  0.233732  0.461455  1
  N  N24  1  0.031855  0.774190  0.041995  1
  N  N25  1  0.741160  0.968860  0.009995  1
  N  N26  1  0.511580  0.044468  0.774902  1
  N  N27  1  0.223304  0.982259  0.450143  1
  N  N28  1  0.233947  0.222821  0.771548  1
  N  N29  1  0.272504  0.541990  0.037739  1
  N  N30  1  0.726635  0.452625  0.967818  1
  N  N31  1  0.463441  0.518658  0.738112  1
  O  O32  1  0.717602  0.272033  0.235617  1
  O  O33  1  0.774576  0.736268  0.720082  1
  O  O34  1  0.536085  0.479460  0.258338  1
  O  O35  1  0.965088  0.222780  0.945480  1
  O  O36  1  0.263639  0.033096  0.986023  1
  O  O37  1  0.777517  0.020461  0.554887  1
  O  O38  1  0.271938  0.733967  0.766498  1
  O  O39  1  0.990627  0.764057  0.540956  1
