# generated using pymatgen
data_NaCrCSO7
_symmetry_space_group_name_H-M   'P 1'
_cell_length_a   5.29649762
_cell_length_b   6.43428235
_cell_length_c   9.06159946
_cell_angle_alpha   90.00000000
_cell_angle_beta   92.34630920
_cell_angle_gamma   90.00000000
_symmetry_Int_Tables_number   1
_chemical_formula_structural   NaCrCSO7
_chemical_formula_sum   'Na2 Cr2 C2 S2 O14'
_cell_volume   308.55281080
_cell_formula_units_Z   2
loop_
 _symmetry_equiv_pos_site_id
 _symmetry_equiv_pos_as_xyz
  1  'x, y, z'
loop_
 _atom_site_type_symbol
 _atom_site_label
 _atom_site_symmetry_multiplicity
 _atom_site_fract_x
 _atom_site_fract_y
 _atom_site_fract_z
 _atom_site_occupancy
  Na  Na0  1  0.761640  0.514888  0.221051  1
  Na  Na1  1  0.238360  0.014888  0.778949  1
  Cr  Cr2  1  0.220547  0.240597  0.340171  1
  Cr  Cr3  1  0.779453  0.740597  0.659829  1
  C  C4  1  0.275801  0.257713  0.078243  1
  C  C5  1  0.724199  0.757713  0.921757  1
  S  S6  1  0.276729  0.745287  0.428170  1
  S  S7  1  0.723271  0.245287  0.571830  1
  O  O8  1  0.693236  0.756839  0.055342  1
  O  O9  1  0.053378  0.255078  0.142143  1
  O  O10  1  0.463032  0.258777  0.182765  1
  O  O11  1  0.217239  0.925764  0.332807  1
  O  O12  1  0.197294  0.560255  0.339374  1
  O  O13  1  0.861191  0.254536  0.432644  1
  O  O14  1  0.554533  0.732416  0.464418  1
  O  O15  1  0.445467  0.232416  0.535582  1
  O  O16  1  0.138809  0.754536  0.567356  1
  O  O17  1  0.802706  0.060255  0.660626  1
  O  O18  1  0.782761  0.425764  0.667193  1
  O  O19  1  0.536968  0.758777  0.817235  1
  O  O20  1  0.946622  0.755078  0.857857  1
  O  O21  1  0.306764  0.256839  0.944658  1
