# generated using pymatgen
data_Rb6Te3P6(H13O20)2
_symmetry_space_group_name_H-M   'P 1'
_cell_length_a   8.16624301
_cell_length_b   11.42432489
_cell_length_c   11.75458885
_cell_angle_alpha   100.43669911
_cell_angle_beta   109.14822532
_cell_angle_gamma   96.58611602
_symmetry_Int_Tables_number   1
_chemical_formula_structural   Rb6Te3P6(H13O20)2
_chemical_formula_sum   'Rb6 Te3 P6 H26 O40'
_cell_volume   1000.76568746
_cell_formula_units_Z   1
loop_
 _symmetry_equiv_pos_site_id
 _symmetry_equiv_pos_as_xyz
  1  'x, y, z'
loop_
 _atom_site_type_symbol
 _atom_site_label
 _atom_site_symmetry_multiplicity
 _atom_site_fract_x
 _atom_site_fract_y
 _atom_site_fract_z
 _atom_site_occupancy
  Rb  Rb0  1  0.301054  0.903594  0.798749  1
  Rb  Rb1  1  0.698946  0.096406  0.201251  1
  Rb  Rb2  1  0.978493  0.718727  0.195252  1
  Rb  Rb3  1  0.021507  0.281273  0.804748  1
  Rb  Rb4  1  0.614456  0.693776  0.602602  1
  Rb  Rb5  1  0.385544  0.306224  0.397398  1
  Te  Te6  1  0.000000  0.000000  0.000000  1
  Te  Te7  1  0.500000  0.000000  0.500000  1
  Te  Te8  1  0.000000  0.500000  0.500000  1
  P  P9  1  0.387981  0.569275  0.227678  1
  P  P10  1  0.612019  0.430725  0.772322  1
  P  P11  1  0.519146  0.775990  0.137831  1
  P  P12  1  0.480854  0.224010  0.862169  1
  P  P13  1  0.498479  0.637354  0.897030  1
  P  P14  1  0.501521  0.362646  0.102970  1
  H  H15  1  0.724060  0.853471  0.951522  1
  H  H16  1  0.275940  0.146529  0.048478  1
  H  H17  1  0.250987  0.898744  0.093342  1
  H  H18  1  0.749013  0.101256  0.906658  1
  H  H19  1  0.004101  0.789789  0.896753  1
  H  H20  1  0.995899  0.210211  0.103247  1
  H  H21  1  0.657830  0.874725  0.384935  1
  H  H22  1  0.342170  0.125275  0.615065  1
  H  H23  1  0.217051  0.873060  0.468413  1
  H  H24  1  0.782949  0.126940  0.531587  1
  H  H25  1  0.342042  0.001459  0.275593  1
  H  H26  1  0.657958  0.998541  0.724407  1
  H  H27  1  0.206512  0.546848  0.393211  1
  H  H28  1  0.793488  0.453152  0.606789  1
  H  H29  1  0.155196  0.605829  0.722732  1
  H  H30  1  0.844804  0.394171  0.277268  1
  H  H31  1  0.765397  0.600565  0.377508  1
  H  H32  1  0.234603  0.399435  0.622492  1
  H  H33  1  0.941426  0.593295  0.871925  1
  H  H34  1  0.058574  0.406705  0.128075  1
  H  H35  1  0.142677  0.643885  0.941229  1
  H  H36  1  0.857323  0.356115  0.058771  1
  H  H37  1  0.946466  0.906732  0.525576  1
  H  H38  1  0.053534  0.093268  0.474424  1
  H  H39  1  0.000830  0.780648  0.509331  1
  H  H40  1  0.999170  0.219352  0.490669  1
  O  O41  1  0.800136  0.915686  0.028319  1
  O  O42  1  0.199864  0.084314  0.971681  1
  O  O43  1  0.159608  0.930797  0.125851  1
  O  O44  1  0.840392  0.069203  0.874149  1
  O  O45  1  0.984578  0.866524  0.865391  1
  O  O46  1  0.015422  0.133476  0.134609  1
  O  O47  1  0.666401  0.896673  0.474660  1
  O  O48  1  0.333599  0.103327  0.525340  1
  O  O49  1  0.306508  0.859578  0.428572  1
  O  O50  1  0.693492  0.140422  0.571428  1
  O  O51  1  0.540479  0.958749  0.660916  1
  O  O52  1  0.459521  0.041251  0.339084  1
  O  O53  1  0.225014  0.555622  0.482799  1
  O  O54  1  0.774986  0.444378  0.517201  1
  O  O55  1  0.069064  0.628343  0.650289  1
  O  O56  1  0.930936  0.371657  0.349711  1
  O  O57  1  0.898845  0.618698  0.408615  1
  O  O58  1  0.101155  0.381302  0.591385  1
  O  O59  1  0.211495  0.534831  0.240557  1
  O  O60  1  0.788505  0.465169  0.759443  1
  O  O61  1  0.550003  0.584570  0.339473  1
  O  O62  1  0.449997  0.415430  0.660527  1
  O  O63  1  0.377247  0.689045  0.171577  1
  O  O64  1  0.622753  0.310955  0.828423  1
  O  O65  1  0.606272  0.527240  0.889398  1
  O  O66  1  0.393728  0.472760  0.110602  1
  O  O67  1  0.583779  0.681506  0.048224  1
  O  O68  1  0.416221  0.318494  0.951776  1
  O  O69  1  0.677882  0.831574  0.251653  1
  O  O70  1  0.322118  0.168426  0.748347  1
  O  O71  1  0.415617  0.855345  0.064379  1
  O  O72  1  0.584383  0.144655  0.935621  1
  O  O73  1  0.562564  0.733107  0.840934  1
  O  O74  1  0.437436  0.266893  0.159066  1
  O  O75  1  0.303995  0.589846  0.856483  1
  O  O76  1  0.696005  0.410154  0.143517  1
  O  O77  1  0.025987  0.661641  0.936997  1
  O  O78  1  0.974013  0.338359  0.063003  1
  O  O79  1  0.050672  0.868101  0.539803  1
  O  O80  1  0.949328  0.131899  0.460197  1
