# generated using pymatgen
data_Li3BiS3
_symmetry_space_group_name_H-M   'P 1'
_cell_length_a   11.04590628
_cell_length_b   11.20556355
_cell_length_c   12.31262806
_cell_angle_alpha   113.70192211
_cell_angle_beta   108.76588963
_cell_angle_gamma   88.01286156
_symmetry_Int_Tables_number   1
_chemical_formula_structural   Li3BiS3
_chemical_formula_sum   'Li24 Bi8 S24'
_cell_volume   1313.37486346
_cell_formula_units_Z   8
loop_
 _symmetry_equiv_pos_site_id
 _symmetry_equiv_pos_as_xyz
  1  'x, y, z'
loop_
 _atom_site_type_symbol
 _atom_site_label
 _atom_site_symmetry_multiplicity
 _atom_site_fract_x
 _atom_site_fract_y
 _atom_site_fract_z
 _atom_site_occupancy
  Li  Li0  1  0.909882  0.503101  0.075344  1
  Li  Li1  1  0.927764  0.662872  0.448288  1
  Li  Li2  1  0.897159  0.081425  0.500475  1
  Li  Li3  1  0.841212  0.373574  0.651186  1
  Li  Li4  1  0.720057  0.548645  0.216470  1
  Li  Li5  1  0.683479  0.852399  0.408744  1
  Li  Li6  1  0.659799  0.107982  0.335440  1
  Li  Li7  1  0.526960  0.737479  0.064031  1
  Li  Li8  1  0.577345  0.426386  0.377910  1
  Li  Li9  1  0.488544  0.133650  0.107964  1
  Li  Li10  1  0.682204  0.456230  0.830358  1
  Li  Li11  1  0.485122  0.748020  0.460727  1
  Li  Li12  1  0.514878  0.251980  0.539273  1
  Li  Li13  1  0.317796  0.543770  0.169642  1
  Li  Li14  1  0.511456  0.866350  0.892036  1
  Li  Li15  1  0.422655  0.573614  0.622090  1
  Li  Li16  1  0.473040  0.262521  0.935969  1
  Li  Li17  1  0.340201  0.892018  0.664560  1
  Li  Li18  1  0.316521  0.147601  0.591256  1
  Li  Li19  1  0.279943  0.451355  0.783530  1
  Li  Li20  1  0.158788  0.626426  0.348814  1
  Li  Li21  1  0.102841  0.918575  0.499525  1
  Li  Li22  1  0.072236  0.337128  0.551712  1
  Li  Li23  1  0.090118  0.496899  0.924656  1
  Bi  Bi24  1  0.843980  0.831166  0.143187  1
  Bi  Bi25  1  0.829725  0.251286  0.202934  1
  Bi  Bi26  1  0.752136  0.696331  0.685776  1
  Bi  Bi27  1  0.720554  0.138279  0.765876  1
  Bi  Bi28  1  0.279446  0.861721  0.234124  1
  Bi  Bi29  1  0.247864  0.303669  0.314224  1
  Bi  Bi30  1  0.170275  0.748714  0.797066  1
  Bi  Bi31  1  0.156020  0.168834  0.856813  1
  S  S32  1  0.952339  0.474595  0.268353  1
  S  S33  1  0.884058  0.850392  0.364144  1
  S  S34  1  0.855030  0.252759  0.416991  1
  S  S35  1  0.710885  0.610656  0.042330  1
  S  S36  1  0.639722  0.957391  0.117307  1
  S  S37  1  0.889512  0.342757  0.859815  1
  S  S38  1  0.611440  0.336391  0.158185  1
  S  S39  1  0.712263  0.657633  0.459219  1
  S  S40  1  0.693657  0.085809  0.538810  1
  S  S41  1  0.640988  0.476314  0.632069  1
  S  S42  1  0.473131  0.733784  0.238506  1
  S  S43  1  0.441915  0.175124  0.300966  1
  S  S44  1  0.558085  0.824876  0.699034  1
  S  S45  1  0.526869  0.266216  0.761494  1
  S  S46  1  0.359012  0.523686  0.367931  1
  S  S47  1  0.306343  0.914191  0.461190  1
  S  S48  1  0.287737  0.342367  0.540781  1
  S  S49  1  0.388560  0.663609  0.841815  1
  S  S50  1  0.110488  0.657243  0.140185  1
  S  S51  1  0.360278  0.042609  0.882693  1
  S  S52  1  0.289115  0.389344  0.957670  1
  S  S53  1  0.144970  0.747241  0.583009  1
  S  S54  1  0.115942  0.149608  0.635856  1
  S  S55  1  0.047661  0.525405  0.731647  1
