# generated using pymatgen
data_Ba3LaCl9
_symmetry_space_group_name_H-M   'P 1'
_cell_length_a   7.34857246
_cell_length_b   12.52136517
_cell_length_c   18.51973297
_cell_angle_alpha   90.00000000
_cell_angle_beta   90.00000000
_cell_angle_gamma   90.00000000
_symmetry_Int_Tables_number   1
_chemical_formula_structural   Ba3LaCl9
_chemical_formula_sum   'Ba12 La4 Cl36'
_cell_volume   1704.07765877
_cell_formula_units_Z   4
loop_
 _symmetry_equiv_pos_site_id
 _symmetry_equiv_pos_as_xyz
  1  'x, y, z'
loop_
 _atom_site_type_symbol
 _atom_site_label
 _atom_site_symmetry_multiplicity
 _atom_site_fract_x
 _atom_site_fract_y
 _atom_site_fract_z
 _atom_site_occupancy
  Ba  Ba0  1  0.250000  0.950207  0.905906  1
  Ba  Ba1  1  0.250000  0.811640  0.472237  1
  Ba  Ba2  1  0.750000  0.766715  0.674777  1
  Ba  Ba3  1  0.250000  0.733285  0.174777  1
  Ba  Ba4  1  0.750000  0.688360  0.972237  1
  Ba  Ba5  1  0.750000  0.549793  0.405906  1
  Ba  Ba6  1  0.250000  0.450207  0.594094  1
  Ba  Ba7  1  0.250000  0.311640  0.027763  1
  Ba  Ba8  1  0.750000  0.266715  0.825223  1
  Ba  Ba9  1  0.250000  0.233285  0.325223  1
  Ba  Ba10  1  0.750000  0.188360  0.527763  1
  Ba  Ba11  1  0.750000  0.049793  0.094094  1
  La  La12  1  0.750000  0.966755  0.323719  1
  La  La13  1  0.250000  0.533245  0.823719  1
  La  La14  1  0.750000  0.466755  0.176281  1
  La  La15  1  0.250000  0.033245  0.676281  1
  Cl  Cl16  1  0.511812  0.936914  0.585314  1
  Cl  Cl17  1  0.988188  0.936914  0.585314  1
  Cl  Cl18  1  0.488721  0.920952  0.226078  1
  Cl  Cl19  1  0.011279  0.920952  0.226078  1
  Cl  Cl20  1  0.250000  0.839378  0.747299  1
  Cl  Cl21  1  0.750000  0.823351  0.839576  1
  Cl  Cl22  1  0.500780  0.861350  0.039431  1
  Cl  Cl23  1  0.999220  0.861350  0.039431  1
  Cl  Cl24  1  0.750000  0.802811  0.422553  1
  Cl  Cl25  1  0.250000  0.697189  0.922553  1
  Cl  Cl26  1  0.000780  0.638650  0.539431  1
  Cl  Cl27  1  0.499220  0.638650  0.539431  1
  Cl  Cl28  1  0.250000  0.676649  0.339576  1
  Cl  Cl29  1  0.750000  0.660622  0.247299  1
  Cl  Cl30  1  0.988721  0.579048  0.726078  1
  Cl  Cl31  1  0.511279  0.579048  0.726078  1
  Cl  Cl32  1  0.011812  0.563086  0.085314  1
  Cl  Cl33  1  0.488188  0.563086  0.085314  1
  Cl  Cl34  1  0.511812  0.436914  0.914686  1
  Cl  Cl35  1  0.988188  0.436914  0.914686  1
  Cl  Cl36  1  0.011279  0.420952  0.273922  1
  Cl  Cl37  1  0.488721  0.420952  0.273922  1
  Cl  Cl38  1  0.250000  0.339378  0.752701  1
  Cl  Cl39  1  0.750000  0.323351  0.660424  1
  Cl  Cl40  1  0.500780  0.361350  0.460569  1
  Cl  Cl41  1  0.999220  0.361350  0.460569  1
  Cl  Cl42  1  0.750000  0.302811  0.077447  1
  Cl  Cl43  1  0.250000  0.197189  0.577447  1
  Cl  Cl44  1  0.000780  0.138650  0.960569  1
  Cl  Cl45  1  0.499220  0.138650  0.960569  1
  Cl  Cl46  1  0.250000  0.176649  0.160424  1
  Cl  Cl47  1  0.750000  0.160622  0.252701  1
  Cl  Cl48  1  0.511279  0.079048  0.773922  1
  Cl  Cl49  1  0.988721  0.079048  0.773922  1
  Cl  Cl50  1  0.011812  0.063086  0.414686  1
  Cl  Cl51  1  0.488188  0.063086  0.414686  1
