# generated using pymatgen
data_Li4Y3CrO8
_symmetry_space_group_name_H-M   'P 1'
_cell_length_a   5.88283550
_cell_length_b   5.88283550
_cell_length_c   6.18160828
_cell_angle_alpha   90.00000000
_cell_angle_beta   90.00000000
_cell_angle_gamma   116.76293274
_symmetry_Int_Tables_number   1
_chemical_formula_structural   Li4Y3CrO8
_chemical_formula_sum   'Li4 Y3 Cr1 O8'
_cell_volume   191.01465284
_cell_formula_units_Z   1
loop_
 _symmetry_equiv_pos_site_id
 _symmetry_equiv_pos_as_xyz
  1  'x, y, z'
loop_
 _atom_site_type_symbol
 _atom_site_label
 _atom_site_symmetry_multiplicity
 _atom_site_fract_x
 _atom_site_fract_y
 _atom_site_fract_z
 _atom_site_occupancy
  Li  Li0  1  0.500000  1.000000  0.247080  1
  Li  Li1  1  0.500000  0.500000  0.000000  1
  Li  Li2  1  0.000000  0.500000  0.752920  1
  Li  Li3  1  0.000000  0.000000  0.500000  1
  Y  Y4  1  0.000000  0.000000  0.000000  1
  Y  Y5  1  0.000000  0.500000  0.258330  1
  Y  Y6  1  0.500000  0.000000  0.741670  1
  Cr  Cr7  1  0.500000  0.500000  0.500000  1
  O  O8  1  0.757296  0.728118  0.263151  1
  O  O9  1  0.224877  0.775123  0.000000  1
  O  O10  1  0.242704  0.271882  0.263151  1
  O  O11  1  0.271882  0.242704  0.736849  1
  O  O12  1  0.706584  0.293416  0.500000  1
  O  O13  1  0.775123  0.224877  0.000000  1
  O  O14  1  0.728118  0.757296  0.736849  1
  O  O15  1  0.293416  0.706584  0.500000  1
