# generated using pymatgen
data_Mn2Sn(PO4)3
_symmetry_space_group_name_H-M   'P 1'
_cell_length_a   8.59937642
_cell_length_b   8.59937642
_cell_length_c   8.59937642
_cell_angle_alpha   61.66962102
_cell_angle_beta   61.66962102
_cell_angle_gamma   61.66962102
_symmetry_Int_Tables_number   1
_chemical_formula_structural   Mn2Sn(PO4)3
_chemical_formula_sum   'Mn4 Sn2 P6 O24'
_cell_volume   466.49428522
_cell_formula_units_Z   2
loop_
 _symmetry_equiv_pos_site_id
 _symmetry_equiv_pos_as_xyz
  1  'x, y, z'
loop_
 _atom_site_type_symbol
 _atom_site_label
 _atom_site_symmetry_multiplicity
 _atom_site_fract_x
 _atom_site_fract_y
 _atom_site_fract_z
 _atom_site_occupancy
  Mn  Mn0  1  0.848758  0.848758  0.848758  1
  Mn  Mn1  1  0.651242  0.651242  0.651242  1
  Mn  Mn2  1  0.348758  0.348758  0.348758  1
  Mn  Mn3  1  0.151242  0.151242  0.151242  1
  Sn  Sn4  1  0.000000  0.000000  0.000000  1
  Sn  Sn5  1  0.500000  0.500000  0.500000  1
  P  P6  1  0.552327  0.947673  0.250000  1
  P  P7  1  0.250000  0.552327  0.947673  1
  P  P8  1  0.947673  0.250000  0.552327  1
  P  P9  1  0.052327  0.750000  0.447673  1
  P  P10  1  0.750000  0.447673  0.052327  1
  P  P11  1  0.447673  0.052327  0.750000  1
  O  O12  1  0.485164  0.904605  0.677482  1
  O  O13  1  0.904605  0.677482  0.485164  1
  O  O14  1  0.754811  0.929271  0.098016  1
  O  O15  1  0.677482  0.485164  0.904605  1
  O  O16  1  0.404605  0.985164  0.177482  1
  O  O17  1  0.570729  0.745189  0.401984  1
  O  O18  1  0.098016  0.754811  0.929271  1
  O  O19  1  0.401984  0.570729  0.745189  1
  O  O20  1  0.014836  0.822518  0.595395  1
  O  O21  1  0.745189  0.401984  0.570729  1
  O  O22  1  0.070729  0.901984  0.245189  1
  O  O23  1  0.822518  0.595395  0.014836  1
  O  O24  1  0.177482  0.404605  0.985164  1
  O  O25  1  0.929271  0.098016  0.754811  1
  O  O26  1  0.254811  0.598016  0.429271  1
  O  O27  1  0.985164  0.177482  0.404605  1
  O  O28  1  0.598016  0.429271  0.254811  1
  O  O29  1  0.901984  0.245189  0.070729  1
  O  O30  1  0.429271  0.254811  0.598016  1
  O  O31  1  0.595395  0.014836  0.822518  1
  O  O32  1  0.322518  0.514836  0.095395  1
  O  O33  1  0.245189  0.070729  0.901984  1
  O  O34  1  0.095395  0.322518  0.514836  1
  O  O35  1  0.514836  0.095395  0.322518  1
