# generated using pymatgen
data_CaMgB6(HO)22
_symmetry_space_group_name_H-M   'P 1'
_cell_length_a   7.11087868
_cell_length_b   7.11087868
_cell_length_c   19.46448794
_cell_angle_alpha   89.68199149
_cell_angle_beta   90.31800851
_cell_angle_gamma   116.73287117
_symmetry_Int_Tables_number   1
_chemical_formula_structural   CaMgB6(HO)22
_chemical_formula_sum   'Ca2 Mg2 B12 H44 O44'
_cell_volume   878.99606170
_cell_formula_units_Z   2
loop_
 _symmetry_equiv_pos_site_id
 _symmetry_equiv_pos_as_xyz
  1  'x, y, z'
loop_
 _atom_site_type_symbol
 _atom_site_label
 _atom_site_symmetry_multiplicity
 _atom_site_fract_x
 _atom_site_fract_y
 _atom_site_fract_z
 _atom_site_occupancy
  Ca  Ca0  1  0.214074  0.214074  0.250000  1
  Ca  Ca1  1  0.785926  0.785926  0.750000  1
  Mg  Mg2  1  1.000000  0.000000  0.500000  1
  Mg  Mg3  1  0.000000  0.000000  0.000000  1
  B  B4  1  0.859623  0.057025  0.349927  1
  B  B5  1  0.057025  0.859623  0.150073  1
  B  B6  1  0.140377  0.942975  0.650073  1
  B  B7  1  0.942975  0.140377  0.849927  1
  B  B8  1  0.946900  0.753696  0.357837  1
  B  B9  1  0.753696  0.946900  0.142163  1
  B  B10  1  0.053100  0.246304  0.642163  1
  B  B11  1  0.246304  0.053100  0.857837  1
  B  B12  1  0.579281  0.690407  0.334611  1
  B  B13  1  0.690407  0.579281  0.165389  1
  B  B14  1  0.420719  0.309593  0.665389  1
  B  B15  1  0.309593  0.420719  0.834611  1
  H  H16  1  0.783841  0.175982  0.436782  1
  H  H17  1  0.175982  0.783841  0.063218  1
  H  H18  1  0.216159  0.824018  0.563218  1
  H  H19  1  0.824018  0.216159  0.936782  1
  H  H20  1  0.944860  0.371475  0.316208  1
  H  H21  1  0.371475  0.944860  0.183792  1
  H  H22  1  0.055140  0.628525  0.683792  1
  H  H23  1  0.628525  0.055140  0.816208  1
  H  H24  1  0.270909  0.610166  0.325040  1
  H  H25  1  0.610166  0.270909  0.174960  1
  H  H26  1  0.729091  0.389834  0.674960  1
  H  H27  1  0.389834  0.729091  0.825040  1
  H  H28  1  0.115845  0.739211  0.277067  1
  H  H29  1  0.739211  0.115845  0.222933  1
  H  H30  1  0.884155  0.260789  0.722933  1
  H  H31  1  0.260789  0.884155  0.777067  1
  H  H32  1  0.885977  0.615745  0.455737  1
  H  H33  1  0.615745  0.885977  0.044263  1
  H  H34  1  0.114023  0.384255  0.544263  1
  H  H35  1  0.384255  0.114023  0.955737  1
  H  H36  1  0.344293  0.173149  0.412650  1
  H  H37  1  0.173149  0.344293  0.087350  1
  H  H38  1  0.655707  0.826851  0.587350  1
  H  H39  1  0.826851  0.655707  0.912650  1
  H  H40  1  0.440721  0.250927  0.486920  1
  H  H41  1  0.250927  0.440721  0.013080  1
  H  H42  1  0.559279  0.749073  0.513080  1
  H  H43  1  0.749073  0.559279  0.986920  1
  H  H44  1  0.520140  0.080486  0.328517  1
  H  H45  1  0.080486  0.520140  0.171483  1
  H  H46  1  0.479860  0.919514  0.671483  1
  H  H47  1  0.919514  0.479860  0.828517  1
  H  H48  1  0.588016  0.331530  0.334180  1
  H  H49  1  0.331530  0.588016  0.165820  1
  H  H50  1  0.411984  0.668470  0.665820  1
  H  H51  1  0.668470  0.411984  0.834180  1
  H  H52  1  0.283011  0.511126  0.445915  1
  H  H53  1  0.511126  0.283011  0.054085  1
  H  H54  1  0.716989  0.488874  0.554085  1
  H  H55  1  0.488874  0.716989  0.945915  1
  H  H56  1  0.228365  0.698995  0.455443  1
  H  H57  1  0.698995  0.228365  0.044557  1
  H  H58  1  0.771635  0.301005  0.544557  1
  H  H59  1  0.301005  0.771635  0.955443  1
  O  O60  1  0.002825  0.967695  0.336671  1
  O  O61  1  0.967695  0.002825  0.163329  1
  O  O62  1  0.997175  0.032305  0.663329  1
  O  O63  1  0.032305  0.997175  0.836671  1
  O  O64  1  0.891349  0.135574  0.422494  1
  O  O65  1  0.135574  0.891349  0.077506  1
  O  O66  1  0.108651  0.864426  0.577506  1
  O  O67  1  0.864426  0.108651  0.922494  1
  O  O68  1  0.907456  0.228874  0.299064  1
  O  O69  1  0.228874  0.907456  0.200936  1
  O  O70  1  0.092544  0.771126  0.700936  1
  O  O71  1  0.771126  0.092544  0.799064  1
  O  O72  1  0.635042  0.901472  0.339174  1
  O  O73  1  0.901472  0.635042  0.160826  1
  O  O74  1  0.364958  0.098528  0.660826  1
  O  O75  1  0.098528  0.364958  0.839174  1
  O  O76  1  0.720652  0.609170  0.342197  1
  O  O77  1  0.609170  0.720652  0.157803  1
  O  O78  1  0.279348  0.390830  0.657803  1
  O  O79  1  0.390830  0.279348  0.842197  1
  O  O80  1  0.370546  0.545640  0.323002  1
  O  O81  1  0.545640  0.370546  0.176998  1
  O  O82  1  0.629454  0.454360  0.676998  1
  O  O83  1  0.454360  0.629454  0.823002  1
  O  O84  1  0.078055  0.671928  0.322765  1
  O  O85  1  0.671928  0.078055  0.177235  1
  O  O86  1  0.921945  0.328072  0.677235  1
  O  O87  1  0.328072  0.921945  0.822765  1
  O  O88  1  0.980342  0.751530  0.434970  1
  O  O89  1  0.751530  0.980342  0.065030  1
  O  O90  1  0.019658  0.248470  0.565030  1
  O  O91  1  0.248470  0.019658  0.934970  1
  O  O92  1  0.306293  0.187365  0.461033  1
  O  O93  1  0.187365  0.306293  0.038967  1
  O  O94  1  0.693707  0.812635  0.538967  1
  O  O95  1  0.812635  0.693707  0.961033  1
  O  O96  1  0.467136  0.187690  0.332383  1
  O  O97  1  0.187690  0.467136  0.167617  1
  O  O98  1  0.532864  0.812310  0.667617  1
  O  O99  1  0.812310  0.532864  0.832383  1
  O  O100  1  0.301358  0.625069  0.477695  1
  O  O101  1  0.625069  0.301358  0.022305  1
  O  O102  1  0.698641  0.374931  0.522305  1
  O  O103  1  0.374931  0.698641  0.977695  1
