# generated using pymatgen
data_Na2LiTi3Al(PO4)6
_symmetry_space_group_name_H-M   'P 1'
_cell_length_a   8.57521163
_cell_length_b   8.57654877
_cell_length_c   8.79902840
_cell_angle_alpha   61.10695178
_cell_angle_beta   61.13340107
_cell_angle_gamma   60.08459857
_symmetry_Int_Tables_number   1
_chemical_formula_structural   Na2LiTi3Al(PO4)6
_chemical_formula_sum   'Na2 Li1 Ti3 Al1 P6 O24'
_cell_volume   465.49216021
_cell_formula_units_Z   1
loop_
 _symmetry_equiv_pos_site_id
 _symmetry_equiv_pos_as_xyz
  1  'x, y, z'
loop_
 _atom_site_type_symbol
 _atom_site_label
 _atom_site_symmetry_multiplicity
 _atom_site_fract_x
 _atom_site_fract_y
 _atom_site_fract_z
 _atom_site_occupancy
  Na  Na0  1  0.004943  0.012178  0.990165  1
  Na  Na1  1  0.490003  0.496846  0.503762  1
  Li  Li2  1  0.839454  0.660476  0.249647  1
  Ti  Ti3  1  0.638647  0.645229  0.060428  1
  Ti  Ti4  1  0.855222  0.861871  0.437256  1
  Ti  Ti5  1  0.355631  0.356125  0.932499  1
  Al  Al6  1  0.144179  0.144979  0.566371  1
  P  P7  1  0.246875  0.529946  0.256343  1
  P  P8  1  0.965522  0.251486  0.255076  1
  P  P9  1  0.527180  0.967655  0.256055  1
  P  P10  1  0.454797  0.040717  0.747521  1
  P  P11  1  0.037587  0.756549  0.753121  1
  P  P12  1  0.757224  0.457669  0.742246  1
  O  O13  1  0.133366  0.283669  0.078102  1
  O  O14  1  0.501965  0.134566  0.079704  1
  O  O15  1  0.282389  0.503419  0.078755  1
  O  O16  1  0.066865  0.713699  0.263162  1
  O  O17  1  0.418464  0.564227  0.236631  1
  O  O18  1  0.216456  0.362306  0.426283  1
  O  O19  1  0.934414  0.082369  0.265487  1
  O  O20  1  0.785101  0.434018  0.238493  1
  O  O21  1  0.565237  0.777505  0.238995  1
  O  O22  1  0.631210  0.004113  0.578135  1
  O  O23  1  0.275827  0.062243  0.732183  1
  O  O24  1  0.999771  0.785204  0.582735  1
  O  O25  1  0.996715  0.218435  0.425471  1
  O  O26  1  0.720682  0.932613  0.264572  1
  O  O27  1  0.360395  0.999191  0.424971  1
  O  O28  1  0.436633  0.220878  0.762400  1
  O  O29  1  0.219872  0.580186  0.763434  1
  O  O30  1  0.061959  0.930203  0.732761  1
  O  O31  1  0.785761  0.630375  0.568887  1
  O  O32  1  0.579422  0.436040  0.762300  1
  O  O33  1  0.929515  0.277208  0.731423  1
  O  O34  1  0.719987  0.497772  0.915417  1
  O  O35  1  0.493186  0.867705  0.919969  1
  O  O36  1  0.868546  0.719333  0.929237  1
