# generated using pymatgen
data_LiMnF4
_symmetry_space_group_name_H-M   'P 1'
_cell_length_a   7.61026911
_cell_length_b   7.64543083
_cell_length_c   10.06422659
_cell_angle_alpha   90.00000000
_cell_angle_beta   90.00000000
_cell_angle_gamma   90.00000000
_symmetry_Int_Tables_number   1
_chemical_formula_structural   LiMnF4
_chemical_formula_sum   'Li8 Mn8 F32'
_cell_volume   585.57480695
_cell_formula_units_Z   8
loop_
 _symmetry_equiv_pos_site_id
 _symmetry_equiv_pos_as_xyz
  1  'x, y, z'
loop_
 _atom_site_type_symbol
 _atom_site_label
 _atom_site_symmetry_multiplicity
 _atom_site_fract_x
 _atom_site_fract_y
 _atom_site_fract_z
 _atom_site_occupancy
  Li  Li0  1  0.752281  0.000000  0.771476  1
  Li  Li1  1  0.190322  0.000000  0.788572  1
  Li  Li2  1  0.990235  0.000000  0.269645  1
  Li  Li3  1  0.476037  0.000000  0.294142  1
  Li  Li4  1  0.976037  0.500000  0.705858  1
  Li  Li5  1  0.690322  0.500000  0.211428  1
  Li  Li6  1  0.490235  0.500000  0.730355  1
  Li  Li7  1  0.252281  0.500000  0.228524  1
  Mn  Mn8  1  0.503246  0.753336  0.005839  1
  Mn  Mn9  1  0.255209  0.751651  0.506200  1
  Mn  Mn10  1  0.755209  0.748349  0.493800  1
  Mn  Mn11  1  0.003246  0.746664  0.994161  1
  Mn  Mn12  1  0.003246  0.253336  0.994161  1
  Mn  Mn13  1  0.755209  0.251651  0.493800  1
  Mn  Mn14  1  0.255209  0.248349  0.506200  1
  Mn  Mn15  1  0.503246  0.246664  0.005839  1
  F  F16  1  0.786540  0.000000  0.575280  1
  F  F17  1  0.219018  0.000000  0.592989  1
  F  F18  1  0.969480  0.000000  0.073188  1
  F  F19  1  0.524938  0.000000  0.097392  1
  F  F20  1  0.559656  0.835818  0.842979  1
  F  F21  1  0.802452  0.827878  0.326224  1
  F  F22  1  0.207970  0.838081  0.340904  1
  F  F23  1  0.962482  0.832509  0.824643  1
  F  F24  1  0.504067  0.814005  0.462709  1
  F  F25  1  0.253216  0.811842  0.962339  1
  F  F26  1  0.753216  0.688158  0.037661  1
  F  F27  1  0.004067  0.685995  0.537291  1
  F  F28  1  0.462482  0.667491  0.175357  1
  F  F29  1  0.707970  0.661919  0.659096  1
  F  F30  1  0.302452  0.672122  0.673776  1
  F  F31  1  0.059656  0.664182  0.157021  1
  F  F32  1  0.719018  0.500000  0.407011  1
  F  F33  1  0.469480  0.500000  0.926812  1
  F  F34  1  0.024938  0.500000  0.902608  1
  F  F35  1  0.286540  0.500000  0.424720  1
  F  F36  1  0.059656  0.335818  0.157021  1
  F  F37  1  0.302452  0.327878  0.673776  1
  F  F38  1  0.707970  0.338081  0.659096  1
  F  F39  1  0.462482  0.332509  0.175357  1
  F  F40  1  0.004067  0.314005  0.537291  1
  F  F41  1  0.753216  0.311842  0.037661  1
  F  F42  1  0.253216  0.188158  0.962339  1
  F  F43  1  0.504067  0.185995  0.462709  1
  F  F44  1  0.962482  0.167491  0.824643  1
  F  F45  1  0.207970  0.161919  0.340904  1
  F  F46  1  0.802452  0.172122  0.326224  1
  F  F47  1  0.559656  0.164182  0.842979  1
