# generated using pymatgen
data_ZnCu2O3
_symmetry_space_group_name_H-M   'P 1'
_cell_length_a   3.46626829
_cell_length_b   3.90832120
_cell_length_c   9.69604166
_cell_angle_alpha   90.00000000
_cell_angle_beta   90.00000000
_cell_angle_gamma   90.00000000
_symmetry_Int_Tables_number   1
_chemical_formula_structural   ZnCu2O3
_chemical_formula_sum   'Zn2 Cu4 O6'
_cell_volume   131.35508669
_cell_formula_units_Z   2
loop_
 _symmetry_equiv_pos_site_id
 _symmetry_equiv_pos_as_xyz
  1  'x, y, z'
loop_
 _atom_site_type_symbol
 _atom_site_label
 _atom_site_symmetry_multiplicity
 _atom_site_fract_x
 _atom_site_fract_y
 _atom_site_fract_z
 _atom_site_occupancy
  Zn  Zn0  1  0.304398  0.000000  0.000000  1
  Zn  Zn1  1  0.695602  0.500000  0.500000  1
  Cu  Cu2  1  0.184299  0.000000  0.335995  1
  Cu  Cu3  1  0.184299  0.000000  0.664005  1
  Cu  Cu4  1  0.815701  0.500000  0.835995  1
  Cu  Cu5  1  0.815701  0.500000  0.164005  1
  O  O6  1  0.498647  0.000000  0.500000  1
  O  O7  1  0.902313  0.000000  0.838257  1
  O  O8  1  0.902313  0.000000  0.161743  1
  O  O9  1  0.501353  0.500000  0.000000  1
  O  O10  1  0.097687  0.500000  0.338257  1
  O  O11  1  0.097687  0.500000  0.661743  1
