# generated using pymatgen
data_Li3Sn2(PO4)3
_symmetry_space_group_name_H-M   'P 1'
_cell_length_a   8.90706695
_cell_length_b   9.38908078
_cell_length_c   12.54289793
_cell_angle_alpha   90.00000000
_cell_angle_beta   94.03670394
_cell_angle_gamma   90.00000000
_symmetry_Int_Tables_number   1
_chemical_formula_structural   Li3Sn2(PO4)3
_chemical_formula_sum   'Li12 Sn8 P12 O48'
_cell_volume   1046.34987306
_cell_formula_units_Z   4
loop_
 _symmetry_equiv_pos_site_id
 _symmetry_equiv_pos_as_xyz
  1  'x, y, z'
loop_
 _atom_site_type_symbol
 _atom_site_label
 _atom_site_symmetry_multiplicity
 _atom_site_fract_x
 _atom_site_fract_y
 _atom_site_fract_z
 _atom_site_occupancy
  Li  Li0  1  0.707292  0.230551  0.088611  1
  Li  Li1  1  0.500000  0.572119  0.250000  1
  Li  Li2  1  0.292708  0.230551  0.411389  1
  Li  Li3  1  0.500000  0.500000  0.500000  1
  Li  Li4  1  0.000000  0.000000  0.500000  1
  Li  Li5  1  0.707292  0.769449  0.588611  1
  Li  Li6  1  0.000000  0.867842  0.250000  1
  Li  Li7  1  0.500000  0.427881  0.750000  1
  Li  Li8  1  0.000000  0.132158  0.750000  1
  Li  Li9  1  0.000000  0.000000  0.000000  1
  Li  Li10  1  0.500000  0.500000  0.000000  1
  Li  Li11  1  0.292708  0.769449  0.911389  1
  Sn  Sn12  1  0.706854  0.990487  0.359298  1
  Sn  Sn13  1  0.824425  0.511609  0.166402  1
  Sn  Sn14  1  0.293146  0.990487  0.140702  1
  Sn  Sn15  1  0.824425  0.488391  0.666402  1
  Sn  Sn16  1  0.706854  0.009513  0.859298  1
  Sn  Sn17  1  0.175575  0.511609  0.333598  1
  Sn  Sn18  1  0.293146  0.009513  0.640702  1
  Sn  Sn19  1  0.175575  0.488391  0.833598  1
  P  P20  1  0.500000  0.272538  0.250000  1
  P  P21  1  0.657988  0.848415  0.103636  1
  P  P22  1  0.796046  0.654876  0.409426  1
  P  P23  1  0.657988  0.151585  0.603636  1
  P  P24  1  0.203954  0.654876  0.090574  1
  P  P25  1  0.000000  0.150827  0.250000  1
  P  P26  1  0.342012  0.848415  0.396364  1
  P  P27  1  0.796046  0.345124  0.909426  1
  P  P28  1  0.203954  0.345124  0.590574  1
  P  P29  1  0.342012  0.151585  0.896364  1
  P  P30  1  0.500000  0.727462  0.750000  1
  P  P31  1  0.000000  0.849173  0.750000  1
  O  O32  1  0.877261  0.234746  0.189358  1
  O  O33  1  0.040608  0.621544  0.111397  1
  O  O34  1  0.935992  0.043690  0.337734  1
  O  O35  1  0.564921  0.365088  0.163248  1
  O  O36  1  0.373377  0.175753  0.197740  1
  O  O37  1  0.644900  0.686551  0.089768  1
  O  O38  1  0.749119  0.917751  0.014108  1
  O  O39  1  0.626623  0.175753  0.302260  1
  O  O40  1  0.264054  0.581208  0.991418  1
  O  O41  1  0.749119  0.082249  0.514108  1
  O  O42  1  0.064008  0.043690  0.162266  1
  O  O43  1  0.684019  0.626777  0.315102  1
  O  O44  1  0.040608  0.378456  0.611397  1
  O  O45  1  0.501761  0.920849  0.103458  1
  O  O46  1  0.749968  0.889697  0.211607  1
  O  O47  1  0.435079  0.365088  0.336752  1
  O  O48  1  0.315981  0.626777  0.184898  1
  O  O49  1  0.749968  0.110303  0.711607  1
  O  O50  1  0.797711  0.820677  0.443136  1
  O  O51  1  0.735946  0.581208  0.508582  1
  O  O52  1  0.501761  0.079151  0.603458  1
  O  O53  1  0.122739  0.234746  0.310642  1
  O  O54  1  0.202289  0.820677  0.056864  1
  O  O55  1  0.644900  0.313449  0.589768  1
  O  O56  1  0.355100  0.686551  0.410232  1
  O  O57  1  0.797711  0.179323  0.943136  1
  O  O58  1  0.498239  0.920849  0.396542  1
  O  O59  1  0.877261  0.765254  0.689358  1
  O  O60  1  0.264054  0.418792  0.491418  1
  O  O61  1  0.202289  0.179323  0.556864  1
  O  O62  1  0.684019  0.373223  0.815102  1
  O  O63  1  0.250032  0.889697  0.288393  1
  O  O64  1  0.564921  0.634912  0.663248  1
  O  O65  1  0.250032  0.110303  0.788393  1
  O  O66  1  0.959392  0.621544  0.388603  1
  O  O67  1  0.498239  0.079151  0.896542  1
  O  O68  1  0.315981  0.373223  0.684898  1
  O  O69  1  0.935992  0.956310  0.837734  1
  O  O70  1  0.250881  0.917751  0.485892  1
  O  O71  1  0.735946  0.418792  0.008582  1
  O  O72  1  0.373377  0.824247  0.697740  1
  O  O73  1  0.355100  0.313449  0.910232  1
  O  O74  1  0.250881  0.082249  0.985892  1
  O  O75  1  0.626623  0.824247  0.802260  1
  O  O76  1  0.435079  0.634912  0.836752  1
  O  O77  1  0.064008  0.956310  0.662266  1
  O  O78  1  0.959392  0.378456  0.888603  1
  O  O79  1  0.122739  0.765254  0.810642  1
