# generated using pymatgen
data_In15SnO24
_symmetry_space_group_name_H-M   'P 1'
_cell_length_a   8.93057285
_cell_length_b   8.93057285
_cell_length_c   10.32253347
_cell_angle_alpha   54.81121858
_cell_angle_beta   125.18878142
_cell_angle_gamma   109.41350113
_symmetry_Int_Tables_number   1
_chemical_formula_structural   In15SnO24
_chemical_formula_sum   'In15 Sn1 O24'
_cell_volume   549.87374903
_cell_formula_units_Z   1
loop_
 _symmetry_equiv_pos_site_id
 _symmetry_equiv_pos_as_xyz
  1  'x, y, z'
loop_
 _atom_site_type_symbol
 _atom_site_label
 _atom_site_symmetry_multiplicity
 _atom_site_fract_x
 _atom_site_fract_y
 _atom_site_fract_z
 _atom_site_occupancy
  In  In0  1  0.501246  0.000062  0.750489  1
  In  In1  1  0.217350  0.284770  0.215462  1
  In  In2  1  0.284770  0.217350  0.784538  1
  In  In3  1  0.248855  0.749641  0.033618  1
  In  In4  1  0.251583  0.749255  0.534778  1
  In  In5  1  0.533765  0.533765  0.500000  1
  In  In6  1  0.000062  0.501246  0.249511  1
  In  In7  1  0.000174  0.500559  0.751100  1
  In  In8  1  0.500559  0.000174  0.248900  1
  In  In9  1  0.466437  0.466437  0.000000  1
  In  In10  1  0.749255  0.251583  0.465222  1
  In  In11  1  0.749641  0.248855  0.966382  1
  In  In12  1  0.783248  0.717026  0.282870  1
  In  In13  1  0.717026  0.783248  0.717130  1
  In  In14  1  0.966404  0.966404  0.000000  1
  Sn  Sn15  1  0.035354  0.035354  0.500000  1
  O  O16  1  0.236410  0.544465  0.978038  1
  O  O17  1  0.252115  0.955190  0.775947  1
  O  O18  1  0.038926  0.264906  0.521526  1
  O  O19  1  0.727026  0.963186  0.021031  1
  O  O20  1  0.535427  0.771877  0.241288  1
  O  O21  1  0.225079  0.464832  0.739690  1
  O  O22  1  0.544465  0.236410  0.021962  1
  O  O23  1  0.955190  0.252115  0.224053  1
  O  O24  1  0.270619  0.491124  0.293920  1
  O  O25  1  0.993391  0.782091  0.514076  1
  O  O26  1  0.227984  0.007877  0.012195  1
  O  O27  1  0.505956  0.729305  0.792788  1
  O  O28  1  0.782091  0.993391  0.485924  1
  O  O29  1  0.491124  0.270619  0.706080  1
  O  O30  1  0.729305  0.505956  0.207212  1
  O  O31  1  0.007877  0.227984  0.987805  1
  O  O32  1  0.044022  0.735399  0.288844  1
  O  O33  1  0.459155  0.767907  0.477993  1
  O  O34  1  0.771877  0.535427  0.758712  1
  O  O35  1  0.464832  0.225079  0.260310  1
  O  O36  1  0.264906  0.038926  0.478474  1
  O  O37  1  0.963186  0.727026  0.978969  1
  O  O38  1  0.767907  0.459155  0.522007  1
  O  O39  1  0.735399  0.044022  0.711156  1
