# generated using pymatgen
data_Fe4O3F5
_symmetry_space_group_name_H-M   'P 1'
_cell_length_a   4.80824265
_cell_length_b   6.21232522
_cell_length_c   10.05267077
_cell_angle_alpha   107.82511020
_cell_angle_beta   92.66081798
_cell_angle_gamma   90.14093872
_symmetry_Int_Tables_number   1
_chemical_formula_structural   Fe4O3F5
_chemical_formula_sum   'Fe8 O6 F10'
_cell_volume   285.51018824
_cell_formula_units_Z   2
loop_
 _symmetry_equiv_pos_site_id
 _symmetry_equiv_pos_as_xyz
  1  'x, y, z'
loop_
 _atom_site_type_symbol
 _atom_site_label
 _atom_site_symmetry_multiplicity
 _atom_site_fract_x
 _atom_site_fract_y
 _atom_site_fract_z
 _atom_site_occupancy
  Fe  Fe0  1  0.478109  0.626336  0.744709  1
  Fe  Fe1  1  0.505432  0.882272  0.255097  1
  Fe  Fe2  1  0.534172  0.363794  0.238964  1
  Fe  Fe3  1  0.484651  0.116160  0.739940  1
  Fe  Fe4  1  0.021758  0.500997  0.024990  1
  Fe  Fe5  1  0.015873  0.749159  0.505426  1
  Fe  Fe6  1  0.955570  0.005812  0.990648  1
  Fe  Fe7  1  0.999802  0.252238  0.496557  1
  O  O8  1  0.809114  0.295614  0.092241  1
  O  O9  1  0.707789  0.184378  0.347641  1
  O  O10  1  0.684263  0.920396  0.843263  1
  O  O11  1  0.317106  0.572040  0.158760  1
  O  O12  1  0.307910  0.827981  0.655515  1
  O  O13  1  0.296761  0.327710  0.653342  1
  F  F14  1  0.802675  0.540569  0.602601  1
  F  F15  1  0.798233  0.061047  0.598750  1
  F  F16  1  0.819608  0.796995  0.094988  1
  F  F17  1  0.695560  0.428772  0.853122  1
  F  F18  1  0.707285  0.661424  0.352457  1
  F  F19  1  0.292785  0.079486  0.137793  1
  F  F20  1  0.187638  0.962716  0.404829  1
  F  F21  1  0.187304  0.204379  0.900824  1
  F  F22  1  0.208362  0.438804  0.398434  1
  F  F23  1  0.182239  0.700920  0.909110  1
