# generated using pymatgen
data_Li3MnFe2(BO3)3
_symmetry_space_group_name_H-M   'P 1'
_cell_length_a   8.83059041
_cell_length_b   8.83059041
_cell_length_c   8.25457421
_cell_angle_alpha   62.26045615
_cell_angle_beta   117.73954385
_cell_angle_gamma   138.18455832
_symmetry_Int_Tables_number   1
_chemical_formula_structural   Li3MnFe2(BO3)3
_chemical_formula_sum   'Li6 Mn2 Fe4 B6 O18'
_cell_volume   372.09961720
_cell_formula_units_Z   2
loop_
 _symmetry_equiv_pos_site_id
 _symmetry_equiv_pos_as_xyz
  1  'x, y, z'
loop_
 _atom_site_type_symbol
 _atom_site_label
 _atom_site_symmetry_multiplicity
 _atom_site_fract_x
 _atom_site_fract_y
 _atom_site_fract_z
 _atom_site_occupancy
  Li  Li0  1  0.243061  0.260160  0.698558  1
  Li  Li1  1  0.739840  0.756939  0.698558  1
  Li  Li2  1  0.402067  0.100574  0.284155  1
  Li  Li3  1  0.899426  0.597933  0.284155  1
  Li  Li4  1  0.107769  0.393181  0.015975  1
  Li  Li5  1  0.606819  0.892231  0.015975  1
  Mn  Mn6  1  0.179516  0.820484  0.987384  1
  Mn  Mn7  1  0.006169  0.993831  0.371161  1
  Fe  Fe8  1  0.680836  0.319164  0.992539  1
  Fe  Fe9  1  0.503797  0.496203  0.368465  1
  Fe  Fe10  1  0.816888  0.183112  0.641259  1
  Fe  Fe11  1  0.315906  0.684094  0.639927  1
  B  B12  1  0.583261  0.916534  0.334877  1
  B  B13  1  0.083466  0.416739  0.334877  1
  B  B14  1  0.419861  0.085424  0.666070  1
  B  B15  1  0.914576  0.580139  0.666070  1
  B  B16  1  0.998656  0.001344  0.999239  1
  B  B17  1  0.499975  0.500025  0.999753  1
  O  O18  1  0.456956  0.543044  0.805876  1
  O  O19  1  0.958658  0.041342  0.804910  1
  O  O20  1  0.040216  0.459838  0.442995  1
  O  O21  1  0.540162  0.959784  0.442995  1
  O  O22  1  0.095701  0.904299  0.113056  1
  O  O23  1  0.597384  0.402616  0.107509  1
  O  O24  1  0.676808  0.815902  0.420634  1
  O  O25  1  0.184098  0.323192  0.420634  1
  O  O26  1  0.026213  0.467334  0.140564  1
  O  O27  1  0.532666  0.973787  0.140564  1
  O  O28  1  0.380060  0.126829  0.779403  1
  O  O29  1  0.873171  0.619940  0.779403  1
  O  O30  1  0.446041  0.553959  0.086985  1
  O  O31  1  0.941304  0.058696  0.078373  1
  O  O32  1  0.513980  0.985906  0.746131  1
  O  O33  1  0.014094  0.486020  0.746131  1
  O  O34  1  0.363616  0.143033  0.472421  1
  O  O35  1  0.856967  0.636384  0.472421  1
