# generated using pymatgen
data_Li3Mn2(PO4)3
_symmetry_space_group_name_H-M   'P 1'
_cell_length_a   8.67501139
_cell_length_b   8.71126515
_cell_length_c   12.22092194
_cell_angle_alpha   90.00000000
_cell_angle_beta   94.03527073
_cell_angle_gamma   90.00000000
_symmetry_Int_Tables_number   1
_chemical_formula_structural   Li3Mn2(PO4)3
_chemical_formula_sum   'Li12 Mn8 P12 O48'
_cell_volume   921.24950867
_cell_formula_units_Z   4
loop_
 _symmetry_equiv_pos_site_id
 _symmetry_equiv_pos_as_xyz
  1  'x, y, z'
loop_
 _atom_site_type_symbol
 _atom_site_label
 _atom_site_symmetry_multiplicity
 _atom_site_fract_x
 _atom_site_fract_y
 _atom_site_fract_z
 _atom_site_occupancy
  Li  Li0  1  0.693209  0.196992  0.050643  1
  Li  Li1  1  0.500000  0.583570  0.250000  1
  Li  Li2  1  0.306791  0.196992  0.449357  1
  Li  Li3  1  0.500000  0.500000  0.500000  1
  Li  Li4  1  0.000000  0.000000  0.500000  1
  Li  Li5  1  0.693209  0.803008  0.550643  1
  Li  Li6  1  0.000000  0.911561  0.250000  1
  Li  Li7  1  0.500000  0.416430  0.750000  1
  Li  Li8  1  0.000000  0.088439  0.750000  1
  Li  Li9  1  0.000000  0.000000  0.000000  1
  Li  Li10  1  0.500000  0.500000  0.000000  1
  Li  Li11  1  0.306791  0.803008  0.949357  1
  Mn  Mn12  1  0.715962  0.996810  0.356911  1
  Mn  Mn13  1  0.790632  0.503858  0.145704  1
  Mn  Mn14  1  0.284038  0.996810  0.143089  1
  Mn  Mn15  1  0.715962  0.003190  0.856911  1
  Mn  Mn16  1  0.284038  0.003190  0.643089  1
  Mn  Mn17  1  0.790632  0.496142  0.645704  1
  Mn  Mn18  1  0.209368  0.503858  0.354296  1
  Mn  Mn19  1  0.209368  0.496142  0.854296  1
  P  P20  1  0.500000  0.282871  0.250000  1
  P  P21  1  0.650839  0.849069  0.098942  1
  P  P22  1  0.839737  0.644671  0.395219  1
  P  P23  1  0.160263  0.644671  0.104781  1
  P  P24  1  0.650839  0.150931  0.598942  1
  P  P25  1  0.000000  0.208492  0.250000  1
  P  P26  1  0.349161  0.849069  0.401058  1
  P  P27  1  0.839737  0.355329  0.895219  1
  P  P28  1  0.160263  0.355329  0.604781  1
  P  P29  1  0.349161  0.150931  0.901058  1
  P  P30  1  0.500000  0.717129  0.750000  1
  P  P31  1  0.000000  0.791508  0.750000  1
  O  O32  1  0.867436  0.306471  0.195773  1
  O  O33  1  0.995587  0.591104  0.106223  1
  O  O34  1  0.944897  0.099770  0.340456  1
  O  O35  1  0.563721  0.387535  0.160518  1
  O  O36  1  0.377640  0.182656  0.187844  1
  O  O37  1  0.662737  0.670973  0.084429  1
  O  O38  1  0.746390  0.939241  0.016611  1
  O  O39  1  0.622360  0.182656  0.312156  1
  O  O40  1  0.253758  0.592819  0.007119  1
  O  O41  1  0.746390  0.060759  0.516611  1
  O  O42  1  0.055103  0.099770  0.159544  1
  O  O43  1  0.739907  0.596619  0.290909  1
  O  O44  1  0.476373  0.878044  0.083966  1
  O  O45  1  0.995587  0.408896  0.606223  1
  O  O46  1  0.726766  0.902902  0.210676  1
  O  O47  1  0.436279  0.387535  0.339482  1
  O  O48  1  0.260093  0.596619  0.209091  1
  O  O49  1  0.726766  0.097098  0.710676  1
  O  O50  1  0.851125  0.826042  0.408453  1
  O  O51  1  0.746242  0.592819  0.492881  1
  O  O52  1  0.476373  0.121956  0.583966  1
  O  O53  1  0.132564  0.306471  0.304227  1
  O  O54  1  0.148875  0.826042  0.091547  1
  O  O55  1  0.662737  0.329027  0.584429  1
  O  O56  1  0.337263  0.670973  0.415571  1
  O  O57  1  0.851125  0.173958  0.908453  1
  O  O58  1  0.867436  0.693529  0.695773  1
  O  O59  1  0.523627  0.878044  0.416034  1
  O  O60  1  0.148875  0.173958  0.591547  1
  O  O61  1  0.253758  0.407181  0.507119  1
  O  O62  1  0.739907  0.403381  0.790909  1
  O  O63  1  0.273234  0.902902  0.289324  1
  O  O64  1  0.563721  0.612465  0.660518  1
  O  O65  1  0.273234  0.097098  0.789324  1
  O  O66  1  0.004413  0.591104  0.393777  1
  O  O67  1  0.523627  0.121956  0.916034  1
  O  O68  1  0.260093  0.403381  0.709091  1
  O  O69  1  0.944897  0.900230  0.840456  1
  O  O70  1  0.253610  0.939241  0.483389  1
  O  O71  1  0.746242  0.407181  0.992881  1
  O  O72  1  0.377640  0.817344  0.687844  1
  O  O73  1  0.337263  0.329027  0.915571  1
  O  O74  1  0.253610  0.060759  0.983389  1
  O  O75  1  0.622360  0.817344  0.812156  1
  O  O76  1  0.436279  0.612465  0.839482  1
  O  O77  1  0.055103  0.900230  0.659544  1
  O  O78  1  0.004413  0.408896  0.893777  1
  O  O79  1  0.132564  0.693529  0.804227  1
