# generated using pymatgen
data_MgCoO3
_symmetry_space_group_name_H-M   'P 1'
_cell_length_a   6.38267833
_cell_length_b   6.38267833
_cell_length_c   4.96192630
_cell_angle_alpha   86.81401123
_cell_angle_beta   93.18598877
_cell_angle_gamma   96.57411320
_symmetry_Int_Tables_number   1
_chemical_formula_structural   MgCoO3
_chemical_formula_sum   'Mg4 Co4 O12'
_cell_volume   200.25534741
_cell_formula_units_Z   4
loop_
 _symmetry_equiv_pos_site_id
 _symmetry_equiv_pos_as_xyz
  1  'x, y, z'
loop_
 _atom_site_type_symbol
 _atom_site_label
 _atom_site_symmetry_multiplicity
 _atom_site_fract_x
 _atom_site_fract_y
 _atom_site_fract_z
 _atom_site_occupancy
  Mg  Mg0  1  0.606362  0.173594  0.775964  1
  Mg  Mg1  1  0.826406  0.393638  0.275964  1
  Mg  Mg2  1  0.173594  0.606362  0.724036  1
  Mg  Mg3  1  0.393638  0.826406  0.224036  1
  Co  Co4  1  0.082287  0.082287  0.750000  1
  Co  Co5  1  0.733549  0.733549  0.750000  1
  Co  Co6  1  0.266451  0.266451  0.250000  1
  Co  Co7  1  0.917713  0.917713  0.250000  1
  O  O8  1  0.813002  0.019839  0.569868  1
  O  O9  1  0.980161  0.186998  0.069868  1
  O  O10  1  0.337011  0.115264  0.960471  1
  O  O11  1  0.528556  0.272202  0.392283  1
  O  O12  1  0.884736  0.662989  0.460471  1
  O  O13  1  0.727798  0.471444  0.892283  1
  O  O14  1  0.272202  0.528556  0.107717  1
  O  O15  1  0.115264  0.337011  0.539529  1
  O  O16  1  0.471444  0.727798  0.607717  1
  O  O17  1  0.662989  0.884736  0.039529  1
  O  O18  1  0.019839  0.813002  0.930132  1
  O  O19  1  0.186998  0.980161  0.430132  1
