# generated using pymatgen
data_Ca8V7ZnBiO28
_symmetry_space_group_name_H-M   'P 1'
_cell_length_a   10.93807207
_cell_length_b   10.93807207
_cell_length_c   14.17421003
_cell_angle_alpha   67.29166360
_cell_angle_beta   112.70833640
_cell_angle_gamma   119.86944631
_symmetry_Int_Tables_number   1
_chemical_formula_structural   Ca8V7ZnBiO28
_chemical_formula_sum   'Ca16 V14 Zn2 Bi2 O56'
_cell_volume   1316.15402559
_cell_formula_units_Z   2
loop_
 _symmetry_equiv_pos_site_id
 _symmetry_equiv_pos_as_xyz
  1  'x, y, z'
loop_
 _atom_site_type_symbol
 _atom_site_label
 _atom_site_symmetry_multiplicity
 _atom_site_fract_x
 _atom_site_fract_y
 _atom_site_fract_z
 _atom_site_occupancy
  Ca  Ca0  1  0.931730  0.571694  0.202479  1
  Ca  Ca1  1  0.933806  0.162618  0.201622  1
  Ca  Ca2  1  0.943660  0.968403  0.024935  1
  Ca  Ca3  1  0.340611  0.565675  0.201418  1
  Ca  Ca4  1  0.551088  0.554834  0.022619  1
  Ca  Ca5  1  0.525708  0.946860  0.018842  1
  Ca  Ca6  1  0.837382  0.066194  0.701622  1
  Ca  Ca7  1  0.434325  0.659389  0.701418  1
  Ca  Ca8  1  0.428306  0.068270  0.702479  1
  Ca  Ca9  1  0.558417  0.348863  0.301736  1
  Ca  Ca10  1  0.149842  0.910707  0.301335  1
  Ca  Ca11  1  0.651137  0.441583  0.801736  1
  Ca  Ca12  1  0.089293  0.850158  0.801335  1
  Ca  Ca13  1  0.445166  0.448912  0.522619  1
  Ca  Ca14  1  0.053140  0.474292  0.518842  1
  Ca  Ca15  1  0.031597  0.056340  0.524935  1
  V  V16  1  0.732836  0.764040  0.203057  1
  V  V17  1  0.813639  0.723690  0.904843  1
  V  V18  1  0.776281  0.186153  0.905569  1
  V  V19  1  0.312878  0.684804  0.904743  1
  V  V20  1  0.724122  0.809044  0.592290  1
  V  V21  1  0.689062  0.321422  0.592852  1
  V  V22  1  0.813847  0.223719  0.405569  1
  V  V23  1  0.178056  0.776019  0.591842  1
  V  V24  1  0.315196  0.687122  0.404743  1
  V  V25  1  0.276310  0.186361  0.404843  1
  V  V26  1  0.678578  0.310938  0.092852  1
  V  V27  1  0.223981  0.821944  0.091842  1
  V  V28  1  0.190956  0.275878  0.092290  1
  V  V29  1  0.235960  0.267164  0.703057  1
  Zn  Zn30  1  0.998250  0.502554  0.997689  1
  Zn  Zn31  1  0.497446  0.001750  0.497689  1
  Bi  Bi32  1  0.594373  0.939427  0.297954  1
  Bi  Bi33  1  0.060573  0.405627  0.797954  1
  O  O34  1  0.900611  0.757758  0.239281  1
  O  O35  1  0.738993  0.906639  0.240415  1
  O  O36  1  0.594997  0.597851  0.239400  1
  O  O37  1  0.826020  0.685773  0.037388  1
  O  O38  1  0.814278  0.102016  0.037343  1
  O  O39  1  0.687841  0.811379  0.066168  1
  O  O40  1  0.883478  0.629201  0.880105  1
  O  O41  1  0.868789  0.375721  0.882493  1
  O  O42  1  0.916992  0.908733  0.866656  1
  O  O43  1  0.835781  0.127874  0.840878  1
  O  O44  1  0.396942  0.672993  0.036562  1
  O  O45  1  0.630814  0.669796  0.843492  1
  O  O46  1  0.591037  0.141109  0.867028  1
  O  O47  1  0.900371  0.900902  0.663196  1
  O  O48  1  0.381953  0.866627  0.842818  1
  O  O49  1  0.349715  0.575597  0.865690  1
  O  O50  1  0.880887  0.386855  0.637477  1
  O  O51  1  0.124380  0.619229  0.881194  1
  O  O52  1  0.599091  0.336471  0.663973  1
  O  O53  1  0.897984  0.185722  0.537343  1
  O  O54  1  0.619647  0.878922  0.606797  1
  O  O55  1  0.621200  0.132917  0.608659  1
  O  O56  1  0.643531  0.621953  0.637009  1
  O  O57  1  0.366551  0.880249  0.608077  1
  O  O58  1  0.164891  0.595319  0.662893  1
  O  O59  1  0.738068  0.865137  0.463946  1
  O  O60  1  0.872126  0.164219  0.340878  1
  O  O61  1  0.858891  0.408963  0.367028  1
  O  O62  1  0.631734  0.403059  0.466245  1
  O  O63  1  0.327007  0.603058  0.536562  1
  O  O64  1  0.624279  0.131211  0.382493  1
  O  O65  1  0.314227  0.173980  0.537388  1
  O  O66  1  0.113484  0.855073  0.635587  1
  O  O67  1  0.380771  0.875620  0.381194  1
  O  O68  1  0.370799  0.116522  0.380105  1
  O  O69  1  0.424403  0.650285  0.365690  1
  O  O70  1  0.330204  0.369186  0.343492  1
  O  O71  1  0.867083  0.378800  0.108659  1
  O  O72  1  0.096802  0.763476  0.465103  1
  O  O73  1  0.663529  0.400909  0.163973  1
  O  O74  1  0.133373  0.618047  0.342818  1
  O  O75  1  0.091267  0.083008  0.366656  1
  O  O76  1  0.613145  0.119113  0.137477  1
  O  O77  1  0.404681  0.835109  0.162893  1
  O  O78  1  0.378047  0.356469  0.137009  1
  O  O79  1  0.099098  0.099629  0.163196  1
  O  O80  1  0.596941  0.368266  0.966245  1
  O  O81  1  0.119751  0.633449  0.108077  1
  O  O82  1  0.121078  0.380353  0.106797  1
  O  O83  1  0.144927  0.886516  0.135587  1
  O  O84  1  0.236524  0.903198  0.965103  1
  O  O85  1  0.134863  0.261932  0.963946  1
  O  O86  1  0.402149  0.405003  0.739400  1
  O  O87  1  0.242242  0.099389  0.739281  1
  O  O88  1  0.093361  0.261007  0.740415  1
  O  O89  1  0.188621  0.312159  0.566168  1
