# generated using pymatgen
data_Na5Co2P(CO4)4
_symmetry_space_group_name_H-M   'P 1'
_cell_length_a   9.97715921
_cell_length_b   9.97715921
_cell_length_c   9.85933297
_cell_angle_alpha   60.42123313
_cell_angle_beta   119.57876687
_cell_angle_gamma   89.11310330
_symmetry_Int_Tables_number   1
_chemical_formula_structural   Na5Co2P(CO4)4
_chemical_formula_sum   'Na10 Co4 P2 C8 O32'
_cell_volume   697.36895419
_cell_formula_units_Z   2
loop_
 _symmetry_equiv_pos_site_id
 _symmetry_equiv_pos_as_xyz
  1  'x, y, z'
loop_
 _atom_site_type_symbol
 _atom_site_label
 _atom_site_symmetry_multiplicity
 _atom_site_fract_x
 _atom_site_fract_y
 _atom_site_fract_z
 _atom_site_occupancy
  Na  Na0  1  0.908762  0.345508  0.239942  1
  Na  Na1  1  0.654680  0.090844  0.323940  1
  Na  Na2  1  0.654492  0.091238  0.739942  1
  Na  Na3  1  0.909156  0.345320  0.823940  1
  Na  Na4  1  0.912955  0.912955  0.250000  1
  Na  Na5  1  0.087045  0.087045  0.750000  1
  Na  Na6  1  0.090844  0.654680  0.176060  1
  Na  Na7  1  0.345508  0.908762  0.260058  1
  Na  Na8  1  0.345320  0.909156  0.676060  1
  Na  Na9  1  0.091238  0.654492  0.760058  1
  Co  Co10  1  0.500000  0.000000  0.000000  1
  Co  Co11  1  0.500000  0.500000  0.000000  1
  Co  Co12  1  0.500000  0.500000  0.500000  1
  Co  Co13  1  0.000000  0.500000  0.500000  1
  P  P14  1  0.124264  0.124264  0.250000  1
  P  P15  1  0.875736  0.875736  0.750000  1
  C  C16  1  0.714707  0.714072  0.070586  1
  C  C17  1  0.717552  0.353884  0.433452  1
  C  C18  1  0.353884  0.717552  0.066548  1
  C  C19  1  0.714072  0.714707  0.429414  1
  C  C20  1  0.646116  0.282448  0.933452  1
  C  C21  1  0.285928  0.285293  0.570586  1
  C  C22  1  0.285293  0.285928  0.929414  1
  C  C23  1  0.282448  0.646116  0.566548  1
  O  O24  1  0.652101  0.138289  0.049956  1
  O  O25  1  0.859180  0.601529  0.207930  1
  O  O26  1  0.689705  0.350394  0.291179  1
  O  O27  1  0.403296  0.314415  0.038138  1
  O  O28  1  0.861711  0.347899  0.549956  1
  O  O29  1  0.314983  0.056217  0.378446  1
  O  O30  1  0.059915  0.061104  0.119994  1
  O  O31  1  0.605962  0.353079  0.465294  1
  O  O32  1  0.689594  0.859178  0.036937  1
  O  O33  1  0.353079  0.605962  0.034706  1
  O  O34  1  0.859178  0.689594  0.463063  1
  O  O35  1  0.061104  0.059915  0.380006  1
  O  O36  1  0.056217  0.314983  0.121554  1
  O  O37  1  0.649606  0.310295  0.791179  1
  O  O38  1  0.398471  0.140820  0.707930  1
  O  O39  1  0.685585  0.596704  0.538138  1
  O  O40  1  0.314415  0.403296  0.461862  1
  O  O41  1  0.350394  0.689705  0.208821  1
  O  O42  1  0.601529  0.859180  0.292070  1
  O  O43  1  0.938896  0.940085  0.619994  1
  O  O44  1  0.943783  0.685017  0.878446  1
  O  O45  1  0.140822  0.310406  0.536937  1
  O  O46  1  0.646921  0.394038  0.965294  1
  O  O47  1  0.310406  0.140822  0.963063  1
  O  O48  1  0.394038  0.646921  0.534706  1
  O  O49  1  0.940085  0.938896  0.880006  1
  O  O50  1  0.685017  0.943783  0.621554  1
  O  O51  1  0.138289  0.652101  0.450044  1
  O  O52  1  0.596704  0.685585  0.961862  1
  O  O53  1  0.310295  0.649606  0.708821  1
  O  O54  1  0.140820  0.398471  0.792070  1
  O  O55  1  0.347899  0.861711  0.950044  1
