# generated using pymatgen
data_Li3VPCO7
_symmetry_space_group_name_H-M   'P 1'
_cell_length_a   6.61646607
_cell_length_b   8.50891993
_cell_length_c   9.97820876
_cell_angle_alpha   85.09826767
_cell_angle_beta   89.42896389
_cell_angle_gamma   89.07039659
_symmetry_Int_Tables_number   1
_chemical_formula_structural   Li3VPCO7
_chemical_formula_sum   'Li12 V4 P4 C4 O28'
_cell_volume   559.61402426
_cell_formula_units_Z   4
loop_
 _symmetry_equiv_pos_site_id
 _symmetry_equiv_pos_as_xyz
  1  'x, y, z'
loop_
 _atom_site_type_symbol
 _atom_site_label
 _atom_site_symmetry_multiplicity
 _atom_site_fract_x
 _atom_site_fract_y
 _atom_site_fract_z
 _atom_site_occupancy
  Li  Li0  1  0.256371  0.900486  0.609397  1
  Li  Li1  1  0.258308  0.901714  0.117501  1
  Li  Li2  1  0.486012  0.718961  0.891894  1
  Li  Li3  1  0.017829  0.721568  0.360817  1
  Li  Li4  1  0.478472  0.719596  0.361278  1
  Li  Li5  1  0.740238  0.652612  0.122938  1
  Li  Li6  1  0.529609  0.283056  0.622846  1
  Li  Li7  1  0.970350  0.282809  0.622146  1
  Li  Li8  1  0.534492  0.283468  0.127053  1
  Li  Li9  1  0.966504  0.280871  0.126795  1
  Li  Li10  1  0.748768  0.108229  0.891966  1
  Li  Li11  1  0.746832  0.092358  0.377197  1
  V  V12  1  0.991003  0.740897  0.887792  1
  V  V13  1  0.747500  0.670814  0.598973  1
  V  V14  1  0.250739  0.330604  0.896750  1
  V  V15  1  0.250471  0.328793  0.396691  1
  P  P16  1  0.244210  0.592201  0.639783  1
  P  P17  1  0.254267  0.588050  0.140684  1
  P  P18  1  0.750082  0.413472  0.859676  1
  P  P19  1  0.749497  0.408185  0.360210  1
  C  C20  1  0.754063  0.965478  0.652147  1
  C  C21  1  0.759113  0.957406  0.144182  1
  C  C22  1  0.251780  0.037476  0.847228  1
  C  C23  1  0.249813  0.035107  0.347197  1
  O  O24  1  0.745691  0.929488  0.529420  1
  O  O25  1  0.245163  0.890444  0.818479  1
  O  O26  1  0.772744  0.924056  0.018655  1
  O  O27  1  0.759926  0.846730  0.746231  1
  O  O28  1  0.249207  0.889219  0.319709  1
  O  O29  1  0.752088  0.847746  0.241378  1
  O  O30  1  0.064572  0.695641  0.582854  1
  O  O31  1  0.429741  0.692106  0.592587  1
  O  O32  1  0.063481  0.685525  0.092172  1
  O  O33  1  0.436071  0.691142  0.091707  1
  O  O34  1  0.744107  0.578470  0.914136  1
  O  O35  1  0.228960  0.574037  0.798703  1
  O  O36  1  0.745838  0.576282  0.408916  1
  O  O37  1  0.249426  0.567013  0.297937  1
  O  O38  1  0.751061  0.432771  0.702175  1
  O  O39  1  0.250136  0.424140  0.591813  1
  O  O40  1  0.750085  0.424920  0.204546  1
  O  O41  1  0.257148  0.421518  0.088806  1
  O  O42  1  0.933405  0.310180  0.911752  1
  O  O43  1  0.568372  0.311504  0.911588  1
  O  O44  1  0.568374  0.306391  0.416424  1
  O  O45  1  0.933091  0.306603  0.416130  1
  O  O46  1  0.256454  0.149535  0.750908  1
  O  O47  1  0.753354  0.108539  0.685795  1
  O  O48  1  0.249618  0.148844  0.251044  1
  O  O49  1  0.253552  0.073229  0.970608  1
  O  O50  1  0.750741  0.105870  0.171740  1
  O  O51  1  0.251271  0.073847  0.470647  1
