# generated using pymatgen
data_Li3FeS3
_symmetry_space_group_name_H-M   'P 1'
_cell_length_a   6.55456522
_cell_length_b   12.88674919
_cell_length_c   6.66959601
_cell_angle_alpha   90.00000000
_cell_angle_beta   115.74979544
_cell_angle_gamma   90.00000000
_symmetry_Int_Tables_number   1
_chemical_formula_structural   Li3FeS3
_chemical_formula_sum   'Li12 Fe4 S12'
_cell_volume   507.41915248
_cell_formula_units_Z   4
loop_
 _symmetry_equiv_pos_site_id
 _symmetry_equiv_pos_as_xyz
  1  'x, y, z'
loop_
 _atom_site_type_symbol
 _atom_site_label
 _atom_site_symmetry_multiplicity
 _atom_site_fract_x
 _atom_site_fract_y
 _atom_site_fract_z
 _atom_site_occupancy
  Li  Li0  1  0.059230  0.820641  0.707296  1
  Li  Li1  1  0.059230  0.679359  0.207296  1
  Li  Li2  1  0.653538  0.782708  0.315696  1
  Li  Li3  1  0.696510  0.561629  0.521866  1
  Li  Li4  1  0.303490  0.061629  0.978134  1
  Li  Li5  1  0.346462  0.282708  0.184304  1
  Li  Li6  1  0.653538  0.717292  0.815696  1
  Li  Li7  1  0.696510  0.938371  0.021866  1
  Li  Li8  1  0.303490  0.438371  0.478134  1
  Li  Li9  1  0.346462  0.217292  0.684304  1
  Li  Li10  1  0.940770  0.320641  0.792704  1
  Li  Li11  1  0.940770  0.179359  0.292704  1
  Fe  Fe12  1  0.312644  0.571379  0.840131  1
  Fe  Fe13  1  0.312644  0.928621  0.340131  1
  Fe  Fe14  1  0.687356  0.071379  0.659869  1
  Fe  Fe15  1  0.687356  0.428621  0.159869  1
  S  S16  1  0.996830  0.145172  0.674034  1
  S  S17  1  0.355646  0.880309  0.041250  1
  S  S18  1  0.343792  0.110535  0.355949  1
  S  S19  1  0.996830  0.354828  0.174034  1
  S  S20  1  0.355646  0.619691  0.541250  1
  S  S21  1  0.343792  0.389465  0.855949  1
  S  S22  1  0.656208  0.610535  0.144051  1
  S  S23  1  0.644354  0.380309  0.458750  1
  S  S24  1  0.003170  0.645172  0.825966  1
  S  S25  1  0.656208  0.889465  0.644051  1
  S  S26  1  0.644354  0.119691  0.958750  1
  S  S27  1  0.003170  0.854828  0.325966  1
