# generated using pymatgen
data_NaSmO2
_symmetry_space_group_name_H-M   'P 1'
_cell_length_a   5.97379061
_cell_length_b   5.97379061
_cell_length_c   5.97379061
_cell_angle_alpha   34.40254865
_cell_angle_beta   34.40254865
_cell_angle_gamma   34.40254865
_symmetry_Int_Tables_number   1
_chemical_formula_structural   NaSmO2
_chemical_formula_sum   'Na1 Sm1 O2'
_cell_volume   60.70243357
_cell_formula_units_Z   1
loop_
 _symmetry_equiv_pos_site_id
 _symmetry_equiv_pos_as_xyz
  1  'x, y, z'
loop_
 _atom_site_type_symbol
 _atom_site_label
 _atom_site_symmetry_multiplicity
 _atom_site_fract_x
 _atom_site_fract_y
 _atom_site_fract_z
 _atom_site_occupancy
  Na  Na0  1  0.000000  0.000000  0.000000  1
  Sm  Sm1  1  0.500000  0.500000  0.500000  1
  O  O2  1  0.761869  0.761869  0.761869  1
  O  O3  1  0.238131  0.238131  0.238131  1
