# generated using pymatgen
data_Li2CrSn(PO4)2
_symmetry_space_group_name_H-M   'P 1'
_cell_length_a   4.84100802
_cell_length_b   6.69136998
_cell_length_c   10.73206472
_cell_angle_alpha   90.00000000
_cell_angle_beta   93.51631952
_cell_angle_gamma   90.00000000
_symmetry_Int_Tables_number   1
_chemical_formula_structural   Li2CrSn(PO4)2
_chemical_formula_sum   'Li4 Cr2 Sn2 P4 O16'
_cell_volume   346.98902770
_cell_formula_units_Z   2
loop_
 _symmetry_equiv_pos_site_id
 _symmetry_equiv_pos_as_xyz
  1  'x, y, z'
loop_
 _atom_site_type_symbol
 _atom_site_label
 _atom_site_symmetry_multiplicity
 _atom_site_fract_x
 _atom_site_fract_y
 _atom_site_fract_z
 _atom_site_occupancy
  Li  Li0  1  0.000000  0.000000  0.000000  1
  Li  Li1  1  0.000000  0.500000  0.000000  1
  Li  Li2  1  0.500000  0.000000  0.500000  1
  Li  Li3  1  0.500000  0.500000  0.500000  1
  Cr  Cr4  1  0.554967  0.250000  0.212816  1
  Cr  Cr5  1  0.445033  0.750000  0.787184  1
  Sn  Sn6  1  0.040690  0.750000  0.282295  1
  Sn  Sn7  1  0.959310  0.250000  0.717705  1
  P  P8  1  0.572079  0.750000  0.076080  1
  P  P9  1  0.116712  0.250000  0.402780  1
  P  P10  1  0.883288  0.750000  0.597220  1
  P  P11  1  0.427921  0.250000  0.923920  1
  O  O12  1  0.295458  0.250000  0.054246  1
  O  O13  1  0.253685  0.750000  0.060213  1
  O  O14  1  0.692752  0.937830  0.149622  1
  O  O15  1  0.692752  0.562170  0.149622  1
  O  O16  1  0.248896  0.435242  0.341775  1
  O  O17  1  0.248896  0.064758  0.341775  1
  O  O18  1  0.795266  0.250000  0.386432  1
  O  O19  1  0.770061  0.750000  0.457238  1
  O  O20  1  0.229939  0.250000  0.542762  1
  O  O21  1  0.204734  0.750000  0.613568  1
  O  O22  1  0.751104  0.935242  0.658225  1
  O  O23  1  0.751104  0.564758  0.658225  1
  O  O24  1  0.307248  0.437830  0.850378  1
  O  O25  1  0.307248  0.062170  0.850378  1
  O  O26  1  0.746315  0.250000  0.939787  1
  O  O27  1  0.704542  0.750000  0.945754  1
