# generated using pymatgen
data_Li12VFe3P4(CO7)4
_symmetry_space_group_name_H-M   'P 1'
_cell_length_a   8.49464420
_cell_length_b   6.53275734
_cell_length_c   10.05787725
_cell_angle_alpha   90.00000000
_cell_angle_beta   95.18373705
_cell_angle_gamma   90.00000000
_symmetry_Int_Tables_number   1
_chemical_formula_structural   Li12VFe3P4(CO7)4
_chemical_formula_sum   'Li12 V1 Fe3 P4 C4 O28'
_cell_volume   555.86352915
_cell_formula_units_Z   1
loop_
 _symmetry_equiv_pos_site_id
 _symmetry_equiv_pos_as_xyz
  1  'x, y, z'
loop_
 _atom_site_type_symbol
 _atom_site_label
 _atom_site_symmetry_multiplicity
 _atom_site_fract_x
 _atom_site_fract_y
 _atom_site_fract_z
 _atom_site_occupancy
  Li  Li0  1  0.907683  0.000000  0.381761  1
  Li  Li1  1  0.904221  0.000000  0.881923  1
  Li  Li2  1  0.725100  0.227983  0.124737  1
  Li  Li3  1  0.725100  0.772017  0.124737  1
  Li  Li4  1  0.723987  0.229309  0.623813  1
  Li  Li5  1  0.723987  0.770691  0.623813  1
  Li  Li6  1  0.275842  0.723771  0.376239  1
  Li  Li7  1  0.275842  0.276229  0.376239  1
  Li  Li8  1  0.275959  0.725453  0.874838  1
  Li  Li9  1  0.275959  0.274547  0.874838  1
  Li  Li10  1  0.093693  0.500000  0.118786  1
  Li  Li11  1  0.095592  0.500000  0.619047  1
  V  V12  1  0.330877  0.000000  0.604195  1
  Fe  Fe13  1  0.665588  0.500000  0.394248  1
  Fe  Fe14  1  0.665592  0.500000  0.893421  1
  Fe  Fe15  1  0.333559  0.000000  0.105710  1
  P  P16  1  0.588583  0.000000  0.361136  1
  P  P17  1  0.587628  0.000000  0.858827  1
  P  P18  1  0.411871  0.500000  0.140049  1
  P  P19  1  0.410935  0.500000  0.639272  1
  C  C20  1  0.965551  0.500000  0.350700  1
  C  C21  1  0.965606  0.500000  0.850332  1
  C  C22  1  0.033688  0.000000  0.149919  1
  C  C23  1  0.035686  0.000000  0.650437  1
  O  O24  1  0.930051  0.500000  0.472888  1
  O  O25  1  0.887829  0.000000  0.179040  1
  O  O26  1  0.929596  0.500000  0.972699  1
  O  O27  1  0.851359  0.500000  0.254774  1
  O  O28  1  0.889950  0.000000  0.677825  1
  O  O29  1  0.851806  0.500000  0.754416  1
  O  O30  1  0.690749  0.186538  0.413566  1
  O  O31  1  0.690749  0.813462  0.413566  1
  O  O32  1  0.689428  0.186737  0.911463  1
  O  O33  1  0.689428  0.813263  0.911463  1
  O  O34  1  0.578618  0.500000  0.090501  1
  O  O35  1  0.569726  0.000000  0.205040  1
  O  O36  1  0.578741  0.500000  0.590283  1
  O  O37  1  0.571092  0.000000  0.703256  1
  O  O38  1  0.428637  0.500000  0.296101  1
  O  O39  1  0.422248  0.000000  0.411114  1
  O  O40  1  0.429365  0.500000  0.796103  1
  O  O41  1  0.421253  0.000000  0.909845  1
  O  O42  1  0.310092  0.313329  0.087189  1
  O  O43  1  0.310092  0.686671  0.087189  1
  O  O44  1  0.307759  0.682920  0.585920  1
  O  O45  1  0.307759  0.317080  0.585920  1
  O  O46  1  0.148095  0.000000  0.246075  1
  O  O47  1  0.111696  0.500000  0.320794  1
  O  O48  1  0.149375  0.000000  0.746797  1
  O  O49  1  0.070035  0.000000  0.027669  1
  O  O50  1  0.112010  0.500000  0.821322  1
  O  O51  1  0.074328  0.000000  0.528163  1
