# generated using pymatgen
data_Li4Fe2OF8
_symmetry_space_group_name_H-M   'P 1'
_cell_length_a   5.10766439
_cell_length_b   5.10766439
_cell_length_c   14.02581480
_cell_angle_alpha   89.90339595
_cell_angle_beta   90.09660405
_cell_angle_gamma   119.89894374
_symmetry_Int_Tables_number   1
_chemical_formula_structural   Li4Fe2OF8
_chemical_formula_sum   'Li8 Fe4 O2 F16'
_cell_volume   317.20787483
_cell_formula_units_Z   2
loop_
 _symmetry_equiv_pos_site_id
 _symmetry_equiv_pos_as_xyz
  1  'x, y, z'
loop_
 _atom_site_type_symbol
 _atom_site_label
 _atom_site_symmetry_multiplicity
 _atom_site_fract_x
 _atom_site_fract_y
 _atom_site_fract_z
 _atom_site_occupancy
  Li  Li0  1  0.678162  0.334040  0.309662  1
  Li  Li1  1  0.666889  0.345728  0.015965  1
  Li  Li2  1  0.665960  0.321838  0.809662  1
  Li  Li3  1  0.654272  0.333111  0.515965  1
  Li  Li4  1  0.311308  0.651702  0.189860  1
  Li  Li5  1  0.348298  0.688692  0.689860  1
  Li  Li6  1  0.332773  0.678888  0.983909  1
  Li  Li7  1  0.321112  0.667227  0.483909  1
  Fe  Fe8  1  0.994451  0.018027  0.149132  1
  Fe  Fe9  1  0.981973  0.005549  0.649132  1
  Fe  Fe10  1  0.001357  0.018949  0.350438  1
  Fe  Fe11  1  0.981051  0.998643  0.850438  1
  O  O12  1  0.995619  0.273239  0.249719  1
  O  O13  1  0.726761  0.004381  0.749719  1
  F  F14  1  0.015831  0.703911  0.751610  1
  F  F15  1  0.978123  0.664509  0.412355  1
  F  F16  1  0.677008  0.657130  0.918331  1
  F  F17  1  0.979943  0.334839  0.917500  1
  F  F18  1  0.665161  0.020057  0.417500  1
  F  F19  1  0.342870  0.322992  0.418332  1
  F  F20  1  0.650874  0.981519  0.079035  1
  F  F21  1  0.699323  0.688388  0.247442  1
  F  F22  1  0.335491  0.021877  0.912355  1
  F  F23  1  0.651275  0.673564  0.581514  1
  F  F24  1  0.296089  0.984169  0.251610  1
  F  F25  1  0.315773  0.977955  0.586647  1
  F  F26  1  0.022045  0.684227  0.086647  1
  F  F27  1  0.326436  0.348725  0.081514  1
  F  F28  1  0.311612  0.300677  0.747442  1
  F  F29  1  0.018481  0.349126  0.579035  1
