# generated using pymatgen
data_MnP4
_symmetry_space_group_name_H-M   'P 1'
_cell_length_a   4.76239159
_cell_length_b   13.68343097
_cell_length_c   7.03173121
_cell_angle_alpha   90.00000000
_cell_angle_beta   102.05918433
_cell_angle_gamma   90.00000000
_symmetry_Int_Tables_number   1
_chemical_formula_structural   MnP4
_chemical_formula_sum   'Mn6 P24'
_cell_volume   448.11673869
_cell_formula_units_Z   6
loop_
 _symmetry_equiv_pos_site_id
 _symmetry_equiv_pos_as_xyz
  1  'x, y, z'
loop_
 _atom_site_type_symbol
 _atom_site_label
 _atom_site_symmetry_multiplicity
 _atom_site_fract_x
 _atom_site_fract_y
 _atom_site_fract_z
 _atom_site_occupancy
  Mn  Mn0  1  0.000000  0.500000  0.500000  1
  Mn  Mn1  1  0.131628  0.665753  0.869320  1
  Mn  Mn2  1  0.000000  0.000000  0.000000  1
  Mn  Mn3  1  0.131628  0.834247  0.369320  1
  Mn  Mn4  1  0.868372  0.165753  0.630680  1
  Mn  Mn5  1  0.868372  0.334247  0.130680  1
  P  P6  1  0.077968  0.274595  0.873391  1
  P  P7  1  0.077968  0.225405  0.373391  1
  P  P8  1  0.209957  0.052253  0.750041  1
  P  P9  1  0.264531  0.386093  0.701286  1
  P  P10  1  0.209957  0.447747  0.250041  1
  P  P11  1  0.356903  0.608829  0.640269  1
  P  P12  1  0.371987  0.943577  0.566688  1
  P  P13  1  0.491472  0.779189  0.958091  1
  P  P14  1  0.264531  0.113907  0.201286  1
  P  P15  1  0.356903  0.891171  0.140269  1
  P  P16  1  0.508528  0.279189  0.541909  1
  P  P17  1  0.371987  0.556423  0.066688  1
  P  P18  1  0.628013  0.443577  0.933312  1
  P  P19  1  0.491472  0.720811  0.458091  1
  P  P20  1  0.643097  0.108829  0.859731  1
  P  P21  1  0.735469  0.886093  0.798714  1
  P  P22  1  0.508528  0.220811  0.041909  1
  P  P23  1  0.628013  0.056423  0.433312  1
  P  P24  1  0.643097  0.391171  0.359731  1
  P  P25  1  0.790043  0.552253  0.749959  1
  P  P26  1  0.735469  0.613907  0.298714  1
  P  P27  1  0.790043  0.947747  0.249959  1
  P  P28  1  0.922032  0.774595  0.626609  1
  P  P29  1  0.922032  0.725405  0.126609  1
