# generated using pymatgen
data_Ba2Sc2O5
_symmetry_space_group_name_H-M   'P 1'
_cell_length_a   6.30830982
_cell_length_b   6.30830982
_cell_length_c   8.42733875
_cell_angle_alpha   89.10355553
_cell_angle_beta   90.89644447
_cell_angle_gamma   93.60277626
_symmetry_Int_Tables_number   1
_chemical_formula_structural   Ba2Sc2O5
_chemical_formula_sum   'Ba4 Sc4 O10'
_cell_volume   334.62415474
_cell_formula_units_Z   2
loop_
 _symmetry_equiv_pos_site_id
 _symmetry_equiv_pos_as_xyz
  1  'x, y, z'
loop_
 _atom_site_type_symbol
 _atom_site_label
 _atom_site_symmetry_multiplicity
 _atom_site_fract_x
 _atom_site_fract_y
 _atom_site_fract_z
 _atom_site_occupancy
  Ba  Ba0  1  0.734439  0.195792  0.194029  1
  Ba  Ba1  1  0.804208  0.265561  0.694029  1
  Ba  Ba2  1  0.195792  0.734439  0.305971  1
  Ba  Ba3  1  0.265561  0.804208  0.805971  1
  Sc  Sc4  1  0.756821  0.698865  0.021678  1
  Sc  Sc5  1  0.301135  0.243179  0.521678  1
  Sc  Sc6  1  0.698865  0.756821  0.478322  1
  Sc  Sc7  1  0.243179  0.301135  0.978322  1
  O  O8  1  0.500000  1.000000  0.500000  1
  O  O9  1  0.261857  0.033176  0.088449  1
  O  O10  1  0.966824  0.738143  0.588449  1
  O  O11  1  0.777528  0.777528  0.250000  1
  O  O12  1  0.500000  0.500000  0.000000  1
  O  O13  1  0.222472  0.222472  0.750000  1
  O  O14  1  0.500000  0.500000  0.500000  1
  O  O15  1  0.033176  0.261857  0.411551  1
  O  O16  1  0.738143  0.966824  0.911551  1
  O  O17  1  1.000000  0.500000  0.000000  1
