# generated using pymatgen
data_SrLaCl5
_symmetry_space_group_name_H-M   'P 1'
_cell_length_a   5.54315799
_cell_length_b   7.03929279
_cell_length_c   10.12240459
_cell_angle_alpha   89.05596173
_cell_angle_beta   105.77204160
_cell_angle_gamma   94.75280328
_symmetry_Int_Tables_number   1
_chemical_formula_structural   SrLaCl5
_chemical_formula_sum   'Sr2 La2 Cl10'
_cell_volume   378.79027296
_cell_formula_units_Z   2
loop_
 _symmetry_equiv_pos_site_id
 _symmetry_equiv_pos_as_xyz
  1  'x, y, z'
loop_
 _atom_site_type_symbol
 _atom_site_label
 _atom_site_symmetry_multiplicity
 _atom_site_fract_x
 _atom_site_fract_y
 _atom_site_fract_z
 _atom_site_occupancy
  Sr  Sr0  1  0.673211  0.748550  0.355794  1
  Sr  Sr1  1  0.326789  0.251450  0.644206  1
  La  La2  1  0.918715  0.749157  0.842051  1
  La  La3  1  0.081285  0.250843  0.157949  1
  Cl  Cl4  1  0.789255  0.890121  0.080249  1
  Cl  Cl5  1  0.804522  0.003637  0.608027  1
  Cl  Cl6  1  0.626690  0.255829  0.259117  1
  Cl  Cl7  1  0.800570  0.490101  0.607522  1
  Cl  Cl8  1  0.710100  0.389422  0.920312  1
  Cl  Cl9  1  0.289900  0.610578  0.079688  1
  Cl  Cl10  1  0.199430  0.509899  0.392478  1
  Cl  Cl11  1  0.373310  0.744171  0.740883  1
  Cl  Cl12  1  0.195478  0.996363  0.391973  1
  Cl  Cl13  1  0.210745  0.109879  0.919751  1
