# generated using pymatgen
data_Li4Mn2Fe3Te3O16
_symmetry_space_group_name_H-M   'P 1'
_cell_length_a   6.24299679
_cell_length_b   6.26048545
_cell_length_c   9.97393461
_cell_angle_alpha   90.48222136
_cell_angle_beta   92.36241339
_cell_angle_gamma   119.22083839
_symmetry_Int_Tables_number   1
_chemical_formula_structural   Li4Mn2Fe3Te3O16
_chemical_formula_sum   'Li4 Mn2 Fe3 Te3 O16'
_cell_volume   339.74479718
_cell_formula_units_Z   1
loop_
 _symmetry_equiv_pos_site_id
 _symmetry_equiv_pos_as_xyz
  1  'x, y, z'
loop_
 _atom_site_type_symbol
 _atom_site_label
 _atom_site_symmetry_multiplicity
 _atom_site_fract_x
 _atom_site_fract_y
 _atom_site_fract_z
 _atom_site_occupancy
  Li  Li0  1  0.348698  0.655589  0.878558  1
  Li  Li1  1  0.984235  0.976230  0.992771  1
  Li  Li2  1  0.006641  0.999018  0.505375  1
  Li  Li3  1  0.664833  0.310206  0.396900  1
  Mn  Mn4  1  0.313164  0.679652  0.511639  1
  Mn  Mn5  1  0.696301  0.364495  0.974794  1
  Fe  Fe6  1  0.146048  0.822628  0.213272  1
  Fe  Fe7  1  0.338437  0.169861  0.718907  1
  Fe  Fe8  1  0.838237  0.671719  0.714965  1
  Te  Te9  1  0.151327  0.326790  0.212937  1
  Te  Te10  1  0.634426  0.817023  0.219220  1
  Te  Te11  1  0.840090  0.178162  0.714355  1
  O  O12  1  0.140346  0.314226  0.608164  1
  O  O13  1  0.475590  0.503584  0.328340  1
  O  O14  1  0.308305  0.632059  0.104190  1
  O  O15  1  0.024461  0.034523  0.322522  1
  O  O16  1  0.007510  0.029733  0.815171  1
  O  O17  1  0.687862  0.872341  0.605605  1
  O  O18  1  0.030079  0.487232  0.328981  1
  O  O19  1  0.477713  0.952306  0.333569  1
  O  O20  1  0.856867  0.194268  0.089049  1
  O  O21  1  0.163481  0.861128  0.612200  1
  O  O22  1  0.555979  0.056867  0.839946  1
  O  O23  1  0.987561  0.474066  0.827612  1
  O  O24  1  0.664940  0.313133  0.606157  1
  O  O25  1  0.286341  0.166028  0.107383  1
  O  O26  1  0.533518  0.475241  0.840375  1
  O  O27  1  0.836711  0.661593  0.084883  1
