# generated using pymatgen
data_LiMnP3(HO5)2
_symmetry_space_group_name_H-M   'P 1'
_cell_length_a   8.81547665
_cell_length_b   11.42698429
_cell_length_c   9.47356043
_cell_angle_alpha   90.00000000
_cell_angle_beta   116.43342854
_cell_angle_gamma   90.00000000
_symmetry_Int_Tables_number   1
_chemical_formula_structural   LiMnP3(HO5)2
_chemical_formula_sum   'Li4 Mn4 P12 H8 O40'
_cell_volume   854.54131107
_cell_formula_units_Z   4
loop_
 _symmetry_equiv_pos_site_id
 _symmetry_equiv_pos_as_xyz
  1  'x, y, z'
loop_
 _atom_site_type_symbol
 _atom_site_label
 _atom_site_symmetry_multiplicity
 _atom_site_fract_x
 _atom_site_fract_y
 _atom_site_fract_z
 _atom_site_occupancy
  Li  Li0  1  0.076236  0.836737  0.585281  1
  Li  Li1  1  0.076236  0.663263  0.085281  1
  Li  Li2  1  0.923764  0.336737  0.914719  1
  Li  Li3  1  0.923764  0.163263  0.414719  1
  Mn  Mn4  1  0.403013  0.103052  0.718193  1
  Mn  Mn5  1  0.596987  0.603052  0.781807  1
  Mn  Mn6  1  0.403013  0.396948  0.218193  1
  Mn  Mn7  1  0.596987  0.896948  0.281807  1
  P  P8  1  0.097091  0.023049  0.818637  1
  P  P9  1  0.266611  0.527460  0.862062  1
  P  P10  1  0.097091  0.476951  0.318637  1
  P  P11  1  0.322721  0.385703  0.633296  1
  P  P12  1  0.266611  0.972540  0.362062  1
  P  P13  1  0.677279  0.885703  0.866704  1
  P  P14  1  0.322721  0.114297  0.133296  1
  P  P15  1  0.733389  0.027460  0.637938  1
  P  P16  1  0.677279  0.614297  0.366704  1
  P  P17  1  0.902909  0.523049  0.681363  1
  P  P18  1  0.733389  0.472540  0.137938  1
  P  P19  1  0.902909  0.976951  0.181363  1
  H  H20  1  0.343337  0.845452  0.975442  1
  H  H21  1  0.561298  0.271777  0.981542  1
  H  H22  1  0.343337  0.654548  0.475442  1
  H  H23  1  0.438702  0.771777  0.518458  1
  H  H24  1  0.561298  0.228223  0.481542  1
  H  H25  1  0.656663  0.345452  0.524558  1
  H  H26  1  0.438702  0.728223  0.018458  1
  H  H27  1  0.656663  0.154548  0.024558  1
  O  O28  1  0.090044  0.895753  0.776091  1
  O  O29  1  0.089812  0.577435  0.726791  1
  O  O30  1  0.240037  0.506179  0.006453  1
  O  O31  1  0.182932  0.106897  0.755707  1
  O  O32  1  0.288083  0.404919  0.787473  1
  O  O33  1  0.173123  0.467662  0.507323  1
  O  O34  1  0.090044  0.604247  0.276091  1
  O  O35  1  0.404203  0.610832  0.873218  1
  O  O36  1  0.089812  0.922565  0.226791  1
  O  O37  1  0.240037  0.993821  0.506453  1
  O  O38  1  0.287287  0.260089  0.586529  1
  O  O39  1  0.182932  0.393103  0.255707  1
  O  O40  1  0.592454  0.204717  0.933334  1
  O  O41  1  0.509838  0.939159  0.837396  1
  O  O42  1  0.490162  0.439159  0.662604  1
  O  O43  1  0.288083  0.095081  0.287473  1
  O  O44  1  0.407546  0.704717  0.566666  1
  O  O45  1  0.173123  0.032338  0.007323  1
  O  O46  1  0.404203  0.889168  0.373218  1
  O  O47  1  0.712713  0.760089  0.913471  1
  O  O48  1  0.287287  0.239911  0.086529  1
  O  O49  1  0.595797  0.110832  0.626782  1
  O  O50  1  0.826877  0.967662  0.992677  1
  O  O51  1  0.592454  0.295283  0.433334  1
  O  O52  1  0.711917  0.904919  0.712527  1
  O  O53  1  0.509838  0.560841  0.337396  1
  O  O54  1  0.490162  0.060841  0.162604  1
  O  O55  1  0.407546  0.795283  0.066666  1
  O  O56  1  0.817068  0.606897  0.744293  1
  O  O57  1  0.712713  0.739911  0.413471  1
  O  O58  1  0.759963  0.006179  0.493547  1
  O  O59  1  0.910188  0.077435  0.773209  1
  O  O60  1  0.595797  0.389168  0.126782  1
  O  O61  1  0.909956  0.395753  0.723909  1
  O  O62  1  0.826877  0.532338  0.492677  1
  O  O63  1  0.711917  0.595081  0.212527  1
  O  O64  1  0.817068  0.893103  0.244293  1
  O  O65  1  0.759963  0.493821  0.993547  1
  O  O66  1  0.910188  0.422565  0.273209  1
  O  O67  1  0.909956  0.104247  0.223909  1
