# generated using pymatgen
data_Ca2B8H2O15
_symmetry_space_group_name_H-M   'P 1'
_cell_length_a   6.51119285
_cell_length_b   9.41246590
_cell_length_c   10.09911206
_cell_angle_alpha   116.83438288
_cell_angle_beta   90.42632079
_cell_angle_gamma   99.25917746
_symmetry_Int_Tables_number   1
_chemical_formula_structural   Ca2B8H2O15
_chemical_formula_sum   'Ca4 B16 H4 O30'
_cell_volume   542.83404322
_cell_formula_units_Z   2
loop_
 _symmetry_equiv_pos_site_id
 _symmetry_equiv_pos_as_xyz
  1  'x, y, z'
loop_
 _atom_site_type_symbol
 _atom_site_label
 _atom_site_symmetry_multiplicity
 _atom_site_fract_x
 _atom_site_fract_y
 _atom_site_fract_z
 _atom_site_occupancy
  Ca  Ca0  1  0.012491  0.175829  0.721150  1
  Ca  Ca1  1  0.987509  0.824171  0.278850  1
  Ca  Ca2  1  0.327281  0.183541  0.168712  1
  Ca  Ca3  1  0.672719  0.816459  0.831288  1
  B  B4  1  0.247307  0.939707  0.780217  1
  B  B5  1  0.752693  0.060293  0.219783  1
  B  B6  1  0.264825  0.531998  0.844493  1
  B  B7  1  0.735175  0.468002  0.155507  1
  B  B8  1  0.080841  0.403976  0.124880  1
  B  B9  1  0.919159  0.596024  0.875120  1
  B  B10  1  0.441739  0.842909  0.189663  1
  B  B11  1  0.558261  0.157091  0.810337  1
  B  B12  1  0.290016  0.737534  0.520832  1
  B  B13  1  0.709984  0.262466  0.479168  1
  B  B14  1  0.420650  0.608580  0.259824  1
  B  B15  1  0.579350  0.391420  0.740176  1
  B  B16  1  0.228226  0.827003  0.974067  1
  B  B17  1  0.771774  0.172997  0.025933  1
  B  B18  1  0.061920  0.191966  0.420010  1
  B  B19  1  0.938080  0.808034  0.579990  1
  H  H20  1  0.317940  0.142260  0.503227  1
  H  H21  1  0.682060  0.857740  0.496773  1
  H  H22  1  0.321456  0.375359  0.492442  1
  H  H23  1  0.678544  0.624641  0.507558  1
  O  O24  1  0.363253  0.404063  0.781582  1
  O  O25  1  0.636747  0.595937  0.218418  1
  O  O26  1  0.028502  0.917846  0.731481  1
  O  O27  1  0.971498  0.082154  0.268519  1
  O  O28  1  0.169108  0.095897  0.478368  1
  O  O29  1  0.830892  0.904103  0.521632  1
  O  O30  1  0.999266  0.759338  0.952184  1
  O  O31  1  0.000734  0.240662  0.047816  1
  O  O32  1  0.301111  0.908656  0.137025  1
  O  O33  1  0.698889  0.091344  0.862975  1
  O  O34  1  0.342147  0.724078  0.221790  1
  O  O35  1  0.657853  0.275922  0.778210  1
  O  O36  1  0.286171  0.446557  0.174932  1
  O  O37  1  0.713829  0.553443  0.825068  1
  O  O38  1  0.277767  0.951865  0.928151  1
  O  O39  1  0.722233  0.048135  0.071849  1
  O  O40  1  0.349105  0.692603  0.895639  1
  O  O41  1  0.650895  0.307397  0.104361  1
  O  O42  1  0.049921  0.484057  0.848796  1
  O  O43  1  0.950079  0.515943  0.151204  1
  O  O44  1  0.212626  0.320045  0.410152  1
  O  O45  1  0.787374  0.679955  0.589848  1
  O  O46  1  0.430730  0.664808  0.422088  1
  O  O47  1  0.569270  0.335192  0.577912  1
  O  O48  1  0.095787  0.745329  0.472844  1
  O  O49  1  0.904213  0.254671  0.527156  1
  O  O50  1  0.347877  0.100243  0.785678  1
  O  O51  1  0.652123  0.899757  0.214322  1
  O  O52  1  0.354155  0.810208  0.671578  1
  O  O53  1  0.645845  0.189792  0.328422  1
