# generated using pymatgen
data_Na2Ni2O5
_symmetry_space_group_name_H-M   'P 1'
_cell_length_a   4.96277492
_cell_length_b   6.44538898
_cell_length_c   6.99207739
_cell_angle_alpha   110.71938864
_cell_angle_beta   95.78496094
_cell_angle_gamma   105.69766956
_symmetry_Int_Tables_number   1
_chemical_formula_structural   Na2Ni2O5
_chemical_formula_sum   'Na4 Ni4 O10'
_cell_volume   196.53365802
_cell_formula_units_Z   2
loop_
 _symmetry_equiv_pos_site_id
 _symmetry_equiv_pos_as_xyz
  1  'x, y, z'
loop_
 _atom_site_type_symbol
 _atom_site_label
 _atom_site_symmetry_multiplicity
 _atom_site_fract_x
 _atom_site_fract_y
 _atom_site_fract_z
 _atom_site_occupancy
  Na  Na0  1  0.200295  0.392172  0.407422  1
  Na  Na1  1  0.563604  0.694257  0.204145  1
  Na  Na2  1  0.847067  0.108959  0.600517  1
  Na  Na3  1  0.981876  0.499174  0.011183  1
  Ni  Ni4  1  0.401985  0.805440  0.801119  1
  Ni  Ni5  1  0.998018  0.996980  0.996315  1
  Ni  Ni6  1  0.802491  0.602330  0.601358  1
  Ni  Ni7  1  0.596140  0.198507  0.197253  1
  O  O8  1  0.097265  0.906495  0.727461  1
  O  O9  1  0.103288  0.520722  0.711081  1
  O  O10  1  0.301565  0.892461  0.071146  1
  O  O11  1  0.293221  0.285854  0.093036  1
  O  O12  1  0.529126  0.741430  0.550097  1
  O  O13  1  0.702908  0.693994  0.872126  1
  O  O14  1  0.563692  0.285695  0.477197  1
  O  O15  1  0.701137  0.107737  0.924958  1
  O  O16  1  0.844282  0.511888  0.319020  1
  O  O17  1  0.865552  0.054676  0.244764  1
