# generated using pymatgen
data_Co3(OF2)2
_symmetry_space_group_name_H-M   'P 1'
_cell_length_a   4.66753222
_cell_length_b   5.61794661
_cell_length_c   7.63225513
_cell_angle_alpha   86.78490148
_cell_angle_beta   88.40667656
_cell_angle_gamma   88.82150527
_symmetry_Int_Tables_number   1
_chemical_formula_structural   Co3(OF2)2
_chemical_formula_sum   'Co6 O4 F8'
_cell_volume   199.70409853
_cell_formula_units_Z   2
loop_
 _symmetry_equiv_pos_site_id
 _symmetry_equiv_pos_as_xyz
  1  'x, y, z'
loop_
 _atom_site_type_symbol
 _atom_site_label
 _atom_site_symmetry_multiplicity
 _atom_site_fract_x
 _atom_site_fract_y
 _atom_site_fract_z
 _atom_site_occupancy
  Co  Co0  1  0.486302  0.508360  0.005481  1
  Co  Co1  1  0.493233  0.164894  0.335825  1
  Co  Co2  1  0.538257  0.824089  0.665973  1
  Co  Co3  1  0.970671  0.330843  0.674739  1
  Co  Co4  1  0.006154  0.671417  0.338227  1
  Co  Co5  1  0.973891  0.996638  0.977785  1
  O  O6  1  0.791348  0.019622  0.762447  1
  O  O7  1  0.684522  0.547467  0.773446  1
  O  O8  1  0.713070  0.849856  0.445784  1
  O  O9  1  0.302223  0.479271  0.228556  1
  F  F10  1  0.818086  0.359317  0.432296  1
  F  F11  1  0.799093  0.711283  0.101205  1
  F  F12  1  0.699485  0.211925  0.097541  1
  F  F13  1  0.311166  0.113617  0.578681  1
  F  F14  1  0.311380  0.811139  0.887800  1
  F  F15  1  0.189130  0.970678  0.217598  1
  F  F16  1  0.185251  0.297460  0.904515  1
  F  F17  1  0.226738  0.632123  0.572102  1
