# generated using pymatgen
data_Li2VF6
_symmetry_space_group_name_H-M   'P 1'
_cell_length_a   4.94686005
_cell_length_b   4.94686005
_cell_length_c   4.50472224
_cell_angle_alpha   90.00000000
_cell_angle_beta   90.00000000
_cell_angle_gamma   120.00000000
_symmetry_Int_Tables_number   1
_chemical_formula_structural   Li2VF6
_chemical_formula_sum   'Li2 V1 F6'
_cell_volume   95.46801615
_cell_formula_units_Z   1
loop_
 _symmetry_equiv_pos_site_id
 _symmetry_equiv_pos_as_xyz
  1  'x, y, z'
loop_
 _atom_site_type_symbol
 _atom_site_label
 _atom_site_symmetry_multiplicity
 _atom_site_fract_x
 _atom_site_fract_y
 _atom_site_fract_z
 _atom_site_occupancy
  Li  Li0  1  0.333333  0.666667  0.500000  1
  Li  Li1  1  0.666667  0.333333  0.500000  1
  V  V2  1  0.000000  0.000000  0.000000  1
  F  F3  1  0.313122  0.000000  0.752642  1
  F  F4  1  0.000000  0.686878  0.247358  1
  F  F5  1  0.313122  0.313122  0.247358  1
  F  F6  1  0.686878  0.686878  0.752642  1
  F  F7  1  0.000000  0.313122  0.752642  1
  F  F8  1  0.686878  0.000000  0.247358  1
