# generated using pymatgen
data_MgCr3Se3(SO8)3
_symmetry_space_group_name_H-M   'P 1'
_cell_length_a   8.46373597
_cell_length_b   8.46702761
_cell_length_c   8.96349338
_cell_angle_alpha   90.26723700
_cell_angle_beta   117.40927166
_cell_angle_gamma   119.75161064
_symmetry_Int_Tables_number   1
_chemical_formula_structural   MgCr3Se3(SO8)3
_chemical_formula_sum   'Mg1 Cr3 Se3 S3 O24'
_cell_volume   471.88589595
_cell_formula_units_Z   1
loop_
 _symmetry_equiv_pos_site_id
 _symmetry_equiv_pos_as_xyz
  1  'x, y, z'
loop_
 _atom_site_type_symbol
 _atom_site_label
 _atom_site_symmetry_multiplicity
 _atom_site_fract_x
 _atom_site_fract_y
 _atom_site_fract_z
 _atom_site_occupancy
  Mg  Mg0  1  0.710165  0.868440  0.563135  1
  Cr  Cr1  1  0.303774  0.146407  0.450637  1
  Cr  Cr2  1  0.703294  0.346590  0.068124  1
  Cr  Cr3  1  0.292648  0.647845  0.930163  1
  Se  Se4  1  0.790141  0.744590  0.255125  1
  Se  Se5  1  0.788836  0.536437  0.750231  1
  Se  Se6  1  0.205985  0.461924  0.252733  1
  S  S7  1  0.492549  0.963423  0.748494  1
  S  S8  1  0.499366  0.037848  0.248999  1
  S  S9  1  0.223465  0.259156  0.749819  1
  O  O10  1  0.987926  0.973415  0.299834  1
  O  O11  1  0.730830  0.710421  0.407790  1
  O  O12  1  0.709638  0.681423  0.711662  1
  O  O13  1  0.319054  0.980705  0.605291  1
  O  O14  1  0.371999  0.886068  0.080515  1
  O  O15  1  0.868065  0.602280  0.240110  1
  O  O16  1  0.649637  0.991979  0.706509  1
  O  O17  1  0.020106  0.626762  0.760239  1
  O  O18  1  0.829774  0.509456  0.945966  1
  O  O19  1  0.415975  0.306474  0.919049  1
  O  O20  1  0.379627  0.770149  0.764080  1
  O  O21  1  0.618969  0.319881  0.593733  1
  O  O22  1  0.368317  0.669791  0.404338  1
  O  O23  1  0.592370  0.227492  0.220620  1
  O  O24  1  0.587406  0.701483  0.057623  1
  O  O25  1  0.177791  0.473275  0.056160  1
  O  O26  1  0.963936  0.346287  0.227835  1
  O  O27  1  0.340845  0.012868  0.297506  1
  O  O28  1  0.168914  0.397711  0.763243  1
  O  O29  1  0.601041  0.105003  0.917086  1
  O  O30  1  0.669379  0.026372  0.388680  1
  O  O31  1  0.294592  0.316109  0.302229  1
  O  O32  1  0.280161  0.286748  0.609317  1
  O  O33  1  0.043429  0.065191  0.703133  1
