# generated using pymatgen
data_Sb2S19F12
_symmetry_space_group_name_H-M   'P 1'
_cell_length_a   14.83957500
_cell_length_b   13.66747729
_cell_length_c   15.91311699
_cell_angle_alpha   90.00000000
_cell_angle_beta   105.35804594
_cell_angle_gamma   90.00000000
_symmetry_Int_Tables_number   1
_chemical_formula_structural   Sb2S19F12
_chemical_formula_sum   'Sb8 S76 F48'
_cell_volume   3112.23627649
_cell_formula_units_Z   4
loop_
 _symmetry_equiv_pos_site_id
 _symmetry_equiv_pos_as_xyz
  1  'x, y, z'
loop_
 _atom_site_type_symbol
 _atom_site_label
 _atom_site_symmetry_multiplicity
 _atom_site_fract_x
 _atom_site_fract_y
 _atom_site_fract_z
 _atom_site_occupancy
  Sb  Sb0  1  0.027251  0.281346  0.404941  1
  Sb  Sb1  1  0.972749  0.781346  0.095059  1
  Sb  Sb2  1  0.972749  0.718654  0.595059  1
  Sb  Sb3  1  0.027251  0.218654  0.904941  1
  Sb  Sb4  1  0.477009  0.251639  0.473959  1
  Sb  Sb5  1  0.522991  0.751639  0.026041  1
  Sb  Sb6  1  0.522991  0.748361  0.526041  1
  Sb  Sb7  1  0.477009  0.248361  0.973959  1
  S  S8  1  0.593065  0.089841  0.221055  1
  S  S9  1  0.406935  0.589841  0.278945  1
  S  S10  1  0.406935  0.910159  0.778945  1
  S  S11  1  0.593065  0.410159  0.721055  1
  S  S12  1  0.575793  0.983994  0.298497  1
  S  S13  1  0.424207  0.483994  0.201503  1
  S  S14  1  0.424207  0.016006  0.701503  1
  S  S15  1  0.575793  0.516006  0.798497  1
  S  S16  1  0.678399  0.004946  0.419073  1
  S  S17  1  0.321601  0.504946  0.080927  1
  S  S18  1  0.321601  0.995054  0.580927  1
  S  S19  1  0.678399  0.495054  0.919073  1
  S  S20  1  0.766336  0.891684  0.417550  1
  S  S21  1  0.233664  0.391684  0.082450  1
  S  S22  1  0.233664  0.108316  0.582450  1
  S  S23  1  0.766336  0.608316  0.917550  1
  S  S24  1  0.842792  0.930403  0.329277  1
  S  S25  1  0.157208  0.430403  0.170723  1
  S  S26  1  0.157208  0.069597  0.670723  1
  S  S27  1  0.842792  0.569597  0.829277  1
  S  S28  1  0.755344  0.899571  0.210611  1
  S  S29  1  0.244656  0.399571  0.289389  1
  S  S30  1  0.244656  0.100429  0.789389  1
  S  S31  1  0.755344  0.600429  0.710611  1
  S  S32  1  0.703062  0.035131  0.153246  1
  S  S33  1  0.296938  0.535131  0.346754  1
  S  S34  1  0.296938  0.964869  0.846754  1
  S  S35  1  0.703062  0.464869  0.653246  1
  S  S36  1  0.809301  0.137388  0.204026  1
  S  S37  1  0.190699  0.637388  0.295974  1
  S  S38  1  0.190699  0.862612  0.795974  1
  S  S39  1  0.809301  0.362612  0.704026  1
  S  S40  1  0.864583  0.161817  0.100912  1
  S  S41  1  0.135417  0.661817  0.399088  1
  S  S42  1  0.135417  0.838183  0.899088  1
  S  S43  1  0.864583  0.338183  0.600912  1
  S  S44  1  0.800862  0.288299  0.040841  1
  S  S45  1  0.199138  0.788299  0.459159  1
  S  S46  1  0.199138  0.711701  0.959159  1
  S  S47  1  0.800862  0.211701  0.540841  1
  S  S48  1  0.102768  0.898643  0.421429  1
  S  S49  1  0.897232  0.398643  0.078571  1
  S  S50  1  0.897232  0.101357  0.578571  1
  S  S51  1  0.102768  0.601357  0.921429  1
  S  S52  1  0.889447  0.454604  0.196905  1
  S  S53  1  0.110553  0.954604  0.303095  1
  S  S54  1  0.110553  0.545396  0.803095  1
  S  S55  1  0.889447  0.045396  0.696905  1
  S  S56  1  0.783862  0.557966  0.159643  1
  S  S57  1  0.216138  0.057966  0.340357  1
  S  S58  1  0.216138  0.442034  0.840357  1
  S  S59  1  0.783862  0.942034  0.659643  1
  S  S60  1  0.830033  0.650092  0.285299  1
  S  S61  1  0.169967  0.150092  0.214701  1
  S  S62  1  0.169967  0.349908  0.714701  1
  S  S63  1  0.830033  0.849908  0.785299  1
  S  S64  1  0.729824  0.637635  0.344325  1
  S  S65  1  0.270176  0.137635  0.155675  1
  S  S66  1  0.270176  0.362365  0.655675  1
  S  S67  1  0.729824  0.862365  0.844325  1
  S  S68  1  0.763095  0.510107  0.422490  1
  S  S69  1  0.236905  0.010107  0.077510  1
  S  S70  1  0.236905  0.489893  0.577510  1
  S  S71  1  0.763095  0.989893  0.922490  1
  S  S72  1  0.659109  0.418149  0.361083  1
  S  S73  1  0.340891  0.918149  0.138917  1
  S  S74  1  0.340891  0.581851  0.638917  1
  S  S75  1  0.659109  0.081851  0.861083  1
  S  S76  1  0.691437  0.372230  0.245965  1
  S  S77  1  0.308563  0.872230  0.254035  1
  S  S78  1  0.308563  0.627770  0.754035  1
  S  S79  1  0.691437  0.127770  0.745965  1
  S  S80  1  0.343567  0.985252  0.338022  1
  S  S81  1  0.656433  0.485252  0.161978  1
  S  S82  1  0.656433  0.014748  0.661978  1
  S  S83  1  0.343567  0.514748  0.838022  1
  F  F84  1  0.159707  0.263317  0.424571  1
  F  F85  1  0.840293  0.763317  0.075429  1
  F  F86  1  0.840293  0.736683  0.575429  1
  F  F87  1  0.159707  0.236683  0.924571  1
  F  F88  1  0.011189  0.141457  0.409495  1
  F  F89  1  0.988811  0.641457  0.090505  1
  F  F90  1  0.988811  0.858543  0.590505  1
  F  F91  1  0.011189  0.358543  0.909495  1
  F  F92  1  0.011794  0.271754  0.280835  1
  F  F93  1  0.988206  0.771754  0.219165  1
  F  F94  1  0.988206  0.728246  0.719165  1
  F  F95  1  0.011794  0.228246  0.780835  1
  F  F96  1  0.042831  0.288523  0.529090  1
  F  F97  1  0.957169  0.788523  0.970910  1
  F  F98  1  0.957169  0.711477  0.470910  1
  F  F99  1  0.042831  0.211477  0.029090  1
  F  F100  1  0.044134  0.420422  0.399109  1
  F  F101  1  0.955866  0.920422  0.100891  1
  F  F102  1  0.955866  0.579578  0.600891  1
  F  F103  1  0.044134  0.079578  0.899109  1
  F  F104  1  0.894501  0.298964  0.384066  1
  F  F105  1  0.105499  0.798964  0.115934  1
  F  F106  1  0.105499  0.701036  0.615934  1
  F  F107  1  0.894501  0.201036  0.884066  1
  F  F108  1  0.357879  0.202472  0.406026  1
  F  F109  1  0.642121  0.702472  0.093974  1
  F  F110  1  0.642121  0.797528  0.593974  1
  F  F111  1  0.357879  0.297528  0.906026  1
  F  F112  1  0.594885  0.305241  0.540867  1
  F  F113  1  0.405115  0.805241  0.959133  1
  F  F114  1  0.405115  0.694759  0.459133  1
  F  F115  1  0.594885  0.194759  0.040867  1
  F  F116  1  0.437859  0.381102  0.431557  1
  F  F117  1  0.562141  0.881102  0.068443  1
  F  F118  1  0.562141  0.618898  0.568443  1
  F  F119  1  0.437859  0.118898  0.931557  1
  F  F120  1  0.529337  0.230692  0.376825  1
  F  F121  1  0.470663  0.730692  0.123175  1
  F  F122  1  0.470663  0.769308  0.623175  1
  F  F123  1  0.529337  0.269308  0.876825  1
  F  F124  1  0.427248  0.271047  0.572356  1
  F  F125  1  0.572752  0.771047  0.927644  1
  F  F126  1  0.572752  0.728953  0.427644  1
  F  F127  1  0.427248  0.228953  0.072356  1
  F  F128  1  0.514581  0.121535  0.514515  1
  F  F129  1  0.485419  0.621535  0.985485  1
  F  F130  1  0.485419  0.878465  0.485485  1
  F  F131  1  0.514581  0.378465  0.014515  1
