# generated using pymatgen
data_Li4Mn5Ni3O16
_symmetry_space_group_name_H-M   'P 1'
_cell_length_a   5.80788344
_cell_length_b   5.80788344
_cell_length_c   9.36856887
_cell_angle_alpha   88.35905733
_cell_angle_beta   91.64094267
_cell_angle_gamma   120.67541630
_symmetry_Int_Tables_number   1
_chemical_formula_structural   Li4Mn5Ni3O16
_chemical_formula_sum   'Li4 Mn5 Ni3 O16'
_cell_volume   271.64863025
_cell_formula_units_Z   1
loop_
 _symmetry_equiv_pos_site_id
 _symmetry_equiv_pos_as_xyz
  1  'x, y, z'
loop_
 _atom_site_type_symbol
 _atom_site_label
 _atom_site_symmetry_multiplicity
 _atom_site_fract_x
 _atom_site_fract_y
 _atom_site_fract_z
 _atom_site_occupancy
  Li  Li0  1  0.663100  0.336900  0.896999  1
  Li  Li1  1  0.994148  0.005852  0.990963  1
  Li  Li2  1  0.001402  0.998598  0.496648  1
  Li  Li3  1  0.333128  0.666872  0.399221  1
  Mn  Mn4  1  0.339054  0.168297  0.213579  1
  Mn  Mn5  1  0.671533  0.328467  0.487098  1
  Mn  Mn6  1  0.831703  0.660946  0.213579  1
  Mn  Mn7  1  0.172564  0.827436  0.715069  1
  Mn  Mn8  1  0.337313  0.662687  0.983086  1
  Ni  Ni9  1  0.829742  0.170258  0.211907  1
  Ni  Ni10  1  0.168994  0.337983  0.711555  1
  Ni  Ni11  1  0.662017  0.831006  0.711555  1
  O  O12  1  0.341854  0.158976  0.597727  1
  O  O13  1  0.519149  0.480851  0.337226  1
  O  O14  1  0.657987  0.342013  0.105894  1
  O  O15  1  0.005157  0.994843  0.307354  1
  O  O16  1  0.003784  0.996216  0.801200  1
  O  O17  1  0.841024  0.658146  0.597727  1
  O  O18  1  0.508674  0.038723  0.346193  1
  O  O19  1  0.961277  0.491326  0.346193  1
  O  O20  1  0.162996  0.837004  0.102081  1
  O  O21  1  0.837244  0.162756  0.593216  1
  O  O22  1  0.035169  0.528065  0.847402  1
  O  O23  1  0.471935  0.964831  0.847402  1
  O  O24  1  0.330784  0.669216  0.610409  1
  O  O25  1  0.174660  0.333050  0.095722  1
  O  O26  1  0.476339  0.523661  0.845118  1
  O  O27  1  0.666950  0.825340  0.095722  1
