# generated using pymatgen
data_Ce3TaO7
_symmetry_space_group_name_H-M   'P 1'
_cell_length_a   6.67661870
_cell_length_b   6.67661870
_cell_length_c   7.71567181
_cell_angle_alpha   90.00000000
_cell_angle_beta   90.00000000
_cell_angle_gamma   111.53343995
_symmetry_Int_Tables_number   1
_chemical_formula_structural   Ce3TaO7
_chemical_formula_sum   'Ce6 Ta2 O14'
_cell_volume   319.93729424
_cell_formula_units_Z   2
loop_
 _symmetry_equiv_pos_site_id
 _symmetry_equiv_pos_as_xyz
  1  'x, y, z'
loop_
 _atom_site_type_symbol
 _atom_site_label
 _atom_site_symmetry_multiplicity
 _atom_site_fract_x
 _atom_site_fract_y
 _atom_site_fract_z
 _atom_site_occupancy
  Ce  Ce0  1  0.525987  0.069190  0.250000  1
  Ce  Ce1  1  0.930810  0.474013  0.750000  1
  Ce  Ce2  1  0.000000  0.000000  0.000000  1
  Ce  Ce3  1  0.000000  0.000000  0.500000  1
  Ce  Ce4  1  0.069190  0.525987  0.250000  1
  Ce  Ce5  1  0.474013  0.930810  0.750000  1
  Ta  Ta6  1  0.500000  0.500000  0.000000  1
  Ta  Ta7  1  0.500000  0.500000  0.500000  1
  O  O8  1  0.842163  0.103333  0.750000  1
  O  O9  1  0.896667  0.157837  0.250000  1
  O  O10  1  0.437119  0.181830  0.537493  1
  O  O11  1  0.818170  0.562881  0.037493  1
  O  O12  1  0.818170  0.562881  0.462507  1
  O  O13  1  0.437119  0.181830  0.962507  1
  O  O14  1  0.570185  0.570185  0.750000  1
  O  O15  1  0.429815  0.429815  0.250000  1
  O  O16  1  0.181830  0.437119  0.962507  1
  O  O17  1  0.562881  0.818170  0.037493  1
  O  O18  1  0.181830  0.437119  0.537493  1
  O  O19  1  0.562881  0.818170  0.462507  1
  O  O20  1  0.103333  0.842163  0.750000  1
  O  O21  1  0.157837  0.896667  0.250000  1
