# generated using pymatgen
data_BaCaI4
_symmetry_space_group_name_H-M   'P 1'
_cell_length_a   10.31772032
_cell_length_b   10.31772032
_cell_length_c   10.31772032
_cell_angle_alpha   133.39603558
_cell_angle_beta   133.39603558
_cell_angle_gamma   68.03287892
_symmetry_Int_Tables_number   1
_chemical_formula_structural   BaCaI4
_chemical_formula_sum   'Ba2 Ca2 I8'
_cell_volume   569.85459786
_cell_formula_units_Z   2
loop_
 _symmetry_equiv_pos_site_id
 _symmetry_equiv_pos_as_xyz
  1  'x, y, z'
loop_
 _atom_site_type_symbol
 _atom_site_label
 _atom_site_symmetry_multiplicity
 _atom_site_fract_x
 _atom_site_fract_y
 _atom_site_fract_z
 _atom_site_occupancy
  Ba  Ba0  1  0.250000  0.750000  0.500000  1
  Ba  Ba1  1  0.500000  0.500000  0.000000  1
  Ca  Ca2  1  0.000000  0.000000  0.000000  1
  Ca  Ca3  1  0.750000  0.250000  0.500000  1
  I  I4  1  0.109156  0.161576  0.599328  1
  I  I5  1  0.911576  0.812248  0.552420  1
  I  I6  1  0.259828  0.359156  0.447580  1
  I  I7  1  0.187752  0.740172  0.099328  1
  I  I8  1  0.562248  0.509828  0.400672  1
  I  I9  1  0.490172  0.890844  0.052420  1
  I  I10  1  0.838424  0.437752  0.947580  1
  I  I11  1  0.640844  0.088424  0.900672  1
