# generated using pymatgen
data_Li3V5O14
_symmetry_space_group_name_H-M   'P 1'
_cell_length_a   8.77079199
_cell_length_b   8.77079199
_cell_length_c   4.89228141
_cell_angle_alpha   90.00000000
_cell_angle_beta   90.00000000
_cell_angle_gamma   120.00000000
_symmetry_Int_Tables_number   1
_chemical_formula_structural   Li3V5O14
_chemical_formula_sum   'Li3 V5 O14'
_cell_volume   325.92650853
_cell_formula_units_Z   1
loop_
 _symmetry_equiv_pos_site_id
 _symmetry_equiv_pos_as_xyz
  1  'x, y, z'
loop_
 _atom_site_type_symbol
 _atom_site_label
 _atom_site_symmetry_multiplicity
 _atom_site_fract_x
 _atom_site_fract_y
 _atom_site_fract_z
 _atom_site_occupancy
  Li  Li0  1  0.000000  0.617998  0.165589  1
  Li  Li1  1  0.382002  0.382002  0.165589  1
  Li  Li2  1  0.617998  0.000000  0.165589  1
  V  V3  1  0.000000  0.224893  0.436190  1
  V  V4  1  0.333333  0.666667  0.461778  1
  V  V5  1  0.224893  0.000000  0.436190  1
  V  V6  1  0.775107  0.775107  0.436190  1
  V  V7  1  0.666667  0.333333  0.461778  1
  O  O8  1  0.000000  0.825194  0.334796  1
  O  O9  1  0.000000  0.226154  0.767654  1
  O  O10  1  0.296193  0.833161  0.326835  1
  O  O11  1  0.166839  0.463032  0.326835  1
  O  O12  1  0.333333  0.666667  0.797844  1
  O  O13  1  0.174806  0.174806  0.334796  1
  O  O14  1  0.536968  0.703807  0.326835  1
  O  O15  1  0.226154  0.000000  0.767654  1
  O  O16  1  0.773846  0.773846  0.767654  1
  O  O17  1  0.463032  0.166839  0.326835  1
  O  O18  1  0.703807  0.536968  0.326835  1
  O  O19  1  0.666667  0.333333  0.797844  1
  O  O20  1  0.833161  0.296193  0.326835  1
  O  O21  1  0.825194  0.000000  0.334796  1
