# generated using pymatgen
data_Sr2Hf7O16
_symmetry_space_group_name_H-M   'P 1'
_cell_length_a   9.67270394
_cell_length_b   9.67270394
_cell_length_c   9.67270394
_cell_angle_alpha   38.67730624
_cell_angle_beta   38.67730624
_cell_angle_gamma   38.67730624
_symmetry_Int_Tables_number   1
_chemical_formula_structural   Sr2Hf7O16
_chemical_formula_sum   'Sr2 Hf7 O16'
_cell_volume   317.65878395
_cell_formula_units_Z   1
loop_
 _symmetry_equiv_pos_site_id
 _symmetry_equiv_pos_as_xyz
  1  'x, y, z'
loop_
 _atom_site_type_symbol
 _atom_site_label
 _atom_site_symmetry_multiplicity
 _atom_site_fract_x
 _atom_site_fract_y
 _atom_site_fract_z
 _atom_site_occupancy
  Sr  Sr0  1  0.333365  0.333365  0.333365  1
  Sr  Sr1  1  0.666635  0.666635  0.666635  1
  Hf  Hf2  1  0.000000  0.000000  1.000000  1
  Hf  Hf3  1  0.253677  0.513970  0.886234  1
  Hf  Hf4  1  0.113766  0.746323  0.486030  1
  Hf  Hf5  1  0.486030  0.113766  0.746323  1
  Hf  Hf6  1  0.513970  0.886234  0.253677  1
  Hf  Hf7  1  0.886234  0.253677  0.513970  1
  Hf  Hf8  1  0.746323  0.486030  0.113766  1
  O  O9  1  0.235546  0.235546  0.235546  1
  O  O10  1  0.228023  0.678819  0.964684  1
  O  O11  1  0.150459  0.412090  0.847981  1
  O  O12  1  0.152019  0.849541  0.587910  1
  O  O13  1  0.035316  0.771977  0.321181  1
  O  O14  1  0.321181  0.035316  0.771977  1
  O  O15  1  0.587910  0.152019  0.849541  1
  O  O16  1  0.570894  0.570894  0.570894  1
  O  O17  1  0.429106  0.429106  0.429106  1
  O  O18  1  0.412090  0.847981  0.150459  1
  O  O19  1  0.678819  0.964684  0.228023  1
  O  O20  1  0.964684  0.228023  0.678819  1
  O  O21  1  0.847981  0.150459  0.412090  1
  O  O22  1  0.849541  0.587910  0.152019  1
  O  O23  1  0.771977  0.321181  0.035316  1
  O  O24  1  0.764454  0.764454  0.764454  1
