# generated using pymatgen
data_Li3V3P8O29
_symmetry_space_group_name_H-M   'P 1'
_cell_length_a   9.75467064
_cell_length_b   9.75467064
_cell_length_c   13.99752570
_cell_angle_alpha   89.41117806
_cell_angle_beta   90.58882194
_cell_angle_gamma   120.17897645
_symmetry_Int_Tables_number   1
_chemical_formula_structural   Li3V3P8O29
_chemical_formula_sum   'Li6 V6 P16 O58'
_cell_volume   1151.30536625
_cell_formula_units_Z   2
loop_
 _symmetry_equiv_pos_site_id
 _symmetry_equiv_pos_as_xyz
  1  'x, y, z'
loop_
 _atom_site_type_symbol
 _atom_site_label
 _atom_site_symmetry_multiplicity
 _atom_site_fract_x
 _atom_site_fract_y
 _atom_site_fract_z
 _atom_site_occupancy
  Li  Li0  1  0.764082  0.096725  0.439660  1
  Li  Li1  1  0.235918  0.903275  0.560340  1
  Li  Li2  1  0.000000  0.000000  0.000000  1
  Li  Li3  1  0.096725  0.764082  0.060340  1
  Li  Li4  1  0.903275  0.235918  0.939660  1
  Li  Li5  1  0.000000  1.000000  0.500000  1
  V  V6  1  0.562522  0.993530  0.244290  1
  V  V7  1  0.437189  0.437189  0.250000  1
  V  V8  1  0.562811  0.562811  0.750000  1
  V  V9  1  0.437478  0.006470  0.755710  1
  V  V10  1  0.006470  0.437478  0.744290  1
  V  V11  1  0.993530  0.562522  0.255710  1
  P  P12  1  0.694567  0.777152  0.344384  1
  P  P13  1  0.086627  0.771174  0.843834  1
  P  P14  1  0.309198  0.088239  0.159454  1
  P  P15  1  0.771174  0.086627  0.656166  1
  P  P16  1  0.672939  0.336992  0.871450  1
  P  P17  1  0.777152  0.694567  0.155616  1
  P  P18  1  0.088239  0.309198  0.340546  1
  P  P19  1  0.913373  0.228826  0.156166  1
  P  P20  1  0.228826  0.913373  0.343834  1
  P  P21  1  0.690802  0.911761  0.840546  1
  P  P22  1  0.336992  0.672939  0.628550  1
  P  P23  1  0.663008  0.327061  0.371450  1
  P  P24  1  0.327061  0.663008  0.128550  1
  P  P25  1  0.222848  0.305433  0.844384  1
  P  P26  1  0.305433  0.222848  0.655616  1
  P  P27  1  0.911761  0.690802  0.659454  1
  O  O28  1  0.532148  0.912961  0.827612  1
  O  O29  1  0.464429  0.381812  0.671759  1
  O  O30  1  0.616011  0.088778  0.673652  1
  O  O31  1  0.087039  0.467852  0.327612  1
  O  O32  1  0.983286  0.221157  0.064115  1
  O  O33  1  0.381812  0.464429  0.828241  1
  O  O34  1  0.344966  0.260881  0.164354  1
  O  O35  1  0.535571  0.618188  0.328241  1
  O  O36  1  0.813613  0.478510  0.324842  1
  O  O37  1  0.787113  0.792279  0.431694  1
  O  O38  1  0.912628  0.259150  0.668070  1
  O  O39  1  0.467852  0.087039  0.172388  1
  O  O40  1  0.618188  0.535571  0.171759  1
  O  O41  1  0.087372  0.740850  0.331930  1
  O  O42  1  0.221157  0.983286  0.435885  1
  O  O43  1  0.995155  0.212080  0.423736  1
  O  O44  1  0.991844  0.791507  0.756035  1
  O  O45  1  0.519972  0.332851  0.323970  1
  O  O46  1  0.008156  0.208493  0.243965  1
  O  O47  1  0.916246  0.657441  0.163840  1
  O  O48  1  0.207721  0.212887  0.931694  1
  O  O49  1  0.740850  0.087372  0.168070  1
  O  O50  1  0.667893  0.180874  0.330027  1
  O  O51  1  0.655034  0.739119  0.835646  1
  O  O52  1  0.180874  0.667893  0.169973  1
  O  O53  1  0.521490  0.186387  0.824842  1
  O  O54  1  0.016714  0.778843  0.935885  1
  O  O55  1  0.911222  0.383989  0.173652  1
  O  O56  1  0.212887  0.207721  0.568306  1
  O  O57  1  0.088778  0.616011  0.826348  1
  O  O58  1  0.819126  0.332107  0.830027  1
  O  O59  1  0.478510  0.813613  0.175158  1
  O  O60  1  0.667149  0.480028  0.823970  1
  O  O61  1  0.202783  0.202783  0.750000  1
  O  O62  1  0.787920  0.004845  0.923736  1
  O  O63  1  0.778843  0.016714  0.564115  1
  O  O64  1  0.208493  0.008156  0.256035  1
  O  O65  1  0.791507  0.991844  0.743965  1
  O  O66  1  0.383989  0.911222  0.326348  1
  O  O67  1  0.668656  0.328449  0.977032  1
  O  O68  1  0.671551  0.331344  0.477032  1
  O  O69  1  0.259150  0.912628  0.831930  1
  O  O70  1  0.332107  0.819126  0.669973  1
  O  O71  1  0.212080  0.995155  0.076264  1
  O  O72  1  0.331344  0.671551  0.022968  1
  O  O73  1  0.004845  0.787920  0.576264  1
  O  O74  1  0.739119  0.655034  0.664354  1
  O  O75  1  0.797217  0.797217  0.250000  1
  O  O76  1  0.480028  0.667149  0.676030  1
  O  O77  1  0.792279  0.787113  0.068306  1
  O  O78  1  0.342559  0.083754  0.663840  1
  O  O79  1  0.332851  0.519972  0.176030  1
  O  O80  1  0.260881  0.344966  0.335646  1
  O  O81  1  0.657441  0.916246  0.336160  1
  O  O82  1  0.328449  0.668656  0.522968  1
  O  O83  1  0.186387  0.521490  0.675158  1
  O  O84  1  0.912961  0.532148  0.672388  1
  O  O85  1  0.083754  0.342559  0.836160  1
