# generated using pymatgen
data_Li3CuS3
_symmetry_space_group_name_H-M   'P 1'
_cell_length_a   10.78597665
_cell_length_b   10.78597665
_cell_length_c   4.49166332
_cell_angle_alpha   90.00000000
_cell_angle_beta   90.00000000
_cell_angle_gamma   90.00000000
_symmetry_Int_Tables_number   1
_chemical_formula_structural   Li3CuS3
_chemical_formula_sum   'Li12 Cu4 S12'
_cell_volume   522.54794855
_cell_formula_units_Z   4
loop_
 _symmetry_equiv_pos_site_id
 _symmetry_equiv_pos_as_xyz
  1  'x, y, z'
loop_
 _atom_site_type_symbol
 _atom_site_label
 _atom_site_symmetry_multiplicity
 _atom_site_fract_x
 _atom_site_fract_y
 _atom_site_fract_z
 _atom_site_occupancy
  Li  Li0  1  0.358934  0.109519  0.500000  1
  Li  Li1  1  0.609518  0.141066  0.000000  1
  Li  Li2  1  0.161900  0.161900  0.000000  1
  Li  Li3  1  0.661900  0.338100  0.500000  1
  Li  Li4  1  0.109519  0.358934  0.500000  1
  Li  Li5  1  0.858934  0.390481  0.000000  1
  Li  Li6  1  0.141066  0.609518  0.000000  1
  Li  Li7  1  0.890482  0.641066  0.500000  1
  Li  Li8  1  0.338100  0.661900  0.500000  1
  Li  Li9  1  0.838100  0.838100  0.000000  1
  Li  Li10  1  0.390481  0.858934  0.000000  1
  Li  Li11  1  0.641066  0.890482  0.500000  1
  Cu  Cu12  1  0.887096  0.112904  0.500000  1
  Cu  Cu13  1  0.387096  0.387096  0.000000  1
  Cu  Cu14  1  0.612904  0.612904  0.000000  1
  Cu  Cu15  1  0.112904  0.887096  0.500000  1
  S  S16  1  0.094687  0.094687  0.500000  1
  S  S17  1  0.679724  0.110929  0.500000  1
  S  S18  1  0.389071  0.179724  0.000000  1
  S  S19  1  0.889071  0.320276  0.500000  1
  S  S20  1  0.179724  0.389071  0.000000  1
  S  S21  1  0.594687  0.405313  0.000000  1
  S  S22  1  0.405313  0.594687  0.000000  1
  S  S23  1  0.820276  0.610929  0.000000  1
  S  S24  1  0.110929  0.679724  0.500000  1
  S  S25  1  0.610929  0.820276  0.000000  1
  S  S26  1  0.320276  0.889071  0.500000  1
  S  S27  1  0.905313  0.905313  0.500000  1
