# generated using pymatgen
data_Cu2O3
_symmetry_space_group_name_H-M   'P 1'
_cell_length_a   5.34383260
_cell_length_b   7.10305282
_cell_length_c   7.24150865
_cell_angle_alpha   90.00000000
_cell_angle_beta   127.29940806
_cell_angle_gamma   90.00000000
_symmetry_Int_Tables_number   1
_chemical_formula_structural   Cu2O3
_chemical_formula_sum   'Cu8 O12'
_cell_volume   218.65331546
_cell_formula_units_Z   4
loop_
 _symmetry_equiv_pos_site_id
 _symmetry_equiv_pos_as_xyz
  1  'x, y, z'
loop_
 _atom_site_type_symbol
 _atom_site_label
 _atom_site_symmetry_multiplicity
 _atom_site_fract_x
 _atom_site_fract_y
 _atom_site_fract_z
 _atom_site_occupancy
  Cu  Cu0  1  0.120618  0.012877  0.863115  1
  Cu  Cu1  1  0.120618  0.487123  0.363115  1
  Cu  Cu2  1  0.506856  0.255588  0.764411  1
  Cu  Cu3  1  0.493144  0.755588  0.735589  1
  Cu  Cu4  1  0.506856  0.244412  0.264411  1
  Cu  Cu5  1  0.493144  0.744412  0.235589  1
  Cu  Cu6  1  0.879382  0.512877  0.636885  1
  Cu  Cu7  1  0.879382  0.987123  0.136885  1
  O  O8  1  0.997335  0.077144  0.559207  1
  O  O9  1  0.488258  0.818690  0.983951  1
  O  O10  1  0.997335  0.422856  0.059207  1
  O  O11  1  0.280711  0.506407  0.687856  1
  O  O12  1  0.719289  0.006407  0.812144  1
  O  O13  1  0.488258  0.681310  0.483951  1
  O  O14  1  0.511742  0.318690  0.516049  1
  O  O15  1  0.280711  0.993593  0.187856  1
  O  O16  1  0.719289  0.493593  0.312144  1
  O  O17  1  0.002665  0.577144  0.940793  1
  O  O18  1  0.511742  0.181310  0.016049  1
  O  O19  1  0.002665  0.922856  0.440793  1
