# generated using pymatgen
data_AlH3NCl3
_symmetry_space_group_name_H-M   'P 1'
_cell_length_a   10.10941906
_cell_length_b   10.42195597
_cell_length_c   11.73543266
_cell_angle_alpha   90.00000000
_cell_angle_beta   90.00000000
_cell_angle_gamma   90.00000000
_symmetry_Int_Tables_number   1
_chemical_formula_structural   AlH3NCl3
_chemical_formula_sum   'Al8 H24 N8 Cl24'
_cell_volume   1236.44425004
_cell_formula_units_Z   8
loop_
 _symmetry_equiv_pos_site_id
 _symmetry_equiv_pos_as_xyz
  1  'x, y, z'
loop_
 _atom_site_type_symbol
 _atom_site_label
 _atom_site_symmetry_multiplicity
 _atom_site_fract_x
 _atom_site_fract_y
 _atom_site_fract_z
 _atom_site_occupancy
  Al  Al0  1  0.177357  0.597840  0.669668  1
  Al  Al1  1  0.177357  0.902160  0.169668  1
  Al  Al2  1  0.322643  0.097840  0.669668  1
  Al  Al3  1  0.322643  0.402160  0.169668  1
  Al  Al4  1  0.677357  0.597840  0.830332  1
  Al  Al5  1  0.677357  0.902160  0.330332  1
  Al  Al6  1  0.822643  0.097840  0.830332  1
  Al  Al7  1  0.822643  0.402160  0.330332  1
  H  H8  1  0.986542  0.748874  0.144105  1
  H  H9  1  0.986542  0.751126  0.644105  1
  H  H10  1  0.036595  0.795664  0.016956  1
  H  H11  1  0.036595  0.704336  0.516956  1
  H  H12  1  0.118916  0.683662  0.086475  1
  H  H13  1  0.118916  0.816338  0.586475  1
  H  H14  1  0.381084  0.183662  0.086475  1
  H  H15  1  0.381084  0.316338  0.586475  1
  H  H16  1  0.463405  0.204336  0.516956  1
  H  H17  1  0.463405  0.295664  0.016956  1
  H  H18  1  0.513458  0.248874  0.144105  1
  H  H19  1  0.513458  0.251126  0.644105  1
  H  H20  1  0.486542  0.748874  0.355895  1
  H  H21  1  0.486542  0.751126  0.855895  1
  H  H22  1  0.536595  0.704336  0.983044  1
  H  H23  1  0.536595  0.795664  0.483044  1
  H  H24  1  0.618916  0.683662  0.413525  1
  H  H25  1  0.618916  0.816338  0.913525  1
  H  H26  1  0.881084  0.183662  0.413525  1
  H  H27  1  0.881084  0.316338  0.913525  1
  H  H28  1  0.963405  0.204336  0.983044  1
  H  H29  1  0.963405  0.295664  0.483044  1
  H  H30  1  0.013458  0.251126  0.855895  1
  H  H31  1  0.013458  0.248874  0.355895  1
  N  N32  1  0.069431  0.769525  0.096589  1
  N  N33  1  0.069431  0.730475  0.596589  1
  N  N34  1  0.430569  0.230475  0.596589  1
  N  N35  1  0.430569  0.269525  0.096589  1
  N  N36  1  0.569431  0.769525  0.403411  1
  N  N37  1  0.569431  0.730475  0.903411  1
  N  N38  1  0.930569  0.230475  0.903411  1
  N  N39  1  0.930569  0.269525  0.403411  1
  Cl  Cl40  1  0.053823  0.069524  0.168713  1
  Cl  Cl41  1  0.053823  0.430476  0.668713  1
  Cl  Cl42  1  0.150371  0.426442  0.066624  1
  Cl  Cl43  1  0.150371  0.073558  0.566624  1
  Cl  Cl44  1  0.221680  0.674766  0.834074  1
  Cl  Cl45  1  0.221680  0.825234  0.334074  1
  Cl  Cl46  1  0.278320  0.174766  0.834074  1
  Cl  Cl47  1  0.278320  0.325234  0.334074  1
  Cl  Cl48  1  0.349629  0.573558  0.566624  1
  Cl  Cl49  1  0.349629  0.926442  0.066624  1
  Cl  Cl50  1  0.446177  0.569524  0.168713  1
  Cl  Cl51  1  0.446177  0.930476  0.668713  1
  Cl  Cl52  1  0.553823  0.069524  0.331287  1
  Cl  Cl53  1  0.553823  0.430476  0.831287  1
  Cl  Cl54  1  0.650371  0.426442  0.433376  1
  Cl  Cl55  1  0.650371  0.073558  0.933376  1
  Cl  Cl56  1  0.721680  0.674766  0.665926  1
  Cl  Cl57  1  0.721680  0.825234  0.165926  1
  Cl  Cl58  1  0.778320  0.325234  0.165926  1
  Cl  Cl59  1  0.778320  0.174766  0.665926  1
  Cl  Cl60  1  0.849629  0.573558  0.933376  1
  Cl  Cl61  1  0.849629  0.926442  0.433376  1
  Cl  Cl62  1  0.946177  0.930476  0.831287  1
  Cl  Cl63  1  0.946177  0.569524  0.331287  1
