# generated using pymatgen
data_VOF3
_symmetry_space_group_name_H-M   'P 1'
_cell_length_a   5.34303499
_cell_length_b   5.56106562
_cell_length_c   9.63472496
_cell_angle_alpha   88.77500834
_cell_angle_beta   87.73720590
_cell_angle_gamma   88.66472761
_symmetry_Int_Tables_number   1
_chemical_formula_structural   VOF3
_chemical_formula_sum   'V4 O4 F12'
_cell_volume   285.91539456
_cell_formula_units_Z   4
loop_
 _symmetry_equiv_pos_site_id
 _symmetry_equiv_pos_as_xyz
  1  'x, y, z'
loop_
 _atom_site_type_symbol
 _atom_site_label
 _atom_site_symmetry_multiplicity
 _atom_site_fract_x
 _atom_site_fract_y
 _atom_site_fract_z
 _atom_site_occupancy
  V  V0  1  0.478944  0.781318  0.773400  1
  V  V1  1  0.035702  0.533971  0.527218  1
  V  V2  1  0.543086  0.263090  0.276460  1
  V  V3  1  0.021055  0.035584  0.020327  1
  O  O4  1  0.284007  0.949041  0.871531  1
  O  O5  1  0.211364  0.695071  0.625353  1
  O  O6  1  0.781061  0.293531  0.371192  1
  O  O7  1  0.196477  0.192786  0.113012  1
  F  F8  1  0.401443  0.994333  0.339109  1
  F  F9  1  0.763915  0.789964  0.865520  1
  F  F10  1  0.930560  0.742252  0.399320  1
  F  F11  1  0.056138  0.735459  0.082879  1
  F  F12  1  0.734520  0.538810  0.620575  1
  F  F13  1  0.563969  0.502328  0.151959  1
  F  F14  1  0.414595  0.484632  0.830698  1
  F  F15  1  0.297308  0.450422  0.377286  1
  F  F16  1  0.889472  0.241289  0.898527  1
  F  F17  1  0.099391  0.234378  0.583581  1
  F  F18  1  0.711343  0.058714  0.131021  1
  F  F19  1  0.585647  0.983029  0.641034  1
