# generated using pymatgen
data_Hf2N2O
_symmetry_space_group_name_H-M   'P 1'
_cell_length_a   8.69348578
_cell_length_b   8.73050159
_cell_length_c   8.74511553
_cell_angle_alpha   109.36119388
_cell_angle_beta   109.50726844
_cell_angle_gamma   109.37724804
_symmetry_Int_Tables_number   1
_chemical_formula_structural   Hf2N2O
_chemical_formula_sum   'Hf16 N16 O8'
_cell_volume   512.00369541
_cell_formula_units_Z   8
loop_
 _symmetry_equiv_pos_site_id
 _symmetry_equiv_pos_as_xyz
  1  'x, y, z'
loop_
 _atom_site_type_symbol
 _atom_site_label
 _atom_site_symmetry_multiplicity
 _atom_site_fract_x
 _atom_site_fract_y
 _atom_site_fract_z
 _atom_site_occupancy
  Hf  Hf0  1  0.998418  0.009859  0.499783  1
  Hf  Hf1  1  0.251528  0.706700  0.464376  1
  Hf  Hf2  1  0.778792  0.530556  0.251703  1
  Hf  Hf3  1  0.285399  0.042568  0.249046  1
  Hf  Hf4  1  0.739877  0.786462  0.034503  1
  Hf  Hf5  1  0.031598  0.260216  0.284406  1
  Hf  Hf6  1  0.535129  0.253439  0.784162  1
  Hf  Hf7  1  0.966442  0.741669  0.714481  1
  Hf  Hf8  1  0.003719  0.490296  0.994716  1
  Hf  Hf9  1  0.499537  0.999410  0.001825  1
  Hf  Hf10  1  0.467197  0.741644  0.212767  1
  Hf  Hf11  1  0.489129  0.489937  0.488824  1
  Hf  Hf12  1  0.258756  0.215679  0.967124  1
  Hf  Hf13  1  0.214755  0.462141  0.749721  1
  Hf  Hf14  1  0.715360  0.969198  0.750818  1
  Hf  Hf15  1  0.755466  0.293013  0.542681  1
  N  N16  1  0.732065  0.760858  0.271315  1
  N  N17  1  0.227797  0.955358  0.965528  1
  N  N18  1  0.538343  0.273157  0.043828  1
  N  N19  1  0.512420  0.745040  0.470905  1
  N  N20  1  0.989903  0.464869  0.230764  1
  N  N21  1  0.267857  0.232158  0.724467  1
  N  N22  1  0.487382  0.258316  0.531078  1
  N  N23  1  0.257524  0.271547  0.227790  1
  N  N24  1  0.774977  0.226483  0.767890  1
  N  N25  1  0.773104  0.041448  0.031080  1
  N  N26  1  0.466901  0.729083  0.955159  1
  N  N27  1  0.241152  0.467200  0.018012  1
  N  N28  1  0.009728  0.544410  0.774782  1
  N  N29  1  0.730692  0.493781  0.457366  1
  N  N30  1  0.274142  0.516358  0.549009  1
  N  N31  1  0.945879  0.219014  0.481107  1
  O  O32  1  0.958618  0.002271  0.729631  1
  O  O33  1  0.039248  0.984380  0.266287  1
  O  O34  1  0.450806  0.965285  0.728019  1
  O  O35  1  0.057513  0.782262  0.523717  1
  O  O36  1  0.748648  0.729881  0.778560  1
  O  O37  1  0.756679  0.535286  0.977031  1
  O  O38  1  0.540984  0.032072  0.269528  1
  O  O39  1  0.226530  0.776693  0.236211  1
