# generated using pymatgen
data_Li3Cr(FeO2)4
_symmetry_space_group_name_H-M   'P 1'
_cell_length_a   5.99666468
_cell_length_b   5.99666468
_cell_length_c   6.07025178
_cell_angle_alpha   59.87630717
_cell_angle_beta   120.12369283
_cell_angle_gamma   120.01996966
_symmetry_Int_Tables_number   1
_chemical_formula_structural   Li3Cr(FeO2)4
_chemical_formula_sum   'Li3 Cr1 Fe4 O8'
_cell_volume   154.03925025
_cell_formula_units_Z   1
loop_
 _symmetry_equiv_pos_site_id
 _symmetry_equiv_pos_as_xyz
  1  'x, y, z'
loop_
 _atom_site_type_symbol
 _atom_site_label
 _atom_site_symmetry_multiplicity
 _atom_site_fract_x
 _atom_site_fract_y
 _atom_site_fract_z
 _atom_site_occupancy
  Li  Li0  1  0.500000  0.000000  0.000000  1
  Li  Li1  1  0.000000  0.000000  0.500000  1
  Li  Li2  1  0.000000  0.500000  0.000000  1
  Cr  Cr3  1  0.500000  0.500000  0.000000  1
  Fe  Fe4  1  0.500000  0.500000  0.500000  1
  Fe  Fe5  1  0.000000  0.000000  0.000000  1
  Fe  Fe6  1  0.500000  0.000000  0.500000  1
  Fe  Fe7  1  0.000000  0.500000  0.500000  1
  O  O8  1  0.739336  0.260664  0.257146  1
  O  O9  1  0.252132  0.248270  0.770374  1
  O  O10  1  0.751730  0.747868  0.770374  1
  O  O11  1  0.247734  0.752266  0.253957  1
  O  O12  1  0.752266  0.247734  0.746043  1
  O  O13  1  0.248270  0.252132  0.229626  1
  O  O14  1  0.747868  0.751730  0.229626  1
  O  O15  1  0.260664  0.739336  0.742854  1
