# generated using pymatgen
data_Al2O3
_symmetry_space_group_name_H-M   'P 1'
_cell_length_a   6.09211383
_cell_length_b   6.09211383
_cell_length_c   6.09211383
_cell_angle_alpha   28.84499823
_cell_angle_beta   28.84499823
_cell_angle_gamma   28.84499823
_symmetry_Int_Tables_number   1
_chemical_formula_structural   Al2O3
_chemical_formula_sum   'Al2 O3'
_cell_volume   46.53615260
_cell_formula_units_Z   1
loop_
 _symmetry_equiv_pos_site_id
 _symmetry_equiv_pos_as_xyz
  1  'x, y, z'
loop_
 _atom_site_type_symbol
 _atom_site_label
 _atom_site_symmetry_multiplicity
 _atom_site_fract_x
 _atom_site_fract_y
 _atom_site_fract_z
 _atom_site_occupancy
  Al  Al0  1  0.192889  0.192889  0.192889  1
  Al  Al1  1  0.693184  0.693184  0.693184  1
  O  O2  1  0.028330  0.028330  0.028330  1
  O  O3  1  0.582117  0.582117  0.582117  1
  O  O4  1  0.806480  0.806480  0.806480  1
