# generated using pymatgen
data_Li5MnCr3O8
_symmetry_space_group_name_H-M   'P 1'
_cell_length_a   6.00197345
_cell_length_b   6.00197345
_cell_length_c   9.94109562
_cell_angle_alpha   90.00000000
_cell_angle_beta   90.00000000
_cell_angle_gamma   120.00000000
_symmetry_Int_Tables_number   1
_chemical_formula_structural   Li5MnCr3O8
_chemical_formula_sum   'Li10 Mn2 Cr6 O16'
_cell_volume   310.13660154
_cell_formula_units_Z   2
loop_
 _symmetry_equiv_pos_site_id
 _symmetry_equiv_pos_as_xyz
  1  'x, y, z'
loop_
 _atom_site_type_symbol
 _atom_site_label
 _atom_site_symmetry_multiplicity
 _atom_site_fract_x
 _atom_site_fract_y
 _atom_site_fract_z
 _atom_site_occupancy
  Li  Li0  1  0.805752  0.194248  0.437060  1
  Li  Li1  1  0.666667  0.333333  0.224419  1
  Li  Li2  1  0.805752  0.611504  0.437060  1
  Li  Li3  1  0.388496  0.194248  0.437060  1
  Li  Li4  1  0.000000  0.000000  0.515730  1
  Li  Li5  1  0.194248  0.388496  0.937060  1
  Li  Li6  1  0.333333  0.666667  0.724419  1
  Li  Li7  1  0.611504  0.805752  0.937060  1
  Li  Li8  1  0.000000  0.000000  0.015730  1
  Li  Li9  1  0.194248  0.805752  0.937060  1
  Mn  Mn10  1  0.333333  0.666667  0.475486  1
  Mn  Mn11  1  0.666667  0.333333  0.975486  1
  Cr  Cr12  1  0.170543  0.341087  0.214589  1
  Cr  Cr13  1  0.829457  0.170543  0.714589  1
  Cr  Cr14  1  0.658913  0.829457  0.214589  1
  Cr  Cr15  1  0.341087  0.170543  0.714589  1
  Cr  Cr16  1  0.170543  0.829457  0.214589  1
  Cr  Cr17  1  0.829457  0.658913  0.714589  1
  O  O18  1  0.839315  0.160685  0.100663  1
  O  O19  1  0.160685  0.321370  0.600663  1
  O  O20  1  0.493221  0.506779  0.329460  1
  O  O21  1  0.506779  0.013558  0.829460  1
  O  O22  1  0.000000  0.000000  0.325709  1
  O  O23  1  0.333333  0.666667  0.099937  1
  O  O24  1  0.321370  0.160685  0.100663  1
  O  O25  1  0.013558  0.506779  0.329460  1
  O  O26  1  0.000000  0.000000  0.825709  1
  O  O27  1  0.678630  0.839315  0.600663  1
  O  O28  1  0.666667  0.333333  0.599937  1
  O  O29  1  0.986442  0.493221  0.829460  1
  O  O30  1  0.493221  0.986442  0.329460  1
  O  O31  1  0.506779  0.493221  0.829460  1
  O  O32  1  0.839315  0.678630  0.100663  1
  O  O33  1  0.160685  0.839315  0.600663  1
