# generated using pymatgen
data_LiFeP2O7
_symmetry_space_group_name_H-M   'P 1'
_cell_length_a   6.95849498
_cell_length_b   8.41612625
_cell_length_c   9.33130311
_cell_angle_alpha   90.00000000
_cell_angle_beta   111.38284810
_cell_angle_gamma   90.00000000
_symmetry_Int_Tables_number   1
_chemical_formula_structural   LiFeP2O7
_chemical_formula_sum   'Li4 Fe4 P8 O28'
_cell_volume   508.85787660
_cell_formula_units_Z   4
loop_
 _symmetry_equiv_pos_site_id
 _symmetry_equiv_pos_as_xyz
  1  'x, y, z'
loop_
 _atom_site_type_symbol
 _atom_site_label
 _atom_site_symmetry_multiplicity
 _atom_site_fract_x
 _atom_site_fract_y
 _atom_site_fract_z
 _atom_site_occupancy
  Li  Li0  1  0.192198  0.575898  0.089042  1
  Li  Li1  1  0.807802  0.075898  0.410958  1
  Li  Li2  1  0.192198  0.924102  0.589042  1
  Li  Li3  1  0.807802  0.424102  0.910958  1
  Fe  Fe4  1  0.310145  0.932081  0.192794  1
  Fe  Fe5  1  0.689855  0.432081  0.307206  1
  Fe  Fe6  1  0.310145  0.567919  0.692794  1
  Fe  Fe7  1  0.689855  0.067919  0.807206  1
  P  P8  1  0.527063  0.717929  0.470028  1
  P  P9  1  0.472937  0.217929  0.029972  1
  P  P10  1  0.932219  0.736984  0.758052  1
  P  P11  1  0.067781  0.236984  0.741948  1
  P  P12  1  0.932219  0.763016  0.258052  1
  P  P13  1  0.067781  0.263016  0.241948  1
  P  P14  1  0.527063  0.782071  0.970028  1
  P  P15  1  0.472937  0.282071  0.529972  1
  O  O16  1  0.500298  0.582686  0.354524  1
  O  O17  1  0.521870  0.881666  0.392512  1
  O  O18  1  0.366332  0.781209  0.048473  1
  O  O19  1  0.633668  0.281209  0.451527  1
  O  O20  1  0.478130  0.381666  0.107488  1
  O  O21  1  0.749350  0.691745  0.596323  1
  O  O22  1  0.499702  0.082686  0.145476  1
  O  O23  1  0.878067  0.243836  0.791050  1
  O  O24  1  0.880149  0.902548  0.804153  1
  O  O25  1  0.949681  0.609880  0.875091  1
  O  O26  1  0.749350  0.808255  0.096323  1
  O  O27  1  0.050319  0.109880  0.624909  1
  O  O28  1  0.878067  0.256164  0.291050  1
  O  O29  1  0.880149  0.597452  0.304153  1
  O  O30  1  0.119851  0.402548  0.695847  1
  O  O31  1  0.121933  0.743836  0.708950  1
  O  O32  1  0.949681  0.890120  0.375091  1
  O  O33  1  0.250650  0.191745  0.903677  1
  O  O34  1  0.050319  0.390120  0.124909  1
  O  O35  1  0.119851  0.097452  0.195847  1
  O  O36  1  0.121933  0.756164  0.208950  1
  O  O37  1  0.500298  0.917314  0.854524  1
  O  O38  1  0.250650  0.308255  0.403677  1
  O  O39  1  0.521870  0.618334  0.892512  1
  O  O40  1  0.366332  0.718791  0.548473  1
  O  O41  1  0.633668  0.218791  0.951527  1
  O  O42  1  0.478130  0.118334  0.607488  1
  O  O43  1  0.499702  0.417314  0.645476  1
