# generated using pymatgen
data_LiVOF3
_symmetry_space_group_name_H-M   'P 1'
_cell_length_a   5.74854550
_cell_length_b   5.74854550
_cell_length_c   5.04540185
_cell_angle_alpha   89.05717448
_cell_angle_beta   90.94282552
_cell_angle_gamma   117.25706215
_symmetry_Int_Tables_number   1
_chemical_formula_structural   LiVOF3
_chemical_formula_sum   'Li2 V2 O2 F6'
_cell_volume   148.18819341
_cell_formula_units_Z   2
loop_
 _symmetry_equiv_pos_site_id
 _symmetry_equiv_pos_as_xyz
  1  'x, y, z'
loop_
 _atom_site_type_symbol
 _atom_site_label
 _atom_site_symmetry_multiplicity
 _atom_site_fract_x
 _atom_site_fract_y
 _atom_site_fract_z
 _atom_site_occupancy
  Li  Li0  1  0.650807  0.047452  0.487218  1
  Li  Li1  1  0.047452  0.650807  0.512782  1
  V  V2  1  0.648639  0.648639  0.000000  1
  V  V3  1  0.373898  0.373898  0.500000  1
  O  O4  1  0.687798  0.490524  0.313736  1
  O  O5  1  0.490524  0.687798  0.686264  1
  F  F6  1  0.742483  0.972652  0.146383  1
  F  F7  1  0.520702  0.287637  0.815803  1
  F  F8  1  0.275995  0.016978  0.415573  1
  F  F9  1  0.287637  0.520702  0.184197  1
  F  F10  1  0.016978  0.275995  0.584427  1
  F  F11  1  0.972652  0.742483  0.853617  1
