# generated using pymatgen
data_Li8Mn5Fe3(BO3)8
_symmetry_space_group_name_H-M   'P 1'
_cell_length_a   5.24084283
_cell_length_b   5.24244173
_cell_length_c   20.93569446
_cell_angle_alpha   90.75337045
_cell_angle_beta   90.97066092
_cell_angle_gamma   119.85771631
_symmetry_Int_Tables_number   1
_chemical_formula_structural   Li8Mn5Fe3(BO3)8
_chemical_formula_sum   'Li8 Mn5 Fe3 B8 O24'
_cell_volume   498.62810469
_cell_formula_units_Z   1
loop_
 _symmetry_equiv_pos_site_id
 _symmetry_equiv_pos_as_xyz
  1  'x, y, z'
loop_
 _atom_site_type_symbol
 _atom_site_label
 _atom_site_symmetry_multiplicity
 _atom_site_fract_x
 _atom_site_fract_y
 _atom_site_fract_z
 _atom_site_occupancy
  Li  Li0  1  0.678659  0.651997  0.333637  1
  Li  Li1  1  0.653474  0.678222  0.084472  1
  Li  Li2  1  0.679165  0.651383  0.834071  1
  Li  Li3  1  0.650893  0.678832  0.583816  1
  Li  Li4  1  0.348835  0.337790  0.208373  1
  Li  Li5  1  0.337908  0.348796  0.458491  1
  Li  Li6  1  0.348338  0.338149  0.708791  1
  Li  Li7  1  0.338196  0.346916  0.958608  1
  Mn  Mn8  1  0.674086  0.005882  0.440655  1
  Mn  Mn9  1  0.669120  0.003377  0.942404  1
  Mn  Mn10  1  0.323347  0.003224  0.566156  1
  Mn  Mn11  1  0.003290  0.322966  0.816580  1
  Mn  Mn12  1  0.003006  0.671023  0.691414  1
  Fe  Fe13  1  0.316141  0.002157  0.066970  1
  Fe  Fe14  1  0.004166  0.320862  0.315345  1
  Fe  Fe15  1  0.007309  0.666436  0.191288  1
  B  B16  1  0.996047  0.338444  0.063725  1
  B  B17  1  0.996941  0.341318  0.562896  1
  B  B18  1  0.665900  0.004748  0.187976  1
  B  B19  1  0.665550  0.004791  0.687956  1
  B  B20  1  0.337704  0.996431  0.312474  1
  B  B21  1  0.341372  0.997171  0.813061  1
  B  B22  1  0.005910  0.665821  0.437122  1
  B  B23  1  0.004332  0.665759  0.938584  1
  O  O24  1  0.928871  0.256154  0.207828  1
  O  O25  1  0.930535  0.247119  0.709058  1
  O  O26  1  0.740523  0.070802  0.049627  1
  O  O27  1  0.977021  0.584132  0.082695  1
  O  O28  1  0.746744  0.069594  0.547733  1
  O  O29  1  0.966074  0.578619  0.583483  1
  O  O30  1  0.416595  0.029473  0.173243  1
  O  O31  1  0.731021  0.641140  0.430169  1
  O  O32  1  0.422506  0.038677  0.672676  1
  O  O33  1  0.729903  0.641005  0.931170  1
  O  O34  1  0.653023  0.736400  0.181425  1
  O  O35  1  0.640213  0.730510  0.680656  1
  O  O36  1  0.358870  0.270754  0.305846  1
  O  O37  1  0.371566  0.272937  0.805962  1
  O  O38  1  0.270420  0.359810  0.057145  1
  O  O39  1  0.585008  0.978964  0.331572  1
  O  O40  1  0.272772  0.371558  0.555607  1
  O  O41  1  0.578921  0.966120  0.833737  1
  O  O42  1  0.038877  0.423182  0.421456  1
  O  O43  1  0.037829  0.422708  0.923228  1
  O  O44  1  0.248567  0.930072  0.458518  1
  O  O45  1  0.246439  0.929946  0.959829  1
  O  O46  1  0.069731  0.742269  0.298281  1
  O  O47  1  0.069476  0.746761  0.797992  1
