# generated using pymatgen
data_FeOF
_symmetry_space_group_name_H-M   'P 1'
_cell_length_a   9.49101106
_cell_length_b   3.07830580
_cell_length_c   14.17751847
_cell_angle_alpha   90.00000000
_cell_angle_beta   90.08701104
_cell_angle_gamma   90.00000000
_symmetry_Int_Tables_number   1
_chemical_formula_structural   FeOF
_chemical_formula_sum   'Fe12 O12 F12'
_cell_volume   414.21322530
_cell_formula_units_Z   12
loop_
 _symmetry_equiv_pos_site_id
 _symmetry_equiv_pos_as_xyz
  1  'x, y, z'
loop_
 _atom_site_type_symbol
 _atom_site_label
 _atom_site_symmetry_multiplicity
 _atom_site_fract_x
 _atom_site_fract_y
 _atom_site_fract_z
 _atom_site_occupancy
  Fe  Fe0  1  0.989782  0.000000  0.993517  1
  Fe  Fe1  1  0.009889  0.000000  0.659862  1
  Fe  Fe2  1  0.977144  0.000000  0.338858  1
  Fe  Fe3  1  0.784382  0.500000  0.824160  1
  Fe  Fe4  1  0.770823  0.500000  0.508642  1
  Fe  Fe5  1  0.736540  0.500000  0.193462  1
  Fe  Fe6  1  0.479561  0.000000  0.664792  1
  Fe  Fe7  1  0.504326  0.000000  0.993078  1
  Fe  Fe8  1  0.483179  0.000000  0.339487  1
  Fe  Fe9  1  0.248832  0.500000  0.811605  1
  Fe  Fe10  1  0.255724  0.500000  0.507353  1
  Fe  Fe11  1  0.259694  0.500000  0.174889  1
  O  O12  1  0.913233  0.500000  0.725812  1
  O  O13  1  0.898354  0.500000  0.398739  1
  O  O14  1  0.860787  0.000000  0.897315  1
  O  O15  1  0.845370  0.000000  0.230620  1
  O  O16  1  0.852404  0.000000  0.567144  1
  O  O17  1  0.583015  0.500000  0.278861  1
  O  O18  1  0.410841  0.500000  0.733656  1
  O  O19  1  0.395006  0.500000  0.401890  1
  O  O20  1  0.349030  0.000000  0.563654  1
  O  O21  1  0.339546  0.000000  0.231458  1
  O  O22  1  0.151664  0.000000  0.766330  1
  O  O23  1  0.104383  0.500000  0.594956  1
  F  F24  1  0.900409  0.500000  0.062782  1
  F  F25  1  0.665014  0.000000  0.766297  1
  F  F26  1  0.649144  0.000000  0.443454  1
  F  F27  1  0.649224  0.000000  0.104165  1
  F  F28  1  0.608068  0.500000  0.926803  1
  F  F29  1  0.599663  0.500000  0.602763  1
  F  F30  1  0.394323  0.500000  0.061972  1
  F  F31  1  0.341661  0.000000  0.898761  1
  F  F32  1  0.144355  0.000000  0.099566  1
  F  F33  1  0.149697  0.000000  0.428006  1
  F  F34  1  0.102762  0.500000  0.940097  1
  F  F35  1  0.092168  0.500000  0.265195  1
