# generated using pymatgen
data_Li4Mn3Fe(BO3)4
_symmetry_space_group_name_H-M   'P 1'
_cell_length_a   5.24608464
_cell_length_b   5.24863069
_cell_length_c   20.97367541
_cell_angle_alpha   90.63465388
_cell_angle_beta   90.99490376
_cell_angle_gamma   119.79723124
_symmetry_Int_Tables_number   1
_chemical_formula_structural   Li4Mn3Fe(BO3)4
_chemical_formula_sum   'Li8 Mn6 Fe2 B8 O24'
_cell_volume   500.94808647
_cell_formula_units_Z   2
loop_
 _symmetry_equiv_pos_site_id
 _symmetry_equiv_pos_as_xyz
  1  'x, y, z'
loop_
 _atom_site_type_symbol
 _atom_site_label
 _atom_site_symmetry_multiplicity
 _atom_site_fract_x
 _atom_site_fract_y
 _atom_site_fract_z
 _atom_site_occupancy
  Li  Li0  1  0.678811  0.651017  0.333285  1
  Li  Li1  1  0.652383  0.675855  0.084370  1
  Li  Li2  1  0.679039  0.651648  0.834317  1
  Li  Li3  1  0.650934  0.678564  0.584027  1
  Li  Li4  1  0.351992  0.341162  0.208479  1
  Li  Li5  1  0.337667  0.348360  0.458763  1
  Li  Li6  1  0.347900  0.337743  0.708896  1
  Li  Li7  1  0.336802  0.344763  0.959127  1
  Mn  Mn8  1  0.670193  0.003440  0.441578  1
  Mn  Mn9  1  0.667318  0.003335  0.943225  1
  Mn  Mn10  1  0.323116  0.003105  0.566730  1
  Mn  Mn11  1  0.002636  0.325513  0.316236  1
  Mn  Mn12  1  0.002962  0.322544  0.817200  1
  Mn  Mn13  1  0.003445  0.670849  0.691907  1
  Fe  Fe14  1  0.315570  0.997788  0.068207  1
  Fe  Fe15  1  0.010929  0.670392  0.189789  1
  B  B16  1  0.995114  0.334779  0.063854  1
  B  B17  1  0.997430  0.342030  0.562784  1
  B  B18  1  0.669395  0.009289  0.186928  1
  B  B19  1  0.665894  0.004751  0.687850  1
  B  B20  1  0.339472  0.996574  0.311562  1
  B  B21  1  0.341875  0.997611  0.812941  1
  B  B22  1  0.004672  0.665947  0.437673  1
  B  B23  1  0.003141  0.665875  0.938791  1
  O  O24  1  0.931435  0.260834  0.206197  1
  O  O25  1  0.929410  0.247144  0.709070  1
  O  O26  1  0.738456  0.069309  0.050127  1
  O  O27  1  0.977616  0.582236  0.082086  1
  O  O28  1  0.746253  0.071198  0.547852  1
  O  O29  1  0.967586  0.579448  0.583511  1
  O  O30  1  0.417841  0.032161  0.173226  1
  O  O31  1  0.731397  0.642998  0.430208  1
  O  O32  1  0.421694  0.036979  0.672760  1
  O  O33  1  0.729913  0.643313  0.931219  1
  O  O34  1  0.657462  0.741722  0.180202  1
  O  O35  1  0.642625  0.731485  0.680272  1
  O  O36  1  0.367218  0.272036  0.304496  1
  O  O37  1  0.370325  0.272805  0.805511  1
  O  O38  1  0.268053  0.353567  0.057502  1
  O  O39  1  0.578780  0.968736  0.332506  1
  O  O40  1  0.272333  0.370636  0.555283  1
  O  O41  1  0.579523  0.967839  0.833833  1
  O  O42  1  0.036580  0.422129  0.422357  1
  O  O43  1  0.034818  0.421356  0.923709  1
  O  O44  1  0.247511  0.929185  0.458902  1
  O  O45  1  0.245632  0.928665  0.959925  1
  O  O46  1  0.069147  0.746129  0.296498  1
  O  O47  1  0.070904  0.746353  0.798028  1
