# generated using pymatgen
data_Ba4HfO6
_symmetry_space_group_name_H-M   'P 1'
_cell_length_a   7.47476664
_cell_length_b   7.47476664
_cell_length_c   7.47476664
_cell_angle_alpha   89.51860881
_cell_angle_beta   89.51860881
_cell_angle_gamma   89.51860881
_symmetry_Int_Tables_number   1
_chemical_formula_structural   Ba4HfO6
_chemical_formula_sum   'Ba8 Hf2 O12'
_cell_volume   417.58720572
_cell_formula_units_Z   2
loop_
 _symmetry_equiv_pos_site_id
 _symmetry_equiv_pos_as_xyz
  1  'x, y, z'
loop_
 _atom_site_type_symbol
 _atom_site_label
 _atom_site_symmetry_multiplicity
 _atom_site_fract_x
 _atom_site_fract_y
 _atom_site_fract_z
 _atom_site_occupancy
  Ba  Ba0  1  0.614363  0.885637  0.250000  1
  Ba  Ba1  1  0.114363  0.750000  0.385637  1
  Ba  Ba2  1  0.750000  0.385637  0.114363  1
  Ba  Ba3  1  0.750000  0.750000  0.750000  1
  Ba  Ba4  1  0.250000  0.250000  0.250000  1
  Ba  Ba5  1  0.250000  0.614363  0.885637  1
  Ba  Ba6  1  0.885637  0.250000  0.614363  1
  Ba  Ba7  1  0.385637  0.114363  0.750000  1
  Hf  Hf8  1  0.500000  0.500000  0.500000  1
  Hf  Hf9  1  0.000000  0.000000  0.000000  1
  O  O10  1  0.270027  0.942407  0.073263  1
  O  O11  1  0.926737  0.729973  0.057593  1
  O  O12  1  0.426737  0.557593  0.229973  1
  O  O13  1  0.057593  0.926737  0.729973  1
  O  O14  1  0.442407  0.770027  0.573263  1
  O  O15  1  0.770027  0.573263  0.442407  1
  O  O16  1  0.229973  0.426737  0.557593  1
  O  O17  1  0.557593  0.229973  0.426737  1
  O  O18  1  0.942407  0.073263  0.270027  1
  O  O19  1  0.573263  0.442407  0.770027  1
  O  O20  1  0.073263  0.270027  0.942407  1
  O  O21  1  0.729973  0.057593  0.926737  1
