# generated using pymatgen
data_Li(WO3)2
_symmetry_space_group_name_H-M   'P 1'
_cell_length_a   6.56812906
_cell_length_b   6.56812906
_cell_length_c   6.56812906
_cell_angle_alpha   109.85307936
_cell_angle_beta   109.41294238
_cell_angle_gamma   109.14842313
_symmetry_Int_Tables_number   1
_chemical_formula_structural   Li(WO3)2
_chemical_formula_sum   'Li2 W4 O12'
_cell_volume   218.11541762
_cell_formula_units_Z   2
loop_
 _symmetry_equiv_pos_site_id
 _symmetry_equiv_pos_as_xyz
  1  'x, y, z'
loop_
 _atom_site_type_symbol
 _atom_site_label
 _atom_site_symmetry_multiplicity
 _atom_site_fract_x
 _atom_site_fract_y
 _atom_site_fract_z
 _atom_site_occupancy
  Li  Li0  1  0.000000  0.500000  0.500000  1
  Li  Li1  1  0.500000  0.500000  0.000000  1
  W  W2  1  0.500000  0.000000  1.000000  1
  W  W3  1  0.500000  0.500000  0.500000  1
  W  W4  1  0.000000  0.500000  0.000000  1
  W  W5  1  0.000000  0.000000  0.500000  1
  O  O6  1  0.798848  0.705277  0.504126  1
  O  O7  1  0.500358  0.790272  0.710086  1
  O  O8  1  0.798848  0.294723  0.093571  1
  O  O9  1  0.293320  0.092254  0.798935  1
  O  O10  1  0.080185  0.790272  0.289914  1
  O  O11  1  0.293320  0.494385  0.201065  1
  O  O12  1  0.706680  0.505615  0.798935  1
  O  O13  1  0.919815  0.209728  0.710086  1
  O  O14  1  0.706680  0.907746  0.201065  1
  O  O15  1  0.201152  0.705277  0.906429  1
  O  O16  1  0.499642  0.209728  0.289914  1
  O  O17  1  0.201152  0.294723  0.495874  1
