# generated using pymatgen
data_Li4Fe3Co2Ni3O16
_symmetry_space_group_name_H-M   'P 1'
_cell_length_a   5.81317335
_cell_length_b   5.81317335
_cell_length_c   9.28840424
_cell_angle_alpha   89.74638092
_cell_angle_beta   90.25361908
_cell_angle_gamma   119.73084523
_symmetry_Int_Tables_number   1
_chemical_formula_structural   Li4Fe3Co2Ni3O16
_chemical_formula_sum   'Li4 Fe3 Co2 Ni3 O16'
_cell_volume   272.56124714
_cell_formula_units_Z   1
loop_
 _symmetry_equiv_pos_site_id
 _symmetry_equiv_pos_as_xyz
  1  'x, y, z'
loop_
 _atom_site_type_symbol
 _atom_site_label
 _atom_site_symmetry_multiplicity
 _atom_site_fract_x
 _atom_site_fract_y
 _atom_site_fract_z
 _atom_site_occupancy
  Li  Li0  1  0.329268  0.670732  0.894265  1
  Li  Li1  1  0.006020  0.993980  0.992503  1
  Li  Li2  1  0.005691  0.994309  0.494313  1
  Li  Li3  1  0.663817  0.336183  0.400823  1
  Fe  Fe4  1  0.659194  0.831176  0.212580  1
  Fe  Fe5  1  0.168824  0.340806  0.212580  1
  Fe  Fe6  1  0.831075  0.168925  0.713351  1
  Co  Co7  1  0.333530  0.666470  0.485723  1
  Co  Co8  1  0.663702  0.336298  0.981987  1
  Ni  Ni9  1  0.172403  0.827597  0.210868  1
  Ni  Ni10  1  0.828078  0.657190  0.712573  1
  Ni  Ni11  1  0.342810  0.171922  0.712573  1
  O  O12  1  0.665513  0.830869  0.597800  1
  O  O13  1  0.477377  0.522623  0.349007  1
  O  O14  1  0.329657  0.670343  0.103013  1
  O  O15  1  0.008015  0.991985  0.301497  1
  O  O16  1  0.009311  0.990689  0.799817  1
  O  O17  1  0.169131  0.334487  0.597800  1
  O  O18  1  0.480391  0.958571  0.350961  1
  O  O19  1  0.041429  0.519609  0.350961  1
  O  O20  1  0.830290  0.169710  0.095730  1
  O  O21  1  0.174376  0.825624  0.595731  1
  O  O22  1  0.952900  0.481617  0.847198  1
  O  O23  1  0.518383  0.047100  0.847198  1
  O  O24  1  0.659974  0.340026  0.609461  1
  O  O25  1  0.824854  0.656836  0.094827  1
  O  O26  1  0.518087  0.481913  0.847976  1
  O  O27  1  0.343164  0.175146  0.094827  1
