# generated using pymatgen
data_LiCoPO4
_symmetry_space_group_name_H-M   'P 1'
_cell_length_a   5.04637179
_cell_length_b   5.04637179
_cell_length_c   5.04637179
_cell_angle_alpha   122.89980871
_cell_angle_beta   122.89980871
_cell_angle_gamma   85.04672606
_symmetry_Int_Tables_number   1
_chemical_formula_structural   LiCoPO4
_chemical_formula_sum   'Li1 Co1 P1 O4'
_cell_volume   86.53450699
_cell_formula_units_Z   1
loop_
 _symmetry_equiv_pos_site_id
 _symmetry_equiv_pos_as_xyz
  1  'x, y, z'
loop_
 _atom_site_type_symbol
 _atom_site_label
 _atom_site_symmetry_multiplicity
 _atom_site_fract_x
 _atom_site_fract_y
 _atom_site_fract_z
 _atom_site_occupancy
  Li  Li0  1  0.500000  0.500000  0.000000  1
  Co  Co1  1  0.000000  0.000000  0.000000  1
  P  P2  1  0.250000  0.750000  0.500000  1
  O  O3  1  0.178069  0.683623  0.124788  1
  O  O4  1  0.946719  0.821931  0.505554  1
  O  O5  1  0.558835  0.053281  0.875212  1
  O  O6  1  0.316377  0.441165  0.494446  1
