# generated using pymatgen
data_Sr2LaCl7
_symmetry_space_group_name_H-M   'P 1'
_cell_length_a   7.20691034
_cell_length_b   13.35307435
_cell_length_c   12.51469217
_cell_angle_alpha   90.00000000
_cell_angle_beta   91.25431244
_cell_angle_gamma   90.00000000
_symmetry_Int_Tables_number   1
_chemical_formula_structural   Sr2LaCl7
_chemical_formula_sum   'Sr8 La4 Cl28'
_cell_volume   1204.05543007
_cell_formula_units_Z   4
loop_
 _symmetry_equiv_pos_site_id
 _symmetry_equiv_pos_as_xyz
  1  'x, y, z'
loop_
 _atom_site_type_symbol
 _atom_site_label
 _atom_site_symmetry_multiplicity
 _atom_site_fract_x
 _atom_site_fract_y
 _atom_site_fract_z
 _atom_site_occupancy
  Sr  Sr0  1  0.302033  0.549512  0.777232  1
  Sr  Sr1  1  0.208273  0.857548  0.778892  1
  Sr  Sr2  1  0.791727  0.357548  0.721108  1
  Sr  Sr3  1  0.697967  0.049512  0.722768  1
  Sr  Sr4  1  0.302033  0.950488  0.277232  1
  Sr  Sr5  1  0.208273  0.642452  0.278892  1
  Sr  Sr6  1  0.791727  0.142452  0.221108  1
  Sr  Sr7  1  0.697967  0.450488  0.222768  1
  La  La8  1  0.210010  0.239057  0.970646  1
  La  La9  1  0.789990  0.739057  0.529354  1
  La  La10  1  0.210010  0.260943  0.470646  1
  La  La11  1  0.789990  0.760943  0.029354  1
  Cl  Cl12  1  0.846654  0.187709  0.892905  1
  Cl  Cl13  1  0.042341  0.419175  0.889714  1
  Cl  Cl14  1  0.496884  0.381209  0.881490  1
  Cl  Cl15  1  0.870622  0.924230  0.891729  1
  Cl  Cl16  1  0.356020  0.060651  0.856225  1
  Cl  Cl17  1  0.004264  0.682764  0.860589  1
  Cl  Cl18  1  0.510057  0.730461  0.864246  1
  Cl  Cl19  1  0.489943  0.230461  0.635754  1
  Cl  Cl20  1  0.995736  0.182764  0.639411  1
  Cl  Cl21  1  0.643980  0.560651  0.643775  1
  Cl  Cl22  1  0.129378  0.424230  0.608271  1
  Cl  Cl23  1  0.503116  0.881209  0.618510  1
  Cl  Cl24  1  0.957659  0.919175  0.610286  1
  Cl  Cl25  1  0.153346  0.687709  0.607095  1
  Cl  Cl26  1  0.846654  0.312291  0.392905  1
  Cl  Cl27  1  0.042341  0.080825  0.389714  1
  Cl  Cl28  1  0.496884  0.118791  0.381490  1
  Cl  Cl29  1  0.870622  0.575770  0.391729  1
  Cl  Cl30  1  0.356020  0.439349  0.356225  1
  Cl  Cl31  1  0.004264  0.817236  0.360589  1
  Cl  Cl32  1  0.510057  0.769539  0.364246  1
  Cl  Cl33  1  0.489943  0.269539  0.135754  1
  Cl  Cl34  1  0.995736  0.317236  0.139411  1
  Cl  Cl35  1  0.643980  0.939349  0.143775  1
  Cl  Cl36  1  0.129378  0.075770  0.108271  1
  Cl  Cl37  1  0.503116  0.618791  0.118510  1
  Cl  Cl38  1  0.957659  0.580825  0.110286  1
  Cl  Cl39  1  0.153346  0.812291  0.107095  1
