# generated using pymatgen
data_LiTe(H3N)4
_symmetry_space_group_name_H-M   'P 1'
_cell_length_a   6.85850987
_cell_length_b   7.35601695
_cell_length_c   8.64768437
_cell_angle_alpha   103.36370530
_cell_angle_beta   113.28684741
_cell_angle_gamma   86.90281097
_symmetry_Int_Tables_number   1
_chemical_formula_structural   LiTe(H3N)4
_chemical_formula_sum   'Li2 Te2 H24 N8'
_cell_volume   389.55408832
_cell_formula_units_Z   2
loop_
 _symmetry_equiv_pos_site_id
 _symmetry_equiv_pos_as_xyz
  1  'x, y, z'
loop_
 _atom_site_type_symbol
 _atom_site_label
 _atom_site_symmetry_multiplicity
 _atom_site_fract_x
 _atom_site_fract_y
 _atom_site_fract_z
 _atom_site_occupancy
  Li  Li0  1  0.199842  0.904277  0.276711  1
  Li  Li1  1  0.800158  0.095723  0.723289  1
  Te  Te2  1  0.366691  0.544480  0.842634  1
  Te  Te3  1  0.633309  0.455520  0.157366  1
  H  H4  1  0.032073  0.715303  0.965616  1
  H  H5  1  0.143664  0.289459  0.948117  1
  H  H6  1  0.006945  0.128718  0.468733  1
  H  H7  1  0.003414  0.217668  0.312152  1
  H  H8  1  0.118338  0.599158  0.348588  1
  H  H9  1  0.215875  0.245114  0.494086  1
  H  H10  1  0.402026  0.012220  0.651953  1
  H  H11  1  0.519532  0.125559  0.854641  1
  H  H12  1  0.333158  0.685911  0.520554  1
  H  H13  1  0.126882  0.109604  0.025966  1
  H  H14  1  0.536480  0.896313  0.798995  1
  H  H15  1  0.352706  0.592258  0.334977  1
  H  H16  1  0.647294  0.407742  0.665023  1
  H  H17  1  0.463520  0.103687  0.201005  1
  H  H18  1  0.873118  0.890396  0.974034  1
  H  H19  1  0.666842  0.314089  0.479446  1
  H  H20  1  0.480468  0.874441  0.145359  1
  H  H21  1  0.597974  0.987780  0.348047  1
  H  H22  1  0.784125  0.754886  0.505914  1
  H  H23  1  0.881662  0.400842  0.651412  1
  H  H24  1  0.996586  0.782332  0.687848  1
  H  H25  1  0.993055  0.871282  0.531267  1
  H  H26  1  0.856336  0.710541  0.051883  1
  H  H27  1  0.967927  0.284697  0.034384  1
  N  N28  1  0.038134  0.203842  0.958339  1
  N  N29  1  0.098562  0.148962  0.404857  1
  N  N30  1  0.258742  0.674050  0.389344  1
  N  N31  1  0.537615  0.019120  0.761260  1
  N  N32  1  0.462385  0.980880  0.238740  1
  N  N33  1  0.741258  0.325950  0.610656  1
  N  N34  1  0.901438  0.851038  0.595143  1
  N  N35  1  0.961866  0.796158  0.041661  1
