# generated using pymatgen
data_Li4Ti3V2Co3O16
_symmetry_space_group_name_H-M   'P 1'
_cell_length_a   5.91291648
_cell_length_b   5.91325061
_cell_length_c   9.63186684
_cell_angle_alpha   90.21299420
_cell_angle_beta   90.36661357
_cell_angle_gamma   119.78290626
_symmetry_Int_Tables_number   1
_chemical_formula_structural   Li4Ti3V2Co3O16
_chemical_formula_sum   'Li4 Ti3 V2 Co3 O16'
_cell_volume   292.27551572
_cell_formula_units_Z   1
loop_
 _symmetry_equiv_pos_site_id
 _symmetry_equiv_pos_as_xyz
  1  'x, y, z'
loop_
 _atom_site_type_symbol
 _atom_site_label
 _atom_site_symmetry_multiplicity
 _atom_site_fract_x
 _atom_site_fract_y
 _atom_site_fract_z
 _atom_site_occupancy
  Li  Li0  1  0.328184  0.661840  0.095662  1
  Li  Li1  1  0.007419  0.011239  0.013874  1
  Li  Li2  1  0.995849  0.998828  0.505939  1
  Li  Li3  1  0.674156  0.332061  0.596494  1
  Ti  Ti4  1  0.168961  0.818280  0.776483  1
  Ti  Ti5  1  0.654796  0.799460  0.779335  1
  Ti  Ti6  1  0.813634  0.634601  0.263854  1
  V  V7  1  0.331444  0.663608  0.498760  1
  V  V8  1  0.650126  0.293044  0.011441  1
  Co  Co9  1  0.174902  0.346047  0.793279  1
  Co  Co10  1  0.337887  0.168460  0.292788  1
  Co  Co11  1  0.824960  0.170817  0.290703  1
  O  O12  1  0.173112  0.818970  0.415312  1
  O  O13  1  0.483521  0.965260  0.666248  1
  O  O14  1  0.343210  0.680494  0.894012  1
  O  O15  1  0.002733  0.008155  0.699006  1
  O  O16  1  0.989136  0.986976  0.205992  1
  O  O17  1  0.639605  0.816520  0.415296  1
  O  O18  1  0.045759  0.534087  0.657495  1
  O  O19  1  0.496324  0.531459  0.654198  1
  O  O20  1  0.837153  0.671917  0.897722  1
  O  O21  1  0.171818  0.350970  0.419517  1
  O  O22  1  0.521423  0.490314  0.150323  1
  O  O23  1  0.960217  0.495255  0.143363  1
  O  O24  1  0.677103  0.353333  0.393740  1
  O  O25  1  0.350961  0.178338  0.909163  1
  O  O26  1  0.522238  0.044459  0.140881  1
  O  O27  1  0.823068  0.175208  0.911279  1
