# generated using pymatgen
data_Rb3NaV4H2O13
_symmetry_space_group_name_H-M   'P 1'
_cell_length_a   8.44491525
_cell_length_b   11.41226537
_cell_length_c   16.08618286
_cell_angle_alpha   90.00000000
_cell_angle_beta   90.00000000
_cell_angle_gamma   90.00000000
_symmetry_Int_Tables_number   1
_chemical_formula_structural   Rb3NaV4H2O13
_chemical_formula_sum   'Rb12 Na4 V16 H8 O52'
_cell_volume   1550.31574780
_cell_formula_units_Z   4
loop_
 _symmetry_equiv_pos_site_id
 _symmetry_equiv_pos_as_xyz
  1  'x, y, z'
loop_
 _atom_site_type_symbol
 _atom_site_label
 _atom_site_symmetry_multiplicity
 _atom_site_fract_x
 _atom_site_fract_y
 _atom_site_fract_z
 _atom_site_occupancy
  Rb  Rb0  1  0.750000  0.985226  0.121130  1
  Rb  Rb1  1  0.250000  0.981122  0.196326  1
  Rb  Rb2  1  0.250000  0.973907  0.601684  1
  Rb  Rb3  1  0.750000  0.526093  0.101684  1
  Rb  Rb4  1  0.750000  0.518878  0.696326  1
  Rb  Rb5  1  0.250000  0.514774  0.621130  1
  Rb  Rb6  1  0.750000  0.485226  0.378870  1
  Rb  Rb7  1  0.250000  0.481122  0.303674  1
  Rb  Rb8  1  0.250000  0.473907  0.898316  1
  Rb  Rb9  1  0.750000  0.026093  0.398316  1
  Rb  Rb10  1  0.750000  0.018878  0.803674  1
  Rb  Rb11  1  0.250000  0.014774  0.878870  1
  Na  Na12  1  0.750000  0.815899  0.584492  1
  Na  Na13  1  0.250000  0.684101  0.084492  1
  Na  Na14  1  0.750000  0.315899  0.915508  1
  Na  Na15  1  0.250000  0.184101  0.415508  1
  V  V16  1  0.960028  0.785121  0.973466  1
  V  V17  1  0.539972  0.785121  0.973466  1
  V  V18  1  0.049837  0.757869  0.767742  1
  V  V19  1  0.450163  0.757869  0.767742  1
  V  V20  1  0.950163  0.742131  0.267742  1
  V  V21  1  0.549837  0.742131  0.267742  1
  V  V22  1  0.039972  0.714879  0.473466  1
  V  V23  1  0.460028  0.714879  0.473466  1
  V  V24  1  0.960028  0.285121  0.526534  1
  V  V25  1  0.539972  0.285121  0.526534  1
  V  V26  1  0.450163  0.257869  0.732258  1
  V  V27  1  0.049837  0.257869  0.732258  1
  V  V28  1  0.950163  0.242131  0.232258  1
  V  V29  1  0.549837  0.242131  0.232258  1
  V  V30  1  0.460028  0.214879  0.026534  1
  V  V31  1  0.039972  0.214879  0.026534  1
  H  H32  1  0.343549  0.933888  0.414666  1
  H  H33  1  0.156451  0.933888  0.414666  1
  H  H34  1  0.843549  0.566112  0.914666  1
  H  H35  1  0.656451  0.566112  0.914666  1
  H  H36  1  0.343549  0.433888  0.085334  1
  H  H37  1  0.156451  0.433888  0.085334  1
  H  H38  1  0.843549  0.066112  0.585334  1
  H  H39  1  0.656451  0.066112  0.585334  1
  O  O40  1  0.250000  0.975090  0.393282  1
  O  O41  1  0.952620  0.888956  0.272266  1
  O  O42  1  0.547380  0.888956  0.272266  1
  O  O43  1  0.434750  0.871817  0.035799  1
  O  O44  1  0.065250  0.871817  0.035799  1
  O  O45  1  0.978170  0.854488  0.484904  1
  O  O46  1  0.521830  0.854488  0.484904  1
  O  O47  1  0.990064  0.830120  0.865644  1
  O  O48  1  0.509936  0.830120  0.865644  1
  O  O49  1  0.250000  0.809683  0.743547  1
  O  O50  1  0.569665  0.804108  0.692512  1
  O  O51  1  0.930335  0.804108  0.692512  1
  O  O52  1  0.750000  0.796179  0.000993  1
  O  O53  1  0.250000  0.703821  0.500993  1
  O  O54  1  0.069665  0.695892  0.192512  1
  O  O55  1  0.430335  0.695892  0.192512  1
  O  O56  1  0.750000  0.690317  0.243547  1
  O  O57  1  0.009936  0.669880  0.365644  1
  O  O58  1  0.490064  0.669880  0.365644  1
  O  O59  1  0.021830  0.645512  0.984904  1
  O  O60  1  0.478170  0.645512  0.984904  1
  O  O61  1  0.934750  0.628183  0.535799  1
  O  O62  1  0.565250  0.628183  0.535799  1
  O  O63  1  0.452620  0.611044  0.772266  1
  O  O64  1  0.047380  0.611044  0.772266  1
  O  O65  1  0.750000  0.524910  0.893282  1
  O  O66  1  0.250000  0.475090  0.106718  1
  O  O67  1  0.952620  0.388956  0.227734  1
  O  O68  1  0.547380  0.388956  0.227734  1
  O  O69  1  0.434750  0.371817  0.464201  1
  O  O70  1  0.065250  0.371817  0.464201  1
  O  O71  1  0.978170  0.354488  0.015096  1
  O  O72  1  0.521830  0.354488  0.015096  1
  O  O73  1  0.990064  0.330120  0.634356  1
  O  O74  1  0.509936  0.330120  0.634356  1
  O  O75  1  0.250000  0.309683  0.756453  1
  O  O76  1  0.930335  0.304108  0.807488  1
  O  O77  1  0.569665  0.304108  0.807488  1
  O  O78  1  0.750000  0.296179  0.499007  1
  O  O79  1  0.250000  0.203821  0.999007  1
  O  O80  1  0.430335  0.195892  0.307488  1
  O  O81  1  0.069665  0.195892  0.307488  1
  O  O82  1  0.750000  0.190317  0.256453  1
  O  O83  1  0.490064  0.169880  0.134356  1
  O  O84  1  0.009936  0.169880  0.134356  1
  O  O85  1  0.478170  0.145512  0.515096  1
  O  O86  1  0.021830  0.145512  0.515096  1
  O  O87  1  0.934750  0.128183  0.964201  1
  O  O88  1  0.565250  0.128183  0.964201  1
  O  O89  1  0.452620  0.111044  0.727734  1
  O  O90  1  0.047380  0.111044  0.727734  1
  O  O91  1  0.750000  0.024910  0.606718  1
