# generated using pymatgen
data_Co2O3F
_symmetry_space_group_name_H-M   'P 1'
_cell_length_a   4.51973451
_cell_length_b   4.51973451
_cell_length_c   14.76485973
_cell_angle_alpha   90.00000000
_cell_angle_beta   90.00000000
_cell_angle_gamma   94.28181494
_symmetry_Int_Tables_number   1
_chemical_formula_structural   Co2O3F
_chemical_formula_sum   'Co10 O15 F5'
_cell_volume   300.77470747
_cell_formula_units_Z   5
loop_
 _symmetry_equiv_pos_site_id
 _symmetry_equiv_pos_as_xyz
  1  'x, y, z'
loop_
 _atom_site_type_symbol
 _atom_site_label
 _atom_site_symmetry_multiplicity
 _atom_site_fract_x
 _atom_site_fract_y
 _atom_site_fract_z
 _atom_site_occupancy
  Co  Co0  1  0.000653  0.999347  0.699383  1
  Co  Co1  1  0.005616  0.994384  0.500000  1
  Co  Co2  1  0.000653  0.999347  0.300617  1
  Co  Co3  1  0.985173  0.014827  0.100142  1
  Co  Co4  1  0.985173  0.014827  0.899858  1
  Co  Co5  1  0.469295  0.530705  0.599944  1
  Co  Co6  1  0.527925  0.472075  0.200072  1
  Co  Co7  1  0.469295  0.530705  0.400056  1
  Co  Co8  1  0.527925  0.472075  0.799928  1
  Co  Co9  1  0.518186  0.481814  0.000000  1
  O  O10  1  0.813803  0.186197  0.203738  1
  O  O11  1  0.794443  0.205557  0.000000  1
  O  O12  1  0.813803  0.186197  0.796262  1
  O  O13  1  0.306151  0.306358  0.699918  1
  O  O14  1  0.295649  0.310527  0.500000  1
  O  O15  1  0.313119  0.301765  0.099385  1
  O  O16  1  0.313119  0.301765  0.900615  1
  O  O17  1  0.306151  0.306358  0.300082  1
  O  O18  1  0.693642  0.693849  0.699918  1
  O  O19  1  0.689473  0.704351  0.500000  1
  O  O20  1  0.693642  0.693849  0.300082  1
  O  O21  1  0.698235  0.686881  0.099385  1
  O  O22  1  0.698235  0.686881  0.900615  1
  O  O23  1  0.180429  0.819571  0.596408  1
  O  O24  1  0.180429  0.819571  0.403592  1
  F  F25  1  0.801116  0.198884  0.593231  1
  F  F26  1  0.801116  0.198884  0.406769  1
  F  F27  1  0.205571  0.794429  0.197132  1
  F  F28  1  0.205571  0.794429  0.802868  1
  F  F29  1  0.206406  0.793594  0.000000  1
