# generated using pymatgen
data_Fe(AsO2)2
_symmetry_space_group_name_H-M   'P 1'
_cell_length_a   8.62906476
_cell_length_b   8.62906476
_cell_length_c   5.76230978
_cell_angle_alpha   90.00000000
_cell_angle_beta   90.00000000
_cell_angle_gamma   90.00000000
_symmetry_Int_Tables_number   1
_chemical_formula_structural   Fe(AsO2)2
_chemical_formula_sum   'Fe4 As8 O16'
_cell_volume   429.06595801
_cell_formula_units_Z   4
loop_
 _symmetry_equiv_pos_site_id
 _symmetry_equiv_pos_as_xyz
  1  'x, y, z'
loop_
 _atom_site_type_symbol
 _atom_site_label
 _atom_site_symmetry_multiplicity
 _atom_site_fract_x
 _atom_site_fract_y
 _atom_site_fract_z
 _atom_site_occupancy
  Fe  Fe0  1  0.500000  0.000000  0.250000  1
  Fe  Fe1  1  0.500000  0.000000  0.750000  1
  Fe  Fe2  1  0.000000  0.500000  0.250000  1
  Fe  Fe3  1  0.000000  0.500000  0.750000  1
  As  As4  1  0.810065  0.175289  0.500000  1
  As  As5  1  0.175289  0.189935  0.000000  1
  As  As6  1  0.675289  0.310065  0.000000  1
  As  As7  1  0.310065  0.324711  0.500000  1
  As  As8  1  0.689935  0.675289  0.500000  1
  As  As9  1  0.324711  0.689935  0.000000  1
  As  As10  1  0.824711  0.810065  0.000000  1
  As  As11  1  0.189935  0.824711  0.500000  1
  O  O12  1  0.641931  0.109872  0.000000  1
  O  O13  1  0.609872  0.141931  0.500000  1
  O  O14  1  0.317172  0.182828  0.250000  1
  O  O15  1  0.317172  0.182828  0.750000  1
  O  O16  1  0.817172  0.317172  0.250000  1
  O  O17  1  0.817172  0.317172  0.750000  1
  O  O18  1  0.109872  0.358069  0.500000  1
  O  O19  1  0.141931  0.390128  0.000000  1
  O  O20  1  0.858069  0.609872  0.000000  1
  O  O21  1  0.890128  0.641931  0.500000  1
  O  O22  1  0.182828  0.682828  0.250000  1
  O  O23  1  0.182828  0.682828  0.750000  1
  O  O24  1  0.682828  0.817172  0.250000  1
  O  O25  1  0.682828  0.817172  0.750000  1
  O  O26  1  0.390128  0.858069  0.500000  1
  O  O27  1  0.358069  0.890128  0.000000  1
