# generated using pymatgen
data_LiFe2O2F3
_symmetry_space_group_name_H-M   'P 1'
_cell_length_a   5.81220557
_cell_length_b   5.81220557
_cell_length_c   7.21103485
_cell_angle_alpha   70.61674488
_cell_angle_beta   109.38325512
_cell_angle_gamma   125.45335798
_symmetry_Int_Tables_number   1
_chemical_formula_structural   LiFe2O2F3
_chemical_formula_sum   'Li2 Fe4 O4 F6'
_cell_volume   184.08231639
_cell_formula_units_Z   2
loop_
 _symmetry_equiv_pos_site_id
 _symmetry_equiv_pos_as_xyz
  1  'x, y, z'
loop_
 _atom_site_type_symbol
 _atom_site_label
 _atom_site_symmetry_multiplicity
 _atom_site_fract_x
 _atom_site_fract_y
 _atom_site_fract_z
 _atom_site_occupancy
  Li  Li0  1  0.000404  0.007452  0.748068  1
  Li  Li1  1  0.007452  0.000404  0.251932  1
  Fe  Fe2  1  0.373632  0.610637  0.550006  1
  Fe  Fe3  1  0.397597  0.635021  0.049237  1
  Fe  Fe4  1  0.610637  0.373632  0.449994  1
  Fe  Fe5  1  0.635021  0.397597  0.950763  1
  O  O6  1  0.283286  0.453764  0.310006  1
  O  O7  1  0.557304  0.726968  0.810816  1
  O  O8  1  0.453764  0.283286  0.689994  1
  O  O9  1  0.726968  0.557304  0.189184  1
  F  F10  1  0.961067  0.359813  0.590496  1
  F  F11  1  0.359813  0.961067  0.409504  1
  F  F12  1  0.651792  0.047547  0.088730  1
  F  F13  1  0.047547  0.651792  0.911270  1
  F  F14  1  0.809926  0.809926  0.500000  1
  F  F15  1  0.201519  0.201519  0.000000  1
