# generated using pymatgen
data_V2OF5
_symmetry_space_group_name_H-M   'P 1'
_cell_length_a   5.42189399
_cell_length_b   7.59419421
_cell_length_c   9.06247655
_cell_angle_alpha   113.85550176
_cell_angle_beta   105.88555653
_cell_angle_gamma   92.89504311
_symmetry_Int_Tables_number   1
_chemical_formula_structural   V2OF5
_chemical_formula_sum   'V6 O3 F15'
_cell_volume   322.67619548
_cell_formula_units_Z   3
loop_
 _symmetry_equiv_pos_site_id
 _symmetry_equiv_pos_as_xyz
  1  'x, y, z'
loop_
 _atom_site_type_symbol
 _atom_site_label
 _atom_site_symmetry_multiplicity
 _atom_site_fract_x
 _atom_site_fract_y
 _atom_site_fract_z
 _atom_site_occupancy
  V  V0  1  0.004411  0.002823  0.995856  1
  V  V1  1  0.025511  0.500905  0.007230  1
  V  V2  1  0.702785  0.675380  0.660011  1
  V  V3  1  0.637501  0.163755  0.682009  1
  V  V4  1  0.331610  0.833542  0.337451  1
  V  V5  1  0.325282  0.336552  0.330799  1
  O  O6  1  0.371482  0.112917  0.852039  1
  O  O7  1  0.014908  0.771429  0.535370  1
  O  O8  1  0.209138  0.473237  0.133053  1
  F  F9  1  0.315007  0.555499  0.797880  1
  F  F10  1  0.694534  0.449341  0.602446  1
  F  F11  1  0.777395  0.519166  0.869293  1
  F  F12  1  0.564358  0.815229  0.470272  1
  F  F13  1  0.636358  0.882478  0.734176  1
  F  F14  1  0.029169  0.782105  0.931805  1
  F  F15  1  0.102623  0.850797  0.198164  1
  F  F16  1  0.897230  0.152097  0.798521  1
  F  F17  1  0.963573  0.219454  0.062173  1
  F  F18  1  0.960292  0.215762  0.476786  1
  F  F19  1  0.635206  0.885008  0.133874  1
  F  F20  1  0.363158  0.116714  0.267754  1
  F  F21  1  0.442374  0.184399  0.528140  1
  F  F22  1  0.302272  0.550596  0.399087  1
  F  F23  1  0.693825  0.450819  0.195810  1
