# generated using pymatgen
data_V2P2H6PbO14
_symmetry_space_group_name_H-M   'P 1'
_cell_length_a   6.32151707
_cell_length_b   6.32151707
_cell_length_c   14.00075671
_cell_angle_alpha   81.48960943
_cell_angle_beta   98.51039057
_cell_angle_gamma   90.22530027
_symmetry_Int_Tables_number   1
_chemical_formula_structural   V2P2H6PbO14
_chemical_formula_sum   'V4 P4 H12 Pb2 O28'
_cell_volume   547.14672183
_cell_formula_units_Z   2
loop_
 _symmetry_equiv_pos_site_id
 _symmetry_equiv_pos_as_xyz
  1  'x, y, z'
loop_
 _atom_site_type_symbol
 _atom_site_label
 _atom_site_symmetry_multiplicity
 _atom_site_fract_x
 _atom_site_fract_y
 _atom_site_fract_z
 _atom_site_occupancy
  V  V0  1  0.257965  0.950745  0.531999  1
  V  V1  1  0.049255  0.742035  0.031999  1
  V  V2  1  0.730281  0.492700  0.430667  1
  V  V3  1  0.507300  0.269719  0.930667  1
  P  P4  1  0.741461  0.975725  0.478556  1
  P  P5  1  0.024275  0.258539  0.978556  1
  P  P6  1  0.240746  0.475400  0.475409  1
  P  P7  1  0.524600  0.759254  0.975409  1
  H  H8  1  0.280175  0.913930  0.742237  1
  H  H9  1  0.086070  0.719825  0.242237  1
  H  H10  1  0.810130  0.591914  0.217160  1
  H  H11  1  0.408086  0.189870  0.717160  1
  H  H12  1  0.604122  0.454355  0.218636  1
  H  H13  1  0.545645  0.395878  0.718636  1
  H  H14  1  0.902740  0.016906  0.285949  1
  H  H15  1  0.983094  0.097260  0.785949  1
  H  H16  1  0.217906  0.434500  0.213282  1
  H  H17  1  0.565500  0.782094  0.713282  1
  H  H18  1  0.114457  0.211826  0.213983  1
  H  H19  1  0.788174  0.885543  0.713983  1
  Pb  Pb20  1  0.496183  0.958616  0.222435  1
  Pb  Pb21  1  0.041384  0.503817  0.722435  1
  O  O22  1  0.210567  0.969826  0.413246  1
  O  O23  1  0.030174  0.789433  0.913246  1
  O  O24  1  0.563870  0.956740  0.542598  1
  O  O25  1  0.043260  0.436130  0.042598  1
  O  O26  1  0.954802  0.937346  0.547282  1
  O  O27  1  0.062654  0.045198  0.047282  1
  O  O28  1  0.264288  0.633734  0.550833  1
  O  O29  1  0.366266  0.735712  0.050833  1
  O  O30  1  0.251574  0.254107  0.538937  1
  O  O31  1  0.745893  0.748426  0.038937  1
  O  O32  1  0.775251  0.468638  0.547784  1
  O  O33  1  0.531362  0.224749  0.047784  1
  O  O34  1  0.725706  0.199529  0.413408  1
  O  O35  1  0.800471  0.274294  0.913408  1
  O  O36  1  0.023021  0.512762  0.405920  1
  O  O37  1  0.487238  0.976979  0.905920  1
  O  O38  1  0.420358  0.503497  0.410030  1
  O  O39  1  0.496503  0.579642  0.910030  1
  O  O40  1  0.710592  0.811018  0.404403  1
  O  O41  1  0.188982  0.289408  0.904403  1
  O  O42  1  0.335643  0.901555  0.682419  1
  O  O43  1  0.098445  0.664357  0.182419  1
  O  O44  1  0.683111  0.563117  0.251411  1
  O  O45  1  0.436883  0.316889  0.751411  1
  O  O46  1  0.826621  0.076065  0.221729  1
  O  O47  1  0.923935  0.173379  0.721729  1
  O  O48  1  0.256292  0.275695  0.230316  1
  O  O49  1  0.724305  0.743708  0.730316  1
