# generated using pymatgen
data_Li3V3(BO5)2
_symmetry_space_group_name_H-M   'P 1'
_cell_length_a   3.03396328
_cell_length_b   9.26259192
_cell_length_c   12.26353815
_cell_angle_alpha   89.84740036
_cell_angle_beta   89.91617274
_cell_angle_gamma   89.58353952
_symmetry_Int_Tables_number   1
_chemical_formula_structural   Li3V3(BO5)2
_chemical_formula_sum   'Li6 V6 B4 O20'
_cell_volume   344.62372491
_cell_formula_units_Z   2
loop_
 _symmetry_equiv_pos_site_id
 _symmetry_equiv_pos_as_xyz
  1  'x, y, z'
loop_
 _atom_site_type_symbol
 _atom_site_label
 _atom_site_symmetry_multiplicity
 _atom_site_fract_x
 _atom_site_fract_y
 _atom_site_fract_z
 _atom_site_occupancy
  Li  Li0  1  0.000599  0.023777  0.994577  1
  Li  Li1  1  0.499233  0.988285  0.509688  1
  Li  Li2  1  0.499921  0.232950  0.098833  1
  Li  Li3  1  0.000465  0.498145  0.504315  1
  Li  Li4  1  0.499549  0.490477  0.000596  1
  Li  Li5  1  0.001771  0.990478  0.712055  1
  V  V6  1  0.000258  0.009883  0.281868  1
  V  V7  1  0.515029  0.247340  0.615329  1
  V  V8  1  0.997414  0.498141  0.784664  1
  V  V9  1  0.999306  0.491434  0.211327  1
  V  V10  1  0.499173  0.736241  0.392660  1
  V  V11  1  0.477191  0.766360  0.889634  1
  B  B12  1  0.499416  0.224209  0.857796  1
  B  B13  1  0.498232  0.280023  0.365898  1
  B  B14  1  0.500691  0.731060  0.635926  1
  B  B15  1  0.502379  0.774697  0.139031  1
  O  O16  1  0.999931  0.090967  0.158166  1
  O  O17  1  0.992001  0.133833  0.573651  1
  O  O18  1  0.498406  0.127179  0.350944  1
  O  O19  1  0.496427  0.155882  0.756769  1
  O  O20  1  0.500648  0.153463  0.952401  1
  O  O21  1  0.497019  0.342712  0.464318  1
  O  O22  1  0.500545  0.365568  0.270922  1
  O  O23  1  0.497317  0.380870  0.853592  1
  O  O24  1  0.000596  0.396698  0.089463  1
  O  O25  1  0.004386  0.385377  0.651452  1
  O  O26  1  0.999394  0.607687  0.342116  1
  O  O27  1  0.989235  0.622465  0.920611  1
  O  O28  1  0.498221  0.624142  0.151666  1
  O  O29  1  0.496591  0.647054  0.738317  1
  O  O30  1  0.498064  0.648236  0.540765  1
  O  O31  1  0.512725  0.840638  0.041408  1
  O  O32  1  0.501369  0.857131  0.237649  1
  O  O33  1  0.504753  0.873807  0.642164  1
  O  O34  1  0.000288  0.883957  0.413421  1
  O  O35  1  0.021457  0.878833  0.856009  1
