# generated using pymatgen
data_Na6W10O33
_symmetry_space_group_name_H-M   'P 1'
_cell_length_a   7.73855344
_cell_length_b   8.24552078
_cell_length_c   12.32350931
_cell_angle_alpha   71.12206172
_cell_angle_beta   72.80241402
_cell_angle_gamma   79.14607785
_symmetry_Int_Tables_number   1
_chemical_formula_structural   Na6W10O33
_chemical_formula_sum   'Na6 W10 O33'
_cell_volume   707.03740205
_cell_formula_units_Z   1
loop_
 _symmetry_equiv_pos_site_id
 _symmetry_equiv_pos_as_xyz
  1  'x, y, z'
loop_
 _atom_site_type_symbol
 _atom_site_label
 _atom_site_symmetry_multiplicity
 _atom_site_fract_x
 _atom_site_fract_y
 _atom_site_fract_z
 _atom_site_occupancy
  Na  Na0  1  0.143503  0.844324  0.771540  1
  Na  Na1  1  0.896194  0.656878  0.214810  1
  Na  Na2  1  0.633162  0.387068  0.759797  1
  Na  Na3  1  0.366838  0.612932  0.240203  1
  Na  Na4  1  0.103806  0.343122  0.785190  1
  Na  Na5  1  0.856497  0.155676  0.228460  1
  W  W6  1  0.677364  0.932439  0.680913  1
  W  W7  1  0.711361  0.609959  0.980362  1
  W  W8  1  0.553954  0.773432  0.500269  1
  W  W9  1  0.280924  0.982930  0.027677  1
  W  W10  1  0.051240  0.770395  0.507401  1
  W  W11  1  0.948760  0.229605  0.492599  1
  W  W12  1  0.719076  0.017070  0.972323  1
  W  W13  1  0.446046  0.226568  0.499731  1
  W  W14  1  0.288639  0.390041  0.019638  1
  W  W15  1  0.322636  0.067561  0.319087  1
  O  O16  1  0.939234  0.965853  0.619767  1
  O  O17  1  0.854140  0.814608  0.925172  1
  O  O18  1  0.464502  0.940974  0.621829  1
  O  O19  1  0.671707  0.724503  0.790505  1
  O  O20  1  0.781522  0.812781  0.530323  1
  O  O21  1  0.778931  0.991731  0.105292  1
  O  O22  1  0.301492  0.837398  0.478389  1
  O  O23  1  0.388260  0.925458  0.229430  1
  O  O24  1  0.887970  0.470811  0.920855  1
  O  O25  1  0.500000  0.500000  0.000000  1
  O  O26  1  0.667411  0.713167  0.370879  1
  O  O27  1  0.513285  0.579283  0.612758  1
  O  O28  1  0.062594  0.614763  0.642946  1
  O  O29  1  0.518725  0.843597  0.006958  1
  O  O30  1  0.290525  0.457080  0.866639  1
  O  O31  1  0.151241  0.821150  0.136768  1
  O  O32  1  0.101574  0.656376  0.401587  1
  O  O33  1  0.898426  0.343624  0.598413  1
  O  O34  1  0.848759  0.178850  0.863232  1
  O  O35  1  0.709475  0.542920  0.133361  1
  O  O36  1  0.481275  0.156403  0.993042  1
  O  O37  1  0.937406  0.385237  0.357054  1
  O  O38  1  0.486715  0.420717  0.387242  1
  O  O39  1  0.332589  0.286833  0.629121  1
  O  O40  1  0.112030  0.529189  0.079145  1
  O  O41  1  0.611740  0.074542  0.770570  1
  O  O42  1  0.698508  0.162602  0.521611  1
  O  O43  1  0.221069  0.008269  0.894708  1
  O  O44  1  0.218478  0.187219  0.469677  1
  O  O45  1  0.328293  0.275497  0.209495  1
  O  O46  1  0.535498  0.059026  0.378171  1
  O  O47  1  0.145860  0.185392  0.074828  1
  O  O48  1  0.060766  0.034147  0.380233  1
