# generated using pymatgen
data_Li4Mn3OF11
_symmetry_space_group_name_H-M   'P 1'
_cell_length_a   5.78016853
_cell_length_b   6.11854639
_cell_length_c   6.16221707
_cell_angle_alpha   98.59381426
_cell_angle_beta   98.49451202
_cell_angle_gamma   97.57975299
_symmetry_Int_Tables_number   1
_chemical_formula_structural   Li4Mn3OF11
_chemical_formula_sum   'Li4 Mn3 O1 F11'
_cell_volume   210.46517694
_cell_formula_units_Z   1
loop_
 _symmetry_equiv_pos_site_id
 _symmetry_equiv_pos_as_xyz
  1  'x, y, z'
loop_
 _atom_site_type_symbol
 _atom_site_label
 _atom_site_symmetry_multiplicity
 _atom_site_fract_x
 _atom_site_fract_y
 _atom_site_fract_z
 _atom_site_occupancy
  Li  Li0  1  0.990261  0.996964  0.021998  1
  Li  Li1  1  0.122043  0.602236  0.326375  1
  Li  Li2  1  0.293238  0.094005  0.607253  1
  Li  Li3  1  0.418320  0.727921  0.862967  1
  Mn  Mn4  1  0.595759  0.363161  0.151178  1
  Mn  Mn5  1  0.712941  0.865370  0.405697  1
  Mn  Mn6  1  0.896779  0.418052  0.682871  1
  O  O7  1  0.775771  0.571608  0.406491  1
  F  F8  1  0.903375  0.297072  0.111779  1
  F  F9  1  0.688109  0.845118  0.076891  1
  F  F10  1  0.352290  0.542677  0.147111  1
  F  F11  1  0.899423  0.102242  0.712339  1
  F  F12  1  0.593564  0.151929  0.396924  1
  F  F13  1  0.460245  0.817294  0.579858  1
  F  F14  1  0.064764  0.925159  0.352106  1
  F  F15  1  0.625100  0.449338  0.804331  1
  F  F16  1  0.170996  0.391219  0.562330  1
  F  F17  1  0.374848  0.128902  0.952623  1
  F  F18  1  0.062172  0.709732  0.838877  1
