# generated using pymatgen
data_Cs2Ba2O3
_symmetry_space_group_name_H-M   'P 1'
_cell_length_a   7.67768405
_cell_length_b   7.87042423
_cell_length_c   7.71110549
_cell_angle_alpha   90.00000000
_cell_angle_beta   117.51717983
_cell_angle_gamma   90.00000000
_symmetry_Int_Tables_number   1
_chemical_formula_structural   Cs2Ba2O3
_chemical_formula_sum   'Cs4 Ba4 O6'
_cell_volume   413.24359718
_cell_formula_units_Z   2
loop_
 _symmetry_equiv_pos_site_id
 _symmetry_equiv_pos_as_xyz
  1  'x, y, z'
loop_
 _atom_site_type_symbol
 _atom_site_label
 _atom_site_symmetry_multiplicity
 _atom_site_fract_x
 _atom_site_fract_y
 _atom_site_fract_z
 _atom_site_occupancy
  Cs  Cs0  1  0.076588  0.350551  0.823687  1
  Cs  Cs1  1  0.576588  0.149449  0.823687  1
  Cs  Cs2  1  0.423412  0.850551  0.176313  1
  Cs  Cs3  1  0.923412  0.649449  0.176313  1
  Ba  Ba4  1  0.438073  0.625830  0.672035  1
  Ba  Ba5  1  0.061927  0.125830  0.327965  1
  Ba  Ba6  1  0.938073  0.874170  0.672035  1
  Ba  Ba7  1  0.561927  0.374170  0.327965  1
  O  O8  1  0.500000  0.500000  0.000000  1
  O  O9  1  0.000000  0.000000  0.000000  1
  O  O10  1  0.247759  0.910895  0.609064  1
  O  O11  1  0.252241  0.410895  0.390936  1
  O  O12  1  0.747759  0.589105  0.609064  1
  O  O13  1  0.752241  0.089105  0.390936  1
