# generated using pymatgen
data_Li6Mn5Fe(BO3)6
_symmetry_space_group_name_H-M   'P 1'
_cell_length_a   8.27155302
_cell_length_b   3.18374013
_cell_length_c   14.33027314
_cell_angle_alpha   90.00000000
_cell_angle_beta   90.09913367
_cell_angle_gamma   90.00000000
_symmetry_Int_Tables_number   1
_chemical_formula_structural   Li6Mn5Fe(BO3)6
_chemical_formula_sum   'Li6 Mn5 Fe1 B6 O18'
_cell_volume   377.37965895
_cell_formula_units_Z   1
loop_
 _symmetry_equiv_pos_site_id
 _symmetry_equiv_pos_as_xyz
  1  'x, y, z'
loop_
 _atom_site_type_symbol
 _atom_site_label
 _atom_site_symmetry_multiplicity
 _atom_site_fract_x
 _atom_site_fract_y
 _atom_site_fract_z
 _atom_site_occupancy
  Li  Li0  1  0.707370  0.500000  0.009633  1
  Li  Li1  1  0.659393  0.500000  0.641792  1
  Li  Li2  1  0.633545  0.500000  0.348975  1
  Li  Li3  1  0.207072  0.500000  0.508228  1
  Li  Li4  1  0.158532  0.500000  0.142687  1
  Li  Li5  1  0.132864  0.500000  0.849568  1
  Mn  Mn6  1  0.865016  0.000000  0.493726  1
  Mn  Mn7  1  0.808005  0.000000  0.820030  1
  Mn  Mn8  1  0.365924  0.000000  0.994418  1
  Mn  Mn9  1  0.326403  0.000000  0.685305  1
  Mn  Mn10  1  0.308410  0.000000  0.320207  1
  Fe  Fe11  1  0.824734  0.000000  0.183272  1
  B  B12  1  0.998293  0.500000  0.332237  1
  B  B13  1  0.000437  0.000000  0.000997  1
  B  B14  1  0.999980  0.500000  0.666630  1
  B  B15  1  0.500070  0.500000  0.833525  1
  B  B16  1  0.500039  0.000000  0.499891  1
  B  B17  1  0.502173  0.500000  0.166744  1
  O  O18  1  0.989454  0.500000  0.569981  1
  O  O19  1  0.981845  0.500000  0.235696  1
  O  O20  1  0.861364  0.500000  0.388869  1
  O  O21  1  0.860127  0.500000  0.720290  1
  O  O22  1  0.846597  0.000000  0.041600  1
  O  O23  1  0.652580  0.500000  0.875092  1
  O  O24  1  0.653621  0.500000  0.209125  1
  O  O25  1  0.635779  0.000000  0.557805  1
  O  O26  1  0.518817  0.000000  0.403214  1
  O  O27  1  0.490078  0.500000  0.070025  1
  O  O28  1  0.486201  0.500000  0.736676  1
  O  O29  1  0.361831  0.500000  0.888829  1
  O  O30  1  0.362592  0.500000  0.220554  1
  O  O31  1  0.345422  0.000000  0.538808  1
  O  O32  1  0.151416  0.500000  0.373413  1
  O  O33  1  0.150369  0.500000  0.709961  1
  O  O34  1  0.136738  0.000000  0.057956  1
  O  O35  1  0.016908  0.000000  0.904237  1
