# generated using pymatgen
data_Li5Nb2Co3O10
_symmetry_space_group_name_H-M   'P 1'
_cell_length_a   5.20987043
_cell_length_b   5.30628852
_cell_length_c   7.87624916
_cell_angle_alpha   102.03066402
_cell_angle_beta   109.06348065
_cell_angle_gamma   99.92394658
_symmetry_Int_Tables_number   1
_chemical_formula_structural   Li5Nb2Co3O10
_chemical_formula_sum   'Li5 Nb2 Co3 O10'
_cell_volume   194.35131388
_cell_formula_units_Z   1
loop_
 _symmetry_equiv_pos_site_id
 _symmetry_equiv_pos_as_xyz
  1  'x, y, z'
loop_
 _atom_site_type_symbol
 _atom_site_label
 _atom_site_symmetry_multiplicity
 _atom_site_fract_x
 _atom_site_fract_y
 _atom_site_fract_z
 _atom_site_occupancy
  Li  Li0  1  0.178110  0.502141  0.403725  1
  Li  Li1  1  0.374205  0.488418  0.798284  1
  Li  Li2  1  0.000000  0.000000  0.500000  1
  Li  Li3  1  0.625795  0.511582  0.201716  1
  Li  Li4  1  0.821890  0.497859  0.596275  1
  Nb  Nb5  1  0.599716  0.988190  0.711505  1
  Nb  Nb6  1  0.400284  0.011810  0.288495  1
  Co  Co7  1  0.000000  0.500000  0.000000  1
  Co  Co8  1  0.184153  0.005079  0.910993  1
  Co  Co9  1  0.815847  0.994921  0.089007  1
  O  O10  1  0.789541  0.732676  0.835417  1
  O  O11  1  0.591835  0.242382  0.939113  1
  O  O12  1  0.404844  0.215516  0.542965  1
  O  O13  1  0.022975  0.755619  0.247770  1
  O  O14  1  0.224066  0.764275  0.658106  1
  O  O15  1  0.775934  0.235725  0.341894  1
  O  O16  1  0.977025  0.244381  0.752230  1
  O  O17  1  0.595156  0.784484  0.457035  1
  O  O18  1  0.408165  0.757618  0.060887  1
  O  O19  1  0.210459  0.267324  0.164583  1
