# generated using pymatgen
data_Li4Ti2Fe3Sb3O16
_symmetry_space_group_name_H-M   'P 1'
_cell_length_a   6.23224221
_cell_length_b   6.23224221
_cell_length_c   9.75147426
_cell_angle_alpha   88.65136324
_cell_angle_beta   91.34863676
_cell_angle_gamma   120.77923064
_symmetry_Int_Tables_number   1
_chemical_formula_structural   Li4Ti2Fe3Sb3O16
_chemical_formula_sum   'Li4 Ti2 Fe3 Sb3 O16'
_cell_volume   325.28678800
_cell_formula_units_Z   1
loop_
 _symmetry_equiv_pos_site_id
 _symmetry_equiv_pos_as_xyz
  1  'x, y, z'
loop_
 _atom_site_type_symbol
 _atom_site_label
 _atom_site_symmetry_multiplicity
 _atom_site_fract_x
 _atom_site_fract_y
 _atom_site_fract_z
 _atom_site_occupancy
  Li  Li0  1  0.671784  0.328216  0.892592  1
  Li  Li1  1  0.986858  0.013142  0.983493  1
  Li  Li2  1  0.995047  0.004953  0.502335  1
  Li  Li3  1  0.323253  0.676747  0.401018  1
  Ti  Ti4  1  0.677449  0.322551  0.504137  1
  Ti  Ti5  1  0.357798  0.642202  0.974651  1
  Fe  Fe6  1  0.827843  0.172157  0.214651  1
  Fe  Fe7  1  0.177487  0.337185  0.710382  1
  Fe  Fe8  1  0.662815  0.822513  0.710382  1
  Sb  Sb9  1  0.334950  0.172294  0.215864  1
  Sb  Sb10  1  0.827706  0.665050  0.215864  1
  Sb  Sb11  1  0.176136  0.823864  0.716468  1
  O  O12  1  0.345863  0.154133  0.593741  1
  O  O13  1  0.510209  0.489791  0.337328  1
  O  O14  1  0.656580  0.343420  0.101441  1
  O  O15  1  0.001051  0.998949  0.315721  1
  O  O16  1  0.012057  0.987943  0.800399  1
  O  O17  1  0.845867  0.654137  0.593741  1
  O  O18  1  0.511539  0.052291  0.345400  1
  O  O19  1  0.947709  0.488461  0.345400  1
  O  O20  1  0.152803  0.847197  0.104245  1
  O  O21  1  0.828321  0.171679  0.586557  1
  O  O22  1  0.044978  0.528105  0.850058  1
  O  O23  1  0.471895  0.955022  0.850058  1
  O  O24  1  0.326267  0.673733  0.603349  1
  O  O25  1  0.171599  0.331574  0.092232  1
  O  O26  1  0.482130  0.517870  0.853956  1
  O  O27  1  0.668426  0.828401  0.092232  1
