# generated using pymatgen
data_Sc2O3
_symmetry_space_group_name_H-M   'P 1'
_cell_length_a   5.45787140
_cell_length_b   9.33456821
_cell_length_c   9.94101716
_cell_angle_alpha   90.00000000
_cell_angle_beta   90.00000000
_cell_angle_gamma   90.00000000
_symmetry_Int_Tables_number   1
_chemical_formula_structural   Sc2O3
_chemical_formula_sum   'Sc16 O24'
_cell_volume   506.46373740
_cell_formula_units_Z   8
loop_
 _symmetry_equiv_pos_site_id
 _symmetry_equiv_pos_as_xyz
  1  'x, y, z'
loop_
 _atom_site_type_symbol
 _atom_site_label
 _atom_site_symmetry_multiplicity
 _atom_site_fract_x
 _atom_site_fract_y
 _atom_site_fract_z
 _atom_site_occupancy
  Sc  Sc0  1  0.180375  0.162173  0.870457  1
  Sc  Sc1  1  0.176769  0.853322  0.058243  1
  Sc  Sc2  1  0.170597  0.529929  0.860460  1
  Sc  Sc3  1  0.185012  0.844570  0.646581  1
  Sc  Sc4  1  0.323231  0.353322  0.558243  1
  Sc  Sc5  1  0.329403  0.029929  0.360460  1
  Sc  Sc6  1  0.314988  0.344570  0.146581  1
  Sc  Sc7  1  0.319625  0.662173  0.370457  1
  Sc  Sc8  1  0.685012  0.655430  0.646581  1
  Sc  Sc9  1  0.670597  0.970071  0.860460  1
  Sc  Sc10  1  0.680375  0.337827  0.870457  1
  Sc  Sc11  1  0.676769  0.646678  0.058243  1
  Sc  Sc12  1  0.823231  0.146678  0.558243  1
  Sc  Sc13  1  0.814988  0.155430  0.146581  1
  Sc  Sc14  1  0.829403  0.470071  0.360460  1
  Sc  Sc15  1  0.819625  0.837827  0.370457  1
  O  O16  1  0.969601  0.017499  0.994034  1
  O  O17  1  0.008582  0.324724  0.990466  1
  O  O18  1  0.030399  0.982501  0.494034  1
  O  O19  1  0.022565  0.671690  0.002072  1
  O  O20  1  0.977435  0.328310  0.502072  1
  O  O21  1  0.991418  0.675276  0.490466  1
  O  O22  1  0.158539  0.165822  0.233620  1
  O  O23  1  0.165618  0.493208  0.271242  1
  O  O24  1  0.162309  0.838415  0.260328  1
  O  O25  1  0.337691  0.338415  0.760328  1
  O  O26  1  0.334382  0.993208  0.771242  1
  O  O27  1  0.341461  0.665822  0.733620  1
  O  O28  1  0.508582  0.175276  0.990466  1
  O  O29  1  0.477435  0.171690  0.502072  1
  O  O30  1  0.522565  0.828310  0.002072  1
  O  O31  1  0.491418  0.824724  0.490466  1
  O  O32  1  0.530399  0.517499  0.494034  1
  O  O33  1  0.469601  0.482501  0.994034  1
  O  O34  1  0.662309  0.661585  0.260328  1
  O  O35  1  0.665618  0.006792  0.271242  1
  O  O36  1  0.658539  0.334178  0.233620  1
  O  O37  1  0.837691  0.161585  0.760328  1
  O  O38  1  0.834382  0.506792  0.771242  1
  O  O39  1  0.841461  0.834178  0.733620  1
