# generated using pymatgen
data_Li2CrFeO4
_symmetry_space_group_name_H-M   'P 1'
_cell_length_a   5.28043836
_cell_length_b   5.28043836
_cell_length_c   5.28043836
_cell_angle_alpha   134.54498743
_cell_angle_beta   134.54498743
_cell_angle_gamma   66.23801433
_symmetry_Int_Tables_number   1
_chemical_formula_structural   Li2CrFeO4
_chemical_formula_sum   'Li2 Cr1 Fe1 O4'
_cell_volume   73.62639175
_cell_formula_units_Z   1
loop_
 _symmetry_equiv_pos_site_id
 _symmetry_equiv_pos_as_xyz
  1  'x, y, z'
loop_
 _atom_site_type_symbol
 _atom_site_label
 _atom_site_symmetry_multiplicity
 _atom_site_fract_x
 _atom_site_fract_y
 _atom_site_fract_z
 _atom_site_occupancy
  Li  Li0  1  0.250000  0.750000  0.500000  1
  Li  Li1  1  0.500000  0.500000  0.000000  1
  Cr  Cr2  1  0.750000  0.250000  0.500000  1
  Fe  Fe3  1  0.000000  0.000000  0.000000  1
  O  O4  1  0.521261  0.021261  0.500000  1
  O  O5  1  0.230701  0.230701  0.000000  1
  O  O6  1  0.978739  0.478739  0.500000  1
  O  O7  1  0.769299  0.769299  0.000000  1
