# generated using pymatgen
data_Mn6OF11
_symmetry_space_group_name_H-M   'P 1'
_cell_length_a   5.93216497
_cell_length_b   5.93216497
_cell_length_c   7.78554418
_cell_angle_alpha   72.81080511
_cell_angle_beta   107.18919489
_cell_angle_gamma   109.27273197
_symmetry_Int_Tables_number   1
_chemical_formula_structural   Mn6OF11
_chemical_formula_sum   'Mn6 O1 F11'
_cell_volume   241.04399252
_cell_formula_units_Z   1
loop_
 _symmetry_equiv_pos_site_id
 _symmetry_equiv_pos_as_xyz
  1  'x, y, z'
loop_
 _atom_site_type_symbol
 _atom_site_label
 _atom_site_symmetry_multiplicity
 _atom_site_fract_x
 _atom_site_fract_y
 _atom_site_fract_z
 _atom_site_occupancy
  Mn  Mn0  1  0.352979  0.667832  0.842336  1
  Mn  Mn1  1  0.672394  0.337776  0.668134  1
  Mn  Mn2  1  0.337776  0.672394  0.331866  1
  Mn  Mn3  1  0.667832  0.352979  0.157664  1
  Mn  Mn4  1  0.001544  0.001544  0.500000  1
  Mn  Mn5  1  0.974071  0.974071  0.000000  1
  O  O6  1  0.699366  0.699366  0.000000  1
  F  F7  1  0.987174  0.637444  0.672532  1
  F  F8  1  0.637444  0.987174  0.327468  1
  F  F9  1  0.096658  0.898816  0.292877  1
  F  F10  1  0.437020  0.567377  0.629408  1
  F  F11  1  0.768374  0.222825  0.966683  1
  F  F12  1  0.898816  0.096658  0.707123  1
  F  F13  1  0.222825  0.768374  0.033317  1
  F  F14  1  0.567377  0.437020  0.370592  1
  F  F15  1  0.030871  0.365325  0.334318  1
  F  F16  1  0.365325  0.030871  0.665682  1
  F  F17  1  0.282155  0.282155  0.000000  1
