# generated using pymatgen
data_Li2BiP3O10
_symmetry_space_group_name_H-M   'P 1'
_cell_length_a   5.10936958
_cell_length_b   9.00353541
_cell_length_c   10.26527260
_cell_angle_alpha   90.00000000
_cell_angle_beta   98.41270252
_cell_angle_gamma   90.00000000
_symmetry_Int_Tables_number   1
_chemical_formula_structural   Li2BiP3O10
_chemical_formula_sum   'Li4 Bi2 P6 O20'
_cell_volume   467.14587218
_cell_formula_units_Z   2
loop_
 _symmetry_equiv_pos_site_id
 _symmetry_equiv_pos_as_xyz
  1  'x, y, z'
loop_
 _atom_site_type_symbol
 _atom_site_label
 _atom_site_symmetry_multiplicity
 _atom_site_fract_x
 _atom_site_fract_y
 _atom_site_fract_z
 _atom_site_occupancy
  Li  Li0  1  0.175700  0.076763  0.577420  1
  Li  Li1  1  0.175700  0.423237  0.577420  1
  Li  Li2  1  0.824300  0.576763  0.422580  1
  Li  Li3  1  0.824300  0.923237  0.422580  1
  Bi  Bi4  1  0.000000  0.000000  0.000000  1
  Bi  Bi5  1  0.000000  0.500000  0.000000  1
  P  P6  1  0.321209  0.250000  0.213457  1
  P  P7  1  0.361044  0.750000  0.500682  1
  P  P8  1  0.516836  0.750000  0.056141  1
  P  P9  1  0.483164  0.250000  0.943859  1
  P  P10  1  0.638956  0.250000  0.499318  1
  P  P11  1  0.678791  0.750000  0.786543  1
  O  O12  1  0.156950  0.108466  0.199334  1
  O  O13  1  0.156950  0.391534  0.199334  1
  O  O14  1  0.219125  0.750000  0.074729  1
  O  O15  1  0.201121  0.607653  0.481441  1
  O  O16  1  0.201121  0.892347  0.481441  1
  O  O17  1  0.387629  0.250000  0.563399  1
  O  O18  1  0.341959  0.106490  0.895345  1
  O  O19  1  0.341959  0.393510  0.895345  1
  O  O20  1  0.517376  0.250000  0.104053  1
  O  O21  1  0.466593  0.750000  0.663168  1
  O  O22  1  0.533407  0.250000  0.336832  1
  O  O23  1  0.482624  0.750000  0.895947  1
  O  O24  1  0.658041  0.893510  0.104655  1
  O  O25  1  0.658041  0.606490  0.104655  1
  O  O26  1  0.612371  0.750000  0.436601  1
  O  O27  1  0.798879  0.107653  0.518559  1
  O  O28  1  0.798879  0.392347  0.518559  1
  O  O29  1  0.780875  0.250000  0.925271  1
  O  O30  1  0.843050  0.608466  0.800666  1
  O  O31  1  0.843050  0.891534  0.800666  1
