# generated using pymatgen
data_V3O5F
_symmetry_space_group_name_H-M   'P 1'
_cell_length_a   4.58448198
_cell_length_b   5.50301375
_cell_length_c   7.65269160
_cell_angle_alpha   87.08522746
_cell_angle_beta   89.07980531
_cell_angle_gamma   88.64423541
_symmetry_Int_Tables_number   1
_chemical_formula_structural   V3O5F
_chemical_formula_sum   'V6 O10 F2'
_cell_volume   192.74058780
_cell_formula_units_Z   2
loop_
 _symmetry_equiv_pos_site_id
 _symmetry_equiv_pos_as_xyz
  1  'x, y, z'
loop_
 _atom_site_type_symbol
 _atom_site_label
 _atom_site_symmetry_multiplicity
 _atom_site_fract_x
 _atom_site_fract_y
 _atom_site_fract_z
 _atom_site_occupancy
  V  V0  1  0.500000  0.500000  0.500000  1
  V  V1  1  0.491513  0.160423  0.827519  1
  V  V2  1  0.508487  0.839577  0.172481  1
  V  V3  1  0.000000  0.000000  0.500000  1
  V  V4  1  0.982046  0.331086  0.149814  1
  V  V5  1  0.017954  0.668914  0.850186  1
  O  O6  1  0.797527  0.033335  0.261971  1
  O  O7  1  0.797974  0.370717  0.932566  1
  O  O8  1  0.701854  0.869187  0.930182  1
  O  O9  1  0.688144  0.199590  0.602269  1
  O  O10  1  0.707758  0.530022  0.267471  1
  O  O11  1  0.311856  0.800410  0.397731  1
  O  O12  1  0.298146  0.130813  0.069818  1
  O  O13  1  0.292242  0.469978  0.732529  1
  O  O14  1  0.202026  0.629283  0.067434  1
  O  O15  1  0.202473  0.966665  0.738029  1
  F  F16  1  0.809012  0.696797  0.608231  1
  F  F17  1  0.190988  0.303203  0.391769  1
