# generated using pymatgen
data_LiCu(PO3)3
_symmetry_space_group_name_H-M   'P 1'
_cell_length_a   5.15760767
_cell_length_b   11.58375044
_cell_length_c   13.08281619
_cell_angle_alpha   90.00000000
_cell_angle_beta   90.00000000
_cell_angle_gamma   90.00000000
_symmetry_Int_Tables_number   1
_chemical_formula_structural   LiCu(PO3)3
_chemical_formula_sum   'Li4 Cu4 P12 O36'
_cell_volume   781.62552842
_cell_formula_units_Z   4
loop_
 _symmetry_equiv_pos_site_id
 _symmetry_equiv_pos_as_xyz
  1  'x, y, z'
loop_
 _atom_site_type_symbol
 _atom_site_label
 _atom_site_symmetry_multiplicity
 _atom_site_fract_x
 _atom_site_fract_y
 _atom_site_fract_z
 _atom_site_occupancy
  Li  Li0  1  0.120567  0.060898  0.250000  1
  Li  Li1  1  0.120567  0.439102  0.750000  1
  Li  Li2  1  0.879433  0.560898  0.250000  1
  Li  Li3  1  0.879433  0.939102  0.750000  1
  Cu  Cu4  1  0.000000  0.000000  0.000000  1
  Cu  Cu5  1  0.000000  0.500000  0.000000  1
  Cu  Cu6  1  0.000000  0.000000  0.500000  1
  Cu  Cu7  1  0.000000  0.500000  0.500000  1
  P  P8  1  0.235887  0.750000  0.000000  1
  P  P9  1  0.235887  0.750000  0.500000  1
  P  P10  1  0.473019  0.082281  0.638977  1
  P  P11  1  0.473019  0.082281  0.861023  1
  P  P12  1  0.473019  0.417719  0.138977  1
  P  P13  1  0.473019  0.417719  0.361023  1
  P  P14  1  0.526981  0.582281  0.638977  1
  P  P15  1  0.526981  0.917719  0.138977  1
  P  P16  1  0.526981  0.917719  0.361023  1
  P  P17  1  0.526981  0.582281  0.861023  1
  P  P18  1  0.764113  0.250000  0.000000  1
  P  P19  1  0.764113  0.250000  0.500000  1
  O  O20  1  0.086235  0.657169  0.055036  1
  O  O21  1  0.086235  0.657169  0.444964  1
  O  O22  1  0.086235  0.842831  0.555036  1
  O  O23  1  0.086235  0.842831  0.944964  1
  O  O24  1  0.186871  0.439285  0.121897  1
  O  O25  1  0.186871  0.060715  0.621897  1
  O  O26  1  0.186871  0.439285  0.378103  1
  O  O27  1  0.186871  0.060715  0.878103  1
  O  O28  1  0.338551  0.015570  0.128782  1
  O  O29  1  0.338551  0.015570  0.371218  1
  O  O30  1  0.338551  0.484430  0.628782  1
  O  O31  1  0.338551  0.484430  0.871218  1
  O  O32  1  0.499021  0.859040  0.250000  1
  O  O33  1  0.499021  0.640960  0.750000  1
  O  O34  1  0.442723  0.693269  0.575649  1
  O  O35  1  0.442723  0.806731  0.075649  1
  O  O36  1  0.442723  0.693269  0.924351  1
  O  O37  1  0.442723  0.806731  0.424351  1
  O  O38  1  0.557277  0.193269  0.575649  1
  O  O39  1  0.557277  0.306731  0.075649  1
  O  O40  1  0.557277  0.306731  0.424351  1
  O  O41  1  0.557277  0.193269  0.924351  1
  O  O42  1  0.500979  0.140960  0.750000  1
  O  O43  1  0.500979  0.359040  0.250000  1
  O  O44  1  0.661449  0.984430  0.628782  1
  O  O45  1  0.661449  0.515570  0.128782  1
  O  O46  1  0.661449  0.515570  0.371218  1
  O  O47  1  0.661449  0.984430  0.871218  1
  O  O48  1  0.813129  0.560715  0.621897  1
  O  O49  1  0.813129  0.939285  0.121897  1
  O  O50  1  0.813129  0.939285  0.378103  1
  O  O51  1  0.813129  0.560715  0.878103  1
  O  O52  1  0.913765  0.157169  0.444964  1
  O  O53  1  0.913765  0.342831  0.555036  1
  O  O54  1  0.913765  0.157169  0.055036  1
  O  O55  1  0.913765  0.342831  0.944964  1
