# generated using pymatgen
data_Ba3Hf2O7
_symmetry_space_group_name_H-M   'P 1'
_cell_length_a   11.39552420
_cell_length_b   11.39552420
_cell_length_c   11.39552420
_cell_angle_alpha   158.75258557
_cell_angle_beta   158.75258557
_cell_angle_gamma   30.22577258
_symmetry_Int_Tables_number   1
_chemical_formula_structural   Ba3Hf2O7
_chemical_formula_sum   'Ba3 Hf2 O7'
_cell_volume   194.22301566
_cell_formula_units_Z   1
loop_
 _symmetry_equiv_pos_site_id
 _symmetry_equiv_pos_as_xyz
  1  'x, y, z'
loop_
 _atom_site_type_symbol
 _atom_site_label
 _atom_site_symmetry_multiplicity
 _atom_site_fract_x
 _atom_site_fract_y
 _atom_site_fract_z
 _atom_site_occupancy
  Ba  Ba0  1  0.500000  0.500000  0.000000  1
  Ba  Ba1  1  0.314211  0.314211  0.000000  1
  Ba  Ba2  1  0.685789  0.685789  0.000000  1
  Hf  Hf3  1  0.096592  0.096592  0.000000  1
  Hf  Hf4  1  0.903408  0.903408  0.000000  1
  O  O5  1  1.000000  0.000000  0.000000  1
  O  O6  1  0.404367  0.904367  0.500000  1
  O  O7  1  0.095633  0.595633  0.500000  1
  O  O8  1  0.191523  0.191523  0.000000  1
  O  O9  1  0.808477  0.808477  0.000000  1
  O  O10  1  0.904367  0.404367  0.500000  1
  O  O11  1  0.595633  0.095633  0.500000  1
