# generated using pymatgen
data_SmDyO3
_symmetry_space_group_name_H-M   'P 1'
_cell_length_a   5.80191209
_cell_length_b   6.05917332
_cell_length_c   8.47748716
_cell_angle_alpha   90.00000000
_cell_angle_beta   90.00000000
_cell_angle_gamma   90.00000000
_symmetry_Int_Tables_number   1
_chemical_formula_structural   SmDyO3
_chemical_formula_sum   'Sm4 Dy4 O12'
_cell_volume   298.02428881
_cell_formula_units_Z   4
loop_
 _symmetry_equiv_pos_site_id
 _symmetry_equiv_pos_as_xyz
  1  'x, y, z'
loop_
 _atom_site_type_symbol
 _atom_site_label
 _atom_site_symmetry_multiplicity
 _atom_site_fract_x
 _atom_site_fract_y
 _atom_site_fract_z
 _atom_site_occupancy
  Sm  Sm0  1  0.986946  0.051456  0.250000  1
  Sm  Sm1  1  0.486946  0.448544  0.750000  1
  Sm  Sm2  1  0.513054  0.551456  0.250000  1
  Sm  Sm3  1  0.013054  0.948544  0.750000  1
  Dy  Dy4  1  0.500000  0.000000  0.000000  1
  Dy  Dy5  1  0.500000  0.000000  0.500000  1
  Dy  Dy6  1  0.000000  0.500000  0.000000  1
  Dy  Dy7  1  0.000000  0.500000  0.500000  1
  O  O8  1  0.640686  0.073596  0.750000  1
  O  O9  1  0.180607  0.183879  0.572579  1
  O  O10  1  0.180607  0.183879  0.927421  1
  O  O11  1  0.680607  0.316121  0.427421  1
  O  O12  1  0.680607  0.316121  0.072579  1
  O  O13  1  0.140686  0.426404  0.250000  1
  O  O14  1  0.859314  0.573596  0.750000  1
  O  O15  1  0.319393  0.683879  0.927421  1
  O  O16  1  0.319393  0.683879  0.572579  1
  O  O17  1  0.819393  0.816121  0.072579  1
  O  O18  1  0.819393  0.816121  0.427421  1
  O  O19  1  0.359314  0.926404  0.250000  1
