# generated using pymatgen
data_LiV2OF7
_symmetry_space_group_name_H-M   'P 1'
_cell_length_a   5.85096392
_cell_length_b   5.85096392
_cell_length_c   6.09014618
_cell_angle_alpha   58.76622090
_cell_angle_beta   121.23377910
_cell_angle_gamma   117.49009898
_symmetry_Int_Tables_number   1
_chemical_formula_structural   LiV2OF7
_chemical_formula_sum   'Li1 V2 O1 F7'
_cell_volume   147.04043661
_cell_formula_units_Z   1
loop_
 _symmetry_equiv_pos_site_id
 _symmetry_equiv_pos_as_xyz
  1  'x, y, z'
loop_
 _atom_site_type_symbol
 _atom_site_label
 _atom_site_symmetry_multiplicity
 _atom_site_fract_x
 _atom_site_fract_y
 _atom_site_fract_z
 _atom_site_occupancy
  Li  Li0  1  0.865028  0.134972  0.104192  1
  V  V1  1  0.997616  0.490541  0.516378  1
  V  V2  1  0.509459  0.002384  0.516378  1
  O  O3  1  0.753422  0.246578  0.704979  1
  F  F4  1  0.752605  0.247395  0.288589  1
  F  F5  1  0.782497  0.737439  0.268149  1
  F  F6  1  0.262561  0.217503  0.268149  1
  F  F7  1  0.247475  0.752525  0.298249  1
  F  F8  1  0.716581  0.764887  0.717405  1
  F  F9  1  0.235113  0.283419  0.717405  1
  F  F10  1  0.249145  0.750855  0.715691  1
