# generated using pymatgen
data_Li3V4(OF3)3
_symmetry_space_group_name_H-M   'P 1'
_cell_length_a   5.22852819
_cell_length_b   5.52710609
_cell_length_c   17.28596951
_cell_angle_alpha   87.52335376
_cell_angle_beta   98.25199987
_cell_angle_gamma   117.99787455
_symmetry_Int_Tables_number   1
_chemical_formula_structural   Li3V4(OF3)3
_chemical_formula_sum   'Li6 V8 O6 F18'
_cell_volume   436.34338799
_cell_formula_units_Z   2
loop_
 _symmetry_equiv_pos_site_id
 _symmetry_equiv_pos_as_xyz
  1  'x, y, z'
loop_
 _atom_site_type_symbol
 _atom_site_label
 _atom_site_symmetry_multiplicity
 _atom_site_fract_x
 _atom_site_fract_y
 _atom_site_fract_z
 _atom_site_occupancy
  Li  Li0  1  0.342408  0.600336  0.058931  1
  Li  Li1  1  0.566024  0.695941  0.424849  1
  Li  Li2  1  0.799485  0.840645  0.796348  1
  Li  Li3  1  0.841215  0.358433  0.312034  1
  Li  Li4  1  0.664886  0.380331  0.944671  1
  Li  Li5  1  0.287539  0.051403  0.551326  1
  V  V6  1  0.495911  0.731715  0.243453  1
  V  V7  1  0.742040  0.849275  0.628441  1
  V  V8  1  0.274518  0.663570  0.868579  1
  V  V9  1  0.002352  0.490969  0.492858  1
  V  V10  1  0.717727  0.376199  0.124934  1
  V  V11  1  0.503601  0.250601  0.747352  1
  V  V12  1  0.031968  0.028449  0.003643  1
  V  V13  1  0.214063  0.097582  0.380405  1
  O  O14  1  0.556125  0.590587  0.156770  1
  O  O15  1  0.553094  0.565221  0.692092  1
  O  O16  1  0.077785  0.343746  0.406177  1
  O  O17  1  0.509900  0.952291  0.812752  1
  O  O18  1  0.982461  0.790024  0.438693  1
  O  O19  1  0.434523  0.248889  0.030132  1
  F  F20  1  0.916419  0.976655  0.281988  1
  F  F21  1  0.450534  0.725488  0.527188  1
  F  F22  1  0.440351  0.904178  0.342862  1
  F  F23  1  0.935350  0.171377  0.089857  1
  F  F24  1  0.572216  0.793669  0.971279  1
  F  F25  1  0.042421  0.512091  0.220783  1
  F  F26  1  0.005471  0.181964  0.565428  1
  F  F27  1  0.011630  0.686089  0.057721  1
  F  F28  1  0.017081  0.353905  0.942091  1
  F  F29  1  0.488741  0.055298  0.189858  1
  F  F30  1  0.943064  0.463558  0.786502  1
  F  F31  1  0.971621  0.684018  0.590709  1
  F  F32  1  0.548001  0.077332  0.648934  1
  F  F33  1  0.040939  0.854167  0.903439  1
  F  F34  1  0.547588  0.263277  0.475290  1
  F  F35  1  0.512441  0.434005  0.317664  1
  F  F36  1  0.471791  0.433944  0.848302  1
  F  F37  1  0.064223  0.040718  0.723176  1
