# generated using pymatgen
data_Y11Tm5O24
_symmetry_space_group_name_H-M   'P 1'
_cell_length_a   9.19847086
_cell_length_b   9.19801037
_cell_length_c   9.19807398
_cell_angle_alpha   109.43128649
_cell_angle_beta   109.45670978
_cell_angle_gamma   109.46060301
_symmetry_Int_Tables_number   1
_chemical_formula_structural   Y11Tm5O24
_chemical_formula_sum   'Y11 Tm5 O24'
_cell_volume   599.56013119
_cell_formula_units_Z   1
loop_
 _symmetry_equiv_pos_site_id
 _symmetry_equiv_pos_as_xyz
  1  'x, y, z'
loop_
 _atom_site_type_symbol
 _atom_site_label
 _atom_site_symmetry_multiplicity
 _atom_site_fract_x
 _atom_site_fract_y
 _atom_site_fract_z
 _atom_site_occupancy
  Y  Y0  1  0.750261  0.782304  0.032564  1
  Y  Y1  1  0.497583  0.999492  0.999387  1
  Y  Y2  1  0.034096  0.249527  0.281851  1
  Y  Y3  1  0.218305  0.467323  0.751340  1
  Y  Y4  1  0.718185  0.967884  0.749186  1
  Y  Y5  1  0.001595  0.999976  0.501246  1
  Y  Y6  1  0.250463  0.719234  0.466987  1
  Y  Y7  1  0.000508  0.501324  0.999825  1
  Y  Y8  1  0.748654  0.282021  0.532507  1
  Y  Y9  1  0.500282  0.499206  0.498581  1
  Y  Y10  1  0.780246  0.532029  0.249506  1
  Tm  Tm11  1  0.465837  0.749758  0.216074  1
  Tm  Tm12  1  0.283355  0.032741  0.249060  1
  Tm  Tm13  1  0.531902  0.249562  0.782468  1
  Tm  Tm14  1  0.968096  0.751250  0.718653  1
  Tm  Tm15  1  0.250495  0.216312  0.966950  1
  O  O16  1  0.273188  0.512097  0.543046  1
  O  O17  1  0.468002  0.729585  0.959882  1
  O  O18  1  0.726771  0.761729  0.272186  1
  O  O19  1  0.225878  0.957316  0.968471  1
  O  O20  1  0.012018  0.546061  0.772043  1
  O  O21  1  0.511080  0.739700  0.465175  1
  O  O22  1  0.230152  0.773243  0.237831  1
  O  O23  1  0.034924  0.987763  0.260617  1
  O  O24  1  0.742442  0.728580  0.770223  1
  O  O25  1  0.957492  0.227535  0.488799  1
  O  O26  1  0.242411  0.468219  0.014327  1
  O  O27  1  0.457709  0.971890  0.728885  1
  O  O28  1  0.756142  0.527628  0.985395  1
  O  O29  1  0.041716  0.770878  0.514221  1
  O  O30  1  0.539165  0.028923  0.270275  1
  O  O31  1  0.262311  0.269093  0.226465  1
  O  O32  1  0.770460  0.230332  0.761495  1
  O  O33  1  0.972487  0.012665  0.743016  1
  O  O34  1  0.989036  0.458192  0.228238  1
  O  O35  1  0.484621  0.256348  0.530634  1
  O  O36  1  0.273635  0.238940  0.731054  1
  O  O37  1  0.770335  0.042465  0.031453  1
  O  O38  1  0.730138  0.490742  0.459847  1
  O  O39  1  0.528023  0.270131  0.040239  1
