# generated using pymatgen
data_BaSi2(H3O4)2
_symmetry_space_group_name_H-M   'P 1'
_cell_length_a   7.93190556
_cell_length_b   10.74991471
_cell_length_c   8.55640017
_cell_angle_alpha   90.00000000
_cell_angle_beta   95.03686392
_cell_angle_gamma   90.00000000
_symmetry_Int_Tables_number   1
_chemical_formula_structural   BaSi2(H3O4)2
_chemical_formula_sum   'Ba4 Si8 H24 O32'
_cell_volume   726.76387206
_cell_formula_units_Z   4
loop_
 _symmetry_equiv_pos_site_id
 _symmetry_equiv_pos_as_xyz
  1  'x, y, z'
loop_
 _atom_site_type_symbol
 _atom_site_label
 _atom_site_symmetry_multiplicity
 _atom_site_fract_x
 _atom_site_fract_y
 _atom_site_fract_z
 _atom_site_occupancy
  Ba  Ba0  1  0.203162  0.647412  0.625837  1
  Ba  Ba1  1  0.796838  0.147412  0.874163  1
  Ba  Ba2  1  0.796838  0.352588  0.374163  1
  Ba  Ba3  1  0.203162  0.852588  0.125837  1
  Si  Si4  1  0.489732  0.882464  0.774306  1
  Si  Si5  1  0.510268  0.382464  0.725694  1
  Si  Si6  1  0.510268  0.117536  0.225694  1
  Si  Si7  1  0.489732  0.617536  0.274306  1
  Si  Si8  1  0.700403  0.744956  0.032064  1
  Si  Si9  1  0.299597  0.244956  0.467936  1
  Si  Si10  1  0.299597  0.255044  0.967936  1
  Si  Si11  1  0.700403  0.755044  0.532064  1
  H  H12  1  0.118356  0.911797  0.806024  1
  H  H13  1  0.881644  0.411797  0.693976  1
  H  H14  1  0.881644  0.088203  0.193976  1
  H  H15  1  0.118356  0.588203  0.306024  1
  H  H16  1  0.934887  0.858794  0.774277  1
  H  H17  1  0.065113  0.358794  0.725723  1
  H  H18  1  0.065113  0.141206  0.225723  1
  H  H19  1  0.934887  0.641206  0.274277  1
  H  H20  1  0.995359  0.612571  0.953373  1
  H  H21  1  0.004641  0.112571  0.546627  1
  H  H22  1  0.004641  0.387429  0.046627  1
  H  H23  1  0.995359  0.887429  0.453373  1
  H  H24  1  0.165317  0.536676  0.996236  1
  H  H25  1  0.834683  0.036676  0.503764  1
  H  H26  1  0.834683  0.463324  0.003764  1
  H  H27  1  0.165317  0.963324  0.496236  1
  H  H28  1  0.816325  0.672490  0.764925  1
  H  H29  1  0.183675  0.172490  0.735075  1
  H  H30  1  0.183675  0.327510  0.235075  1
  H  H31  1  0.816325  0.827510  0.264925  1
  H  H32  1  0.586885  0.565957  0.839691  1
  H  H33  1  0.413115  0.065957  0.660309  1
  H  H34  1  0.413115  0.434043  0.160309  1
  H  H35  1  0.586885  0.934043  0.339691  1
  O  O36  1  0.534524  0.789790  0.627747  1
  O  O37  1  0.465476  0.289790  0.872253  1
  O  O38  1  0.465476  0.210210  0.372253  1
  O  O39  1  0.534524  0.710210  0.127747  1
  O  O40  1  0.515435  0.028452  0.721063  1
  O  O41  1  0.484565  0.528452  0.778937  1
  O  O42  1  0.484565  0.971548  0.278937  1
  O  O43  1  0.515435  0.471548  0.221063  1
  O  O44  1  0.305608  0.847009  0.821387  1
  O  O45  1  0.694392  0.347009  0.678613  1
  O  O46  1  0.694392  0.152991  0.178613  1
  O  O47  1  0.305608  0.652991  0.321387  1
  O  O48  1  0.642093  0.865536  0.919071  1
  O  O49  1  0.357907  0.365536  0.580929  1
  O  O50  1  0.357907  0.134464  0.080929  1
  O  O51  1  0.642093  0.634464  0.419071  1
  O  O52  1  0.765526  0.630331  0.929938  1
  O  O53  1  0.234474  0.130331  0.570062  1
  O  O54  1  0.234474  0.369669  0.070062  1
  O  O55  1  0.765526  0.869669  0.429938  1
  O  O56  1  0.855331  0.789220  0.163576  1
  O  O57  1  0.144669  0.289220  0.336424  1
  O  O58  1  0.144669  0.210780  0.836424  1
  O  O59  1  0.855331  0.710780  0.663576  1
  O  O60  1  0.120831  0.618032  0.957504  1
  O  O61  1  0.879169  0.118032  0.542496  1
  O  O62  1  0.879169  0.381968  0.042496  1
  O  O63  1  0.120831  0.881968  0.457504  1
  O  O64  1  0.997663  0.926537  0.830800  1
  O  O65  1  0.002337  0.426537  0.669200  1
  O  O66  1  0.002337  0.073463  0.169200  1
  O  O67  1  0.997663  0.573463  0.330800  1
