# generated using pymatgen
data_Li2V(PO3)5
_symmetry_space_group_name_H-M   'P 1'
_cell_length_a   5.30764159
_cell_length_b   9.63395496
_cell_length_c   13.31917526
_cell_angle_alpha   90.00000000
_cell_angle_beta   108.93477530
_cell_angle_gamma   90.00000000
_symmetry_Int_Tables_number   1
_chemical_formula_structural   Li2V(PO3)5
_chemical_formula_sum   'Li4 V2 P10 O30'
_cell_volume   644.20414977
_cell_formula_units_Z   2
loop_
 _symmetry_equiv_pos_site_id
 _symmetry_equiv_pos_as_xyz
  1  'x, y, z'
loop_
 _atom_site_type_symbol
 _atom_site_label
 _atom_site_symmetry_multiplicity
 _atom_site_fract_x
 _atom_site_fract_y
 _atom_site_fract_z
 _atom_site_occupancy
  Li  Li0  1  0.935613  0.602182  0.063324  1
  Li  Li1  1  0.935613  0.397818  0.563324  1
  Li  Li2  1  0.056205  0.597144  0.428786  1
  Li  Li3  1  0.056205  0.402856  0.928786  1
  V  V4  1  0.008818  0.004829  0.504795  1
  V  V5  1  0.008818  0.995171  0.004795  1
  P  P6  1  0.516319  0.476289  0.137810  1
  P  P7  1  0.516319  0.523711  0.637810  1
  P  P8  1  0.415189  0.816317  0.915346  1
  P  P9  1  0.473091  0.519851  0.856317  1
  P  P10  1  0.473091  0.480149  0.356317  1
  P  P11  1  0.601277  0.824204  0.591942  1
  P  P12  1  0.015092  0.013987  0.255168  1
  P  P13  1  0.601277  0.175796  0.091942  1
  P  P14  1  0.415189  0.183683  0.415346  1
  P  P15  1  0.015092  0.986013  0.755168  1
  O  O16  1  0.050291  0.064753  0.663398  1
  O  O17  1  0.347034  0.342556  0.393874  1
  O  O18  1  0.714272  0.410259  0.650998  1
  O  O19  1  0.310915  0.860618  0.564601  1
  O  O20  1  0.765543  0.879270  0.709344  1
  O  O21  1  0.974954  0.059905  0.847952  1
  O  O22  1  0.736745  0.130582  0.012847  1
  O  O23  1  0.714272  0.589741  0.150998  1
  O  O24  1  0.750762  0.501783  0.931170  1
  O  O25  1  0.276056  0.141625  0.493794  1
  O  O26  1  0.276056  0.858375  0.993794  1
  O  O27  1  0.347034  0.657444  0.893874  1
  O  O28  1  0.494290  0.419503  0.247537  1
  O  O29  1  0.050291  0.935247  0.163398  1
  O  O30  1  0.645425  0.662620  0.603385  1
  O  O31  1  0.272312  0.115893  0.300121  1
  O  O32  1  0.274674  0.593289  0.341179  1
  O  O33  1  0.272312  0.884107  0.800121  1
  O  O34  1  0.974954  0.940095  0.347952  1
  O  O35  1  0.494290  0.580497  0.747537  1
  O  O36  1  0.711064  0.156740  0.448785  1
  O  O37  1  0.750762  0.498217  0.431170  1
  O  O38  1  0.238656  0.506606  0.563126  1
  O  O39  1  0.736745  0.869418  0.512847  1
  O  O40  1  0.310915  0.139382  0.064601  1
  O  O41  1  0.645425  0.337380  0.103385  1
  O  O42  1  0.274674  0.406711  0.841179  1
  O  O43  1  0.765543  0.120730  0.209344  1
  O  O44  1  0.711064  0.843260  0.948785  1
  O  O45  1  0.238656  0.493394  0.063126  1
