# generated using pymatgen
data_La2Mo2O9
_symmetry_space_group_name_H-M   'P 1'
_cell_length_a   7.27095545
_cell_length_b   7.28962867
_cell_length_c   7.34939507
_cell_angle_alpha   89.47068582
_cell_angle_beta   88.35481543
_cell_angle_gamma   87.76303094
_symmetry_Int_Tables_number   1
_chemical_formula_structural   La2Mo2O9
_chemical_formula_sum   'La4 Mo4 O18'
_cell_volume   389.06664111
_cell_formula_units_Z   2
loop_
 _symmetry_equiv_pos_site_id
 _symmetry_equiv_pos_as_xyz
  1  'x, y, z'
loop_
 _atom_site_type_symbol
 _atom_site_label
 _atom_site_symmetry_multiplicity
 _atom_site_fract_x
 _atom_site_fract_y
 _atom_site_fract_z
 _atom_site_occupancy
  La  La0  1  0.166279  0.388916  0.338167  1
  La  La1  1  0.331350  0.847641  0.657924  1
  La  La2  1  0.643995  0.639151  0.158272  1
  La  La3  1  0.856312  0.142588  0.908114  1
  Mo  Mo4  1  0.180469  0.826217  0.123476  1
  Mo  Mo5  1  0.330667  0.323134  0.804443  1
  Mo  Mo6  1  0.656860  0.174262  0.343082  1
  Mo  Mo7  1  0.823177  0.666326  0.675881  1
  O  O8  1  0.054629  0.654293  0.579009  1
  O  O9  1  0.132592  0.056114  0.205034  1
  O  O10  1  0.079518  0.887179  0.882680  1
  O  O11  1  0.149397  0.210001  0.689026  1
  O  O12  1  0.323418  0.724239  0.315703  1
  O  O13  1  0.392566  0.512625  0.665215  1
  O  O14  1  0.396838  0.772196  0.974827  1
  O  O15  1  0.237596  0.401010  0.017992  1
  O  O16  1  0.452950  0.075643  0.462855  1
  O  O17  1  0.488270  0.380058  0.292697  1
  O  O18  1  0.519064  0.165138  0.841640  1
  O  O19  1  0.678365  0.665628  0.485134  1
  O  O20  1  0.704414  0.984919  0.180735  1
  O  O21  1  0.723823  0.855272  0.803590  1
  O  O22  1  0.820313  0.328354  0.181158  1
  O  O23  1  0.785653  0.473531  0.824693  1
  O  O24  1  0.812905  0.173403  0.526377  1
  O  O25  1  0.995380  0.666960  0.180078  1
