# generated using pymatgen
data_SbOF
_symmetry_space_group_name_H-M   'P 1'
_cell_length_a   4.07725429
_cell_length_b   7.08387193
_cell_length_c   8.38826016
_cell_angle_alpha   90.00000000
_cell_angle_beta   90.00000000
_cell_angle_gamma   90.00000000
_symmetry_Int_Tables_number   1
_chemical_formula_structural   SbOF
_chemical_formula_sum   'Sb4 O4 F4'
_cell_volume   242.27599779
_cell_formula_units_Z   4
loop_
 _symmetry_equiv_pos_site_id
 _symmetry_equiv_pos_as_xyz
  1  'x, y, z'
loop_
 _atom_site_type_symbol
 _atom_site_label
 _atom_site_symmetry_multiplicity
 _atom_site_fract_x
 _atom_site_fract_y
 _atom_site_fract_z
 _atom_site_occupancy
  Sb  Sb0  1  0.377449  0.132134  0.118710  1
  Sb  Sb1  1  0.877449  0.367866  0.618710  1
  Sb  Sb2  1  0.377449  0.632134  0.381290  1
  Sb  Sb3  1  0.877449  0.867866  0.881290  1
  O  O4  1  0.746139  0.126270  0.961281  1
  O  O5  1  0.246139  0.373730  0.461281  1
  O  O6  1  0.746139  0.626270  0.538719  1
  O  O7  1  0.246139  0.873730  0.038719  1
  F  F8  1  0.162701  0.997447  0.720583  1
  F  F9  1  0.662701  0.502553  0.220583  1
  F  F10  1  0.162701  0.497447  0.779417  1
  F  F11  1  0.662701  0.002553  0.279417  1
