# generated using pymatgen
data_Ga2NiO4
_symmetry_space_group_name_H-M   'P 1'
_cell_length_a   5.93513026
_cell_length_b   5.93513026
_cell_length_c   5.93513026
_cell_angle_alpha   59.85519433
_cell_angle_beta   59.85519433
_cell_angle_gamma   59.85519433
_symmetry_Int_Tables_number   1
_chemical_formula_structural   Ga2NiO4
_chemical_formula_sum   'Ga4 Ni2 O8'
_cell_volume   147.34869315
_cell_formula_units_Z   2
loop_
 _symmetry_equiv_pos_site_id
 _symmetry_equiv_pos_as_xyz
  1  'x, y, z'
loop_
 _atom_site_type_symbol
 _atom_site_label
 _atom_site_symmetry_multiplicity
 _atom_site_fract_x
 _atom_site_fract_y
 _atom_site_fract_z
 _atom_site_occupancy
  Ga  Ga0  1  0.372646  0.882697  0.372646  1
  Ga  Ga1  1  0.372646  0.372646  0.882697  1
  Ga  Ga2  1  0.754163  0.754163  0.754163  1
  Ga  Ga3  1  0.882697  0.372646  0.372646  1
  Ni  Ni4  1  0.997903  0.997903  0.997903  1
  Ni  Ni5  1  0.373205  0.373205  0.373205  1
  O  O6  1  0.147840  0.621272  0.621272  1
  O  O7  1  0.619794  0.619794  0.619794  1
  O  O8  1  0.129026  0.593425  0.129026  1
  O  O9  1  0.135075  0.135075  0.135075  1
  O  O10  1  0.129026  0.129026  0.593425  1
  O  O11  1  0.593425  0.129026  0.129026  1
  O  O12  1  0.621272  0.621272  0.147840  1
  O  O13  1  0.621272  0.147840  0.621272  1
