# generated using pymatgen
data_Li4ScFe3(SiO3)8
_symmetry_space_group_name_H-M   'P 1'
_cell_length_a   7.35671419
_cell_length_b   9.55470501
_cell_length_c   13.92239285
_cell_angle_alpha   106.17962460
_cell_angle_beta   90.06529869
_cell_angle_gamma   110.11470624
_symmetry_Int_Tables_number   1
_chemical_formula_structural   Li4ScFe3(SiO3)8
_chemical_formula_sum   'Li8 Sc2 Fe6 Si16 O48'
_cell_volume   877.41922271
_cell_formula_units_Z   2
loop_
 _symmetry_equiv_pos_site_id
 _symmetry_equiv_pos_as_xyz
  1  'x, y, z'
loop_
 _atom_site_type_symbol
 _atom_site_label
 _atom_site_symmetry_multiplicity
 _atom_site_fract_x
 _atom_site_fract_y
 _atom_site_fract_z
 _atom_site_occupancy
  Li  Li0  1  0.064099  0.936469  0.314630  1
  Li  Li1  1  0.437971  0.563083  0.188312  1
  Li  Li2  1  0.813245  0.189037  0.062726  1
  Li  Li3  1  0.311847  0.686112  0.562047  1
  Li  Li4  1  0.188628  0.809537  0.935767  1
  Li  Li5  1  0.688359  0.313015  0.436976  1
  Li  Li6  1  0.561480  0.438416  0.810365  1
  Li  Li7  1  0.939272  0.059323  0.684181  1
  Sc  Sc8  1  0.011010  0.989236  0.114462  1
  Sc  Sc9  1  0.762130  0.237993  0.862707  1
  Fe  Fe10  1  0.240645  0.759555  0.136259  1
  Fe  Fe11  1  0.260328  0.739407  0.364830  1
  Fe  Fe12  1  0.489428  0.511249  0.386096  1
  Fe  Fe13  1  0.511287  0.488606  0.613289  1
  Fe  Fe14  1  0.739214  0.260680  0.634015  1
  Fe  Fe15  1  0.990547  0.008927  0.883979  1
  Si  Si16  1  0.655855  0.934743  0.274934  1
  Si  Si17  1  0.805401  0.602617  0.014281  1
  Si  Si18  1  0.691802  0.898874  0.487909  1
  Si  Si19  1  0.840933  0.566952  0.228426  1
  Si  Si20  1  0.907643  0.685358  0.522754  1
  Si  Si21  1  0.554751  0.848214  0.762217  1
  Si  Si22  1  0.944309  0.648359  0.736161  1
  Si  Si23  1  0.589133  0.816018  0.976537  1
  Si  Si24  1  0.408226  0.184489  0.023444  1
  Si  Si25  1  0.056089  0.355311  0.264873  1
  Si  Si26  1  0.445824  0.149106  0.238760  1
  Si  Si27  1  0.092107  0.315184  0.477204  1
  Si  Si28  1  0.160028  0.434992  0.771273  1
  Si  Si29  1  0.305483  0.100706  0.512743  1
  Si  Si30  1  0.198365  0.398685  0.987062  1
  Si  Si31  1  0.340169  0.064282  0.725232  1
  O  O32  1  0.798565  0.964733  0.001911  1
  O  O33  1  0.825742  0.906158  0.207917  1
  O  O34  1  0.739959  0.966472  0.391216  1
  O  O35  1  0.417525  0.841170  0.044306  1
  O  O36  1  0.240925  0.995847  0.209043  1
  O  O37  1  0.865961  0.840297  0.514917  1
  O  O38  1  0.300017  0.960383  0.414245  1
  O  O39  1  0.444525  0.786853  0.246499  1
  O  O40  1  0.992849  0.715195  0.638821  1
  O  O41  1  0.757517  0.535997  0.111874  1
  O  O42  1  0.950531  0.787722  0.835631  1
  O  O43  1  0.668264  0.592724  0.295172  1
  O  O44  1  0.016011  0.750476  0.045029  1
  O  O45  1  0.485006  0.746471  0.456063  1
  O  O46  1  0.880626  0.412596  0.238545  1
  O  O47  1  0.384840  0.911594  0.735630  1
  O  O48  1  0.546451  0.708212  0.662925  1
  O  O49  1  0.053159  0.714046  0.255706  1
  O  O50  1  0.696523  0.536721  0.494943  1
  O  O51  1  0.204393  0.539319  0.085886  1
  O  O52  1  0.502670  0.782129  0.859842  1
  O  O53  1  0.373150  0.341183  0.014074  1
  O  O54  1  0.919241  0.340869  0.543650  1
  O  O55  1  0.264051  0.506640  0.296651  1
  O  O56  1  0.737027  0.496131  0.703990  1
  O  O57  1  0.079319  0.659656  0.455473  1
  O  O58  1  0.633499  0.664344  0.988750  1
  O  O59  1  0.487964  0.213854  0.140373  1
  O  O60  1  0.797847  0.464274  0.914645  1
  O  O61  1  0.303579  0.463213  0.505075  1
  O  O62  1  0.950090  0.286084  0.740781  1
  O  O63  1  0.452169  0.290799  0.336874  1
  O  O64  1  0.620888  0.091601  0.265575  1
  O  O65  1  0.118195  0.589722  0.763323  1
  O  O66  1  0.512988  0.252781  0.544272  1
  O  O67  1  0.993055  0.245583  0.956967  1
  O  O68  1  0.333997  0.410958  0.705494  1
  O  O69  1  0.051713  0.216926  0.165940  1
  O  O70  1  0.241125  0.462697  0.888003  1
  O  O71  1  0.008247  0.286771  0.361427  1
  O  O72  1  0.548741  0.213999  0.751292  1
  O  O73  1  0.698338  0.039243  0.586728  1
  O  O74  1  0.132172  0.159779  0.485254  1
  O  O75  1  0.764769  0.996981  0.792620  1
  O  O76  1  0.580741  0.157856  0.958098  1
  O  O77  1  0.253068  0.032655  0.609319  1
  O  O78  1  0.168305  0.089433  0.792628  1
  O  O79  1  0.198054  0.036319  0.992148  1
