# generated using pymatgen
data_Li2Sn(PO3)4
_symmetry_space_group_name_H-M   'P 1'
_cell_length_a   7.74774278
_cell_length_b   14.31529441
_cell_length_c   12.08978872
_cell_angle_alpha   90.00000000
_cell_angle_beta   120.40085970
_cell_angle_gamma   90.00000000
_symmetry_Int_Tables_number   1
_chemical_formula_structural   Li2Sn(PO3)4
_chemical_formula_sum   'Li8 Sn4 P16 O48'
_cell_volume   1156.52853570
_cell_formula_units_Z   4
loop_
 _symmetry_equiv_pos_site_id
 _symmetry_equiv_pos_as_xyz
  1  'x, y, z'
loop_
 _atom_site_type_symbol
 _atom_site_label
 _atom_site_symmetry_multiplicity
 _atom_site_fract_x
 _atom_site_fract_y
 _atom_site_fract_z
 _atom_site_occupancy
  Li  Li0  1  0.399724  0.795991  0.304467  1
  Li  Li1  1  0.064719  0.361335  0.928150  1
  Li  Li2  1  0.600276  0.295991  0.195533  1
  Li  Li3  1  0.935281  0.861335  0.571850  1
  Li  Li4  1  0.064719  0.138665  0.428150  1
  Li  Li5  1  0.399724  0.704009  0.804467  1
  Li  Li6  1  0.935281  0.638665  0.071850  1
  Li  Li7  1  0.600276  0.204009  0.695533  1
  Sn  Sn8  1  0.742335  0.357847  0.517537  1
  Sn  Sn9  1  0.257665  0.857847  0.982463  1
  Sn  Sn10  1  0.742335  0.142153  0.017537  1
  Sn  Sn11  1  0.257665  0.642153  0.482463  1
  P  P12  1  0.428032  0.165502  0.366031  1
  P  P13  1  0.569700  0.585338  0.354982  1
  P  P14  1  0.869676  0.695225  0.799390  1
  P  P15  1  0.430300  0.085338  0.145018  1
  P  P16  1  0.054712  0.088817  0.887619  1
  P  P17  1  0.571968  0.665502  0.133969  1
  P  P18  1  0.945288  0.588817  0.612381  1
  P  P19  1  0.130324  0.195225  0.700610  1
  P  P20  1  0.869676  0.804775  0.299390  1
  P  P21  1  0.054712  0.411183  0.387619  1
  P  P22  1  0.428032  0.334498  0.866031  1
  P  P23  1  0.945288  0.911183  0.112381  1
  P  P24  1  0.569700  0.914662  0.854982  1
  P  P25  1  0.130324  0.304775  0.200610  1
  P  P26  1  0.430300  0.414662  0.645018  1
  P  P27  1  0.571968  0.834498  0.633969  1
  O  O28  1  0.350100  0.255370  0.265788  1
  O  O29  1  0.422035  0.661944  0.338318  1
  O  O30  1  0.209368  0.121165  0.033500  1
  O  O31  1  0.705310  0.851091  0.580192  1
  O  O32  1  0.887635  0.639000  0.908227  1
  O  O33  1  0.526729  0.488347  0.379522  1
  O  O34  1  0.399458  0.082061  0.267364  1
  O  O35  1  0.863145  0.143396  0.846664  1
  O  O36  1  0.354430  0.683258  0.042099  1
  O  O37  1  0.645570  0.183258  0.457901  1
  O  O38  1  0.834467  0.625861  0.685344  1
  O  O39  1  0.600542  0.582061  0.232636  1
  O  O40  1  0.473271  0.988347  0.120478  1
  O  O41  1  0.790632  0.621165  0.466500  1
  O  O42  1  0.045454  0.984273  0.876794  1
  O  O43  1  0.023559  0.767231  0.816615  1
  O  O44  1  0.976441  0.267231  0.683385  1
  O  O45  1  0.954546  0.484273  0.623206  1
  O  O46  1  0.577965  0.161944  0.161682  1
  O  O47  1  0.649900  0.755370  0.234212  1
  O  O48  1  0.165533  0.125861  0.814656  1
  O  O49  1  0.705310  0.648909  0.080192  1
  O  O50  1  0.887635  0.861000  0.408227  1
  O  O51  1  0.863145  0.356604  0.346664  1
  O  O52  1  0.136855  0.643396  0.653336  1
  O  O53  1  0.112365  0.139000  0.591773  1
  O  O54  1  0.294690  0.351091  0.919808  1
  O  O55  1  0.834467  0.874139  0.185344  1
  O  O56  1  0.350100  0.244630  0.765788  1
  O  O57  1  0.422035  0.838056  0.838318  1
  O  O58  1  0.045454  0.515727  0.376794  1
  O  O59  1  0.023559  0.732769  0.316615  1
  O  O60  1  0.976441  0.232769  0.183385  1
  O  O61  1  0.954546  0.015727  0.123206  1
  O  O62  1  0.209368  0.378835  0.533500  1
  O  O63  1  0.526729  0.011653  0.879522  1
  O  O64  1  0.399458  0.417939  0.767364  1
  O  O65  1  0.165533  0.374139  0.314656  1
  O  O66  1  0.354430  0.816742  0.542099  1
  O  O67  1  0.645570  0.316742  0.957901  1
  O  O68  1  0.136855  0.856604  0.153336  1
  O  O69  1  0.600542  0.917939  0.732636  1
  O  O70  1  0.473271  0.511653  0.620478  1
  O  O71  1  0.112365  0.361000  0.091773  1
  O  O72  1  0.294690  0.148909  0.419808  1
  O  O73  1  0.790632  0.878835  0.966500  1
  O  O74  1  0.577965  0.338056  0.661682  1
  O  O75  1  0.649900  0.744630  0.734212  1
