# generated using pymatgen
data_VCo3O8
_symmetry_space_group_name_H-M   'P 1'
_cell_length_a   5.66818650
_cell_length_b   5.66818650
_cell_length_c   8.83513464
_cell_angle_alpha   90.00000000
_cell_angle_beta   90.00000000
_cell_angle_gamma   120.00000000
_symmetry_Int_Tables_number   1
_chemical_formula_structural   VCo3O8
_chemical_formula_sum   'V2 Co6 O16'
_cell_volume   245.82840703
_cell_formula_units_Z   2
loop_
 _symmetry_equiv_pos_site_id
 _symmetry_equiv_pos_as_xyz
  1  'x, y, z'
loop_
 _atom_site_type_symbol
 _atom_site_label
 _atom_site_symmetry_multiplicity
 _atom_site_fract_x
 _atom_site_fract_y
 _atom_site_fract_z
 _atom_site_occupancy
  V  V0  1  0.333333  0.666667  0.501864  1
  V  V1  1  0.666667  0.333333  0.001864  1
  Co  Co2  1  0.170461  0.829539  0.216950  1
  Co  Co3  1  0.170461  0.340922  0.216950  1
  Co  Co4  1  0.659078  0.829539  0.216950  1
  Co  Co5  1  0.340922  0.170461  0.716950  1
  Co  Co6  1  0.829539  0.659078  0.716950  1
  Co  Co7  1  0.829539  0.170461  0.716950  1
  O  O8  1  0.173660  0.826340  0.597564  1
  O  O9  1  0.040087  0.520043  0.335409  1
  O  O10  1  0.333333  0.666667  0.106111  1
  O  O11  1  0.000000  0.000000  0.311050  1
  O  O12  1  0.000000  0.000000  0.811050  1
  O  O13  1  0.173660  0.347320  0.597564  1
  O  O14  1  0.479957  0.959913  0.335409  1
  O  O15  1  0.479957  0.520043  0.335409  1
  O  O16  1  0.347320  0.173660  0.097564  1
  O  O17  1  0.652680  0.826340  0.597564  1
  O  O18  1  0.520043  0.479957  0.835409  1
  O  O19  1  0.520043  0.040087  0.835409  1
  O  O20  1  0.666667  0.333333  0.606111  1
  O  O21  1  0.826340  0.652680  0.097564  1
  O  O22  1  0.959913  0.479957  0.835409  1
  O  O23  1  0.826340  0.173660  0.097564  1
