# generated using pymatgen
data_Hg3H4S2O11
_symmetry_space_group_name_H-M   'P 1'
_cell_length_a   5.82695666
_cell_length_b   5.82695666
_cell_length_c   14.81332656
_cell_angle_alpha   84.42181108
_cell_angle_beta   95.57818892
_cell_angle_gamma   77.09607120
_symmetry_Int_Tables_number   1
_chemical_formula_structural   Hg3H4S2O11
_chemical_formula_sum   'Hg6 H8 S4 O22'
_cell_volume   484.26033744
_cell_formula_units_Z   2
loop_
 _symmetry_equiv_pos_site_id
 _symmetry_equiv_pos_as_xyz
  1  'x, y, z'
loop_
 _atom_site_type_symbol
 _atom_site_label
 _atom_site_symmetry_multiplicity
 _atom_site_fract_x
 _atom_site_fract_y
 _atom_site_fract_z
 _atom_site_occupancy
  Hg  Hg0  1  0.500000  0.000000  0.500000  1
  Hg  Hg1  1  0.000000  0.500000  0.000000  1
  Hg  Hg2  1  0.185498  0.682860  0.648956  1
  Hg  Hg3  1  0.682860  0.185498  0.851044  1
  Hg  Hg4  1  0.814502  0.317140  0.351044  1
  Hg  Hg5  1  0.317140  0.814502  0.148956  1
  H  H6  1  0.280045  0.095852  0.648468  1
  H  H7  1  0.095852  0.280045  0.851532  1
  H  H8  1  0.719955  0.904148  0.351532  1
  H  H9  1  0.904148  0.719955  0.148468  1
  H  H10  1  0.676823  0.856692  0.711672  1
  H  H11  1  0.856692  0.676823  0.788328  1
  H  H12  1  0.323177  0.143308  0.288328  1
  H  H13  1  0.143308  0.323177  0.211672  1
  S  S14  1  0.807501  0.375050  0.604589  1
  S  S15  1  0.375050  0.807501  0.895411  1
  S  S16  1  0.192499  0.624950  0.395411  1
  S  S17  1  0.624950  0.192499  0.104589  1
  O  O18  1  0.385832  0.944600  0.637391  1
  O  O19  1  0.944600  0.385832  0.862609  1
  O  O20  1  0.614168  0.055400  0.362609  1
  O  O21  1  0.055400  0.614168  0.137391  1
  O  O22  1  0.052036  0.368297  0.660519  1
  O  O23  1  0.368297  0.052036  0.839481  1
  O  O24  1  0.947964  0.631703  0.339481  1
  O  O25  1  0.631703  0.947964  0.160519  1
  O  O26  1  0.629100  0.383271  0.669116  1
  O  O27  1  0.383270  0.629100  0.830884  1
  O  O28  1  0.370900  0.616730  0.330884  1
  O  O29  1  0.616730  0.370900  0.169116  1
  O  O30  1  0.849357  0.151381  0.561578  1
  O  O31  1  0.151381  0.849357  0.938422  1
  O  O32  1  0.150643  0.848619  0.438422  1
  O  O33  1  0.848619  0.150643  0.061578  1
  O  O34  1  0.750336  0.584287  0.534278  1
  O  O35  1  0.584287  0.750336  0.965722  1
  O  O36  1  0.249664  0.415713  0.465722  1
  O  O37  1  0.415713  0.249664  0.034278  1
  O  O38  1  0.831851  0.831851  0.750000  1
  O  O39  1  0.168149  0.168149  0.250000  1
