# generated using pymatgen
data_Li2Mn3F8
_symmetry_space_group_name_H-M   'P 1'
_cell_length_a   6.70596072
_cell_length_b   11.83055424
_cell_length_c   8.92802979
_cell_angle_alpha   90.00000000
_cell_angle_beta   96.87314418
_cell_angle_gamma   90.00000000
_symmetry_Int_Tables_number   1
_chemical_formula_structural   Li2Mn3F8
_chemical_formula_sum   'Li8 Mn12 F32'
_cell_volume   703.21709538
_cell_formula_units_Z   4
loop_
 _symmetry_equiv_pos_site_id
 _symmetry_equiv_pos_as_xyz
  1  'x, y, z'
loop_
 _atom_site_type_symbol
 _atom_site_label
 _atom_site_symmetry_multiplicity
 _atom_site_fract_x
 _atom_site_fract_y
 _atom_site_fract_z
 _atom_site_occupancy
  Li  Li0  1  0.106573  0.613578  0.930228  1
  Li  Li1  1  0.606573  0.886422  0.930228  1
  Li  Li2  1  0.305073  0.422803  0.596144  1
  Li  Li3  1  0.805073  0.077197  0.596144  1
  Li  Li4  1  0.194927  0.922803  0.403856  1
  Li  Li5  1  0.694927  0.577197  0.403856  1
  Li  Li6  1  0.393427  0.113578  0.069772  1
  Li  Li7  1  0.893427  0.386422  0.069772  1
  Mn  Mn8  1  0.356719  0.391834  0.937321  1
  Mn  Mn9  1  0.856719  0.108166  0.937321  1
  Mn  Mn10  1  0.319921  0.090603  0.734134  1
  Mn  Mn11  1  0.819921  0.409397  0.734134  1
  Mn  Mn12  1  0.354819  0.696863  0.657221  1
  Mn  Mn13  1  0.854819  0.803137  0.657221  1
  Mn  Mn14  1  0.145181  0.196863  0.342779  1
  Mn  Mn15  1  0.645181  0.303137  0.342779  1
  Mn  Mn16  1  0.180079  0.590603  0.265866  1
  Mn  Mn17  1  0.680079  0.909397  0.265866  1
  Mn  Mn18  1  0.143281  0.891834  0.062679  1
  Mn  Mn19  1  0.643281  0.608166  0.062679  1
  F  F20  1  0.386881  0.582794  0.899545  1
  F  F21  1  0.363702  0.215833  0.904205  1
  F  F22  1  0.340477  0.956134  0.906349  1
  F  F23  1  0.886881  0.917206  0.899545  1
  F  F24  1  0.863702  0.284167  0.904205  1
  F  F25  1  0.840477  0.543866  0.906349  1
  F  F26  1  0.089701  0.718044  0.776072  1
  F  F27  1  0.021048  0.095183  0.746723  1
  F  F28  1  0.589701  0.781956  0.776072  1
  F  F29  1  0.125301  0.415391  0.743540  1
  F  F30  1  0.521048  0.404817  0.746723  1
  F  F31  1  0.625301  0.084609  0.743540  1
  F  F32  1  0.153918  0.806585  0.530220  1
  F  F33  1  0.256726  0.566540  0.504450  1
  F  F34  1  0.653918  0.693415  0.530220  1
  F  F35  1  0.756726  0.933460  0.504450  1
  F  F36  1  0.243274  0.066540  0.495550  1
  F  F37  1  0.346082  0.306585  0.469780  1
  F  F38  1  0.743274  0.433460  0.495550  1
  F  F39  1  0.846082  0.193415  0.469780  1
  F  F40  1  0.374699  0.915391  0.256460  1
  F  F41  1  0.478952  0.595183  0.253277  1
  F  F42  1  0.874699  0.584609  0.256460  1
  F  F43  1  0.410299  0.218044  0.223928  1
  F  F44  1  0.978952  0.904817  0.253277  1
  F  F45  1  0.910299  0.281956  0.223928  1
  F  F46  1  0.159523  0.456134  0.093651  1
  F  F47  1  0.136298  0.715833  0.095795  1
  F  F48  1  0.113119  0.082794  0.100455  1
  F  F49  1  0.659523  0.043866  0.093651  1
  F  F50  1  0.636298  0.784167  0.095795  1
  F  F51  1  0.613119  0.417206  0.100455  1
