# generated using pymatgen
data_K2HI2ClO6
_symmetry_space_group_name_H-M   'P 1'
_cell_length_a   6.67371506
_cell_length_b   8.77393565
_cell_length_c   15.18664778
_cell_angle_alpha   90.00000000
_cell_angle_beta   90.00000000
_cell_angle_gamma   90.00000000
_symmetry_Int_Tables_number   1
_chemical_formula_structural   K2HI2ClO6
_chemical_formula_sum   'K8 H4 I8 Cl4 O24'
_cell_volume   889.25031068
_cell_formula_units_Z   4
loop_
 _symmetry_equiv_pos_site_id
 _symmetry_equiv_pos_as_xyz
  1  'x, y, z'
loop_
 _atom_site_type_symbol
 _atom_site_label
 _atom_site_symmetry_multiplicity
 _atom_site_fract_x
 _atom_site_fract_y
 _atom_site_fract_z
 _atom_site_occupancy
  K  K0  1  0.019724  0.238545  0.015361  1
  K  K1  1  0.980276  0.738545  0.984639  1
  K  K2  1  0.019724  0.738545  0.484639  1
  K  K3  1  0.980276  0.238545  0.515361  1
  K  K4  1  0.441514  0.745275  0.763904  1
  K  K5  1  0.558486  0.245275  0.236096  1
  K  K6  1  0.441514  0.245275  0.736096  1
  K  K7  1  0.558486  0.745275  0.263904  1
  H  H8  1  0.286014  0.975521  0.107963  1
  H  H9  1  0.713986  0.475521  0.892037  1
  H  H10  1  0.286014  0.475521  0.392037  1
  H  H11  1  0.713986  0.975521  0.607963  1
  I  I12  1  0.064501  0.006511  0.282078  1
  I  I13  1  0.935499  0.506511  0.717922  1
  I  I14  1  0.064501  0.506511  0.217922  1
  I  I15  1  0.935499  0.006511  0.782078  1
  I  I16  1  0.495449  0.998486  0.965533  1
  I  I17  1  0.504551  0.498486  0.034467  1
  I  I18  1  0.495449  0.498486  0.534467  1
  I  I19  1  0.504551  0.998486  0.465533  1
  Cl  Cl20  1  0.223815  0.466626  0.875651  1
  Cl  Cl21  1  0.776185  0.966626  0.124349  1
  Cl  Cl22  1  0.223815  0.966626  0.624349  1
  Cl  Cl23  1  0.776185  0.466626  0.375651  1
  O  O24  1  0.289533  0.991628  0.212986  1
  O  O25  1  0.710467  0.491628  0.787014  1
  O  O26  1  0.289533  0.491628  0.287014  1
  O  O27  1  0.710467  0.991628  0.712986  1
  O  O28  1  0.188573  0.068213  0.385765  1
  O  O29  1  0.811427  0.568213  0.614235  1
  O  O30  1  0.188573  0.568213  0.114235  1
  O  O31  1  0.811427  0.068213  0.885765  1
  O  O32  1  0.015465  0.805858  0.304732  1
  O  O33  1  0.984535  0.305858  0.695268  1
  O  O34  1  0.015465  0.305858  0.195268  1
  O  O35  1  0.984535  0.805858  0.804732  1
  O  O36  1  0.262666  0.964078  0.041636  1
  O  O37  1  0.737334  0.464078  0.958364  1
  O  O38  1  0.262666  0.464078  0.458364  1
  O  O39  1  0.737334  0.964078  0.541636  1
  O  O40  1  0.333822  0.042711  0.872676  1
  O  O41  1  0.666178  0.542711  0.127324  1
  O  O42  1  0.333822  0.542711  0.627324  1
  O  O43  1  0.666178  0.042711  0.372676  1
  O  O44  1  0.549113  0.798750  0.944866  1
  O  O45  1  0.450887  0.298750  0.055134  1
  O  O46  1  0.549113  0.298750  0.555134  1
  O  O47  1  0.450887  0.798750  0.444866  1
