# generated using pymatgen
data_K2Li2CoO4
_symmetry_space_group_name_H-M   'P 1'
_cell_length_a   5.60109019
_cell_length_b   8.99399323
_cell_length_c   10.40014592
_cell_angle_alpha   86.99007384
_cell_angle_beta   82.38619168
_cell_angle_gamma   89.60118078
_symmetry_Int_Tables_number   1
_chemical_formula_structural   K2Li2CoO4
_chemical_formula_sum   'K8 Li8 Co4 O16'
_cell_volume   518.58402660
_cell_formula_units_Z   4
loop_
 _symmetry_equiv_pos_site_id
 _symmetry_equiv_pos_as_xyz
  1  'x, y, z'
loop_
 _atom_site_type_symbol
 _atom_site_label
 _atom_site_symmetry_multiplicity
 _atom_site_fract_x
 _atom_site_fract_y
 _atom_site_fract_z
 _atom_site_occupancy
  K  K0  1  0.151929  0.003760  0.127937  1
  K  K1  1  0.177576  0.211422  0.642136  1
  K  K2  1  0.360183  0.485661  0.369595  1
  K  K3  1  0.378813  0.781534  0.875066  1
  K  K4  1  0.667040  0.308509  0.094076  1
  K  K5  1  0.659250  0.452323  0.687224  1
  K  K6  1  0.871235  0.690778  0.378403  1
  K  K7  1  0.777624  0.047635  0.853773  1
  Li  Li8  1  0.088764  0.247390  0.293704  1
  Li  Li9  1  0.192860  0.002726  0.425778  1
  Li  Li10  1  0.276134  0.520436  0.073504  1
  Li  Li11  1  0.062449  0.531141  0.826930  1
  Li  Li12  1  0.410979  0.753161  0.195908  1
  Li  Li13  1  0.609558  0.974629  0.289237  1
  Li  Li14  1  0.778432  0.967758  0.560238  1
  Li  Li15  1  0.910812  0.754767  0.697945  1
  Co  Co16  1  0.198288  0.296510  0.938564  1
  Co  Co17  1  0.325606  0.777654  0.558151  1
  Co  Co18  1  0.684146  0.201409  0.433369  1
  Co  Co19  1  0.822528  0.720182  0.061625  1
  O  O20  1  0.148949  0.306827  0.115976  1
  O  O21  1  0.106552  0.704485  0.129135  1
  O  O22  1  0.106881  0.921898  0.608383  1
  O  O23  1  0.162809  0.608814  0.613370  1
  O  O24  1  0.399696  0.176129  0.364676  1
  O  O25  1  0.376932  0.811455  0.378988  1
  O  O26  1  0.314338  0.117838  0.897346  1
  O  O27  1  0.354855  0.469689  0.892878  1
  O  O28  1  0.599692  0.587944  0.138118  1
  O  O29  1  0.671778  0.895186  0.112708  1
  O  O30  1  0.656153  0.164783  0.603554  1
  O  O31  1  0.611595  0.782806  0.619596  1
  O  O32  1  0.833267  0.375056  0.393441  1
  O  O33  1  0.883080  0.050274  0.366186  1
  O  O34  1  0.934055  0.327534  0.858394  1
  O  O35  1  0.886404  0.718421  0.885431  1
