# generated using pymatgen
data_CaCuSiH2O5
_symmetry_space_group_name_H-M   'P 1'
_cell_length_a   5.08733672
_cell_length_b   16.30152777
_cell_length_c   5.39650895
_cell_angle_alpha   90.00000000
_cell_angle_beta   102.91715984
_cell_angle_gamma   90.00000000
_symmetry_Int_Tables_number   1
_chemical_formula_structural   CaCuSiH2O5
_chemical_formula_sum   'Ca4 Cu4 Si4 H8 O20'
_cell_volume   436.21451707
_cell_formula_units_Z   4
loop_
 _symmetry_equiv_pos_site_id
 _symmetry_equiv_pos_as_xyz
  1  'x, y, z'
loop_
 _atom_site_type_symbol
 _atom_site_label
 _atom_site_symmetry_multiplicity
 _atom_site_fract_x
 _atom_site_fract_y
 _atom_site_fract_z
 _atom_site_occupancy
  Ca  Ca0  1  0.348315  0.176486  0.656067  1
  Ca  Ca1  1  0.348315  0.323514  0.156067  1
  Ca  Ca2  1  0.651685  0.676486  0.843933  1
  Ca  Ca3  1  0.651685  0.823514  0.343933  1
  Cu  Cu4  1  0.000000  0.000000  0.500000  1
  Cu  Cu5  1  0.000000  0.500000  0.000000  1
  Cu  Cu6  1  0.500000  0.500000  0.500000  1
  Cu  Cu7  1  0.500000  0.000000  0.000000  1
  Si  Si8  1  0.018922  0.389787  0.531248  1
  Si  Si9  1  0.018922  0.110213  0.031248  1
  Si  Si10  1  0.981078  0.889787  0.968752  1
  Si  Si11  1  0.981078  0.610213  0.468752  1
  H  H12  1  0.169804  0.755774  0.574008  1
  H  H13  1  0.335996  0.827659  0.752135  1
  H  H14  1  0.169804  0.744226  0.074008  1
  H  H15  1  0.335996  0.672341  0.252135  1
  H  H16  1  0.664004  0.327659  0.747865  1
  H  H17  1  0.830196  0.255774  0.925992  1
  H  H18  1  0.664004  0.172341  0.247865  1
  H  H19  1  0.830196  0.244226  0.425992  1
  O  O20  1  0.099465  0.204820  0.975771  1
  O  O21  1  0.152701  0.414302  0.828518  1
  O  O22  1  0.157752  0.054104  0.831935  1
  O  O23  1  0.099465  0.295180  0.475771  1
  O  O24  1  0.152701  0.085698  0.328518  1
  O  O25  1  0.157752  0.445896  0.331935  1
  O  O26  1  0.313401  0.602781  0.535338  1
  O  O27  1  0.350194  0.787676  0.617929  1
  O  O28  1  0.313401  0.897219  0.035338  1
  O  O29  1  0.350194  0.712324  0.117929  1
  O  O30  1  0.649806  0.287676  0.882071  1
  O  O31  1  0.686599  0.102781  0.964662  1
  O  O32  1  0.649806  0.212324  0.382071  1
  O  O33  1  0.686599  0.397219  0.464662  1
  O  O34  1  0.842248  0.554104  0.668065  1
  O  O35  1  0.847299  0.914302  0.671482  1
  O  O36  1  0.900535  0.704820  0.524229  1
  O  O37  1  0.842248  0.945896  0.168065  1
  O  O38  1  0.847299  0.585698  0.171482  1
  O  O39  1  0.900535  0.795180  0.024229  1
