# generated using pymatgen
data_LiNiPO4
_symmetry_space_group_name_H-M   'P 1'
_cell_length_a   5.01663692
_cell_length_b   6.29224895
_cell_length_c   10.99197050
_cell_angle_alpha   90.00000000
_cell_angle_beta   90.00000000
_cell_angle_gamma   90.00000000
_symmetry_Int_Tables_number   1
_chemical_formula_structural   LiNiPO4
_chemical_formula_sum   'Li4 Ni4 P4 O16'
_cell_volume   346.97175354
_cell_formula_units_Z   4
loop_
 _symmetry_equiv_pos_site_id
 _symmetry_equiv_pos_as_xyz
  1  'x, y, z'
loop_
 _atom_site_type_symbol
 _atom_site_label
 _atom_site_symmetry_multiplicity
 _atom_site_fract_x
 _atom_site_fract_y
 _atom_site_fract_z
 _atom_site_occupancy
  Li  Li0  1  0.752221  0.485758  0.166740  1
  Li  Li1  1  0.252221  0.985758  0.333260  1
  Li  Li2  1  0.752221  0.014242  0.666740  1
  Li  Li3  1  0.252221  0.514242  0.833260  1
  Ni  Ni4  1  0.259495  0.220175  0.080989  1
  Ni  Ni5  1  0.759495  0.720175  0.419011  1
  Ni  Ni6  1  0.259495  0.279825  0.580989  1
  Ni  Ni7  1  0.759495  0.779825  0.919011  1
  P  P8  1  0.749166  0.984174  0.175238  1
  P  P9  1  0.249166  0.484174  0.324762  1
  P  P10  1  0.749166  0.515826  0.675238  1
  P  P11  1  0.249166  0.015826  0.824762  1
  O  O12  1  0.811800  0.786090  0.094195  1
  O  O13  1  0.875826  0.187575  0.118882  1
  O  O14  1  0.361523  0.449749  0.194843  1
  O  O15  1  0.443876  0.012500  0.181608  1
  O  O16  1  0.943876  0.512500  0.318392  1
  O  O17  1  0.861523  0.949749  0.305157  1
  O  O18  1  0.375826  0.687575  0.381118  1
  O  O19  1  0.311800  0.286090  0.405805  1
  O  O20  1  0.811800  0.713910  0.594195  1
  O  O21  1  0.875826  0.312425  0.618882  1
  O  O22  1  0.361523  0.050251  0.694843  1
  O  O23  1  0.443876  0.487500  0.681608  1
  O  O24  1  0.943876  0.987500  0.818392  1
  O  O25  1  0.861523  0.550251  0.805157  1
  O  O26  1  0.375826  0.812425  0.881118  1
  O  O27  1  0.311800  0.213910  0.905805  1
