# generated using pymatgen
data_NbNO
_symmetry_space_group_name_H-M   'P 1'
_cell_length_a   5.03671532
_cell_length_b   5.26313920
_cell_length_c   10.23434765
_cell_angle_alpha   90.23964175
_cell_angle_beta   89.97689331
_cell_angle_gamma   99.87317459
_symmetry_Int_Tables_number   1
_chemical_formula_structural   NbNO
_chemical_formula_sum   'Nb8 N8 O8'
_cell_volume   267.28123867
_cell_formula_units_Z   8
loop_
 _symmetry_equiv_pos_site_id
 _symmetry_equiv_pos_as_xyz
  1  'x, y, z'
loop_
 _atom_site_type_symbol
 _atom_site_label
 _atom_site_symmetry_multiplicity
 _atom_site_fract_x
 _atom_site_fract_y
 _atom_site_fract_z
 _atom_site_occupancy
  Nb  Nb0  1  0.795286  0.966826  0.508283  1
  Nb  Nb1  1  0.201218  0.035006  0.756985  1
  Nb  Nb2  1  0.210822  0.026180  0.263530  1
  Nb  Nb3  1  0.789116  0.960235  0.008872  1
  Nb  Nb4  1  0.215151  0.540687  0.958617  1
  Nb  Nb5  1  0.201542  0.526942  0.460593  1
  Nb  Nb6  1  0.792906  0.469464  0.710115  1
  Nb  Nb7  1  0.781733  0.475318  0.204864  1
  N  N8  1  0.056672  0.271904  0.607641  1
  N  N9  1  0.943485  0.232598  0.866760  1
  N  N10  1  0.946582  0.221619  0.362899  1
  N  N11  1  0.560847  0.590900  0.068760  1
  N  N12  1  0.058575  0.772110  0.611173  1
  N  N13  1  0.064595  0.778064  0.112577  1
  N  N14  1  0.940058  0.732539  0.854175  1
  N  N15  1  0.941621  0.725227  0.356663  1
  O  O16  1  0.563242  0.091241  0.649255  1
  O  O17  1  0.435356  0.909077  0.896429  1
  O  O18  1  0.570483  0.092449  0.150247  1
  O  O19  1  0.437156  0.902384  0.399033  1
  O  O20  1  0.060023  0.273448  0.108066  1
  O  O21  1  0.434642  0.410866  0.816069  1
  O  O22  1  0.434440  0.404711  0.319903  1
  O  O23  1  0.564447  0.590206  0.568390  1
