# generated using pymatgen
data_LiFeP2HO7
_symmetry_space_group_name_H-M   'P 1'
_cell_length_a   6.07056500
_cell_length_b   6.72923873
_cell_length_c   7.50339550
_cell_angle_alpha   93.32271284
_cell_angle_beta   97.98465667
_cell_angle_gamma   110.54182541
_symmetry_Int_Tables_number   1
_chemical_formula_structural   LiFeP2HO7
_chemical_formula_sum   'Li2 Fe2 P4 H2 O14'
_cell_volume   282.35591238
_cell_formula_units_Z   2
loop_
 _symmetry_equiv_pos_site_id
 _symmetry_equiv_pos_as_xyz
  1  'x, y, z'
loop_
 _atom_site_type_symbol
 _atom_site_label
 _atom_site_symmetry_multiplicity
 _atom_site_fract_x
 _atom_site_fract_y
 _atom_site_fract_z
 _atom_site_occupancy
  Li  Li0  1  0.416242  0.850381  0.116777  1
  Li  Li1  1  0.583758  0.149619  0.883223  1
  Fe  Fe2  1  0.732505  0.763954  0.722657  1
  Fe  Fe3  1  0.267495  0.236046  0.277343  1
  P  P4  1  0.247419  0.698028  0.690900  1
  P  P5  1  0.891887  0.721372  0.151279  1
  P  P6  1  0.108113  0.278628  0.848721  1
  P  P7  1  0.752581  0.301972  0.309100  1
  H  H8  1  0.194580  0.041323  0.694367  1
  H  H9  1  0.805420  0.958677  0.305633  1
  O  O10  1  0.059174  0.797995  0.630239  1
  O  O11  1  0.137683  0.897299  0.188241  1
  O  O12  1  0.417314  0.820176  0.863920  1
  O  O13  1  0.402207  0.675869  0.551269  1
  O  O14  1  0.712389  0.808122  0.236801  1
  O  O15  1  0.084262  0.462599  0.731568  1
  O  O16  1  0.207403  0.373076  0.044000  1
  O  O17  1  0.792597  0.626924  0.956000  1
  O  O18  1  0.915738  0.537401  0.268432  1
  O  O19  1  0.287611  0.191878  0.763199  1
  O  O20  1  0.597793  0.324131  0.448731  1
  O  O21  1  0.582686  0.179824  0.136080  1
  O  O22  1  0.862317  0.102701  0.811759  1
  O  O23  1  0.940826  0.202005  0.369761  1
