# generated using pymatgen
data_V5Sb(PO4)6
_symmetry_space_group_name_H-M   'P 1'
_cell_length_a   8.61523251
_cell_length_b   8.61523251
_cell_length_c   8.61523251
_cell_angle_alpha   61.17794229
_cell_angle_beta   61.17794229
_cell_angle_gamma   61.17794229
_symmetry_Int_Tables_number   1
_chemical_formula_structural   V5Sb(PO4)6
_chemical_formula_sum   'V5 Sb1 P6 O24'
_cell_volume   464.13607997
_cell_formula_units_Z   1
loop_
 _symmetry_equiv_pos_site_id
 _symmetry_equiv_pos_as_xyz
  1  'x, y, z'
loop_
 _atom_site_type_symbol
 _atom_site_label
 _atom_site_symmetry_multiplicity
 _atom_site_fract_x
 _atom_site_fract_y
 _atom_site_fract_z
 _atom_site_occupancy
  V  V0  1  0.999500  0.999500  0.999500  1
  V  V1  1  0.645449  0.645449  0.645449  1
  V  V2  1  0.501286  0.501286  0.501286  1
  V  V3  1  0.856356  0.856356  0.856356  1
  V  V4  1  0.357351  0.357351  0.357351  1
  Sb  Sb5  1  0.150133  0.150133  0.150133  1
  P  P6  1  0.946510  0.252291  0.559452  1
  P  P7  1  0.559452  0.946510  0.252291  1
  P  P8  1  0.252291  0.559452  0.946510  1
  P  P9  1  0.741818  0.460861  0.043218  1
  P  P10  1  0.460861  0.043218  0.741818  1
  P  P11  1  0.043218  0.741818  0.460861  1
  O  O12  1  0.500272  0.110382  0.313549  1
  O  O13  1  0.313549  0.500272  0.110382  1
  O  O14  1  0.110382  0.313549  0.500272  1
  O  O15  1  0.932797  0.096787  0.756668  1
  O  O16  1  0.960118  0.180533  0.420115  1
  O  O17  1  0.750759  0.412252  0.578548  1
  O  O18  1  0.756668  0.932797  0.096787  1
  O  O19  1  0.578548  0.750759  0.412252  1
  O  O20  1  0.816034  0.610354  0.002096  1
  O  O21  1  0.412252  0.578548  0.750759  1
  O  O22  1  0.892681  0.261783  0.047842  1
  O  O23  1  0.610354  0.002096  0.816034  1
  O  O24  1  0.420115  0.960118  0.180533  1
  O  O25  1  0.096787  0.756668  0.932797  1
  O  O26  1  0.589605  0.442430  0.241281  1
  O  O27  1  0.180533  0.420115  0.960118  1
  O  O28  1  0.442430  0.241281  0.589605  1
  O  O29  1  0.261783  0.047842  0.892681  1
  O  O30  1  0.241281  0.589605  0.442430  1
  O  O31  1  0.002096  0.816034  0.610354  1
  O  O32  1  0.047842  0.892681  0.261783  1
  O  O33  1  0.889940  0.663978  0.514956  1
  O  O34  1  0.663978  0.514956  0.889940  1
  O  O35  1  0.514956  0.889940  0.663978  1
