# generated using pymatgen
data_Ba2YBr7
_symmetry_space_group_name_H-M   'P 1'
_cell_length_a   8.62369739
_cell_length_b   13.40985643
_cell_length_c   16.40513488
_cell_angle_alpha   90.00000000
_cell_angle_beta   119.05893538
_cell_angle_gamma   90.00000000
_symmetry_Int_Tables_number   1
_chemical_formula_structural   Ba2YBr7
_chemical_formula_sum   'Ba8 Y4 Br28'
_cell_volume   1658.32167973
_cell_formula_units_Z   4
loop_
 _symmetry_equiv_pos_site_id
 _symmetry_equiv_pos_as_xyz
  1  'x, y, z'
loop_
 _atom_site_type_symbol
 _atom_site_label
 _atom_site_symmetry_multiplicity
 _atom_site_fract_x
 _atom_site_fract_y
 _atom_site_fract_z
 _atom_site_occupancy
  Ba  Ba0  1  0.808881  0.237054  0.523185  1
  Ba  Ba1  1  0.413819  0.363937  0.216945  1
  Ba  Ba2  1  0.586181  0.863937  0.283055  1
  Ba  Ba3  1  0.808881  0.262946  0.023185  1
  Ba  Ba4  1  0.191119  0.737054  0.976815  1
  Ba  Ba5  1  0.413819  0.136063  0.716945  1
  Ba  Ba6  1  0.586181  0.636063  0.783055  1
  Ba  Ba7  1  0.191119  0.762946  0.476815  1
  Y  Y8  1  0.950331  0.701065  0.676982  1
  Y  Y9  1  0.950331  0.798935  0.176982  1
  Y  Y10  1  0.049669  0.201065  0.823018  1
  Y  Y11  1  0.049669  0.298935  0.323018  1
  Br  Br12  1  0.985638  0.559262  0.812347  1
  Br  Br13  1  0.851347  0.826716  0.780665  1
  Br  Br14  1  0.704297  0.270682  0.687036  1
  Br  Br15  1  0.841532  0.409485  0.384097  1
  Br  Br16  1  0.985638  0.940738  0.312347  1
  Br  Br17  1  0.609520  0.084263  0.360896  1
  Br  Br18  1  0.851729  0.816178  0.513283  1
  Br  Br19  1  0.409477  0.366801  0.417591  1
  Br  Br20  1  0.851347  0.673284  0.280665  1
  Br  Br21  1  0.704297  0.229318  0.187036  1
  Br  Br22  1  0.590523  0.866801  0.082409  1
  Br  Br23  1  0.148271  0.316178  0.986717  1
  Br  Br24  1  0.390480  0.584263  0.139104  1
  Br  Br25  1  0.841532  0.090515  0.884097  1
  Br  Br26  1  0.158468  0.909485  0.115903  1
  Br  Br27  1  0.609520  0.415737  0.860896  1
  Br  Br28  1  0.851729  0.683822  0.013283  1
  Br  Br29  1  0.409477  0.133199  0.917591  1
  Br  Br30  1  0.295703  0.770682  0.812964  1
  Br  Br31  1  0.148653  0.326716  0.719335  1
  Br  Br32  1  0.590523  0.633199  0.582409  1
  Br  Br33  1  0.148271  0.183822  0.486717  1
  Br  Br34  1  0.390480  0.915737  0.639104  1
  Br  Br35  1  0.014362  0.059262  0.687653  1
  Br  Br36  1  0.158468  0.590515  0.615903  1
  Br  Br37  1  0.295703  0.729318  0.312964  1
  Br  Br38  1  0.148653  0.173284  0.219335  1
  Br  Br39  1  0.014362  0.440738  0.187653  1
