# generated using pymatgen
data_NbFe3(PO4)6
_symmetry_space_group_name_H-M   'P 1'
_cell_length_a   8.97433266
_cell_length_b   8.97433266
_cell_length_c   8.97433266
_cell_angle_alpha   58.55273782
_cell_angle_beta   58.55273782
_cell_angle_gamma   58.55273782
_symmetry_Int_Tables_number   1
_chemical_formula_structural   NbFe3(PO4)6
_chemical_formula_sum   'Nb1 Fe3 P6 O24'
_cell_volume   494.16747355
_cell_formula_units_Z   1
loop_
 _symmetry_equiv_pos_site_id
 _symmetry_equiv_pos_as_xyz
  1  'x, y, z'
loop_
 _atom_site_type_symbol
 _atom_site_label
 _atom_site_symmetry_multiplicity
 _atom_site_fract_x
 _atom_site_fract_y
 _atom_site_fract_z
 _atom_site_occupancy
  Nb  Nb0  1  0.140398  0.140398  0.140398  1
  Fe  Fe1  1  0.857238  0.857238  0.857238  1
  Fe  Fe2  1  0.642014  0.642014  0.642014  1
  Fe  Fe3  1  0.356778  0.356778  0.356778  1
  P  P4  1  0.250077  0.537456  0.964494  1
  P  P5  1  0.964494  0.250077  0.537456  1
  P  P6  1  0.537455  0.964494  0.250077  1
  P  P7  1  0.471802  0.034051  0.742249  1
  P  P8  1  0.034051  0.742249  0.471802  1
  P  P9  1  0.742249  0.471802  0.034051  1
  O  O10  1  0.724015  0.491547  0.863610  1
  O  O11  1  0.491547  0.863610  0.724015  1
  O  O12  1  0.080592  0.713888  0.935321  1
  O  O13  1  0.863610  0.724015  0.491547  1
  O  O14  1  0.422653  0.555458  0.790091  1
  O  O15  1  0.215665  0.365640  0.002392  1
  O  O16  1  0.935321  0.080592  0.713888  1
  O  O17  1  0.790091  0.422653  0.555458  1
  O  O18  1  0.555458  0.790091  0.422653  1
  O  O19  1  0.640286  0.006214  0.770675  1
  O  O20  1  0.294398  0.067619  0.916776  1
  O  O21  1  0.006214  0.770675  0.640286  1
  O  O22  1  0.002392  0.215665  0.365640  1
  O  O23  1  0.713888  0.935321  0.080592  1
  O  O24  1  0.365640  0.002392  0.215665  1
  O  O25  1  0.445054  0.208688  0.572249  1
  O  O26  1  0.208688  0.572249  0.445054  1
  O  O27  1  0.067619  0.916776  0.294398  1
  O  O28  1  0.770675  0.640286  0.006214  1
  O  O29  1  0.572249  0.445054  0.208688  1
  O  O30  1  0.135129  0.274718  0.510767  1
  O  O31  1  0.916776  0.294398  0.067619  1
  O  O32  1  0.510767  0.135129  0.274718  1
  O  O33  1  0.274718  0.510767  0.135129  1
