# generated using pymatgen
data_LiFe(Si2O5)3
_symmetry_space_group_name_H-M   'P 1'
_cell_length_a   11.23808099
_cell_length_b   11.23808099
_cell_length_c   10.01759234
_cell_angle_alpha   90.00000000
_cell_angle_beta   90.00000000
_cell_angle_gamma   99.37227768
_symmetry_Int_Tables_number   1
_chemical_formula_structural   LiFe(Si2O5)3
_chemical_formula_sum   'Li4 Fe4 Si24 O60'
_cell_volume   1248.27784151
_cell_formula_units_Z   4
loop_
 _symmetry_equiv_pos_site_id
 _symmetry_equiv_pos_as_xyz
  1  'x, y, z'
loop_
 _atom_site_type_symbol
 _atom_site_label
 _atom_site_symmetry_multiplicity
 _atom_site_fract_x
 _atom_site_fract_y
 _atom_site_fract_z
 _atom_site_occupancy
  Li  Li0  1  0.249067  0.249067  0.500000  1
  Li  Li1  1  0.250933  0.250933  1.000000  1
  Li  Li2  1  0.749067  0.749067  0.000000  1
  Li  Li3  1  0.750933  0.750933  0.500000  1
  Fe  Fe4  1  0.340062  0.159938  0.750000  1
  Fe  Fe5  1  0.159938  0.340062  0.250000  1
  Fe  Fe6  1  0.840062  0.659938  0.750000  1
  Fe  Fe7  1  0.659938  0.840062  0.250000  1
  Si  Si8  1  0.759053  0.024448  0.992037  1
  Si  Si9  1  0.706878  0.075935  0.454779  1
  Si  Si10  1  0.173613  0.044334  0.303317  1
  Si  Si11  1  0.975552  0.240947  0.992037  1
  Si  Si12  1  0.575935  0.206878  0.954779  1
  Si  Si13  1  0.924065  0.293122  0.454779  1
  Si  Si14  1  0.524448  0.259053  0.492037  1
  Si  Si15  1  0.044334  0.173613  0.696683  1
  Si  Si16  1  0.455666  0.326387  0.196683  1
  Si  Si17  1  0.793122  0.424065  0.954779  1
  Si  Si18  1  0.740947  0.475552  0.492037  1
  Si  Si19  1  0.326387  0.455666  0.803317  1
  Si  Si20  1  0.673613  0.544334  0.196683  1
  Si  Si21  1  0.259053  0.524448  0.507963  1
  Si  Si22  1  0.206878  0.575935  0.045221  1
  Si  Si23  1  0.544334  0.673613  0.803317  1
  Si  Si24  1  0.955666  0.826387  0.303317  1
  Si  Si25  1  0.475552  0.740947  0.507963  1
  Si  Si26  1  0.075935  0.706878  0.545221  1
  Si  Si27  1  0.424065  0.793122  0.045221  1
  Si  Si28  1  0.024448  0.759053  0.007963  1
  Si  Si29  1  0.826387  0.955666  0.696683  1
  Si  Si30  1  0.293122  0.924065  0.545221  1
  Si  Si31  1  0.240947  0.975552  0.007963  1
  O  O32  1  0.956571  0.043429  0.692113  1
  O  O33  1  0.655981  0.998964  0.323619  1
  O  O34  1  0.883217  0.116783  0.024607  1
  O  O35  1  0.261837  0.006571  0.420737  1
  O  O36  1  0.646282  0.098627  0.004386  1
  O  O37  1  0.237246  0.028389  0.160070  1
  O  O38  1  0.825779  0.174221  0.417685  1
  O  O39  1  0.598627  0.146282  0.504386  1
  O  O40  1  0.255530  0.093708  0.913338  1
  O  O41  1  0.498964  0.155981  0.823619  1
  O  O42  1  0.183006  0.162365  0.661405  1
  O  O43  1  0.493429  0.238163  0.079263  1
  O  O44  1  0.162365  0.183006  0.338595  1
  O  O45  1  0.001036  0.344019  0.323619  1
  O  O46  1  0.471611  0.262754  0.339930  1
  O  O47  1  0.406292  0.244470  0.586662  1
  O  O48  1  0.901373  0.353718  0.004386  1
  O  O49  1  0.674221  0.325779  0.917685  1
  O  O50  1  0.093708  0.255530  0.086662  1
  O  O51  1  0.028389  0.237246  0.839930  1
  O  O52  1  0.853718  0.401373  0.504386  1
  O  O53  1  0.337635  0.316994  0.838595  1
  O  O54  1  0.006571  0.261837  0.579263  1
  O  O55  1  0.616783  0.383217  0.524607  1
  O  O56  1  0.316994  0.337635  0.161405  1
  O  O57  1  0.844019  0.501036  0.823619  1
  O  O58  1  0.543429  0.456571  0.192113  1
  O  O59  1  0.244470  0.406292  0.413338  1
  O  O60  1  0.761837  0.506571  0.079263  1
  O  O61  1  0.737246  0.528389  0.339930  1
  O  O62  1  0.262754  0.471611  0.660070  1
  O  O63  1  0.238163  0.493429  0.920737  1
  O  O64  1  0.755530  0.593708  0.586662  1
  O  O65  1  0.456571  0.543429  0.807887  1
  O  O66  1  0.155981  0.498964  0.176381  1
  O  O67  1  0.683006  0.662365  0.838595  1
  O  O68  1  0.383217  0.616783  0.475393  1
  O  O69  1  0.993429  0.738163  0.420737  1
  O  O70  1  0.662365  0.683006  0.161405  1
  O  O71  1  0.146282  0.598627  0.495614  1
  O  O72  1  0.971611  0.762754  0.160070  1
  O  O73  1  0.906292  0.744470  0.913338  1
  O  O74  1  0.325779  0.674221  0.082315  1
  O  O75  1  0.098627  0.646282  0.995614  1
  O  O76  1  0.593708  0.755530  0.413338  1
  O  O77  1  0.528389  0.737246  0.660070  1
  O  O78  1  0.998964  0.655981  0.676381  1
  O  O79  1  0.837635  0.816994  0.661405  1
  O  O80  1  0.506571  0.761837  0.920737  1
  O  O81  1  0.816994  0.837635  0.338595  1
  O  O82  1  0.501036  0.844019  0.176381  1
  O  O83  1  0.744470  0.906292  0.086662  1
  O  O84  1  0.401373  0.853718  0.495614  1
  O  O85  1  0.174221  0.825779  0.582315  1
  O  O86  1  0.762754  0.971611  0.839930  1
  O  O87  1  0.353718  0.901373  0.995614  1
  O  O88  1  0.738163  0.993429  0.579263  1
  O  O89  1  0.116783  0.883217  0.975393  1
  O  O90  1  0.344019  0.001036  0.676381  1
  O  O91  1  0.043429  0.956571  0.307887  1
