# generated using pymatgen
data_Li10Sn(PSe6)2
_symmetry_space_group_name_H-M   'P 1'
_cell_length_a   9.08308228
_cell_length_b   9.43421887
_cell_length_c   13.79637049
_cell_angle_alpha   92.05967257
_cell_angle_beta   90.71512499
_cell_angle_gamma   90.17597103
_symmetry_Int_Tables_number   1
_chemical_formula_structural   Li10Sn(PSe6)2
_chemical_formula_sum   'Li20 Sn2 P4 Se24'
_cell_volume   1181.37247993
_cell_formula_units_Z   2
loop_
 _symmetry_equiv_pos_site_id
 _symmetry_equiv_pos_as_xyz
  1  'x, y, z'
loop_
 _atom_site_type_symbol
 _atom_site_label
 _atom_site_symmetry_multiplicity
 _atom_site_fract_x
 _atom_site_fract_y
 _atom_site_fract_z
 _atom_site_occupancy
  Li  Li0  1  0.989034  0.516293  0.952324  1
  Li  Li1  1  0.964641  0.517464  0.427549  1
  Li  Li2  1  0.509518  0.964718  0.544748  1
  Li  Li3  1  0.497035  0.993522  0.051633  1
  Li  Li4  1  0.259446  0.289120  0.158527  1
  Li  Li5  1  0.742605  0.748261  0.283448  1
  Li  Li6  1  0.215205  0.816469  0.754646  1
  Li  Li7  1  0.233256  0.758423  0.252943  1
  Li  Li8  1  0.752156  0.217037  0.351338  1
  Li  Li9  1  0.461768  0.512625  0.751324  1
  Li  Li10  1  0.230988  0.224923  0.365574  1
  Li  Li11  1  0.736050  0.259099  0.857274  1
  Li  Li12  1  0.247853  0.759530  0.006452  1
  Li  Li13  1  0.740346  0.261779  0.132046  1
  Li  Li14  1  0.764889  0.724640  0.688292  1
  Li  Li15  1  0.221792  0.261837  0.919959  1
  Li  Li16  1  0.745703  0.759551  0.008935  1
  Li  Li17  1  0.242203  0.720647  0.484309  1
  Li  Li18  1  0.785225  0.215527  0.624935  1
  Li  Li19  1  0.240263  0.212908  0.648740  1
  Sn  Sn20  1  0.995923  0.489643  0.183354  1
  Sn  Sn21  1  0.510511  0.990892  0.816057  1
  P  P22  1  0.992465  0.966076  0.501774  1
  P  P23  1  0.492346  0.515315  0.992747  1
  P  P24  1  0.008793  0.481613  0.683815  1
  P  P25  1  0.487816  0.010357  0.310943  1
  Se  Se26  1  0.988084  0.181772  0.443621  1
  Se  Se27  1  0.005699  0.790128  0.387027  1
  Se  Se28  1  0.290170  0.533933  0.898523  1
  Se  Se29  1  0.689375  0.534314  0.897062  1
  Se  Se30  1  0.496426  0.698356  0.100465  1
  Se  Se31  1  0.485663  0.305524  0.059667  1
  Se  Se32  1  0.201439  0.945393  0.590028  1
  Se  Se33  1  0.796330  0.946043  0.592844  1
  Se  Se34  1  0.006012  0.281495  0.058399  1
  Se  Se35  1  0.000852  0.726190  0.098483  1
  Se  Se36  1  0.217097  0.485017  0.599124  1
  Se  Se37  1  0.810789  0.491606  0.587099  1
  Se  Se38  1  0.486253  0.796666  0.375260  1
  Se  Se39  1  0.495897  0.182128  0.426231  1
  Se  Se40  1  0.267940  0.988947  0.910538  1
  Se  Se41  1  0.731523  0.003364  0.930000  1
  Se  Se42  1  0.991327  0.664567  0.791153  1
  Se  Se43  1  0.003743  0.275886  0.760368  1
  Se  Se44  1  0.762101  0.465757  0.280333  1
  Se  Se45  1  0.216824  0.478923  0.299177  1
  Se  Se46  1  0.519434  0.216175  0.715450  1
  Se  Se47  1  0.488688  0.781513  0.692198  1
  Se  Se48  1  0.690273  0.013853  0.219494  1
  Se  Se49  1  0.287628  0.031285  0.216963  1
