# generated using pymatgen
data_Na2PH11O8
_symmetry_space_group_name_H-M   'P 1'
_cell_length_a   6.43871599
_cell_length_b   7.17338628
_cell_length_c   9.31049781
_cell_angle_alpha   90.00000000
_cell_angle_beta   90.00000000
_cell_angle_gamma   90.00000000
_symmetry_Int_Tables_number   1
_chemical_formula_structural   Na2PH11O8
_chemical_formula_sum   'Na4 P2 H22 O16'
_cell_volume   430.02765809
_cell_formula_units_Z   2
loop_
 _symmetry_equiv_pos_site_id
 _symmetry_equiv_pos_as_xyz
  1  'x, y, z'
loop_
 _atom_site_type_symbol
 _atom_site_label
 _atom_site_symmetry_multiplicity
 _atom_site_fract_x
 _atom_site_fract_y
 _atom_site_fract_z
 _atom_site_occupancy
  Na  Na0  1  0.497604  0.500000  0.847354  1
  Na  Na1  1  0.502396  0.000000  0.347354  1
  Na  Na2  1  0.539206  0.500000  0.271549  1
  Na  Na3  1  0.460794  0.000000  0.771549  1
  P  P4  1  0.146866  0.500000  0.501995  1
  P  P5  1  0.853134  0.000000  0.001995  1
  H  H6  1  0.101715  0.500000  0.352508  1
  H  H7  1  0.898285  0.000000  0.852508  1
  H  H8  1  0.782102  0.286345  0.640517  1
  H  H9  1  0.782102  0.713655  0.640517  1
  H  H10  1  0.217898  0.213655  0.140517  1
  H  H11  1  0.217898  0.786345  0.140517  1
  H  H12  1  0.548530  0.334136  0.605490  1
  H  H13  1  0.548530  0.665864  0.605490  1
  H  H14  1  0.451470  0.165864  0.105490  1
  H  H15  1  0.451470  0.834136  0.105490  1
  H  H16  1  0.186320  0.111496  0.543532  1
  H  H17  1  0.186320  0.888504  0.543532  1
  H  H18  1  0.813680  0.388504  0.043532  1
  H  H19  1  0.813680  0.611496  0.043532  1
  H  H20  1  0.148211  0.291394  0.748203  1
  H  H21  1  0.148211  0.708606  0.748203  1
  H  H22  1  0.851789  0.208606  0.248203  1
  H  H23  1  0.851789  0.791394  0.248203  1
  H  H24  1  0.133875  0.252849  0.915294  1
  H  H25  1  0.133875  0.747151  0.915294  1
  H  H26  1  0.866125  0.247151  0.415294  1
  H  H27  1  0.866125  0.752849  0.415294  1
  O  O28  1  0.384460  0.500000  0.515565  1
  O  O29  1  0.615540  0.000000  0.015565  1
  O  O30  1  0.044756  0.320504  0.562980  1
  O  O31  1  0.044756  0.679496  0.562980  1
  O  O32  1  0.955244  0.179496  0.062980  1
  O  O33  1  0.955244  0.820504  0.062980  1
  O  O34  1  0.638611  0.268030  0.675231  1
  O  O35  1  0.638611  0.731970  0.675231  1
  O  O36  1  0.361389  0.231970  0.175231  1
  O  O37  1  0.361389  0.768030  0.175231  1
  O  O38  1  0.277597  0.000000  0.540259  1
  O  O39  1  0.722403  0.500000  0.040259  1
  O  O40  1  0.232739  0.269659  0.835338  1
  O  O41  1  0.232739  0.730341  0.835338  1
  O  O42  1  0.767261  0.230341  0.335338  1
  O  O43  1  0.767261  0.769659  0.335338  1
