# generated using pymatgen
data_Li4Ti3Mn2Co3O16
_symmetry_space_group_name_H-M   'P 1'
_cell_length_a   5.77080736
_cell_length_b   5.77080736
_cell_length_c   9.50576530
_cell_angle_alpha   89.31596674
_cell_angle_beta   90.68403326
_cell_angle_gamma   119.49769353
_symmetry_Int_Tables_number   1
_chemical_formula_structural   Li4Ti3Mn2Co3O16
_chemical_formula_sum   'Li4 Ti3 Mn2 Co3 O16'
_cell_volume   275.50242663
_cell_formula_units_Z   1
loop_
 _symmetry_equiv_pos_site_id
 _symmetry_equiv_pos_as_xyz
  1  'x, y, z'
loop_
 _atom_site_type_symbol
 _atom_site_label
 _atom_site_symmetry_multiplicity
 _atom_site_fract_x
 _atom_site_fract_y
 _atom_site_fract_z
 _atom_site_occupancy
  Li  Li0  1  0.327131  0.672869  0.112164  1
  Li  Li1  1  0.018006  0.981994  0.009878  1
  Li  Li2  1  0.008791  0.991209  0.500098  1
  Li  Li3  1  0.662672  0.337328  0.597941  1
  Ti  Ti4  1  0.167531  0.332624  0.785904  1
  Ti  Ti5  1  0.667376  0.832469  0.785904  1
  Ti  Ti6  1  0.824513  0.175487  0.284654  1
  Mn  Mn7  1  0.331992  0.668008  0.509041  1
  Mn  Mn8  1  0.659949  0.340051  0.017753  1
  Co  Co9  1  0.175850  0.824150  0.782701  1
  Co  Co10  1  0.340026  0.176208  0.290188  1
  Co  Co11  1  0.823792  0.659974  0.290188  1
  O  O12  1  0.163422  0.333164  0.403182  1
  O  O13  1  0.479583  0.520417  0.655856  1
  O  O14  1  0.340094  0.659906  0.897228  1
  O  O15  1  0.007401  0.992599  0.686129  1
  O  O16  1  0.998690  0.001310  0.196365  1
  O  O17  1  0.666836  0.836578  0.403182  1
  O  O18  1  0.040542  0.522548  0.654940  1
  O  O19  1  0.477452  0.959458  0.654940  1
  O  O20  1  0.841740  0.158260  0.892216  1
  O  O21  1  0.166728  0.833272  0.399048  1
  O  O22  1  0.510556  0.045804  0.159814  1
  O  O23  1  0.954196  0.489444  0.159814  1
  O  O24  1  0.663991  0.336009  0.396940  1
  O  O25  1  0.332289  0.160142  0.893940  1
  O  O26  1  0.508165  0.491835  0.178282  1
  O  O27  1  0.839858  0.667711  0.893940  1
