# generated using pymatgen
data_Li8NiO5F
_symmetry_space_group_name_H-M   'P 1'
_cell_length_a   5.28564980
_cell_length_b   5.30415221
_cell_length_c   5.73950246
_cell_angle_alpha   91.09637990
_cell_angle_beta   115.82918832
_cell_angle_gamma   113.91595199
_symmetry_Int_Tables_number   1
_chemical_formula_structural   Li8NiO5F
_chemical_formula_sum   'Li8 Ni1 O5 F1'
_cell_volume   128.59915769
_cell_formula_units_Z   1
loop_
 _symmetry_equiv_pos_site_id
 _symmetry_equiv_pos_as_xyz
  1  'x, y, z'
loop_
 _atom_site_type_symbol
 _atom_site_label
 _atom_site_symmetry_multiplicity
 _atom_site_fract_x
 _atom_site_fract_y
 _atom_site_fract_z
 _atom_site_occupancy
  Li  Li0  1  0.243323  0.467688  0.352646  1
  Li  Li1  1  0.128482  0.230320  0.662281  1
  Li  Li2  1  0.411622  0.894704  0.649915  1
  Li  Li3  1  0.722133  0.365597  0.017026  1
  Li  Li4  1  0.313226  0.677163  0.973009  1
  Li  Li5  1  0.573159  0.092731  0.343001  1
  Li  Li6  1  0.895206  0.792559  0.361277  1
  Li  Li7  1  0.762202  0.522778  0.659366  1
  Ni  Ni8  1  0.949837  0.962058  0.974436  1
  O  O9  1  0.498719  0.586827  0.763154  1
  O  O10  1  0.869000  0.105273  0.231824  1
  O  O11  1  0.158868  0.772629  0.225501  1
  O  O12  1  0.818406  0.205517  0.756929  1
  O  O13  1  0.109462  0.885938  0.754333  1
  F  F14  1  0.546356  0.438223  0.275302  1
