# generated using pymatgen
data_U4O7
_symmetry_space_group_name_H-M   'P 1'
_cell_length_a   6.65139507
_cell_length_b   6.65139507
_cell_length_c   10.85360467
_cell_angle_alpha   65.97438456
_cell_angle_beta   114.02561544
_cell_angle_gamma   131.45927996
_symmetry_Int_Tables_number   1
_chemical_formula_structural   U4O7
_chemical_formula_sum   'U8 O14'
_cell_volume   321.97171202
_cell_formula_units_Z   2
loop_
 _symmetry_equiv_pos_site_id
 _symmetry_equiv_pos_as_xyz
  1  'x, y, z'
loop_
 _atom_site_type_symbol
 _atom_site_label
 _atom_site_symmetry_multiplicity
 _atom_site_fract_x
 _atom_site_fract_y
 _atom_site_fract_z
 _atom_site_occupancy
  U  U0  1  0.146954  0.888146  0.683712  1
  U  U1  1  0.618698  0.362221  0.944382  1
  U  U2  1  0.362221  0.618698  0.555618  1
  U  U3  1  0.853046  0.111854  0.316288  1
  U  U4  1  0.888146  0.146954  0.816288  1
  U  U5  1  0.381302  0.637779  0.055618  1
  U  U6  1  0.637779  0.381302  0.444382  1
  U  U7  1  0.111854  0.853046  0.183712  1
  O  O8  1  0.992579  0.514499  0.868981  1
  O  O9  1  0.503661  0.002112  0.876248  1
  O  O10  1  0.252805  0.246662  0.488823  1
  O  O11  1  0.753338  0.747195  0.988823  1
  O  O12  1  0.254220  0.254220  0.750000  1
  O  O13  1  0.747195  0.753338  0.511177  1
  O  O14  1  0.246662  0.252805  0.011177  1
  O  O15  1  0.496339  0.997888  0.123752  1
  O  O16  1  0.997888  0.496339  0.376248  1
  O  O17  1  0.007421  0.485501  0.131019  1
  O  O18  1  0.485501  0.007421  0.368981  1
  O  O19  1  0.002112  0.503661  0.623752  1
  O  O20  1  0.514499  0.992579  0.631019  1
  O  O21  1  0.745780  0.745780  0.250000  1
