# generated using pymatgen
data_NbCr2Fe3(PO4)6
_symmetry_space_group_name_H-M   'P 1'
_cell_length_a   8.77078510
_cell_length_b   8.77078510
_cell_length_c   8.77078510
_cell_angle_alpha   59.65525230
_cell_angle_beta   59.65525230
_cell_angle_gamma   59.65525230
_symmetry_Int_Tables_number   1
_chemical_formula_structural   NbCr2Fe3(PO4)6
_chemical_formula_sum   'Nb1 Cr2 Fe3 P6 O24'
_cell_volume   473.35303166
_cell_formula_units_Z   1
loop_
 _symmetry_equiv_pos_site_id
 _symmetry_equiv_pos_as_xyz
  1  'x, y, z'
loop_
 _atom_site_type_symbol
 _atom_site_label
 _atom_site_symmetry_multiplicity
 _atom_site_fract_x
 _atom_site_fract_y
 _atom_site_fract_z
 _atom_site_occupancy
  Nb  Nb0  1  0.144680  0.144680  0.144680  1
  Cr  Cr1  1  0.991302  0.991302  0.991302  1
  Cr  Cr2  1  0.499290  0.499290  0.499290  1
  Fe  Fe3  1  0.851014  0.851014  0.851014  1
  Fe  Fe4  1  0.645262  0.645262  0.645262  1
  Fe  Fe5  1  0.355736  0.355736  0.355736  1
  P  P6  1  0.549442  0.956164  0.252139  1
  P  P7  1  0.459959  0.043599  0.745946  1
  P  P8  1  0.043599  0.745946  0.459959  1
  P  P9  1  0.745946  0.459959  0.043599  1
  P  P10  1  0.252139  0.549442  0.956164  1
  P  P11  1  0.956164  0.252139  0.549442  1
  O  O12  1  0.689570  0.494960  0.886907  1
  O  O13  1  0.494960  0.886907  0.689570  1
  O  O14  1  0.086489  0.738407  0.940272  1
  O  O15  1  0.886907  0.689570  0.494960  1
  O  O16  1  0.184014  0.386140  0.009815  1
  O  O17  1  0.410626  0.554867  0.763501  1
  O  O18  1  0.940272  0.086489  0.738407  1
  O  O19  1  0.763501  0.410626  0.554867  1
  O  O20  1  0.609442  0.001249  0.816433  1
  O  O21  1  0.554867  0.763501  0.410626  1
  O  O22  1  0.261579  0.065764  0.911365  1
  O  O23  1  0.001249  0.816433  0.609442  1
  O  O24  1  0.009815  0.184014  0.386140  1
  O  O25  1  0.738407  0.940272  0.086489  1
  O  O26  1  0.439513  0.238273  0.587840  1
  O  O27  1  0.386140  0.009815  0.184014  1
  O  O28  1  0.238273  0.587840  0.439513  1
  O  O29  1  0.065764  0.911365  0.261579  1
  O  O30  1  0.587840  0.439513  0.238273  1
  O  O31  1  0.816433  0.609442  0.001249  1
  O  O32  1  0.112493  0.315299  0.500649  1
  O  O33  1  0.911365  0.261579  0.065764  1
  O  O34  1  0.500649  0.112493  0.315299  1
  O  O35  1  0.315299  0.500649  0.112493  1
