# generated using pymatgen
data_TmHO2
_symmetry_space_group_name_H-M   'P 1'
_cell_length_a   5.88720907
_cell_length_b   5.43437453
_cell_length_c   5.89341297
_cell_angle_alpha   90.00000000
_cell_angle_beta   108.49354278
_cell_angle_gamma   90.00000000
_symmetry_Int_Tables_number   1
_chemical_formula_structural   TmHO2
_chemical_formula_sum   'Tm4 H4 O8'
_cell_volume   178.81290438
_cell_formula_units_Z   4
loop_
 _symmetry_equiv_pos_site_id
 _symmetry_equiv_pos_as_xyz
  1  'x, y, z'
loop_
 _atom_site_type_symbol
 _atom_site_label
 _atom_site_symmetry_multiplicity
 _atom_site_fract_x
 _atom_site_fract_y
 _atom_site_fract_z
 _atom_site_occupancy
  Tm  Tm0  1  0.765613  0.484314  0.253617  1
  Tm  Tm1  1  0.765613  0.015686  0.753617  1
  Tm  Tm2  1  0.234387  0.984314  0.246383  1
  Tm  Tm3  1  0.234387  0.515686  0.746383  1
  H  H4  1  0.722031  0.971271  0.269308  1
  H  H5  1  0.277969  0.471271  0.230692  1
  H  H6  1  0.722031  0.528729  0.769308  1
  H  H7  1  0.277969  0.028729  0.730692  1
  O  O8  1  0.866749  0.136007  0.128271  1
  O  O9  1  0.866749  0.363993  0.628271  1
  O  O10  1  0.634481  0.865769  0.358714  1
  O  O11  1  0.365519  0.365769  0.141286  1
  O  O12  1  0.634481  0.634231  0.858714  1
  O  O13  1  0.365519  0.134231  0.641286  1
  O  O14  1  0.133251  0.636007  0.371729  1
  O  O15  1  0.133251  0.863993  0.871729  1
