# generated using pymatgen
data_Na5V12O32
_symmetry_space_group_name_H-M   'P 1'
_cell_length_a   8.31898439
_cell_length_b   8.31898439
_cell_length_c   12.37662328
_cell_angle_alpha   74.07162023
_cell_angle_beta   105.92837977
_cell_angle_gamma   127.97713684
_symmetry_Int_Tables_number   1
_chemical_formula_structural   Na5V12O32
_chemical_formula_sum   'Na5 V12 O32'
_cell_volume   642.91603699
_cell_formula_units_Z   1
loop_
 _symmetry_equiv_pos_site_id
 _symmetry_equiv_pos_as_xyz
  1  'x, y, z'
loop_
 _atom_site_type_symbol
 _atom_site_label
 _atom_site_symmetry_multiplicity
 _atom_site_fract_x
 _atom_site_fract_y
 _atom_site_fract_z
 _atom_site_occupancy
  Na  Na0  1  0.124884  0.875116  0.318662  1
  Na  Na1  1  0.625560  0.374440  0.316449  1
  Na  Na2  1  0.375805  0.127460  0.681089  1
  Na  Na3  1  0.872540  0.624195  0.681089  1
  Na  Na4  1  0.090527  0.909473  0.949028  1
  V  V5  1  0.343813  0.656187  0.193845  1
  V  V6  1  0.841759  0.158241  0.192160  1
  V  V7  1  0.553935  0.946603  0.537999  1
  V  V8  1  0.053397  0.446065  0.537999  1
  V  V9  1  0.282334  0.717666  0.919662  1
  V  V10  1  0.779888  0.220112  0.920039  1
  V  V11  1  0.719707  0.778173  0.081873  1
  V  V12  1  0.221827  0.280293  0.081873  1
  V  V13  1  0.945834  0.054166  0.460293  1
  V  V14  1  0.445773  0.554227  0.461029  1
  V  V15  1  0.654148  0.844783  0.805396  1
  V  V16  1  0.155217  0.345852  0.805396  1
  O  O17  1  0.622866  0.877494  0.173514  1
  O  O18  1  0.122506  0.377134  0.173514  1
  O  O19  1  0.248894  0.751106  0.046172  1
  O  O20  1  0.749648  0.250352  0.047910  1
  O  O21  1  0.843176  0.156824  0.536776  1
  O  O22  1  0.343456  0.656544  0.537500  1
  O  O23  1  0.772100  0.227900  0.271599  1
  O  O24  1  0.271325  0.728675  0.269643  1
  O  O25  1  0.036861  0.461960  0.672267  1
  O  O26  1  0.538040  0.963139  0.672267  1
  O  O27  1  0.946988  0.552928  0.446277  1
  O  O28  1  0.447072  0.053012  0.446277  1
  O  O29  1  0.566827  0.932737  0.927059  1
  O  O30  1  0.067263  0.433173  0.927059  1
  O  O31  1  0.320828  0.175691  0.183220  1
  O  O32  1  0.824309  0.679172  0.183220  1
  O  O33  1  0.177838  0.822162  0.819822  1
  O  O34  1  0.678760  0.321240  0.817645  1
  O  O35  1  0.432244  0.567756  0.074086  1
  O  O36  1  0.934598  0.065402  0.073091  1
  O  O37  1  0.052684  0.947317  0.551945  1
  O  O38  1  0.552646  0.447354  0.552342  1
  O  O39  1  0.961740  0.038260  0.326085  1
  O  O40  1  0.461641  0.538359  0.326164  1
  O  O41  1  0.733119  0.775079  0.731311  1
  O  O42  1  0.224921  0.266881  0.731311  1
  O  O43  1  0.656159  0.843300  0.462117  1
  O  O44  1  0.156700  0.343841  0.462117  1
  O  O45  1  0.251910  0.249973  0.954369  1
  O  O46  1  0.750027  0.748090  0.954369  1
  O  O47  1  0.376142  0.623858  0.826655  1
  O  O48  1  0.878267  0.121733  0.828249  1
