# generated using pymatgen
data_Cu2O3
_symmetry_space_group_name_H-M   'P 1'
_cell_length_a   8.08884454
_cell_length_b   8.08884454
_cell_length_c   8.08884454
_cell_angle_alpha   109.47122063
_cell_angle_beta   109.47122063
_cell_angle_gamma   109.47122063
_symmetry_Int_Tables_number   1
_chemical_formula_structural   Cu2O3
_chemical_formula_sum   'Cu16 O24'
_cell_volume   407.41552555
_cell_formula_units_Z   8
loop_
 _symmetry_equiv_pos_site_id
 _symmetry_equiv_pos_as_xyz
  1  'x, y, z'
loop_
 _atom_site_type_symbol
 _atom_site_label
 _atom_site_symmetry_multiplicity
 _atom_site_fract_x
 _atom_site_fract_y
 _atom_site_fract_z
 _atom_site_occupancy
  Cu  Cu0  1  0.500000  0.000000  1.000000  1
  Cu  Cu1  1  0.965959  0.250000  0.215959  1
  Cu  Cu2  1  0.784041  0.034041  0.750000  1
  Cu  Cu3  1  0.715959  0.465959  0.250000  1
  Cu  Cu4  1  0.750000  0.784041  0.034041  1
  Cu  Cu5  1  0.750000  0.284041  0.534041  1
  Cu  Cu6  1  0.465959  0.250000  0.715959  1
  Cu  Cu7  1  1.000000  0.500000  0.000000  1
  Cu  Cu8  1  0.000000  0.000000  0.500000  1
  Cu  Cu9  1  0.534041  0.750000  0.284041  1
  Cu  Cu10  1  0.500000  0.500000  0.500000  1
  Cu  Cu11  1  0.250000  0.715959  0.465959  1
  Cu  Cu12  1  0.250000  0.215959  0.965959  1
  Cu  Cu13  1  0.215959  0.965959  0.250000  1
  Cu  Cu14  1  0.284041  0.534041  0.750000  1
  Cu  Cu15  1  0.034041  0.750000  0.784041  1
  O  O16  1  0.785945  0.060677  0.518136  1
  O  O17  1  0.714055  0.232190  0.274732  1
  O  O18  1  0.267810  0.981864  0.042541  1
  O  O19  1  0.939323  0.481864  0.214055  1
  O  O20  1  0.767810  0.725268  0.285945  1
  O  O21  1  0.439323  0.225268  0.457459  1
  O  O22  1  0.042541  0.267810  0.981864  1
  O  O23  1  0.457459  0.439323  0.225268  1
  O  O24  1  0.981864  0.042541  0.267810  1
  O  O25  1  0.774732  0.542541  0.560677  1
  O  O26  1  0.518136  0.785945  0.060677  1
  O  O27  1  0.725268  0.285945  0.767810  1
  O  O28  1  0.274732  0.714055  0.232190  1
  O  O29  1  0.225268  0.457459  0.439323  1
  O  O30  1  0.481864  0.214055  0.939323  1
  O  O31  1  0.018136  0.957459  0.732190  1
  O  O32  1  0.957459  0.732190  0.018136  1
  O  O33  1  0.542541  0.560677  0.774732  1
  O  O34  1  0.560677  0.774732  0.542541  1
  O  O35  1  0.232190  0.274732  0.714055  1
  O  O36  1  0.060677  0.518136  0.785945  1
  O  O37  1  0.732190  0.018136  0.957459  1
  O  O38  1  0.214055  0.939323  0.481864  1
  O  O39  1  0.285945  0.767810  0.725268  1
