# generated using pymatgen
data_LiBiB2O5
_symmetry_space_group_name_H-M   'P 1'
_cell_length_a   7.65538061
_cell_length_b   7.65538061
_cell_length_c   10.57426067
_cell_angle_alpha   69.38086350
_cell_angle_beta   110.61913650
_cell_angle_gamma   89.80691362
_symmetry_Int_Tables_number   1
_chemical_formula_structural   LiBiB2O5
_chemical_formula_sum   'Li4 Bi4 B8 O20'
_cell_volume   537.08179585
_cell_formula_units_Z   4
loop_
 _symmetry_equiv_pos_site_id
 _symmetry_equiv_pos_as_xyz
  1  'x, y, z'
loop_
 _atom_site_type_symbol
 _atom_site_label
 _atom_site_symmetry_multiplicity
 _atom_site_fract_x
 _atom_site_fract_y
 _atom_site_fract_z
 _atom_site_occupancy
  Li  Li0  1  0.891156  0.891156  0.750000  1
  Li  Li1  1  0.356772  0.356772  0.750000  1
  Li  Li2  1  0.643228  0.643228  0.250000  1
  Li  Li3  1  0.108844  0.108844  0.250000  1
  Bi  Bi4  1  0.243707  0.888813  0.642983  1
  Bi  Bi5  1  0.111187  0.756293  0.142983  1
  Bi  Bi6  1  0.888813  0.243707  0.857017  1
  Bi  Bi7  1  0.756293  0.111187  0.357017  1
  B  B8  1  0.650685  0.854103  0.878775  1
  B  B9  1  0.393703  0.786370  0.986748  1
  B  B10  1  0.145897  0.349315  0.378775  1
  B  B11  1  0.213630  0.606297  0.486748  1
  B  B12  1  0.786370  0.393703  0.513252  1
  B  B13  1  0.854103  0.650685  0.621225  1
  B  B14  1  0.606297  0.213630  0.013252  1
  B  B15  1  0.349315  0.145897  0.121225  1
  O  O16  1  0.837203  0.882178  0.916245  1
  O  O17  1  0.544339  0.899698  0.734399  1
  O  O18  1  0.117822  0.162797  0.416245  1
  O  O19  1  0.233479  0.848722  0.862859  1
  O  O20  1  0.610406  0.278229  0.875071  1
  O  O21  1  0.100302  0.455661  0.234399  1
  O  O22  1  0.218796  0.418660  0.491674  1
  O  O23  1  0.418660  0.218796  0.008326  1
  O  O24  1  0.151278  0.766521  0.362859  1
  O  O25  1  0.721771  0.389594  0.375071  1
  O  O26  1  0.278229  0.610406  0.624929  1
  O  O27  1  0.848722  0.233479  0.637141  1
  O  O28  1  0.581340  0.781204  0.991674  1
  O  O29  1  0.781204  0.581340  0.508326  1
  O  O30  1  0.899698  0.544339  0.765601  1
  O  O31  1  0.389594  0.721771  0.124929  1
  O  O32  1  0.766521  0.151278  0.137141  1
  O  O33  1  0.882178  0.837203  0.583755  1
  O  O34  1  0.455661  0.100302  0.265601  1
  O  O35  1  0.162797  0.117822  0.083755  1
