# generated using pymatgen
data_Li6V5SbO12
_symmetry_space_group_name_H-M   'P 1'
_cell_length_a   5.29284014
_cell_length_b   5.29284014
_cell_length_c   10.44835584
_cell_angle_alpha   86.25530058
_cell_angle_beta   93.74469942
_cell_angle_gamma   61.90683994
_symmetry_Int_Tables_number   1
_chemical_formula_structural   Li6V5SbO12
_chemical_formula_sum   'Li6 V5 Sb1 O12'
_cell_volume   256.12646852
_cell_formula_units_Z   1
loop_
 _symmetry_equiv_pos_site_id
 _symmetry_equiv_pos_as_xyz
  1  'x, y, z'
loop_
 _atom_site_type_symbol
 _atom_site_label
 _atom_site_symmetry_multiplicity
 _atom_site_fract_x
 _atom_site_fract_y
 _atom_site_fract_z
 _atom_site_occupancy
  Li  Li0  1  0.884343  0.448789  0.216050  1
  Li  Li1  1  0.782840  0.217160  0.789700  1
  Li  Li2  1  0.448789  0.884343  0.783950  1
  Li  Li3  1  0.551211  0.115657  0.216050  1
  Li  Li4  1  0.217160  0.782840  0.210300  1
  Li  Li5  1  0.115657  0.551211  0.783950  1
  V  V6  1  0.829233  0.829233  0.000000  1
  V  V7  1  0.500000  0.500000  0.000000  1
  V  V8  1  0.170767  0.170767  0.000000  1
  V  V9  1  0.659092  0.659092  0.500000  1
  V  V10  1  0.340908  0.340908  0.500000  1
  Sb  Sb11  1  1.000000  0.000000  0.500000  1
  O  O12  1  0.978075  0.347338  0.397831  1
  O  O13  1  0.813699  0.532560  0.886749  1
  O  O14  1  0.532560  0.813699  0.113251  1
  O  O15  1  0.869377  0.130623  0.107437  1
  O  O16  1  0.711199  0.288801  0.606937  1
  O  O17  1  0.347338  0.978075  0.602169  1
  O  O18  1  0.652662  0.021925  0.397831  1
  O  O19  1  0.288801  0.711199  0.393063  1
  O  O20  1  0.130623  0.869377  0.892563  1
  O  O21  1  0.467440  0.186301  0.886749  1
  O  O22  1  0.186301  0.467440  0.113251  1
  O  O23  1  0.021925  0.652662  0.602169  1
