# generated using pymatgen
data_Li10V5Cr3O16
_symmetry_space_group_name_H-M   'P 1'
_cell_length_a   6.03617590
_cell_length_b   6.03617590
_cell_length_c   9.91802572
_cell_angle_alpha   89.44824210
_cell_angle_beta   90.55175790
_cell_angle_gamma   120.50791927
_symmetry_Int_Tables_number   1
_chemical_formula_structural   Li10V5Cr3O16
_chemical_formula_sum   'Li10 V5 Cr3 O16'
_cell_volume   311.32020939
_cell_formula_units_Z   1
loop_
 _symmetry_equiv_pos_site_id
 _symmetry_equiv_pos_as_xyz
  1  'x, y, z'
loop_
 _atom_site_type_symbol
 _atom_site_label
 _atom_site_symmetry_multiplicity
 _atom_site_fract_x
 _atom_site_fract_y
 _atom_site_fract_z
 _atom_site_occupancy
  Li  Li0  1  0.198551  0.801449  0.541978  1
  Li  Li1  1  0.006358  0.993642  0.472277  1
  Li  Li2  1  0.608061  0.806908  0.547022  1
  Li  Li3  1  0.333614  0.666386  0.760532  1
  Li  Li4  1  0.193092  0.391939  0.547022  1
  Li  Li5  1  0.807769  0.603667  0.042674  1
  Li  Li6  1  0.396333  0.192231  0.042674  1
  Li  Li7  1  0.671641  0.328359  0.261258  1
  Li  Li8  1  0.803429  0.196571  0.044521  1
  Li  Li9  1  0.000022  0.999978  0.972934  1
  V  V10  1  0.172470  0.333359  0.271258  1
  V  V11  1  0.335345  0.664655  0.013118  1
  V  V12  1  0.666641  0.827530  0.271258  1
  V  V13  1  0.670578  0.329422  0.514129  1
  V  V14  1  0.831298  0.168702  0.770799  1
  Cr  Cr15  1  0.170997  0.829003  0.272535  1
  Cr  Cr16  1  0.830880  0.663793  0.772552  1
  Cr  Cr17  1  0.336207  0.169120  0.772552  1
  O  O18  1  0.158849  0.841151  0.890934  1
  O  O19  1  0.493766  0.983740  0.154644  1
  O  O20  1  0.678248  0.838962  0.886419  1
  O  O21  1  0.005411  0.994589  0.159095  1
  O  O22  1  0.333502  0.666498  0.390943  1
  O  O23  1  0.016260  0.506234  0.154644  1
  O  O24  1  0.496069  0.503931  0.154841  1
  O  O25  1  0.845373  0.674259  0.388565  1
  O  O26  1  0.161038  0.321752  0.886419  1
  O  O27  1  0.509525  0.490475  0.654054  1
  O  O28  1  0.325741  0.154627  0.388565  1
  O  O29  1  0.987042  0.496384  0.657079  1
  O  O30  1  0.663310  0.336690  0.889085  1
  O  O31  1  0.503616  0.012958  0.657079  1
  O  O32  1  0.845876  0.154124  0.390988  1
  O  O33  1  0.002373  0.997627  0.659564  1
