# generated using pymatgen
data_Li2Mn3F8
_symmetry_space_group_name_H-M   'P 1'
_cell_length_a   9.39371421
_cell_length_b   9.39371421
_cell_length_c   9.39371421
_cell_angle_alpha   107.38978134
_cell_angle_beta   107.38978134
_cell_angle_gamma   113.71946319
_symmetry_Int_Tables_number   1
_chemical_formula_structural   Li2Mn3F8
_chemical_formula_sum   'Li8 Mn12 F32'
_cell_volume   635.45061143
_cell_formula_units_Z   4
loop_
 _symmetry_equiv_pos_site_id
 _symmetry_equiv_pos_as_xyz
  1  'x, y, z'
loop_
 _atom_site_type_symbol
 _atom_site_label
 _atom_site_symmetry_multiplicity
 _atom_site_fract_x
 _atom_site_fract_y
 _atom_site_fract_z
 _atom_site_occupancy
  Li  Li0  1  0.339075  0.439531  0.287465  1
  Li  Li1  1  0.097935  0.698390  0.787465  1
  Li  Li2  1  0.948390  0.660925  0.100455  1
  Li  Li3  1  0.689531  0.902065  0.600455  1
  Li  Li4  1  0.560469  0.847935  0.899545  1
  Li  Li5  1  0.301610  0.089075  0.399545  1
  Li  Li6  1  0.910925  0.310469  0.212535  1
  Li  Li7  1  0.152065  0.051610  0.712535  1
  Mn  Mn8  1  0.782439  0.611199  0.436854  1
  Mn  Mn9  1  0.250000  0.750000  0.500000  1
  Mn  Mn10  1  0.750000  0.250000  0.500000  1
  Mn  Mn11  1  0.654415  0.217561  0.828761  1
  Mn  Mn12  1  0.861199  0.924346  0.328761  1
  Mn  Mn13  1  0.174346  0.345585  0.563146  1
  Mn  Mn14  1  0.075654  0.404415  0.936854  1
  Mn  Mn15  1  0.595585  0.532439  0.671239  1
  Mn  Mn16  1  0.388801  0.825654  0.171239  1
  Mn  Mn17  1  0.000000  0.000000  0.000000  1
  Mn  Mn18  1  0.500000  0.500000  0.000000  1
  Mn  Mn19  1  0.467561  0.138801  0.063146  1
  F  F20  1  0.812820  0.662578  0.241695  1
  F  F21  1  0.243701  0.835967  0.326834  1
  F  F22  1  0.740867  0.833133  0.826834  1
  F  F23  1  0.761084  0.360317  0.330161  1
  F  F24  1  0.821124  0.562820  0.650242  1
  F  F25  1  0.083133  0.756299  0.592266  1
  F  F26  1  0.164033  0.490867  0.407734  1
  F  F27  1  0.680924  0.511084  0.900767  1
  F  F28  1  0.639683  0.969843  0.400767  1
  F  F29  1  0.912578  0.170882  0.349758  1
  F  F30  1  0.030157  0.430924  0.669839  1
  F  F31  1  0.101835  0.659046  0.983363  1
  F  F32  1  0.574317  0.631528  0.483363  1
  F  F33  1  0.829118  0.178876  0.741695  1
  F  F34  1  0.340954  0.324317  0.442789  1
  F  F35  1  0.368472  0.851835  0.942789  1
  F  F36  1  0.881528  0.898165  0.557211  1
  F  F37  1  0.909046  0.425683  0.057211  1
  F  F38  1  0.420882  0.571124  0.758305  1
  F  F39  1  0.148165  0.090954  0.516637  1
  F  F40  1  0.675683  0.118472  0.016637  1
  F  F41  1  0.219843  0.319076  0.830161  1
  F  F42  1  0.337422  0.579118  0.150242  1
  F  F43  1  0.610317  0.780157  0.099233  1
  F  F44  1  0.569076  0.238916  0.599233  1
  F  F45  1  0.085967  0.259133  0.092266  1
  F  F46  1  0.166867  0.993701  0.907734  1
  F  F47  1  0.428876  0.187180  0.849758  1
  F  F48  1  0.488916  0.389683  0.169839  1
  F  F49  1  0.006299  0.914033  0.173166  1
  F  F50  1  0.509133  0.916867  0.673166  1
  F  F51  1  0.437180  0.087422  0.258305  1
