# generated using pymatgen
data_V(Bi5O8)5
_symmetry_space_group_name_H-M   'P 1'
_cell_length_a   9.01914597
_cell_length_b   9.01914597
_cell_length_c   14.73432933
_cell_angle_alpha   89.97315258
_cell_angle_beta   90.02684742
_cell_angle_gamma   109.52700928
_symmetry_Int_Tables_number   1
_chemical_formula_structural   V(Bi5O8)5
_chemical_formula_sum   'V1 Bi25 O40'
_cell_volume   1129.62717800
_cell_formula_units_Z   1
loop_
 _symmetry_equiv_pos_site_id
 _symmetry_equiv_pos_as_xyz
  1  'x, y, z'
loop_
 _atom_site_type_symbol
 _atom_site_label
 _atom_site_symmetry_multiplicity
 _atom_site_fract_x
 _atom_site_fract_y
 _atom_site_fract_z
 _atom_site_occupancy
  V  V0  1  0.000980  0.000980  0.000000  1
  Bi  Bi1  1  0.909262  0.054988  0.748687  1
  Bi  Bi2  1  0.773008  0.276527  0.927064  1
  Bi  Bi3  1  0.356441  0.009056  0.847812  1
  Bi  Bi4  1  0.976254  0.674222  0.828262  1
  Bi  Bi5  1  0.555648  0.416897  0.747735  1
  Bi  Bi6  1  0.755082  0.261450  0.568677  1
  Bi  Bi7  1  0.604230  0.757615  0.901341  1
  Bi  Bi8  1  0.218779  0.424904  0.922343  1
  Bi  Bi9  1  0.264223  0.093981  0.595897  1
  Bi  Bi10  1  0.910221  0.726489  0.583928  1
  Bi  Bi11  1  0.165992  0.471485  0.664941  1
  Bi  Bi12  1  0.837176  0.511085  0.347787  1
  Bi  Bi13  1  0.496985  0.496985  0.500000  1
  Bi  Bi14  1  0.511085  0.837176  0.652213  1
  Bi  Bi15  1  0.471485  0.165992  0.335059  1
  Bi  Bi16  1  0.093981  0.264223  0.404103  1
  Bi  Bi17  1  0.726489  0.910221  0.416072  1
  Bi  Bi18  1  0.424904  0.218779  0.077657  1
  Bi  Bi19  1  0.757615  0.604230  0.098659  1
  Bi  Bi20  1  0.261450  0.755082  0.431323  1
  Bi  Bi21  1  0.416897  0.555648  0.252265  1
  Bi  Bi22  1  0.674222  0.976254  0.171738  1
  Bi  Bi23  1  0.009056  0.356441  0.152188  1
  Bi  Bi24  1  0.054988  0.909262  0.251313  1
  Bi  Bi25  1  0.276527  0.773008  0.072936  1
  O  O26  1  0.806558  0.000996  0.999840  1
  O  O27  1  0.402657  0.998473  0.999206  1
  O  O28  1  0.765325  0.504578  0.876551  1
  O  O29  1  0.497358  0.245366  0.869364  1
  O  O30  1  0.993290  0.258503  0.628112  1
  O  O31  1  0.098524  0.098868  0.902922  1
  O  O32  1  0.430113  0.050554  0.683507  1
  O  O33  1  0.939828  0.578732  0.688688  1
  O  O34  1  0.998473  0.402657  0.000794  1
  O  O35  1  0.804204  0.803820  0.804742  1
  O  O36  1  0.948324  0.061055  0.310599  1
  O  O37  1  0.305021  0.682190  0.943865  1
  O  O38  1  0.451707  0.562687  0.817201  1
  O  O39  1  0.809709  0.178340  0.443973  1
  O  O40  1  0.862226  0.501415  0.500242  1
  O  O41  1  0.314726  0.314598  0.686666  1
  O  O42  1  0.072001  0.438487  0.813273  1
  O  O43  1  0.559320  0.930945  0.819510  1
  O  O44  1  0.000996  0.806558  0.000160  1
  O  O45  1  0.623527  0.624165  0.625276  1
  O  O46  1  0.498285  0.243817  0.499228  1
  O  O47  1  0.742818  0.993914  0.633092  1
  O  O48  1  0.993914  0.742818  0.366908  1
  O  O49  1  0.624165  0.623527  0.374724  1
  O  O50  1  0.243817  0.498285  0.500772  1
  O  O51  1  0.930945  0.559320  0.180490  1
  O  O52  1  0.438487  0.072001  0.186727  1
  O  O53  1  0.501415  0.862226  0.499758  1
  O  O54  1  0.314598  0.314726  0.313334  1
  O  O55  1  0.178340  0.809709  0.556027  1
  O  O56  1  0.682190  0.305021  0.056135  1
  O  O57  1  0.061055  0.948324  0.689401  1
  O  O58  1  0.562687  0.451707  0.182799  1
  O  O59  1  0.803820  0.804204  0.195258  1
  O  O60  1  0.578732  0.939828  0.311312  1
  O  O61  1  0.050554  0.430113  0.316493  1
  O  O62  1  0.098868  0.098524  0.097078  1
  O  O63  1  0.258503  0.993290  0.371888  1
  O  O64  1  0.245366  0.497358  0.130636  1
  O  O65  1  0.504578  0.765325  0.123449  1
