# generated using pymatgen
data_Er(ReO4)3
_symmetry_space_group_name_H-M   'P 1'
_cell_length_a   10.17961221
_cell_length_b   10.17961221
_cell_length_c   10.17961221
_cell_angle_alpha   52.15566035
_cell_angle_beta   52.15566035
_cell_angle_gamma   52.15566035
_symmetry_Int_Tables_number   1
_chemical_formula_structural   Er(ReO4)3
_chemical_formula_sum   'Er2 Re6 O24'
_cell_volume   608.39588508
_cell_formula_units_Z   2
loop_
 _symmetry_equiv_pos_site_id
 _symmetry_equiv_pos_as_xyz
  1  'x, y, z'
loop_
 _atom_site_type_symbol
 _atom_site_label
 _atom_site_symmetry_multiplicity
 _atom_site_fract_x
 _atom_site_fract_y
 _atom_site_fract_z
 _atom_site_occupancy
  Er  Er0  1  0.060189  0.060189  0.060189  1
  Er  Er1  1  0.560189  0.560189  0.560189  1
  Re  Re2  1  0.459213  0.196140  0.840465  1
  Re  Re3  1  0.840465  0.459213  0.196140  1
  Re  Re4  1  0.196140  0.840465  0.459213  1
  Re  Re5  1  0.959213  0.340465  0.696140  1
  Re  Re6  1  0.340465  0.696140  0.959213  1
  Re  Re7  1  0.696140  0.959213  0.340465  1
  O  O8  1  0.487235  0.085637  0.454203  1
  O  O9  1  0.085637  0.454203  0.487235  1
  O  O10  1  0.454203  0.487235  0.085637  1
  O  O11  1  0.913146  0.394506  0.857535  1
  O  O12  1  0.255601  0.192979  0.899981  1
  O  O13  1  0.585637  0.987235  0.954203  1
  O  O14  1  0.899981  0.255601  0.192979  1
  O  O15  1  0.587770  0.270931  0.607027  1
  O  O16  1  0.394506  0.857535  0.913146  1
  O  O17  1  0.857535  0.913146  0.394506  1
  O  O18  1  0.607027  0.587770  0.270931  1
  O  O19  1  0.270931  0.607027  0.587770  1
  O  O20  1  0.413146  0.357535  0.894506  1
  O  O21  1  0.954203  0.585637  0.987235  1
  O  O22  1  0.894506  0.413146  0.357535  1
  O  O23  1  0.192979  0.899981  0.255601  1
  O  O24  1  0.770931  0.087770  0.107027  1
  O  O25  1  0.087770  0.107027  0.770931  1
  O  O26  1  0.987235  0.954203  0.585637  1
  O  O27  1  0.755601  0.399981  0.692979  1
  O  O28  1  0.357535  0.894506  0.413146  1
  O  O29  1  0.399981  0.692979  0.755601  1
  O  O30  1  0.692979  0.755601  0.399981  1
  O  O31  1  0.107027  0.770931  0.087770  1
