# generated using pymatgen
data_SbOF
_symmetry_space_group_name_H-M   'P 1'
_cell_length_a   3.45908251
_cell_length_b   6.76915945
_cell_length_c   8.26716063
_cell_angle_alpha   90.00000000
_cell_angle_beta   90.00000000
_cell_angle_gamma   90.00000000
_symmetry_Int_Tables_number   1
_chemical_formula_structural   SbOF
_chemical_formula_sum   'Sb4 O4 F4'
_cell_volume   193.57623629
_cell_formula_units_Z   4
loop_
 _symmetry_equiv_pos_site_id
 _symmetry_equiv_pos_as_xyz
  1  'x, y, z'
loop_
 _atom_site_type_symbol
 _atom_site_label
 _atom_site_symmetry_multiplicity
 _atom_site_fract_x
 _atom_site_fract_y
 _atom_site_fract_z
 _atom_site_occupancy
  Sb  Sb0  1  0.750000  0.192119  0.074849  1
  Sb  Sb1  1  0.250000  0.307881  0.574849  1
  Sb  Sb2  1  0.750000  0.692119  0.425151  1
  Sb  Sb3  1  0.250000  0.807881  0.925151  1
  O  O4  1  0.750000  0.003231  0.880043  1
  O  O5  1  0.250000  0.496769  0.380043  1
  O  O6  1  0.750000  0.503231  0.619957  1
  O  O7  1  0.250000  0.996769  0.119957  1
  F  F8  1  0.750000  0.170245  0.426429  1
  F  F9  1  0.250000  0.329755  0.926429  1
  F  F10  1  0.750000  0.670245  0.073571  1
  F  F11  1  0.250000  0.829755  0.573571  1
