# generated using pymatgen
data_MnV3Sb2(PO4)6
_symmetry_space_group_name_H-M   'P 1'
_cell_length_a   8.88241018
_cell_length_b   8.88241018
_cell_length_c   8.88241018
_cell_angle_alpha   58.91805698
_cell_angle_beta   58.91805698
_cell_angle_gamma   58.91805698
_symmetry_Int_Tables_number   1
_chemical_formula_structural   MnV3Sb2(PO4)6
_chemical_formula_sum   'Mn1 V3 Sb2 P6 O24'
_cell_volume   483.30304203
_cell_formula_units_Z   1
loop_
 _symmetry_equiv_pos_site_id
 _symmetry_equiv_pos_as_xyz
  1  'x, y, z'
loop_
 _atom_site_type_symbol
 _atom_site_label
 _atom_site_symmetry_multiplicity
 _atom_site_fract_x
 _atom_site_fract_y
 _atom_site_fract_z
 _atom_site_occupancy
  Mn  Mn0  1  0.149975  0.149975  0.149975  1
  V  V1  1  0.648188  0.648188  0.648188  1
  V  V2  1  0.854485  0.854485  0.854485  1
  V  V3  1  0.352719  0.352719  0.352719  1
  Sb  Sb4  1  0.004613  0.004613  0.004613  1
  Sb  Sb5  1  0.502613  0.502613  0.502613  1
  P  P6  1  0.249690  0.544094  0.956949  1
  P  P7  1  0.956949  0.249690  0.544094  1
  P  P8  1  0.544094  0.956949  0.249690  1
  P  P9  1  0.462593  0.038945  0.746015  1
  P  P10  1  0.038945  0.746015  0.462593  1
  P  P11  1  0.746015  0.462593  0.038945  1
  O  O12  1  0.115907  0.301730  0.507848  1
  O  O13  1  0.507848  0.115907  0.301730  1
  O  O14  1  0.301730  0.507848  0.115907  1
  O  O15  1  0.086551  0.737187  0.934567  1
  O  O16  1  0.202729  0.393971  0.975670  1
  O  O17  1  0.420136  0.570030  0.764076  1
  O  O18  1  0.934567  0.086551  0.737187  1
  O  O19  1  0.764076  0.420136  0.570030  1
  O  O20  1  0.616458  0.005683  0.800328  1
  O  O21  1  0.570030  0.764076  0.420136  1
  O  O22  1  0.269978  0.053067  0.908213  1
  O  O23  1  0.005683  0.800328  0.616458  1
  O  O24  1  0.975670  0.202729  0.393971  1
  O  O25  1  0.737187  0.934567  0.086551  1
  O  O26  1  0.440904  0.231259  0.580391  1
  O  O27  1  0.393971  0.975670  0.202729  1
  O  O28  1  0.231259  0.580391  0.440904  1
  O  O29  1  0.053067  0.908213  0.269978  1
  O  O30  1  0.580391  0.440904  0.231259  1
  O  O31  1  0.800328  0.616458  0.005683  1
  O  O32  1  0.908213  0.269978  0.053067  1
  O  O33  1  0.685605  0.503655  0.883157  1
  O  O34  1  0.503655  0.883157  0.685605  1
  O  O35  1  0.883157  0.685605  0.503655  1
