# generated using pymatgen
data_LiFeCoO4
_symmetry_space_group_name_H-M   'P 1'
_cell_length_a   5.85516259
_cell_length_b   5.85516259
_cell_length_c   8.12284216
_cell_angle_alpha   90.00000000
_cell_angle_beta   90.00000000
_cell_angle_gamma   90.00000000
_symmetry_Int_Tables_number   1
_chemical_formula_structural   LiFeCoO4
_chemical_formula_sum   'Li4 Fe4 Co4 O16'
_cell_volume   278.47482069
_cell_formula_units_Z   4
loop_
 _symmetry_equiv_pos_site_id
 _symmetry_equiv_pos_as_xyz
  1  'x, y, z'
loop_
 _atom_site_type_symbol
 _atom_site_label
 _atom_site_symmetry_multiplicity
 _atom_site_fract_x
 _atom_site_fract_y
 _atom_site_fract_z
 _atom_site_occupancy
  Li  Li0  1  0.000000  0.236738  0.000000  1
  Li  Li1  1  0.000000  0.763262  0.500000  1
  Li  Li2  1  0.236738  0.000000  0.250000  1
  Li  Li3  1  0.763262  0.000000  0.750000  1
  Fe  Fe4  1  0.253891  0.253891  0.625000  1
  Fe  Fe5  1  0.253891  0.746109  0.875000  1
  Fe  Fe6  1  0.746109  0.253891  0.375000  1
  Fe  Fe7  1  0.746109  0.746109  0.125000  1
  Co  Co8  1  0.240622  0.500000  0.250000  1
  Co  Co9  1  0.500000  0.240622  0.000000  1
  Co  Co10  1  0.500000  0.759378  0.500000  1
  Co  Co11  1  0.759378  0.500000  0.750000  1
  O  O12  1  0.020192  0.270445  0.257151  1
  O  O13  1  0.020192  0.729555  0.242849  1
  O  O14  1  0.270445  0.020192  0.992849  1
  O  O15  1  0.270445  0.979808  0.507151  1
  O  O16  1  0.265877  0.481463  0.019212  1
  O  O17  1  0.265877  0.518537  0.480788  1
  O  O18  1  0.481463  0.265877  0.230788  1
  O  O19  1  0.481463  0.734123  0.269212  1
  O  O20  1  0.518537  0.265877  0.769212  1
  O  O21  1  0.518537  0.734123  0.730788  1
  O  O22  1  0.734123  0.518537  0.519212  1
  O  O23  1  0.734123  0.481463  0.980788  1
  O  O24  1  0.729555  0.020192  0.007151  1
  O  O25  1  0.729555  0.979808  0.492849  1
  O  O26  1  0.979808  0.270445  0.742849  1
  O  O27  1  0.979808  0.729555  0.757151  1
