# generated using pymatgen
data_Co3OF5
_symmetry_space_group_name_H-M   'P 1'
_cell_length_a   3.15041228
_cell_length_b   4.69768347
_cell_length_c   14.15076250
_cell_angle_alpha   90.00000000
_cell_angle_beta   90.00000000
_cell_angle_gamma   90.00000000
_symmetry_Int_Tables_number   1
_chemical_formula_structural   Co3OF5
_chemical_formula_sum   'Co6 O2 F10'
_cell_volume   209.42618637
_cell_formula_units_Z   2
loop_
 _symmetry_equiv_pos_site_id
 _symmetry_equiv_pos_as_xyz
  1  'x, y, z'
loop_
 _atom_site_type_symbol
 _atom_site_label
 _atom_site_symmetry_multiplicity
 _atom_site_fract_x
 _atom_site_fract_y
 _atom_site_fract_z
 _atom_site_occupancy
  Co  Co0  1  0.500000  0.770522  0.005762  1
  Co  Co1  1  0.500000  0.725858  0.333338  1
  Co  Co2  1  0.500000  0.778764  0.660591  1
  Co  Co3  1  0.000000  0.221236  0.160591  1
  Co  Co4  1  0.000000  0.229478  0.505762  1
  Co  Co5  1  0.000000  0.274142  0.833338  1
  O  O6  1  0.000000  0.952534  0.598562  1
  O  O7  1  0.500000  0.047466  0.098562  1
  F  F8  1  0.000000  0.930655  0.270625  1
  F  F9  1  0.000000  0.953833  0.933641  1
  F  F10  1  0.500000  0.069345  0.770625  1
  F  F11  1  0.500000  0.046167  0.433641  1
  F  F12  1  0.500000  0.442269  0.563148  1
  F  F13  1  0.500000  0.424942  0.228738  1
  F  F14  1  0.500000  0.468355  0.903344  1
  F  F15  1  0.000000  0.557731  0.063148  1
  F  F16  1  0.000000  0.531645  0.403344  1
  F  F17  1  0.000000  0.575058  0.728738  1
