# generated using pymatgen
data_LiTiV3O8
_symmetry_space_group_name_H-M   'P 1'
_cell_length_a   5.91641771
_cell_length_b   5.93751695
_cell_length_c   6.10442212
_cell_angle_alpha   91.21273460
_cell_angle_beta   118.92182547
_cell_angle_gamma   118.54645217
_symmetry_Int_Tables_number   1
_chemical_formula_structural   LiTiV3O8
_chemical_formula_sum   'Li1 Ti1 V3 O8'
_cell_volume   155.75053390
_cell_formula_units_Z   1
loop_
 _symmetry_equiv_pos_site_id
 _symmetry_equiv_pos_as_xyz
  1  'x, y, z'
loop_
 _atom_site_type_symbol
 _atom_site_label
 _atom_site_symmetry_multiplicity
 _atom_site_fract_x
 _atom_site_fract_y
 _atom_site_fract_z
 _atom_site_occupancy
  Li  Li0  1  0.500000  0.500000  0.500000  1
  Ti  Ti1  1  0.000000  0.000000  0.000000  1
  V  V2  1  0.500000  0.000000  0.000000  1
  V  V3  1  0.000000  0.500000  0.000000  1
  V  V4  1  0.500000  0.500000  0.000000  1
  O  O5  1  0.973041  0.236450  0.199226  1
  O  O6  1  0.463429  0.713022  0.201147  1
  O  O7  1  0.457359  0.236632  0.200281  1
  O  O8  1  0.968872  0.727971  0.194768  1
  O  O9  1  0.031128  0.272029  0.805232  1
  O  O10  1  0.542641  0.763368  0.799719  1
  O  O11  1  0.536571  0.286978  0.798853  1
  O  O12  1  0.026959  0.763550  0.800774  1
