# generated using pymatgen
data_VWO4
_symmetry_space_group_name_H-M   'P 1'
_cell_length_a   4.57206124
_cell_length_b   4.92036043
_cell_length_c   12.00546615
_cell_angle_alpha   90.00000000
_cell_angle_beta   90.00000000
_cell_angle_gamma   90.00000000
_symmetry_Int_Tables_number   1
_chemical_formula_structural   VWO4
_chemical_formula_sum   'V4 W4 O16'
_cell_volume   270.07723772
_cell_formula_units_Z   4
loop_
 _symmetry_equiv_pos_site_id
 _symmetry_equiv_pos_as_xyz
  1  'x, y, z'
loop_
 _atom_site_type_symbol
 _atom_site_label
 _atom_site_symmetry_multiplicity
 _atom_site_fract_x
 _atom_site_fract_y
 _atom_site_fract_z
 _atom_site_occupancy
  V  V0  1  0.500000  0.250000  0.064303  1
  V  V1  1  0.000000  0.250000  0.564303  1
  V  V2  1  0.000000  0.750000  0.435697  1
  V  V3  1  0.500000  0.750000  0.935697  1
  W  W4  1  0.500000  0.250000  0.324608  1
  W  W5  1  0.000000  0.250000  0.824608  1
  W  W6  1  0.000000  0.750000  0.175392  1
  W  W7  1  0.500000  0.750000  0.675392  1
  O  O8  1  0.271189  0.072151  0.193056  1
  O  O9  1  0.254914  0.588930  0.061092  1
  O  O10  1  0.771189  0.427849  0.693056  1
  O  O11  1  0.728811  0.427849  0.193056  1
  O  O12  1  0.754914  0.911070  0.561092  1
  O  O13  1  0.745086  0.911070  0.061092  1
  O  O14  1  0.754914  0.411070  0.438908  1
  O  O15  1  0.771189  0.927849  0.306944  1
  O  O16  1  0.228811  0.072151  0.693056  1
  O  O17  1  0.245086  0.588930  0.561092  1
  O  O18  1  0.254914  0.088930  0.938908  1
  O  O19  1  0.245086  0.088930  0.438908  1
  O  O20  1  0.271189  0.572151  0.806944  1
  O  O21  1  0.228811  0.572151  0.306944  1
  O  O22  1  0.745086  0.411070  0.938908  1
  O  O23  1  0.728811  0.927849  0.806944  1
