# generated using pymatgen
data_Ba(PdO2)2
_symmetry_space_group_name_H-M   'P 1'
_cell_length_a   6.90436605
_cell_length_b   6.90436605
_cell_length_c   6.90436605
_cell_angle_alpha   124.99144999
_cell_angle_beta   124.99144999
_cell_angle_gamma   81.55219494
_symmetry_Int_Tables_number   1
_chemical_formula_structural   Ba(PdO2)2
_chemical_formula_sum   'Ba2 Pd4 O8'
_cell_volume   212.62604750
_cell_formula_units_Z   2
loop_
 _symmetry_equiv_pos_site_id
 _symmetry_equiv_pos_as_xyz
  1  'x, y, z'
loop_
 _atom_site_type_symbol
 _atom_site_label
 _atom_site_symmetry_multiplicity
 _atom_site_fract_x
 _atom_site_fract_y
 _atom_site_fract_z
 _atom_site_occupancy
  Ba  Ba0  1  0.000000  1.000000  0.000000  1
  Ba  Ba1  1  0.750000  0.250000  0.500000  1
  Pd  Pd2  1  0.375000  0.625000  0.250000  1
  Pd  Pd3  1  0.875000  0.625000  0.250000  1
  Pd  Pd4  1  0.375000  0.625000  0.750000  1
  Pd  Pd5  1  0.375000  0.125000  0.750000  1
  O  O6  1  0.193527  0.308342  0.587986  1
  O  O7  1  0.058342  0.970356  0.614815  1
  O  O8  1  0.355542  0.443527  0.385185  1
  O  O9  1  0.029644  0.644458  0.087986  1
  O  O10  1  0.720356  0.605542  0.412014  1
  O  O11  1  0.394458  0.806473  0.114815  1
  O  O12  1  0.691658  0.279644  0.885185  1
  O  O13  1  0.556473  0.941658  0.912014  1
