# generated using pymatgen
data_Fe4O3F5
_symmetry_space_group_name_H-M   'P 1'
_cell_length_a   6.19833244
_cell_length_b   4.88672198
_cell_length_c   10.10374169
_cell_angle_alpha   90.00000000
_cell_angle_beta   107.69063641
_cell_angle_gamma   90.00000000
_symmetry_Int_Tables_number   1
_chemical_formula_structural   Fe4O3F5
_chemical_formula_sum   'Fe8 O6 F10'
_cell_volume   291.56539768
_cell_formula_units_Z   2
loop_
 _symmetry_equiv_pos_site_id
 _symmetry_equiv_pos_as_xyz
  1  'x, y, z'
loop_
 _atom_site_type_symbol
 _atom_site_label
 _atom_site_symmetry_multiplicity
 _atom_site_fract_x
 _atom_site_fract_y
 _atom_site_fract_z
 _atom_site_occupancy
  Fe  Fe0  1  0.803493  0.435750  0.361362  1
  Fe  Fe1  1  0.561077  0.508371  0.869858  1
  Fe  Fe2  1  0.072634  0.562399  0.902101  1
  Fe  Fe3  1  0.328090  0.503213  0.396441  1
  Fe  Fe4  1  0.927366  0.062399  0.097899  1
  Fe  Fe5  1  0.671910  0.003213  0.603559  1
  Fe  Fe6  1  0.438923  0.008371  0.130142  1
  Fe  Fe7  1  0.196507  0.935750  0.638638  1
  O  O8  1  0.389395  0.799674  0.529433  1
  O  O9  1  0.133017  0.819898  0.047169  1
  O  O10  1  0.249751  0.687105  0.782226  1
  O  O11  1  0.866983  0.319898  0.952831  1
  O  O12  1  0.610605  0.299674  0.470567  1
  O  O13  1  0.750249  0.187105  0.217774  1
  F  F14  1  0.884226  0.795428  0.517245  1
  F  F15  1  0.650752  0.814886  0.021728  1
  F  F16  1  0.020828  0.668385  0.297927  1
  F  F17  1  0.519325  0.681384  0.284538  1
  F  F18  1  0.773688  0.723505  0.762342  1
  F  F19  1  0.349248  0.314886  0.978272  1
  F  F20  1  0.115774  0.295428  0.482755  1
  F  F21  1  0.480675  0.181384  0.715462  1
  F  F22  1  0.226312  0.223505  0.237658  1
  F  F23  1  0.979172  0.168385  0.702073  1
