# generated using pymatgen
data_MnP2
_symmetry_space_group_name_H-M   'P 1'
_cell_length_a   2.72694343
_cell_length_b   5.08494502
_cell_length_c   5.77978038
_cell_angle_alpha   90.00000000
_cell_angle_beta   90.00000000
_cell_angle_gamma   90.00000000
_symmetry_Int_Tables_number   1
_chemical_formula_structural   MnP2
_chemical_formula_sum   'Mn2 P4'
_cell_volume   80.14450052
_cell_formula_units_Z   2
loop_
 _symmetry_equiv_pos_site_id
 _symmetry_equiv_pos_as_xyz
  1  'x, y, z'
loop_
 _atom_site_type_symbol
 _atom_site_label
 _atom_site_symmetry_multiplicity
 _atom_site_fract_x
 _atom_site_fract_y
 _atom_site_fract_z
 _atom_site_occupancy
  Mn  Mn0  1  0.000000  0.000000  0.000000  1
  Mn  Mn1  1  0.500000  0.500000  0.500000  1
  P  P2  1  0.000000  0.171954  0.373244  1
  P  P3  1  0.500000  0.328046  0.873244  1
  P  P4  1  0.500000  0.671954  0.126756  1
  P  P5  1  0.000000  0.828046  0.626756  1
