# generated using pymatgen
data_YH5S3O13
_symmetry_space_group_name_H-M   'P 1'
_cell_length_a   6.86874799
_cell_length_b   8.11926023
_cell_length_c   9.74256305
_cell_angle_alpha   79.84785220
_cell_angle_beta   77.58480048
_cell_angle_gamma   77.57969279
_symmetry_Int_Tables_number   1
_chemical_formula_structural   YH5S3O13
_chemical_formula_sum   'Y2 H10 S6 O26'
_cell_volume   513.37204190
_cell_formula_units_Z   2
loop_
 _symmetry_equiv_pos_site_id
 _symmetry_equiv_pos_as_xyz
  1  'x, y, z'
loop_
 _atom_site_type_symbol
 _atom_site_label
 _atom_site_symmetry_multiplicity
 _atom_site_fract_x
 _atom_site_fract_y
 _atom_site_fract_z
 _atom_site_occupancy
  Y  Y0  1  0.134053  0.676563  0.693445  1
  Y  Y1  1  0.865947  0.323437  0.306555  1
  H  H2  1  0.071558  0.775802  0.181130  1
  H  H3  1  0.422415  0.134502  0.617756  1
  H  H4  1  0.592948  0.210696  0.136190  1
  H  H5  1  0.199330  0.920474  0.864409  1
  H  H6  1  0.508399  0.862882  0.104319  1
  H  H7  1  0.491601  0.137118  0.895681  1
  H  H8  1  0.800670  0.079526  0.135591  1
  H  H9  1  0.407052  0.789304  0.863810  1
  H  H10  1  0.577585  0.865498  0.382244  1
  H  H11  1  0.928442  0.224198  0.818870  1
  S  S12  1  0.199461  0.889421  0.318793  1
  S  S13  1  0.306469  0.335058  0.459368  1
  S  S14  1  0.205157  0.291651  0.954881  1
  S  S15  1  0.794843  0.708349  0.045119  1
  S  S16  1  0.693531  0.664942  0.540632  1
  S  S17  1  0.800539  0.110579  0.681207  1
  O  O18  1  0.053973  0.038232  0.273566  1
  O  O19  1  0.104475  0.351752  0.088583  1
  O  O20  1  0.184989  0.323026  0.356883  1
  O  O21  1  0.105570  0.170961  0.910354  1
  O  O22  1  0.176125  0.739468  0.245771  1
  O  O23  1  0.202492  0.458712  0.555823  1
  O  O24  1  0.162418  0.835007  0.471332  1
  O  O25  1  0.326135  0.152879  0.549171  1
  O  O26  1  0.252904  0.429314  0.841077  1
  O  O27  1  0.509184  0.365131  0.390003  1
  O  O28  1  0.413294  0.911482  0.267828  1
  O  O29  1  0.275135  0.812241  0.834413  1
  O  O30  1  0.416915  0.185211  0.986028  1
  O  O31  1  0.583085  0.814789  0.013972  1
  O  O32  1  0.724865  0.187759  0.165587  1
  O  O33  1  0.586706  0.088518  0.732172  1
  O  O34  1  0.490816  0.634869  0.609997  1
  O  O35  1  0.747096  0.570686  0.158923  1
  O  O36  1  0.673865  0.847121  0.450829  1
  O  O37  1  0.837582  0.164993  0.528668  1
  O  O38  1  0.797508  0.541288  0.444177  1
  O  O39  1  0.823875  0.260532  0.754229  1
  O  O40  1  0.894430  0.829039  0.089646  1
  O  O41  1  0.815011  0.676974  0.643117  1
  O  O42  1  0.895525  0.648248  0.911417  1
  O  O43  1  0.946027  0.961768  0.726434  1
