# generated using pymatgen
data_Li4Cr3Cu3(SbO8)2
_symmetry_space_group_name_H-M   'P 1'
_cell_length_a   5.95293093
_cell_length_b   5.95293093
_cell_length_c   9.62741485
_cell_angle_alpha   89.05173124
_cell_angle_beta   90.94826876
_cell_angle_gamma   120.24029418
_symmetry_Int_Tables_number   1
_chemical_formula_structural   Li4Cr3Cu3(SbO8)2
_chemical_formula_sum   'Li4 Cr3 Cu3 Sb2 O16'
_cell_volume   294.69054126
_cell_formula_units_Z   1
loop_
 _symmetry_equiv_pos_site_id
 _symmetry_equiv_pos_as_xyz
  1  'x, y, z'
loop_
 _atom_site_type_symbol
 _atom_site_label
 _atom_site_symmetry_multiplicity
 _atom_site_fract_x
 _atom_site_fract_y
 _atom_site_fract_z
 _atom_site_occupancy
  Li  Li0  1  0.665259  0.334741  0.097313  1
  Li  Li1  1  0.999945  0.000055  0.007250  1
  Li  Li2  1  0.001111  0.998889  0.510292  1
  Li  Li3  1  0.336662  0.663338  0.598343  1
  Cr  Cr4  1  0.829678  0.170322  0.784893  1
  Cr  Cr5  1  0.659373  0.831263  0.285876  1
  Cr  Cr6  1  0.168737  0.340627  0.285876  1
  Cu  Cu7  1  0.831511  0.659654  0.786774  1
  Cu  Cu8  1  0.340346  0.168489  0.786774  1
  Cu  Cu9  1  0.169532  0.830468  0.285403  1
  Sb  Sb10  1  0.666292  0.333708  0.510613  1
  Sb  Sb11  1  0.331453  0.668547  0.011851  1
  O  O12  1  0.833580  0.673189  0.406773  1
  O  O13  1  0.521899  0.478101  0.655869  1
  O  O14  1  0.668898  0.331102  0.888443  1
  O  O15  1  0.999927  0.000073  0.698351  1
  O  O16  1  0.995665  0.004335  0.194492  1
  O  O17  1  0.326811  0.166420  0.406773  1
  O  O18  1  0.967234  0.477585  0.652998  1
  O  O19  1  0.522415  0.032766  0.652998  1
  O  O20  1  0.161370  0.838630  0.907850  1
  O  O21  1  0.832621  0.167379  0.402594  1
  O  O22  1  0.483437  0.964884  0.155652  1
  O  O23  1  0.035116  0.516563  0.155652  1
  O  O24  1  0.337520  0.662480  0.391859  1
  O  O25  1  0.665408  0.839174  0.905868  1
  O  O26  1  0.480970  0.519030  0.157590  1
  O  O27  1  0.160826  0.334592  0.905868  1
