# generated using pymatgen
data_LiFeF4
_symmetry_space_group_name_H-M   'P 1'
_cell_length_a   6.99605390
_cell_length_b   8.23369023
_cell_length_c   9.72179512
_cell_angle_alpha   97.23823466
_cell_angle_beta   106.75934897
_cell_angle_gamma   101.53607144
_symmetry_Int_Tables_number   1
_chemical_formula_structural   LiFeF4
_chemical_formula_sum   'Li6 Fe6 F24'
_cell_volume   515.22330848
_cell_formula_units_Z   6
loop_
 _symmetry_equiv_pos_site_id
 _symmetry_equiv_pos_as_xyz
  1  'x, y, z'
loop_
 _atom_site_type_symbol
 _atom_site_label
 _atom_site_symmetry_multiplicity
 _atom_site_fract_x
 _atom_site_fract_y
 _atom_site_fract_z
 _atom_site_occupancy
  Li  Li0  1  0.006727  0.003607  0.265630  1
  Li  Li1  1  0.194378  0.604290  0.351549  1
  Li  Li2  1  0.478300  0.687024  0.861651  1
  Li  Li3  1  0.521700  0.312976  0.138349  1
  Li  Li4  1  0.805622  0.395710  0.648451  1
  Li  Li5  1  0.993273  0.996393  0.734370  1
  Fe  Fe6  1  0.021729  0.697273  0.985565  1
  Fe  Fe7  1  0.232483  0.304088  0.572596  1
  Fe  Fe8  1  0.467906  0.883050  0.214524  1
  Fe  Fe9  1  0.532094  0.116950  0.785476  1
  Fe  Fe10  1  0.767517  0.695912  0.427404  1
  Fe  Fe11  1  0.978271  0.302727  0.014435  1
  F  F12  1  0.054162  0.839281  0.856232  1
  F  F13  1  0.041261  0.713701  0.434417  1
  F  F14  1  0.046510  0.529976  0.135693  1
  F  F15  1  0.159967  0.869316  0.171669  1
  F  F16  1  0.256124  0.137835  0.745266  1
  F  F17  1  0.351804  0.482840  0.736723  1
  F  F18  1  0.479208  0.889961  0.783126  1
  F  F19  1  0.184626  0.094743  0.449190  1
  F  F20  1  0.265128  0.427574  0.428908  1
  F  F21  1  0.449873  0.748990  0.356919  1
  F  F22  1  0.352470  0.729044  0.027420  1
  F  F23  1  0.244811  0.296988  0.026355  1
  F  F24  1  0.755189  0.703012  0.973645  1
  F  F25  1  0.647530  0.270956  0.972580  1
  F  F26  1  0.550127  0.251010  0.643081  1
  F  F27  1  0.734872  0.572426  0.571092  1
  F  F28  1  0.815374  0.905257  0.550810  1
  F  F29  1  0.520792  0.110039  0.216874  1
  F  F30  1  0.648196  0.517160  0.263277  1
  F  F31  1  0.743876  0.862165  0.254734  1
  F  F32  1  0.840033  0.130684  0.828331  1
  F  F33  1  0.953490  0.470024  0.864307  1
  F  F34  1  0.958739  0.286299  0.565583  1
  F  F35  1  0.945838  0.160719  0.143768  1
