# generated using pymatgen
data_KZnH4Br3O2
_symmetry_space_group_name_H-M   'P 1'
_cell_length_a   6.81272900
_cell_length_b   12.68105530
_cell_length_c   11.24981684
_cell_angle_alpha   90.00000000
_cell_angle_beta   116.70312766
_cell_angle_gamma   90.00000000
_symmetry_Int_Tables_number   1
_chemical_formula_structural   KZnH4Br3O2
_chemical_formula_sum   'K4 Zn4 H16 Br12 O8'
_cell_volume   868.24457154
_cell_formula_units_Z   4
loop_
 _symmetry_equiv_pos_site_id
 _symmetry_equiv_pos_as_xyz
  1  'x, y, z'
loop_
 _atom_site_type_symbol
 _atom_site_label
 _atom_site_symmetry_multiplicity
 _atom_site_fract_x
 _atom_site_fract_y
 _atom_site_fract_z
 _atom_site_occupancy
  K  K0  1  0.278599  0.831483  0.008343  1
  K  K1  1  0.721401  0.331483  0.491657  1
  K  K2  1  0.721401  0.168517  0.991657  1
  K  K3  1  0.278599  0.668517  0.508343  1
  Zn  Zn4  1  0.000478  0.928196  0.260182  1
  Zn  Zn5  1  0.999522  0.428196  0.239818  1
  Zn  Zn6  1  0.999522  0.071804  0.739818  1
  Zn  Zn7  1  0.000478  0.571804  0.760182  1
  H  H8  1  0.217703  0.262454  0.202912  1
  H  H9  1  0.782297  0.762454  0.297088  1
  H  H10  1  0.782297  0.737546  0.797088  1
  H  H11  1  0.217703  0.237546  0.702912  1
  H  H12  1  0.107183  0.328626  0.066343  1
  H  H13  1  0.892817  0.828626  0.433657  1
  H  H14  1  0.892817  0.671374  0.933657  1
  H  H15  1  0.107183  0.171374  0.566343  1
  H  H16  1  0.498511  0.138398  0.285087  1
  H  H17  1  0.501489  0.638398  0.214913  1
  H  H18  1  0.501489  0.861602  0.714913  1
  H  H19  1  0.498511  0.361602  0.785087  1
  H  H20  1  0.339588  0.137662  0.350035  1
  H  H21  1  0.660412  0.637662  0.149965  1
  H  H22  1  0.660412  0.862338  0.649965  1
  H  H23  1  0.339588  0.362338  0.850035  1
  Br  Br24  1  0.225968  0.398772  0.474435  1
  Br  Br25  1  0.774032  0.898772  0.025565  1
  Br  Br26  1  0.774032  0.601228  0.525565  1
  Br  Br27  1  0.225968  0.101228  0.974435  1
  Br  Br28  1  0.618202  0.394128  0.169980  1
  Br  Br29  1  0.381798  0.894128  0.330020  1
  Br  Br30  1  0.381798  0.605872  0.830020  1
  Br  Br31  1  0.618202  0.105872  0.669980  1
  Br  Br32  1  0.928150  0.100192  0.325386  1
  Br  Br33  1  0.071850  0.600192  0.174614  1
  Br  Br34  1  0.071850  0.899808  0.674614  1
  Br  Br35  1  0.928150  0.399808  0.825386  1
  O  O36  1  0.914032  0.806216  0.356135  1
  O  O37  1  0.085968  0.306216  0.143865  1
  O  O38  1  0.085968  0.193784  0.643865  1
  O  O39  1  0.914032  0.693784  0.856135  1
  O  O40  1  0.586638  0.684979  0.186198  1
  O  O41  1  0.413362  0.184979  0.313802  1
  O  O42  1  0.413362  0.315021  0.813802  1
  O  O43  1  0.586638  0.815021  0.686198  1
