# generated using pymatgen
data_Li3CoSiBO7
_symmetry_space_group_name_H-M   'P 1'
_cell_length_a   5.01818202
_cell_length_b   6.13820877
_cell_length_c   8.32324660
_cell_angle_alpha   90.00000000
_cell_angle_beta   95.88927987
_cell_angle_gamma   90.00000000
_symmetry_Int_Tables_number   1
_chemical_formula_structural   Li3CoSiBO7
_chemical_formula_sum   'Li6 Co2 Si2 B2 O14'
_cell_volume   255.02488777
_cell_formula_units_Z   2
loop_
 _symmetry_equiv_pos_site_id
 _symmetry_equiv_pos_as_xyz
  1  'x, y, z'
loop_
 _atom_site_type_symbol
 _atom_site_label
 _atom_site_symmetry_multiplicity
 _atom_site_fract_x
 _atom_site_fract_y
 _atom_site_fract_z
 _atom_site_occupancy
  Li  Li0  1  0.241429  0.750000  0.105272  1
  Li  Li1  1  0.747471  0.001532  0.250519  1
  Li  Li2  1  0.747471  0.498468  0.250519  1
  Li  Li3  1  0.252529  0.501532  0.749481  1
  Li  Li4  1  0.252529  0.998468  0.749481  1
  Li  Li5  1  0.758571  0.250000  0.894728  1
  Co  Co6  1  0.199518  0.250000  0.314804  1
  Co  Co7  1  0.800482  0.750000  0.685196  1
  Si  Si8  1  0.276841  0.750000  0.430918  1
  Si  Si9  1  0.723159  0.250000  0.569082  1
  B  B10  1  0.286082  0.250000  0.040051  1
  B  B11  1  0.713918  0.750000  0.959949  1
  O  O12  1  0.641614  0.750000  0.110499  1
  O  O13  1  0.029277  0.250000  0.089112  1
  O  O14  1  0.473129  0.250000  0.177651  1
  O  O15  1  0.180880  0.947535  0.301780  1
  O  O16  1  0.180880  0.552465  0.301780  1
  O  O17  1  0.602940  0.750000  0.475412  1
  O  O18  1  0.866755  0.250000  0.403531  1
  O  O19  1  0.133245  0.750000  0.596469  1
  O  O20  1  0.397060  0.250000  0.524588  1
  O  O21  1  0.819120  0.447535  0.698220  1
  O  O22  1  0.819120  0.052465  0.698220  1
  O  O23  1  0.526871  0.750000  0.822349  1
  O  O24  1  0.970723  0.750000  0.910888  1
  O  O25  1  0.358386  0.250000  0.889501  1
