# generated using pymatgen
data_LiVF4
_symmetry_space_group_name_H-M   'P 1'
_cell_length_a   5.15387499
_cell_length_b   5.15387499
_cell_length_c   6.21127846
_cell_angle_alpha   90.00000000
_cell_angle_beta   90.00000000
_cell_angle_gamma   93.64424974
_symmetry_Int_Tables_number   1
_chemical_formula_structural   LiVF4
_chemical_formula_sum   'Li2 V2 F8'
_cell_volume   164.65302011
_cell_formula_units_Z   2
loop_
 _symmetry_equiv_pos_site_id
 _symmetry_equiv_pos_as_xyz
  1  'x, y, z'
loop_
 _atom_site_type_symbol
 _atom_site_label
 _atom_site_symmetry_multiplicity
 _atom_site_fract_x
 _atom_site_fract_y
 _atom_site_fract_z
 _atom_site_occupancy
  Li  Li0  1  0.374673  0.625327  0.250000  1
  Li  Li1  1  0.625327  0.374673  0.750000  1
  V  V2  1  0.980949  0.019051  0.250000  1
  V  V3  1  0.019051  0.980949  0.750000  1
  F  F4  1  0.253452  0.283933  0.250000  1
  F  F5  1  0.283933  0.253452  0.750000  1
  F  F6  1  0.825015  0.174985  0.520442  1
  F  F7  1  0.825015  0.174985  0.979558  1
  F  F8  1  0.174985  0.825015  0.479558  1
  F  F9  1  0.174985  0.825015  0.020442  1
  F  F10  1  0.716067  0.746548  0.250000  1
  F  F11  1  0.746548  0.716067  0.750000  1
