# generated using pymatgen
data_Co3OF5
_symmetry_space_group_name_H-M   'P 1'
_cell_length_a   5.69800685
_cell_length_b   4.74367177
_cell_length_c   7.91161376
_cell_angle_alpha   90.00000000
_cell_angle_beta   92.82558669
_cell_angle_gamma   90.00000000
_symmetry_Int_Tables_number   1
_chemical_formula_structural   Co3OF5
_chemical_formula_sum   'Co6 O2 F10'
_cell_volume   213.58677044
_cell_formula_units_Z   2
loop_
 _symmetry_equiv_pos_site_id
 _symmetry_equiv_pos_as_xyz
  1  'x, y, z'
loop_
 _atom_site_type_symbol
 _atom_site_label
 _atom_site_symmetry_multiplicity
 _atom_site_fract_x
 _atom_site_fract_y
 _atom_site_fract_z
 _atom_site_occupancy
  Co  Co0  1  0.745336  0.514720  0.013594  1
  Co  Co1  1  0.072664  0.516158  0.329362  1
  Co  Co2  1  0.403371  0.470465  0.670492  1
  Co  Co3  1  0.927336  0.016158  0.670638  1
  Co  Co4  1  0.596629  0.970465  0.329508  1
  Co  Co5  1  0.254664  0.014720  0.986406  1
  O  O6  1  0.217572  0.199012  0.761286  1
  O  O7  1  0.782428  0.699012  0.238714  1
  F  F8  1  0.875552  0.197484  0.437768  1
  F  F9  1  0.547068  0.195739  0.103811  1
  F  F10  1  0.712016  0.308078  0.774484  1
  F  F11  1  0.045802  0.298975  0.103045  1
  F  F12  1  0.384834  0.299370  0.424902  1
  F  F13  1  0.124448  0.697484  0.562232  1
  F  F14  1  0.452932  0.695739  0.896189  1
  F  F15  1  0.287984  0.808078  0.225516  1
  F  F16  1  0.954198  0.798975  0.896955  1
  F  F17  1  0.615166  0.799370  0.575098  1
