# generated using pymatgen
data_CaB2(HO)8
_symmetry_space_group_name_H-M   'P 1'
_cell_length_a   5.67224644
_cell_length_b   7.81583947
_cell_length_c   8.11587660
_cell_angle_alpha   64.55154395
_cell_angle_beta   73.33694314
_cell_angle_gamma   71.81562773
_symmetry_Int_Tables_number   1
_chemical_formula_structural   CaB2(HO)8
_chemical_formula_sum   'Ca2 B4 H16 O16'
_cell_volume   303.74155306
_cell_formula_units_Z   2
loop_
 _symmetry_equiv_pos_site_id
 _symmetry_equiv_pos_as_xyz
  1  'x, y, z'
loop_
 _atom_site_type_symbol
 _atom_site_label
 _atom_site_symmetry_multiplicity
 _atom_site_fract_x
 _atom_site_fract_y
 _atom_site_fract_z
 _atom_site_occupancy
  Ca  Ca0  1  0.163812  0.229530  0.821385  1
  Ca  Ca1  1  0.836188  0.770470  0.178615  1
  B  B2  1  0.827715  0.025029  0.769455  1
  B  B3  1  0.172285  0.974971  0.230545  1
  B  B4  1  0.397230  0.432575  0.280657  1
  B  B5  1  0.602770  0.567425  0.719343  1
  H  H6  1  0.436170  0.052325  0.298630  1
  H  H7  1  0.563830  0.947675  0.701370  1
  H  H8  1  0.633202  0.203578  0.920337  1
  H  H9  1  0.366798  0.796422  0.079663  1
  H  H10  1  0.940217  0.253055  0.547135  1
  H  H11  1  0.059783  0.746945  0.452865  1
  H  H12  1  0.126278  0.792723  0.796228  1
  H  H13  1  0.873722  0.207277  0.203772  1
  H  H14  1  0.578377  0.165744  0.431796  1
  H  H15  1  0.421623  0.834256  0.568204  1
  H  H16  1  0.655304  0.543359  0.050457  1
  H  H17  1  0.344696  0.456641  0.949543  1
  H  H18  1  0.540915  0.599613  0.480689  1
  H  H19  1  0.459085  0.400387  0.519311  1
  H  H20  1  0.866375  0.634185  0.801426  1
  H  H21  1  0.133625  0.365815  0.198574  1
  O  O22  1  0.597415  0.068922  0.694419  1
  O  O23  1  0.402585  0.931078  0.305581  1
  O  O24  1  0.766166  0.082504  0.935238  1
  O  O25  1  0.233834  0.917496  0.064762  1
  O  O26  1  0.021313  0.129357  0.632172  1
  O  O27  1  0.978687  0.870643  0.367828  1
  O  O28  1  0.059642  0.186631  0.158586  1
  O  O29  1  0.940358  0.813369  0.841414  1
  O  O30  1  0.547126  0.232684  0.302820  1
  O  O31  1  0.452874  0.767316  0.697180  1
  O  O32  1  0.431646  0.426027  0.837566  1
  O  O33  1  0.568354  0.573973  0.162434  1
  O  O34  1  0.306938  0.452567  0.463450  1
  O  O35  1  0.693062  0.547433  0.536550  1
  O  O36  1  0.183757  0.482428  0.186965  1
  O  O37  1  0.816243  0.517572  0.813035  1
