# generated using pymatgen
data_LiMnP2HO7
_symmetry_space_group_name_H-M   'P 1'
_cell_length_a   6.45219894
_cell_length_b   8.73044336
_cell_length_c   9.94216501
_cell_angle_alpha   91.52301731
_cell_angle_beta   107.86096203
_cell_angle_gamma   102.10452460
_symmetry_Int_Tables_number   1
_chemical_formula_structural   LiMnP2HO7
_chemical_formula_sum   'Li4 Mn4 P8 H4 O28'
_cell_volume   518.71197135
_cell_formula_units_Z   4
loop_
 _symmetry_equiv_pos_site_id
 _symmetry_equiv_pos_as_xyz
  1  'x, y, z'
loop_
 _atom_site_type_symbol
 _atom_site_label
 _atom_site_symmetry_multiplicity
 _atom_site_fract_x
 _atom_site_fract_y
 _atom_site_fract_z
 _atom_site_occupancy
  Li  Li0  1  0.275267  0.520242  0.874511  1
  Li  Li1  1  0.724733  0.479758  0.125489  1
  Li  Li2  1  0.314178  0.006603  0.384104  1
  Li  Li3  1  0.685822  0.993397  0.615896  1
  Mn  Mn4  1  0.207293  0.922891  0.809159  1
  Mn  Mn5  1  0.358548  0.468510  0.284721  1
  Mn  Mn6  1  0.792707  0.077109  0.190841  1
  Mn  Mn7  1  0.641452  0.531490  0.715279  1
  P  P8  1  0.195206  0.747002  0.134478  1
  P  P9  1  0.804794  0.252998  0.865522  1
  P  P10  1  0.240411  0.211510  0.061774  1
  P  P11  1  0.253663  0.723490  0.565371  1
  P  P12  1  0.759589  0.788490  0.938226  1
  P  P13  1  0.746337  0.276510  0.434629  1
  P  P14  1  0.182991  0.243118  0.627420  1
  P  P15  1  0.817009  0.756882  0.372580  1
  H  H16  1  0.566229  0.206196  0.988321  1
  H  H17  1  0.591228  0.719947  0.503536  1
  H  H18  1  0.433771  0.793804  0.011679  1
  H  H19  1  0.408772  0.280053  0.496464  1
  O  O20  1  0.275422  0.726855  0.997991  1
  O  O21  1  0.635010  0.616101  0.929494  1
  O  O22  1  0.894323  0.416559  0.826765  1
  O  O23  1  0.634180  0.136511  0.753172  1
  O  O24  1  0.105677  0.583441  0.173235  1
  O  O25  1  0.643441  0.631876  0.262305  1
  O  O26  1  0.364990  0.383899  0.070506  1
  O  O27  1  0.724578  0.273145  0.002009  1
  O  O28  1  0.013728  0.174497  0.928816  1
  O  O29  1  0.827334  0.814541  0.803467  1
  O  O30  1  0.365594  0.096096  0.016602  1
  O  O31  1  0.016177  0.668368  0.439477  1
  O  O32  1  0.787559  0.296518  0.290943  1
  O  O33  1  0.392998  0.607866  0.533637  1
  O  O34  1  0.634406  0.903904  0.983398  1
  O  O35  1  0.172666  0.185459  0.196533  1
  O  O36  1  0.986272  0.825503  0.071184  1
  O  O37  1  0.607002  0.392134  0.466363  1
  O  O38  1  0.212441  0.703482  0.709057  1
  O  O39  1  0.983823  0.331632  0.560523  1
  O  O40  1  0.264596  0.205521  0.498641  1
  O  O41  1  0.644295  0.107811  0.446709  1
  O  O42  1  0.365820  0.863489  0.246828  1
  O  O43  1  0.909603  0.909086  0.320406  1
  O  O44  1  0.356559  0.368124  0.737695  1
  O  O45  1  0.090397  0.090914  0.679594  1
  O  O46  1  0.355705  0.892189  0.553291  1
  O  O47  1  0.735404  0.794479  0.501359  1
