# generated using pymatgen
data_Li4V2(PO4)3
_symmetry_space_group_name_H-M   'P 1'
_cell_length_a   8.43220396
_cell_length_b   8.43731810
_cell_length_c   9.18322268
_cell_angle_alpha   63.07517571
_cell_angle_beta   63.09860727
_cell_angle_gamma   60.86729882
_symmetry_Int_Tables_number   1
_chemical_formula_structural   Li4V2(PO4)3
_chemical_formula_sum   'Li8 V4 P6 O24'
_cell_volume   485.72625699
_cell_formula_units_Z   2
loop_
 _symmetry_equiv_pos_site_id
 _symmetry_equiv_pos_as_xyz
  1  'x, y, z'
loop_
 _atom_site_type_symbol
 _atom_site_label
 _atom_site_symmetry_multiplicity
 _atom_site_fract_x
 _atom_site_fract_y
 _atom_site_fract_z
 _atom_site_occupancy
  Li  Li0  1  0.338740  0.079141  0.857271  1
  Li  Li1  1  0.727992  0.333926  0.859360  1
  Li  Li2  1  0.065579  0.728112  0.898946  1
  Li  Li3  1  0.788730  0.260541  0.411809  1
  Li  Li4  1  0.211270  0.739459  0.588191  1
  Li  Li5  1  0.934421  0.271888  0.101054  1
  Li  Li6  1  0.272008  0.666074  0.140640  1
  Li  Li7  1  0.661260  0.920859  0.142729  1
  V  V8  1  0.150576  0.147619  0.560633  1
  V  V9  1  0.849424  0.852381  0.439367  1
  V  V10  1  0.350196  0.347196  0.960047  1
  V  V11  1  0.649804  0.652804  0.039953  1
  P  P12  1  0.755705  0.038609  0.756633  1
  P  P13  1  0.044609  0.462310  0.744674  1
  P  P14  1  0.456652  0.749793  0.750595  1
  P  P15  1  0.543348  0.250207  0.249405  1
  P  P16  1  0.955391  0.537690  0.255326  1
  P  P17  1  0.244295  0.961391  0.243367  1
  O  O18  1  0.199611  0.150400  0.095979  1
  O  O19  1  0.564315  0.198873  0.096361  1
  O  O20  1  0.142814  0.548568  0.106022  1
  O  O21  1  0.543727  0.160888  0.804256  1
  O  O22  1  0.881084  0.142735  0.731640  1
  O  O23  1  0.811950  0.005801  0.584240  1
  O  O24  1  0.152664  0.259205  0.723373  1
  O  O25  1  0.164542  0.513463  0.794958  1
  O  O26  1  0.503201  0.536014  0.798486  1
  O  O27  1  0.392851  0.186207  0.410778  1
  O  O28  1  0.745074  0.140526  0.281548  1
  O  O29  1  0.990482  0.383390  0.420756  1
  O  O30  1  0.009518  0.616610  0.579244  1
  O  O31  1  0.254926  0.859474  0.718452  1
  O  O32  1  0.607149  0.813793  0.589222  1
  O  O33  1  0.496799  0.463986  0.201514  1
  O  O34  1  0.835458  0.486537  0.205042  1
  O  O35  1  0.847336  0.740795  0.276627  1
  O  O36  1  0.188050  0.994199  0.415760  1
  O  O37  1  0.118916  0.857265  0.268360  1
  O  O38  1  0.456273  0.839112  0.195744  1
  O  O39  1  0.857186  0.451432  0.893978  1
  O  O40  1  0.435685  0.801127  0.903639  1
  O  O41  1  0.800389  0.849600  0.904021  1
