# generated using pymatgen
data_Na5Cu7O13
_symmetry_space_group_name_H-M   'P 1'
_cell_length_a   6.81287117
_cell_length_b   6.86750861
_cell_length_c   7.60901792
_cell_angle_alpha   98.48897082
_cell_angle_beta   99.74751466
_cell_angle_gamma   103.82431037
_symmetry_Int_Tables_number   1
_chemical_formula_structural   Na5Cu7O13
_chemical_formula_sum   'Na5 Cu7 O13'
_cell_volume   334.05956725
_cell_formula_units_Z   1
loop_
 _symmetry_equiv_pos_site_id
 _symmetry_equiv_pos_as_xyz
  1  'x, y, z'
loop_
 _atom_site_type_symbol
 _atom_site_label
 _atom_site_symmetry_multiplicity
 _atom_site_fract_x
 _atom_site_fract_y
 _atom_site_fract_z
 _atom_site_occupancy
  Na  Na0  1  0.080580  0.581938  0.825233  1
  Na  Na1  1  0.777187  0.275971  0.456934  1
  Na  Na2  1  0.355548  0.848122  0.294814  1
  Na  Na3  1  0.926194  0.432205  0.144341  1
  Na  Na4  1  0.513674  0.010496  0.971001  1
  Cu  Cu5  1  0.004491  0.006428  0.006336  1
  Cu  Cu6  1  0.570138  0.568556  0.854451  1
  Cu  Cu7  1  0.141874  0.142600  0.718549  1
  Cu  Cu8  1  0.711198  0.716091  0.570033  1
  Cu  Cu9  1  0.292125  0.299080  0.435719  1
  Cu  Cu10  1  0.852437  0.855430  0.284101  1
  Cu  Cu11  1  0.425116  0.425972  0.140636  1
  O  O12  1  0.573920  0.356000  0.972992  1
  O  O13  1  0.001514  0.228014  0.901627  1
  O  O14  1  0.150145  0.931177  0.836680  1
  O  O15  1  0.571175  0.785260  0.741965  1
  O  O16  1  0.134779  0.339304  0.593098  1
  O  O17  1  0.717100  0.499597  0.684871  1
  O  O18  1  0.704528  0.929328  0.450909  1
  O  O19  1  0.275733  0.507255  0.299491  1
  O  O20  1  0.847269  0.635848  0.396019  1
  O  O21  1  0.433181  0.212055  0.265384  1
  O  O22  1  0.851608  0.075383  0.173354  1
  O  O23  1  0.008513  0.787304  0.120160  1
  O  O24  1  0.420433  0.642368  0.021539  1
