# generated using pymatgen
data_KFeO2
_symmetry_space_group_name_H-M   'P 1'
_cell_length_a   6.62830198
_cell_length_b   6.62830198
_cell_length_c   8.38709978
_cell_angle_alpha   54.02605201
_cell_angle_beta   125.97394799
_cell_angle_gamma   151.72342323
_symmetry_Int_Tables_number   1
_chemical_formula_structural   KFeO2
_chemical_formula_sum   'K2 Fe2 O4'
_cell_volume   138.88762473
_cell_formula_units_Z   2
loop_
 _symmetry_equiv_pos_site_id
 _symmetry_equiv_pos_as_xyz
  1  'x, y, z'
loop_
 _atom_site_type_symbol
 _atom_site_label
 _atom_site_symmetry_multiplicity
 _atom_site_fract_x
 _atom_site_fract_y
 _atom_site_fract_z
 _atom_site_occupancy
  K  K0  1  0.828335  0.171665  0.315607  1
  K  K1  1  0.171665  0.828335  0.684393  1
  Fe  Fe2  1  0.977028  0.022972  0.819748  1
  Fe  Fe3  1  0.022972  0.977028  0.180252  1
  O  O4  1  0.869131  0.130869  0.907423  1
  O  O5  1  0.539124  0.460876  0.322748  1
  O  O6  1  0.460876  0.539124  0.677252  1
  O  O7  1  0.130869  0.869131  0.092577  1
