# generated using pymatgen
data_LiMnF3
_symmetry_space_group_name_H-M   'P 1'
_cell_length_a   6.41693608
_cell_length_b   6.41693608
_cell_length_c   3.24247148
_cell_angle_alpha   90.00000000
_cell_angle_beta   90.00000000
_cell_angle_gamma   107.53875648
_symmetry_Int_Tables_number   1
_chemical_formula_structural   LiMnF3
_chemical_formula_sum   'Li2 Mn2 F6'
_cell_volume   127.30878075
_cell_formula_units_Z   2
loop_
 _symmetry_equiv_pos_site_id
 _symmetry_equiv_pos_as_xyz
  1  'x, y, z'
loop_
 _atom_site_type_symbol
 _atom_site_label
 _atom_site_symmetry_multiplicity
 _atom_site_fract_x
 _atom_site_fract_y
 _atom_site_fract_z
 _atom_site_occupancy
  Li  Li0  1  0.499481  0.500519  0.500000  1
  Li  Li1  1  0.007319  0.992681  0.500000  1
  Mn  Mn2  1  0.502249  0.001390  0.000000  1
  Mn  Mn3  1  0.998610  0.497751  0.000000  1
  F  F4  1  0.448071  0.192932  0.500000  1
  F  F5  1  0.193142  0.451192  0.500000  1
  F  F6  1  0.137852  0.862148  1.000000  1
  F  F7  1  0.861656  0.138344  1.000000  1
  F  F8  1  0.548808  0.806858  0.500000  1
  F  F9  1  0.807068  0.551929  0.500000  1
