# generated using pymatgen
data_LiAgF2
_symmetry_space_group_name_H-M   'P 1'
_cell_length_a   3.18054857
_cell_length_b   5.10805288
_cell_length_c   6.74153585
_cell_angle_alpha   90.00000000
_cell_angle_beta   90.00000000
_cell_angle_gamma   90.00000000
_symmetry_Int_Tables_number   1
_chemical_formula_structural   LiAgF2
_chemical_formula_sum   'Li2 Ag2 F4'
_cell_volume   109.52575741
_cell_formula_units_Z   2
loop_
 _symmetry_equiv_pos_site_id
 _symmetry_equiv_pos_as_xyz
  1  'x, y, z'
loop_
 _atom_site_type_symbol
 _atom_site_label
 _atom_site_symmetry_multiplicity
 _atom_site_fract_x
 _atom_site_fract_y
 _atom_site_fract_z
 _atom_site_occupancy
  Li  Li0  1  0.000000  0.085308  0.415640  1
  Li  Li1  1  0.500000  0.585308  0.584360  1
  Ag  Ag2  1  0.000000  0.601069  0.134231  1
  Ag  Ag3  1  0.500000  0.101069  0.865769  1
  F  F4  1  0.000000  0.719872  0.467820  1
  F  F5  1  0.000000  0.114903  0.137390  1
  F  F6  1  0.500000  0.219872  0.532180  1
  F  F7  1  0.500000  0.614903  0.862610  1
