# generated using pymatgen
data_V6O5F19
_symmetry_space_group_name_H-M   'P 1'
_cell_length_a   5.37477287
_cell_length_b   5.51959892
_cell_length_c   14.72553974
_cell_angle_alpha   100.67000751
_cell_angle_beta   89.63774304
_cell_angle_gamma   92.34100219
_symmetry_Int_Tables_number   1
_chemical_formula_structural   V6O5F19
_chemical_formula_sum   'V6 O5 F19'
_cell_volume   428.94461341
_cell_formula_units_Z   1
loop_
 _symmetry_equiv_pos_site_id
 _symmetry_equiv_pos_as_xyz
  1  'x, y, z'
loop_
 _atom_site_type_symbol
 _atom_site_label
 _atom_site_symmetry_multiplicity
 _atom_site_fract_x
 _atom_site_fract_y
 _atom_site_fract_z
 _atom_site_occupancy
  V  V0  1  0.947198  0.985952  0.005383  1
  V  V1  1  0.543370  0.801733  0.670628  1
  V  V2  1  0.034434  0.615016  0.329157  1
  V  V3  1  0.439287  0.526994  0.993729  1
  V  V4  1  0.034237  0.290351  0.663181  1
  V  V5  1  0.514114  0.152790  0.335053  1
  O  O6  1  0.716325  0.789163  0.020474  1
  O  O7  1  0.772433  0.636891  0.687801  1
  O  O8  1  0.216126  0.708635  0.976290  1
  O  O9  1  0.200592  0.369235  0.308310  1
  O  O10  1  0.202862  0.051943  0.645926  1
  F  F11  1  0.787024  0.985748  0.359304  1
  F  F12  1  0.299224  0.849312  0.309167  1
  F  F13  1  0.945878  0.957999  0.883807  1
  F  F14  1  0.563705  0.812009  0.551116  1
  F  F15  1  0.911269  0.640472  0.220274  1
  F  F16  1  0.406934  0.880048  0.781686  1
  F  F17  1  0.072857  0.725790  0.448769  1
  F  F18  1  0.440929  0.548214  0.115082  1
  F  F19  1  0.717745  0.468271  0.357566  1
  F  F20  1  0.795362  0.274909  0.026010  1
  F  F21  1  0.288750  0.535138  0.638758  1
  F  F22  1  0.593897  0.447392  0.886038  1
  F  F23  1  0.904191  0.291942  0.552770  1
  F  F24  1  0.570415  0.131543  0.215540  1
  F  F25  1  0.074180  0.412116  0.782612  1
  F  F26  1  0.397784  0.221203  0.449055  1
  F  F27  1  0.098566  0.044817  0.114403  1
  F  F28  1  0.723076  0.124702  0.694808  1
  F  F29  1  0.287236  0.219668  0.977300  1
