# generated using pymatgen
data_Na2P2H12O11F2
_symmetry_space_group_name_H-M   'P 1'
_cell_length_a   9.99890787
_cell_length_b   9.99890787
_cell_length_c   12.78599268
_cell_angle_alpha   71.05740534
_cell_angle_beta   108.94259466
_cell_angle_gamma   148.72773276
_symmetry_Int_Tables_number   1
_chemical_formula_structural   Na2P2H12O11F2
_chemical_formula_sum   'Na4 P4 H24 O22 F4'
_cell_volume   624.74366980
_cell_formula_units_Z   2
loop_
 _symmetry_equiv_pos_site_id
 _symmetry_equiv_pos_as_xyz
  1  'x, y, z'
loop_
 _atom_site_type_symbol
 _atom_site_label
 _atom_site_symmetry_multiplicity
 _atom_site_fract_x
 _atom_site_fract_y
 _atom_site_fract_z
 _atom_site_occupancy
  Na  Na0  1  0.899672  0.943237  0.371411  1
  Na  Na1  1  0.057891  0.102873  0.870367  1
  Na  Na2  1  0.943237  0.899672  0.628589  1
  Na  Na3  1  0.102873  0.057891  0.129633  1
  P  P4  1  0.998385  0.325409  0.469210  1
  P  P5  1  0.677822  0.006013  0.969178  1
  P  P6  1  0.325409  0.998385  0.530790  1
  P  P7  1  0.006013  0.677822  0.030822  1
  H  H8  1  0.425732  0.504737  0.497081  1
  H  H9  1  0.443263  0.746163  0.311644  1
  H  H10  1  0.558272  0.720172  0.734806  1
  H  H11  1  0.763403  0.990175  0.663854  1
  H  H12  1  0.495872  0.579639  0.991232  1
  H  H13  1  0.126110  0.429245  0.697813  1
  H  H14  1  0.267230  0.734053  0.436716  1
  H  H15  1  0.247912  0.546480  0.811991  1
  H  H16  1  0.280703  0.442260  0.237375  1
  H  H17  1  0.014818  0.237723  0.164348  1
  H  H18  1  0.734053  0.267230  0.563284  1
  H  H19  1  0.429245  0.126110  0.302187  1
  H  H20  1  0.568095  0.871582  0.199887  1
  H  H21  1  0.268289  0.733967  0.936668  1
  H  H22  1  0.990175  0.763403  0.336146  1
  H  H23  1  0.720172  0.558272  0.265194  1
  H  H24  1  0.746163  0.443263  0.688356  1
  H  H25  1  0.733967  0.268289  0.063332  1
  H  H26  1  0.871582  0.568095  0.800113  1
  H  H27  1  0.504737  0.425732  0.502919  1
  H  H28  1  0.237723  0.014818  0.835652  1
  H  H29  1  0.442260  0.280703  0.762625  1
  H  H30  1  0.546480  0.247912  0.188009  1
  H  H31  1  0.579639  0.495872  0.008768  1
  O  O32  1  0.521236  0.760859  0.268248  1
  O  O33  1  0.033847  0.202631  0.481724  1
  O  O34  1  0.739294  0.874180  0.715627  1
  O  O35  1  0.257065  0.624667  0.432866  1
  O  O36  1  0.238392  0.476274  0.766403  1
  O  O37  1  0.802537  0.971778  0.983403  1
  O  O38  1  0.895208  0.274270  0.564459  1
  O  O39  1  0.130039  0.262115  0.217853  1
  O  O40  1  0.377883  0.744841  0.932630  1
  O  O41  1  0.274270  0.895208  0.435541  1
  O  O42  1  0.726197  0.105788  0.064867  1
  O  O43  1  0.624667  0.257065  0.567134  1
  O  O44  1  0.874180  0.739294  0.284373  1
  O  O45  1  0.105788  0.726197  0.935133  1
  O  O46  1  0.202631  0.033847  0.518276  1
  O  O47  1  0.760859  0.521236  0.731752  1
  O  O48  1  0.744841  0.377883  0.067370  1
  O  O49  1  0.262115  0.130039  0.782147  1
  O  O50  1  0.583035  0.583035  0.500000  1
  O  O51  1  0.971778  0.802537  0.016597  1
  O  O52  1  0.476274  0.238392  0.233597  1
  O  O53  1  0.419773  0.419773  0.000000  1
  F  F54  1  0.797850  0.226317  0.363093  1
  F  F55  1  0.778661  0.206824  0.862591  1
  F  F56  1  0.226317  0.797850  0.636907  1
  F  F57  1  0.206824  0.778661  0.137409  1
