# generated using pymatgen
data_LiTiCrSO8
_symmetry_space_group_name_H-M   'P 1'
_cell_length_a   8.57103319
_cell_length_b   8.64731516
_cell_length_c   9.07821376
_cell_angle_alpha   62.64510571
_cell_angle_beta   63.08932146
_cell_angle_gamma   60.48393359
_symmetry_Int_Tables_number   1
_chemical_formula_structural   LiTiCrSO8
_chemical_formula_sum   'Li3 Ti3 Cr3 S3 O24'
_cell_volume   497.27312374
_cell_formula_units_Z   3
loop_
 _symmetry_equiv_pos_site_id
 _symmetry_equiv_pos_as_xyz
  1  'x, y, z'
loop_
 _atom_site_type_symbol
 _atom_site_label
 _atom_site_symmetry_multiplicity
 _atom_site_fract_x
 _atom_site_fract_y
 _atom_site_fract_z
 _atom_site_occupancy
  Li  Li0  1  0.775460  0.167291  0.637984  1
  Li  Li1  1  0.412036  0.783094  0.625815  1
  Li  Li2  1  0.163790  0.145965  0.558806  1
  Ti  Ti3  1  0.850396  0.849468  0.432672  1
  Ti  Ti4  1  0.643439  0.637996  0.072129  1
  Ti  Ti5  1  0.353893  0.362038  0.931954  1
  Cr  Cr6  1  0.966738  0.249466  0.255166  1
  Cr  Cr7  1  0.255455  0.533697  0.259131  1
  Cr  Cr8  1  0.752714  0.467308  0.741408  1
  S  S9  1  0.537728  0.963232  0.246518  1
  S  S10  1  0.472248  0.032592  0.749279  1
  S  S11  1  0.029990  0.746169  0.747110  1
  O  O12  1  0.898167  0.688884  0.917852  1
  O  O13  1  0.678742  0.515487  0.935955  1
  O  O14  1  0.956920  0.030528  0.310552  1
  O  O15  1  0.512565  0.891112  0.913288  1
  O  O16  1  0.966889  0.272287  0.425278  1
  O  O17  1  0.752694  0.416936  0.222771  1
  O  O18  1  0.634007  0.782273  0.210224  1
  O  O19  1  0.669950  0.991403  0.290085  1
  O  O20  1  0.396828  0.644498  0.215840  1
  O  O21  1  0.964538  0.315834  0.714288  1
  O  O22  1  0.694900  0.687501  0.590886  1
  O  O23  1  0.657751  0.026920  0.607920  1
  O  O24  1  0.366409  0.962353  0.393594  1
  O  O25  1  0.296105  0.331182  0.402265  1
  O  O26  1  0.018627  0.687899  0.310267  1
  O  O27  1  0.600894  0.364541  0.768779  1
  O  O28  1  0.353653  0.994983  0.703493  1
  O  O29  1  0.382569  0.220555  0.771006  1
  O  O30  1  0.229707  0.623321  0.756329  1
  O  O31  1  0.005152  0.714445  0.611478  1
  O  O32  1  0.498966  0.116750  0.086545  1
  O  O33  1  0.008310  0.941153  0.700079  1
  O  O34  1  0.307863  0.494066  0.060722  1
  O  O35  1  0.136205  0.297476  0.063339  1
