# generated using pymatgen
data_Li3FePCO7
_symmetry_space_group_name_H-M   'P 1'
_cell_length_a   8.55555879
_cell_length_b   6.44485424
_cell_length_c   9.78586546
_cell_angle_alpha   90.00000000
_cell_angle_beta   94.95730501
_cell_angle_gamma   90.00000000
_symmetry_Int_Tables_number   1
_chemical_formula_structural   Li3FePCO7
_chemical_formula_sum   'Li12 Fe4 P4 C4 O28'
_cell_volume   537.56766527
_cell_formula_units_Z   4
loop_
 _symmetry_equiv_pos_site_id
 _symmetry_equiv_pos_as_xyz
  1  'x, y, z'
loop_
 _atom_site_type_symbol
 _atom_site_label
 _atom_site_symmetry_multiplicity
 _atom_site_fract_x
 _atom_site_fract_y
 _atom_site_fract_z
 _atom_site_occupancy
  Li  Li0  1  0.898881  0.750930  0.635123  1
  Li  Li1  1  0.898881  0.749070  0.135123  1
  Li  Li2  1  0.716687  0.513187  0.367623  1
  Li  Li3  1  0.716687  0.986813  0.867624  1
  Li  Li4  1  0.648737  0.246387  0.640682  1
  Li  Li5  1  0.648737  0.253613  0.140682  1
  Li  Li6  1  0.351263  0.753613  0.359318  1
  Li  Li7  1  0.351263  0.746387  0.859318  1
  Li  Li8  1  0.283313  0.486813  0.632377  1
  Li  Li9  1  0.283313  0.013187  0.132377  1
  Li  Li10  1  0.101119  0.249070  0.364877  1
  Li  Li11  1  0.101119  0.250930  0.864877  1
  Fe  Fe12  1  0.731730  0.001086  0.379035  1
  Fe  Fe13  1  0.731730  0.498914  0.879035  1
  Fe  Fe14  1  0.268270  0.998914  0.620965  1
  Fe  Fe15  1  0.268270  0.501086  0.120965  1
  P  P16  1  0.591558  0.751129  0.610080  1
  P  P17  1  0.591558  0.748871  0.110080  1
  P  P18  1  0.408442  0.248871  0.389920  1
  P  P19  1  0.408442  0.251129  0.889920  1
  C  C20  1  0.958983  0.243804  0.601012  1
  C  C21  1  0.958983  0.256196  0.101012  1
  C  C22  1  0.041017  0.756196  0.398988  1
  C  C23  1  0.041017  0.743804  0.898988  1
  O  O24  1  0.928705  0.257295  0.726427  1
  O  O25  1  0.894189  0.756451  0.431682  1
  O  O26  1  0.928705  0.242705  0.226427  1
  O  O27  1  0.847590  0.235109  0.501789  1
  O  O28  1  0.894189  0.743549  0.931682  1
  O  O29  1  0.847590  0.264891  0.001789  1
  O  O30  1  0.690931  0.941210  0.660326  1
  O  O31  1  0.688339  0.559481  0.668249  1
  O  O32  1  0.688339  0.940519  0.168249  1
  O  O33  1  0.690931  0.558790  0.160326  1
  O  O34  1  0.576073  0.252578  0.340899  1
  O  O35  1  0.578463  0.748067  0.449782  1
  O  O36  1  0.576073  0.247422  0.840899  1
  O  O37  1  0.578463  0.751933  0.949782  1
  O  O38  1  0.421537  0.251933  0.550218  1
  O  O39  1  0.423927  0.747422  0.659101  1
  O  O40  1  0.421537  0.248067  0.050218  1
  O  O41  1  0.423927  0.752578  0.159101  1
  O  O42  1  0.309069  0.058790  0.339674  1
  O  O43  1  0.311661  0.440519  0.331751  1
  O  O44  1  0.309069  0.441210  0.839674  1
  O  O45  1  0.311661  0.059481  0.831751  1
  O  O46  1  0.152410  0.764891  0.498211  1
  O  O47  1  0.105811  0.243549  0.568318  1
  O  O48  1  0.152410  0.735109  0.998211  1
  O  O49  1  0.071295  0.742705  0.273573  1
  O  O50  1  0.105811  0.256451  0.068318  1
  O  O51  1  0.071295  0.757295  0.773573  1
