# generated using pymatgen
data_La2MgO4
_symmetry_space_group_name_H-M   'P 1'
_cell_length_a   6.83200285
_cell_length_b   6.83200285
_cell_length_c   5.67019623
_cell_angle_alpha   90.00000000
_cell_angle_beta   90.00000000
_cell_angle_gamma   131.87344997
_symmetry_Int_Tables_number   1
_chemical_formula_structural   La2MgO4
_chemical_formula_sum   'La4 Mg2 O8'
_cell_volume   197.07403393
_cell_formula_units_Z   2
loop_
 _symmetry_equiv_pos_site_id
 _symmetry_equiv_pos_as_xyz
  1  'x, y, z'
loop_
 _atom_site_type_symbol
 _atom_site_label
 _atom_site_symmetry_multiplicity
 _atom_site_fract_x
 _atom_site_fract_y
 _atom_site_fract_z
 _atom_site_occupancy
  La  La0  1  0.362323  0.637677  0.987037  1
  La  La1  1  0.137677  0.862323  0.487037  1
  La  La2  1  0.862323  0.137677  0.512963  1
  La  La3  1  0.637677  0.362323  0.012963  1
  Mg  Mg4  1  0.000000  0.000000  0.000000  1
  Mg  Mg5  1  0.500000  0.500000  0.500000  1
  O  O6  1  0.764974  0.735026  0.750000  1
  O  O7  1  0.320966  0.679034  0.563304  1
  O  O8  1  0.179034  0.820966  0.063304  1
  O  O9  1  0.264974  0.235026  0.750000  1
  O  O10  1  0.735026  0.764974  0.250000  1
  O  O11  1  0.679034  0.320966  0.436696  1
  O  O12  1  0.820966  0.179034  0.936696  1
  O  O13  1  0.235026  0.264974  0.250000  1
