# generated using pymatgen
data_Li3NbNi3O8
_symmetry_space_group_name_H-M   'P 1'
_cell_length_a   5.95692885
_cell_length_b   5.95692885
_cell_length_c   5.87906159
_cell_angle_alpha   60.92451983
_cell_angle_beta   119.07548017
_cell_angle_gamma   120.93360156
_symmetry_Int_Tables_number   1
_chemical_formula_structural   Li3NbNi3O8
_chemical_formula_sum   'Li3 Nb1 Ni3 O8'
_cell_volume   148.43222106
_cell_formula_units_Z   1
loop_
 _symmetry_equiv_pos_site_id
 _symmetry_equiv_pos_as_xyz
  1  'x, y, z'
loop_
 _atom_site_type_symbol
 _atom_site_label
 _atom_site_symmetry_multiplicity
 _atom_site_fract_x
 _atom_site_fract_y
 _atom_site_fract_z
 _atom_site_occupancy
  Li  Li0  1  0.500000  0.000000  0.500000  1
  Li  Li1  1  0.000000  0.500000  0.500000  1
  Li  Li2  1  0.500000  0.500000  0.500000  1
  Nb  Nb3  1  0.000000  0.000000  0.000000  1
  Ni  Ni4  1  0.500000  0.500000  0.000000  1
  Ni  Ni5  1  0.000000  0.500000  0.000000  1
  Ni  Ni6  1  0.500000  0.000000  0.000000  1
  O  O7  1  0.263086  0.266152  0.224372  1
  O  O8  1  0.733848  0.736914  0.224372  1
  O  O9  1  0.233399  0.766601  0.235657  1
  O  O10  1  0.720330  0.279670  0.206488  1
  O  O11  1  0.279670  0.720330  0.793512  1
  O  O12  1  0.766601  0.233399  0.764343  1
  O  O13  1  0.266152  0.263086  0.775628  1
  O  O14  1  0.736914  0.733848  0.775628  1
