# generated using pymatgen
data_V6O5F19
_symmetry_space_group_name_H-M   'P 1'
_cell_length_a   5.39728270
_cell_length_b   5.58785376
_cell_length_c   14.81960213
_cell_angle_alpha   100.51945435
_cell_angle_beta   89.85346110
_cell_angle_gamma   91.47778102
_symmetry_Int_Tables_number   1
_chemical_formula_structural   V6O5F19
_chemical_formula_sum   'V6 O5 F19'
_cell_volume   439.28866696
_cell_formula_units_Z   1
loop_
 _symmetry_equiv_pos_site_id
 _symmetry_equiv_pos_as_xyz
  1  'x, y, z'
loop_
 _atom_site_type_symbol
 _atom_site_label
 _atom_site_symmetry_multiplicity
 _atom_site_fract_x
 _atom_site_fract_y
 _atom_site_fract_z
 _atom_site_occupancy
  V  V0  1  0.050757  0.033872  0.005814  1
  V  V1  1  0.439677  0.148541  0.339180  1
  V  V2  1  0.008448  0.315288  0.667404  1
  V  V3  1  0.553031  0.460159  0.994333  1
  V  V4  1  0.934645  0.692242  0.327093  1
  V  V5  1  0.534348  0.779054  0.663491  1
  O  O6  1  0.729467  0.219412  0.977962  1
  O  O7  1  0.711636  0.540485  0.644623  1
  O  O8  1  0.231438  0.281752  0.022732  1
  O  O9  1  0.707060  0.869125  0.309233  1
  O  O10  1  0.207395  0.963211  0.355961  1
  F  F11  1  0.795662  0.019259  0.643531  1
  F  F12  1  0.280680  0.147269  0.690474  1
  F  F13  1  0.899697  0.044439  0.112588  1
  F  F14  1  0.603345  0.202242  0.444750  1
  F  F15  1  0.905970  0.389499  0.782448  1
  F  F16  1  0.442345  0.119397  0.218561  1
  F  F17  1  0.064822  0.302505  0.548942  1
  F  F18  1  0.399968  0.456068  0.888384  1
  F  F19  1  0.790609  0.390317  0.308542  1
  F  F20  1  0.775605  0.694404  0.975975  1
  F  F21  1  0.297156  0.440365  0.359677  1
  F  F22  1  0.230610  0.624091  0.689333  1
  F  F23  1  0.554807  0.557305  0.114739  1
  F  F24  1  0.941895  0.716646  0.447632  1
  F  F25  1  0.569667  0.900283  0.781062  1
  F  F26  1  0.097973  0.628248  0.221908  1
  F  F27  1  0.421493  0.804703  0.554250  1
  F  F28  1  0.048379  0.947123  0.885021  1
  F  F29  1  0.271420  0.812699  0.024356  1
