# generated using pymatgen
data_LiCuS
_symmetry_space_group_name_H-M   'P 1'
_cell_length_a   4.91037974
_cell_length_b   12.76607702
_cell_length_c   21.81818969
_cell_angle_alpha   90.00000000
_cell_angle_beta   90.00000000
_cell_angle_gamma   90.00000000
_symmetry_Int_Tables_number   1
_chemical_formula_structural   LiCuS
_chemical_formula_sum   'Li24 Cu24 S24'
_cell_volume   1367.70127800
_cell_formula_units_Z   24
loop_
 _symmetry_equiv_pos_site_id
 _symmetry_equiv_pos_as_xyz
  1  'x, y, z'
loop_
 _atom_site_type_symbol
 _atom_site_label
 _atom_site_symmetry_multiplicity
 _atom_site_fract_x
 _atom_site_fract_y
 _atom_site_fract_z
 _atom_site_occupancy
  Li  Li0  1  0.884125  0.911059  0.863822  1
  Li  Li1  1  0.115875  0.911059  0.363822  1
  Li  Li2  1  0.530686  0.924472  0.198407  1
  Li  Li3  1  0.469314  0.924472  0.698407  1
  Li  Li4  1  0.832311  0.918808  0.537501  1
  Li  Li5  1  0.167689  0.918808  0.037501  1
  Li  Li6  1  0.667689  0.581192  0.037501  1
  Li  Li7  1  0.332311  0.581192  0.537501  1
  Li  Li8  1  0.030686  0.575528  0.198407  1
  Li  Li9  1  0.969314  0.575528  0.698407  1
  Li  Li10  1  0.615875  0.588941  0.363822  1
  Li  Li11  1  0.384125  0.588941  0.863822  1
  Li  Li12  1  0.384125  0.411059  0.636178  1
  Li  Li13  1  0.615875  0.411059  0.136178  1
  Li  Li14  1  0.969314  0.424472  0.801593  1
  Li  Li15  1  0.030686  0.424472  0.301593  1
  Li  Li16  1  0.667689  0.418808  0.462499  1
  Li  Li17  1  0.332311  0.418808  0.962499  1
  Li  Li18  1  0.167689  0.081192  0.462499  1
  Li  Li19  1  0.832311  0.081192  0.962499  1
  Li  Li20  1  0.530686  0.075528  0.301593  1
  Li  Li21  1  0.469314  0.075528  0.801593  1
  Li  Li22  1  0.884125  0.088941  0.636178  1
  Li  Li23  1  0.115875  0.088941  0.136178  1
  Cu  Cu24  1  0.807099  0.752799  0.146109  1
  Cu  Cu25  1  0.192901  0.752799  0.646109  1
  Cu  Cu26  1  0.171064  0.752288  0.793201  1
  Cu  Cu27  1  0.828936  0.752288  0.293201  1
  Cu  Cu28  1  0.513039  0.755265  0.470559  1
  Cu  Cu29  1  0.486961  0.755265  0.970559  1
  Cu  Cu30  1  0.013039  0.744735  0.470559  1
  Cu  Cu31  1  0.986961  0.744735  0.970559  1
  Cu  Cu32  1  0.328936  0.747712  0.293201  1
  Cu  Cu33  1  0.671064  0.747712  0.793201  1
  Cu  Cu34  1  0.307099  0.747201  0.146109  1
  Cu  Cu35  1  0.692901  0.747201  0.646109  1
  Cu  Cu36  1  0.307099  0.252799  0.353891  1
  Cu  Cu37  1  0.692901  0.252799  0.853891  1
  Cu  Cu38  1  0.671064  0.252288  0.706799  1
  Cu  Cu39  1  0.328936  0.252288  0.206799  1
  Cu  Cu40  1  0.013039  0.255265  0.029441  1
  Cu  Cu41  1  0.986961  0.255265  0.529441  1
  Cu  Cu42  1  0.486961  0.244735  0.529441  1
  Cu  Cu43  1  0.513039  0.244735  0.029441  1
  Cu  Cu44  1  0.171064  0.247712  0.706799  1
  Cu  Cu45  1  0.828936  0.247712  0.206799  1
  Cu  Cu46  1  0.807099  0.247201  0.353891  1
  Cu  Cu47  1  0.192901  0.247201  0.853891  1
  S  S48  1  0.068165  0.890260  0.146161  1
  S  S49  1  0.931835  0.890260  0.646161  1
  S  S50  1  0.572395  0.887456  0.306440  1
  S  S51  1  0.427605  0.887456  0.806440  1
  S  S52  1  0.755499  0.889414  0.972783  1
  S  S53  1  0.244501  0.889414  0.472783  1
  S  S54  1  0.255499  0.610586  0.972783  1
  S  S55  1  0.744501  0.610586  0.472783  1
  S  S56  1  0.072395  0.612544  0.306440  1
  S  S57  1  0.927605  0.612544  0.806440  1
  S  S58  1  0.568165  0.609740  0.146161  1
  S  S59  1  0.431835  0.609740  0.646161  1
  S  S60  1  0.431835  0.390260  0.853839  1
  S  S61  1  0.568165  0.390260  0.353839  1
  S  S62  1  0.072395  0.387456  0.193560  1
  S  S63  1  0.927605  0.387456  0.693560  1
  S  S64  1  0.744501  0.389414  0.027217  1
  S  S65  1  0.255499  0.389414  0.527217  1
  S  S66  1  0.755499  0.110586  0.527217  1
  S  S67  1  0.244501  0.110586  0.027217  1
  S  S68  1  0.427605  0.112544  0.693560  1
  S  S69  1  0.572395  0.112544  0.193560  1
  S  S70  1  0.068165  0.109740  0.353839  1
  S  S71  1  0.931835  0.109740  0.853839  1
