# generated using pymatgen
data_Sr4Hf3O10
_symmetry_space_group_name_H-M   'P 1'
_cell_length_a   15.05271511
_cell_length_b   15.05271511
_cell_length_c   5.80235954
_cell_angle_alpha   90.00000000
_cell_angle_beta   90.00000000
_cell_angle_gamma   157.74400852
_symmetry_Int_Tables_number   1
_chemical_formula_structural   Sr4Hf3O10
_chemical_formula_sum   'Sr8 Hf6 O20'
_cell_volume   497.94535699
_cell_formula_units_Z   2
loop_
 _symmetry_equiv_pos_site_id
 _symmetry_equiv_pos_as_xyz
  1  'x, y, z'
loop_
 _atom_site_type_symbol
 _atom_site_label
 _atom_site_symmetry_multiplicity
 _atom_site_fract_x
 _atom_site_fract_y
 _atom_site_fract_z
 _atom_site_occupancy
  Sr  Sr0  1  0.430028  0.569972  1.000000  1
  Sr  Sr1  1  0.705042  0.294958  0.000000  1
  Sr  Sr2  1  0.294958  0.705042  1.000000  1
  Sr  Sr3  1  0.569972  0.430028  0.000000  1
  Sr  Sr4  1  0.205042  0.794958  0.500000  1
  Sr  Sr5  1  0.930028  0.069972  0.500000  1
  Sr  Sr6  1  0.794958  0.205042  0.500000  1
  Sr  Sr7  1  0.069972  0.930028  0.500000  1
  Hf  Hf8  1  0.000000  0.000000  0.000000  1
  Hf  Hf9  1  0.858362  0.141638  0.000000  1
  Hf  Hf10  1  0.141638  0.858362  1.000000  1
  Hf  Hf11  1  0.641638  0.358362  0.500000  1
  Hf  Hf12  1  0.500000  0.500000  0.500000  1
  Hf  Hf13  1  0.358362  0.641638  0.500000  1
  O  O14  1  0.929735  0.070265  0.000000  1
  O  O15  1  0.787872  0.212128  0.000000  1
  O  O16  1  0.212128  0.787872  1.000000  1
  O  O17  1  0.070265  0.929735  1.000000  1
  O  O18  1  0.302543  0.302543  0.802613  1
  O  O19  1  0.855491  0.574733  0.785056  1
  O  O20  1  0.574733  0.855491  0.785056  1
  O  O21  1  0.074733  0.355491  0.714944  1
  O  O22  1  0.355491  0.074733  0.714944  1
  O  O23  1  0.802543  0.802543  0.697387  1
  O  O24  1  0.429735  0.570265  0.500000  1
  O  O25  1  0.712128  0.287872  0.500000  1
  O  O26  1  0.287872  0.712128  0.500000  1
  O  O27  1  0.570265  0.429735  0.500000  1
  O  O28  1  0.197457  0.197457  0.302613  1
  O  O29  1  0.644509  0.925267  0.285056  1
  O  O30  1  0.925267  0.644509  0.285056  1
  O  O31  1  0.144509  0.425267  0.214944  1
  O  O32  1  0.425267  0.144509  0.214944  1
  O  O33  1  0.697457  0.697457  0.197387  1
