# generated using pymatgen
data_Li4Nb2Cr3Ni3O16
_symmetry_space_group_name_H-M   'P 1'
_cell_length_a   5.92735190
_cell_length_b   5.93446440
_cell_length_c   9.65852758
_cell_angle_alpha   90.26550436
_cell_angle_beta   90.10344029
_cell_angle_gamma   119.77363923
_symmetry_Int_Tables_number   1
_chemical_formula_structural   Li4Nb2Cr3Ni3O16
_chemical_formula_sum   'Li4 Nb2 Cr3 Ni3 O16'
_cell_volume   294.89022051
_cell_formula_units_Z   1
loop_
 _symmetry_equiv_pos_site_id
 _symmetry_equiv_pos_as_xyz
  1  'x, y, z'
loop_
 _atom_site_type_symbol
 _atom_site_label
 _atom_site_symmetry_multiplicity
 _atom_site_fract_x
 _atom_site_fract_y
 _atom_site_fract_z
 _atom_site_occupancy
  Li  Li0  1  0.322041  0.661580  0.899038  1
  Li  Li1  1  0.007026  0.001964  0.989765  1
  Li  Li2  1  0.002938  0.998983  0.494676  1
  Li  Li3  1  0.667478  0.338034  0.399555  1
  Nb  Nb4  1  0.335331  0.660600  0.499754  1
  Nb  Nb5  1  0.683259  0.343244  0.995192  1
  Cr  Cr6  1  0.186595  0.840159  0.221222  1
  Cr  Cr7  1  0.175052  0.342302  0.215984  1
  Cr  Cr8  1  0.348424  0.170748  0.725988  1
  Ni  Ni9  1  0.661833  0.829670  0.211788  1
  Ni  Ni10  1  0.827039  0.658382  0.711865  1
  Ni  Ni11  1  0.826348  0.167717  0.712026  1
  O  O12  1  0.177319  0.839586  0.592592  1
  O  O13  1  0.039280  0.523837  0.339489  1
  O  O14  1  0.309709  0.662756  0.107337  1
  O  O15  1  0.015002  0.001074  0.304357  1
  O  O16  1  0.015375  0.007076  0.798620  1
  O  O17  1  0.174129  0.333571  0.593677  1
  O  O18  1  0.472669  0.965940  0.338742  1
  O  O19  1  0.475414  0.516821  0.340303  1
  O  O20  1  0.337183  0.167219  0.098487  1
  O  O21  1  0.671043  0.836321  0.588246  1
  O  O22  1  0.498964  0.465225  0.846296  1
  O  O23  1  0.498802  0.032466  0.844795  1
  O  O24  1  0.635037  0.318584  0.608466  1
  O  O25  1  0.843427  0.672809  0.093121  1
  O  O26  1  0.953471  0.476409  0.844340  1
  O  O27  1  0.839810  0.167219  0.092121  1
