# generated using pymatgen
data_MnV(PO4)2
_symmetry_space_group_name_H-M   'P 1'
_cell_length_a   8.63496812
_cell_length_b   8.63496812
_cell_length_c   8.63496812
_cell_angle_alpha   60.25229598
_cell_angle_beta   60.25229598
_cell_angle_gamma   60.25229598
_symmetry_Int_Tables_number   1
_chemical_formula_structural   MnV(PO4)2
_chemical_formula_sum   'Mn3 V3 P6 O24'
_cell_volume   457.86813801
_cell_formula_units_Z   3
loop_
 _symmetry_equiv_pos_site_id
 _symmetry_equiv_pos_as_xyz
  1  'x, y, z'
loop_
 _atom_site_type_symbol
 _atom_site_label
 _atom_site_symmetry_multiplicity
 _atom_site_fract_x
 _atom_site_fract_y
 _atom_site_fract_z
 _atom_site_occupancy
  Mn  Mn0  1  0.002307  0.002307  0.002307  1
  Mn  Mn1  1  0.144962  0.144962  0.144962  1
  Mn  Mn2  1  0.500904  0.500904  0.500904  1
  V  V3  1  0.645056  0.645056  0.645056  1
  V  V4  1  0.856612  0.856612  0.856612  1
  V  V5  1  0.354732  0.354732  0.354732  1
  P  P6  1  0.954638  0.248882  0.545735  1
  P  P7  1  0.545735  0.954638  0.248882  1
  P  P8  1  0.248882  0.545735  0.954638  1
  P  P9  1  0.745835  0.460626  0.041327  1
  P  P10  1  0.460626  0.041327  0.745835  1
  P  P11  1  0.041327  0.745835  0.460626  1
  O  O12  1  0.504784  0.121132  0.304662  1
  O  O13  1  0.304662  0.504784  0.121133  1
  O  O14  1  0.121133  0.304662  0.504784  1
  O  O15  1  0.938873  0.085611  0.741499  1
  O  O16  1  0.978974  0.194572  0.393025  1
  O  O17  1  0.761128  0.414553  0.572044  1
  O  O18  1  0.741499  0.938873  0.085611  1
  O  O19  1  0.572044  0.761128  0.414553  1
  O  O20  1  0.806743  0.621485  0.003299  1
  O  O21  1  0.414553  0.572044  0.761128  1
  O  O22  1  0.903857  0.270160  0.049027  1
  O  O23  1  0.621485  0.003299  0.806743  1
  O  O24  1  0.393025  0.978974  0.194572  1
  O  O25  1  0.085611  0.741499  0.938873  1
  O  O26  1  0.580523  0.446586  0.235723  1
  O  O27  1  0.194572  0.393025  0.978974  1
  O  O28  1  0.446586  0.235723  0.580523  1
  O  O29  1  0.270160  0.049027  0.903857  1
  O  O30  1  0.235723  0.580523  0.446586  1
  O  O31  1  0.003299  0.806743  0.621485  1
  O  O32  1  0.049027  0.903857  0.270160  1
  O  O33  1  0.885811  0.672800  0.511513  1
  O  O34  1  0.672800  0.511513  0.885811  1
  O  O35  1  0.511513  0.885811  0.672800  1
