# generated using pymatgen
data_Li4Cu3Ni(PO4)4
_symmetry_space_group_name_H-M   'P 1'
_cell_length_a   4.73731958
_cell_length_b   6.07298775
_cell_length_c   9.96623392
_cell_angle_alpha   90.00000000
_cell_angle_beta   90.92143399
_cell_angle_gamma   90.00000000
_symmetry_Int_Tables_number   1
_chemical_formula_structural   Li4Cu3Ni(PO4)4
_chemical_formula_sum   'Li4 Cu3 Ni1 P4 O16'
_cell_volume   286.68832055
_cell_formula_units_Z   1
loop_
 _symmetry_equiv_pos_site_id
 _symmetry_equiv_pos_as_xyz
  1  'x, y, z'
loop_
 _atom_site_type_symbol
 _atom_site_label
 _atom_site_symmetry_multiplicity
 _atom_site_fract_x
 _atom_site_fract_y
 _atom_site_fract_z
 _atom_site_occupancy
  Li  Li0  1  0.002498  0.250078  0.997739  1
  Li  Li1  1  0.002498  0.749922  0.997739  1
  Li  Li2  1  0.499210  0.752607  0.500372  1
  Li  Li3  1  0.499210  0.247393  0.500372  1
  Cu  Cu4  1  0.950313  0.500000  0.713205  1
  Cu  Cu5  1  0.550082  0.500000  0.216881  1
  Cu  Cu6  1  0.452266  0.000000  0.784568  1
  Ni  Ni7  1  0.021142  0.000000  0.277966  1
  P  P8  1  0.918383  0.000000  0.596285  1
  P  P9  1  0.579784  0.000000  0.094234  1
  P  P10  1  0.423959  0.500000  0.904902  1
  P  P11  1  0.081337  0.500000  0.403255  1
  O  O12  1  0.801327  0.000000  0.449833  1
  O  O13  1  0.781958  0.203848  0.665224  1
  O  O14  1  0.781958  0.796152  0.665224  1
  O  O15  1  0.753843  0.500000  0.394614  1
  O  O16  1  0.748859  0.500000  0.897487  1
  O  O17  1  0.726639  0.201007  0.165252  1
  O  O18  1  0.726639  0.798993  0.165252  1
  O  O19  1  0.692273  0.000000  0.947907  1
  O  O20  1  0.317641  0.500000  0.053334  1
  O  O21  1  0.282035  0.704307  0.837921  1
  O  O22  1  0.282035  0.295693  0.837921  1
  O  O23  1  0.257514  0.000000  0.099844  1
  O  O24  1  0.244586  0.000000  0.604668  1
  O  O25  1  0.216596  0.706620  0.337756  1
  O  O26  1  0.216596  0.293380  0.337756  1
  O  O27  1  0.188816  0.500000  0.552487  1
