# generated using pymatgen
data_Na2TiSi4H4O13
_symmetry_space_group_name_H-M   'P 1'
_cell_length_a   7.45979958
_cell_length_b   8.84054587
_cell_length_c   9.03201688
_cell_angle_alpha   90.00000000
_cell_angle_beta   112.38402719
_cell_angle_gamma   90.00000000
_symmetry_Int_Tables_number   1
_chemical_formula_structural   Na2TiSi4H4O13
_chemical_formula_sum   'Na4 Ti2 Si8 H8 O26'
_cell_volume   550.76889385
_cell_formula_units_Z   2
loop_
 _symmetry_equiv_pos_site_id
 _symmetry_equiv_pos_as_xyz
  1  'x, y, z'
loop_
 _atom_site_type_symbol
 _atom_site_label
 _atom_site_symmetry_multiplicity
 _atom_site_fract_x
 _atom_site_fract_y
 _atom_site_fract_z
 _atom_site_occupancy
  Na  Na0  1  0.207689  0.190660  0.196877  1
  Na  Na1  1  0.292311  0.690660  0.803123  1
  Na  Na2  1  0.792311  0.809340  0.803123  1
  Na  Na3  1  0.707689  0.309340  0.196877  1
  Ti  Ti4  1  0.500000  0.000000  0.000000  1
  Ti  Ti5  1  0.000000  0.500000  0.000000  1
  Si  Si6  1  0.696793  0.660504  0.160082  1
  Si  Si7  1  0.803207  0.160504  0.839918  1
  Si  Si8  1  0.303207  0.339496  0.839918  1
  Si  Si9  1  0.196793  0.839496  0.160082  1
  Si  Si10  1  0.905290  0.940720  0.315024  1
  Si  Si11  1  0.594710  0.440720  0.684976  1
  Si  Si12  1  0.094710  0.059280  0.684976  1
  Si  Si13  1  0.405290  0.559280  0.315024  1
  H  H14  1  0.594490  0.104023  0.336402  1
  H  H15  1  0.905510  0.604023  0.663598  1
  H  H16  1  0.405510  0.895977  0.663598  1
  H  H17  1  0.094490  0.395977  0.336402  1
  H  H18  1  0.581341  0.194104  0.485548  1
  H  H19  1  0.918659  0.694104  0.514452  1
  H  H20  1  0.418659  0.805896  0.514452  1
  H  H21  1  0.081341  0.305896  0.485548  1
  O  O22  1  0.845631  0.760078  0.315406  1
  O  O23  1  0.654369  0.260078  0.684594  1
  O  O24  1  0.154369  0.239922  0.684594  1
  O  O25  1  0.345631  0.739922  0.315406  1
  O  O26  1  0.815604  0.537392  0.100296  1
  O  O27  1  0.684396  0.037392  0.899704  1
  O  O28  1  0.184396  0.462608  0.899704  1
  O  O29  1  0.315604  0.962608  0.100296  1
  O  O30  1  0.568221  0.779378  0.022727  1
  O  O31  1  0.931779  0.279378  0.977273  1
  O  O32  1  0.431779  0.220622  0.977273  1
  O  O33  1  0.068221  0.720622  0.022727  1
  O  O34  1  0.569395  0.551675  0.234794  1
  O  O35  1  0.930605  0.051675  0.765206  1
  O  O36  1  0.430605  0.448325  0.765206  1
  O  O37  1  0.069395  0.948325  0.234794  1
  O  O38  1  0.713246  0.037302  0.213089  1
  O  O39  1  0.786754  0.537302  0.786911  1
  O  O40  1  0.286754  0.962698  0.786911  1
  O  O41  1  0.213246  0.462698  0.213089  1
  O  O42  1  0.500000  0.500000  0.500000  1
  O  O43  1  0.000000  0.000000  0.500000  1
  O  O44  1  0.525958  0.185711  0.368019  1
  O  O45  1  0.974042  0.685711  0.631981  1
  O  O46  1  0.474042  0.814289  0.631981  1
  O  O47  1  0.025958  0.314289  0.368019  1
