# generated using pymatgen
data_ZrTiO4
_symmetry_space_group_name_H-M   'P 1'
_cell_length_a   4.85301851
_cell_length_b   5.66443819
_cell_length_c   10.19072259
_cell_angle_alpha   90.33367962
_cell_angle_beta   91.72898038
_cell_angle_gamma   90.09382240
_symmetry_Int_Tables_number   1
_chemical_formula_structural   ZrTiO4
_chemical_formula_sum   'Zr4 Ti4 O16'
_cell_volume   280.00637679
_cell_formula_units_Z   4
loop_
 _symmetry_equiv_pos_site_id
 _symmetry_equiv_pos_as_xyz
  1  'x, y, z'
loop_
 _atom_site_type_symbol
 _atom_site_label
 _atom_site_symmetry_multiplicity
 _atom_site_fract_x
 _atom_site_fract_y
 _atom_site_fract_z
 _atom_site_occupancy
  Zr  Zr0  1  0.004078  0.699589  0.873629  1
  Zr  Zr1  1  0.992005  0.299980  0.117960  1
  Zr  Zr2  1  0.998358  0.694313  0.376723  1
  Zr  Zr3  1  0.491574  0.187499  0.382821  1
  Ti  Ti4  1  0.999480  0.308492  0.630396  1
  Ti  Ti5  1  0.499967  0.178508  0.869607  1
  Ti  Ti6  1  0.501264  0.823036  0.123689  1
  Ti  Ti7  1  0.503156  0.809606  0.627087  1
  O  O8  1  0.234757  0.615940  0.044284  1
  O  O9  1  0.249394  0.606281  0.545839  1
  O  O10  1  0.210688  0.399387  0.288866  1
  O  O11  1  0.232359  0.377763  0.789343  1
  O  O12  1  0.307255  0.889105  0.783799  1
  O  O13  1  0.269049  0.899370  0.274324  1
  O  O14  1  0.244623  0.102784  0.544615  1
  O  O15  1  0.285432  0.106853  0.023613  1
  O  O16  1  0.701027  0.885114  0.471257  1
  O  O17  1  0.728825  0.904580  0.972027  1
  O  O18  1  0.743964  0.115689  0.714542  1
  O  O19  1  0.724848  0.094453  0.219046  1
  O  O20  1  0.745802  0.608186  0.206096  1
  O  O21  1  0.796462  0.387708  0.469984  1
  O  O22  1  0.760461  0.392076  0.948356  1
  O  O23  1  0.775172  0.613685  0.702098  1
