# generated using pymatgen
data_V6O7F5
_symmetry_space_group_name_H-M   'P 1'
_cell_length_a   5.63473985
_cell_length_b   5.63473985
_cell_length_c   7.48984934
_cell_angle_alpha   70.84754279
_cell_angle_beta   109.15245721
_cell_angle_gamma   109.56690898
_symmetry_Int_Tables_number   1
_chemical_formula_structural   V6O7F5
_chemical_formula_sum   'V6 O7 F5'
_cell_volume   205.21034759
_cell_formula_units_Z   1
loop_
 _symmetry_equiv_pos_site_id
 _symmetry_equiv_pos_as_xyz
  1  'x, y, z'
loop_
 _atom_site_type_symbol
 _atom_site_label
 _atom_site_symmetry_multiplicity
 _atom_site_fract_x
 _atom_site_fract_y
 _atom_site_fract_z
 _atom_site_occupancy
  V  V0  1  0.320040  0.694309  0.842714  1
  V  V1  1  0.670179  0.338968  0.679499  1
  V  V2  1  0.338968  0.670179  0.320501  1
  V  V3  1  0.694309  0.320040  0.157286  1
  V  V4  1  0.003868  0.003868  0.500000  1
  V  V5  1  0.973768  0.973768  0.000000  1
  O  O6  1  0.971100  0.642181  0.665271  1
  O  O7  1  0.642181  0.971100  0.334729  1
  O  O8  1  0.773949  0.225138  0.965833  1
  O  O9  1  0.225138  0.773949  0.034167  1
  O  O10  1  0.678676  0.678676  0.000000  1
  O  O11  1  0.364385  0.046288  0.665502  1
  O  O12  1  0.046288  0.364385  0.334498  1
  F  F13  1  0.431524  0.576598  0.630729  1
  F  F14  1  0.100245  0.894081  0.299446  1
  F  F15  1  0.894081  0.100245  0.700554  1
  F  F16  1  0.576598  0.431524  0.369271  1
  F  F17  1  0.294704  0.294704  0.000000  1
