# generated using pymatgen
data_Ca2MnAl2Si3HO13
_symmetry_space_group_name_H-M   'P 1'
_cell_length_a   8.94559856
_cell_length_b   5.76304216
_cell_length_c   10.24761547
_cell_angle_alpha   90.00000000
_cell_angle_beta   115.54664689
_cell_angle_gamma   90.00000000
_symmetry_Int_Tables_number   1
_chemical_formula_structural   Ca2MnAl2Si3HO13
_chemical_formula_sum   'Ca4 Mn2 Al4 Si6 H2 O26'
_cell_volume   476.65422489
_cell_formula_units_Z   2
loop_
 _symmetry_equiv_pos_site_id
 _symmetry_equiv_pos_as_xyz
  1  'x, y, z'
loop_
 _atom_site_type_symbol
 _atom_site_label
 _atom_site_symmetry_multiplicity
 _atom_site_fract_x
 _atom_site_fract_y
 _atom_site_fract_z
 _atom_site_occupancy
  Ca  Ca0  1  0.753788  0.250000  0.153211  1
  Ca  Ca1  1  0.246212  0.750000  0.846789  1
  Ca  Ca2  1  0.597300  0.250000  0.427443  1
  Ca  Ca3  1  0.402700  0.750000  0.572557  1
  Mn  Mn4  1  0.296142  0.750000  0.220751  1
  Mn  Mn5  1  0.703858  0.250000  0.779249  1
  Al  Al6  1  0.000000  0.500000  0.000000  1
  Al  Al7  1  0.000000  0.000000  0.000000  1
  Al  Al8  1  0.000000  0.500000  0.500000  1
  Al  Al9  1  0.000000  0.000000  0.500000  1
  Si  Si10  1  0.339002  0.250000  0.045199  1
  Si  Si11  1  0.660998  0.750000  0.954801  1
  Si  Si12  1  0.684625  0.750000  0.273874  1
  Si  Si13  1  0.315375  0.250000  0.726126  1
  Si  Si14  1  0.186603  0.250000  0.319696  1
  Si  Si15  1  0.813397  0.750000  0.680304  1
  H  H16  1  0.059163  0.750000  0.330232  1
  H  H17  1  0.940837  0.250000  0.669768  1
  O  O18  1  0.229356  0.490211  0.031979  1
  O  O19  1  0.770644  0.990211  0.968021  1
  O  O20  1  0.770644  0.509789  0.968021  1
  O  O21  1  0.229356  0.009789  0.031979  1
  O  O22  1  0.308104  0.478114  0.358317  1
  O  O23  1  0.691896  0.978114  0.641683  1
  O  O24  1  0.691896  0.521886  0.641683  1
  O  O25  1  0.308104  0.021886  0.358317  1
  O  O26  1  0.797818  0.517292  0.335332  1
  O  O27  1  0.202182  0.017292  0.664668  1
  O  O28  1  0.202182  0.482708  0.664668  1
  O  O29  1  0.797818  0.982708  0.335332  1
  O  O30  1  0.059291  0.750000  0.131134  1
  O  O31  1  0.940709  0.250000  0.868866  1
  O  O32  1  0.044804  0.250000  0.145028  1
  O  O33  1  0.955196  0.750000  0.854972  1
  O  O34  1  0.068590  0.250000  0.408245  1
  O  O35  1  0.931410  0.750000  0.591755  1
  O  O36  1  0.511823  0.250000  0.184557  1
  O  O37  1  0.488177  0.750000  0.815443  1
  O  O38  1  0.530433  0.750000  0.316989  1
  O  O39  1  0.469567  0.250000  0.683011  1
  O  O40  1  0.614541  0.750000  0.095413  1
  O  O41  1  0.385459  0.250000  0.904587  1
  O  O42  1  0.088035  0.750000  0.434280  1
  O  O43  1  0.911965  0.250000  0.565720  1
