# generated using pymatgen
data_Li3V(PO4)2
_symmetry_space_group_name_H-M   'P 1'
_cell_length_a   8.72930221
_cell_length_b   8.76497370
_cell_length_c   9.19945475
_cell_angle_alpha   86.82648962
_cell_angle_beta   87.20347998
_cell_angle_gamma   67.36176900
_symmetry_Int_Tables_number   1
_chemical_formula_structural   Li3V(PO4)2
_chemical_formula_sum   'Li12 V4 P8 O32'
_cell_volume   648.35430142
_cell_formula_units_Z   4
loop_
 _symmetry_equiv_pos_site_id
 _symmetry_equiv_pos_as_xyz
  1  'x, y, z'
loop_
 _atom_site_type_symbol
 _atom_site_label
 _atom_site_symmetry_multiplicity
 _atom_site_fract_x
 _atom_site_fract_y
 _atom_site_fract_z
 _atom_site_occupancy
  Li  Li0  1  0.127126  0.351451  0.208032  1
  Li  Li1  1  0.367555  0.128044  0.702888  1
  Li  Li2  1  0.845708  0.039609  0.544578  1
  Li  Li3  1  0.893594  0.071417  0.231559  1
  Li  Li4  1  0.410053  0.564612  0.237559  1
  Li  Li5  1  0.110496  0.902607  0.771503  1
  Li  Li6  1  0.568452  0.436594  0.754834  1
  Li  Li7  1  0.159300  0.963760  0.462562  1
  Li  Li8  1  0.959794  0.147208  0.967814  1
  Li  Li9  1  0.609095  0.873192  0.328771  1
  Li  Li10  1  0.864823  0.627158  0.775940  1
  Li  Li11  1  0.893919  0.723741  0.106441  1
  V  V12  1  0.514625  0.228962  0.091316  1
  V  V13  1  0.232733  0.510146  0.590589  1
  V  V14  1  0.768532  0.492072  0.406813  1
  V  V15  1  0.488035  0.771162  0.909269  1
  P  P16  1  0.282986  0.017260  0.069203  1
  P  P17  1  0.014887  0.288287  0.568408  1
  P  P18  1  0.571898  0.239963  0.430562  1
  P  P19  1  0.236110  0.575936  0.930135  1
  P  P20  1  0.758205  0.431403  0.072415  1
  P  P21  1  0.432603  0.765187  0.571486  1
  P  P22  1  0.992115  0.716095  0.422439  1
  P  P23  1  0.721553  0.987176  0.920516  1
  O  O24  1  0.111150  0.030884  0.123994  1
  O  O25  1  0.021734  0.114062  0.612064  1
  O  O26  1  0.322152  0.159717  0.132394  1
  O  O27  1  0.161916  0.316222  0.633577  1
  O  O28  1  0.632135  0.051983  0.443112  1
  O  O29  1  0.048032  0.628655  0.944470  1
  O  O30  1  0.721804  0.969678  0.092689  1
  O  O31  1  0.977805  0.686830  0.590440  1
  O  O32  1  0.164699  0.578656  0.378662  1
  O  O33  1  0.568115  0.153300  0.887239  1
  O  O34  1  0.332957  0.471997  0.062997  1
  O  O35  1  0.469646  0.327846  0.565396  1
  O  O36  1  0.471936  0.316979  0.291826  1
  O  O37  1  0.313051  0.473884  0.792373  1
  O  O38  1  0.735059  0.276106  0.419711  1
  O  O39  1  0.274340  0.736026  0.910267  1
  O  O40  1  0.735630  0.261091  0.084389  1
  O  O41  1  0.270490  0.727875  0.579744  1
  O  O42  1  0.671503  0.532112  0.207631  1
  O  O43  1  0.534002  0.684207  0.708149  1
  O  O44  1  0.541028  0.682976  0.436496  1
  O  O45  1  0.665198  0.527751  0.935967  1
  O  O46  1  0.426176  0.847353  0.114781  1
  O  O47  1  0.845285  0.428599  0.617167  1
  O  O48  1  0.016954  0.318018  0.398717  1
  O  O49  1  0.301118  0.021105  0.898159  1
  O  O50  1  0.944082  0.388841  0.063741  1
  O  O51  1  0.374068  0.952728  0.556835  1
  O  O52  1  0.852902  0.686460  0.339431  1
  O  O53  1  0.689517  0.837679  0.864607  1
  O  O54  1  0.984924  0.891753  0.384453  1
  O  O55  1  0.880574  0.998213  0.854121  1
