# generated using pymatgen
data_Li4MnNi3(PO4)4
_symmetry_space_group_name_H-M   'P 1'
_cell_length_a   4.73502645
_cell_length_b   5.97256737
_cell_length_c   11.24455351
_cell_angle_alpha   90.00000000
_cell_angle_beta   114.99011114
_cell_angle_gamma   90.00000000
_symmetry_Int_Tables_number   1
_chemical_formula_structural   Li4MnNi3(PO4)4
_chemical_formula_sum   'Li4 Mn1 Ni3 P4 O16'
_cell_volume   288.22811299
_cell_formula_units_Z   1
loop_
 _symmetry_equiv_pos_site_id
 _symmetry_equiv_pos_as_xyz
  1  'x, y, z'
loop_
 _atom_site_type_symbol
 _atom_site_label
 _atom_site_symmetry_multiplicity
 _atom_site_fract_x
 _atom_site_fract_y
 _atom_site_fract_z
 _atom_site_occupancy
  Li  Li0  1  0.002096  0.250037  0.001660  1
  Li  Li1  1  0.002096  0.749963  0.001660  1
  Li  Li2  1  0.996698  0.749514  0.497799  1
  Li  Li3  1  0.996698  0.250486  0.497799  1
  Mn  Mn4  1  0.696296  0.000000  0.721082  1
  Ni  Ni5  1  0.293726  0.500000  0.274179  1
  Ni  Ni6  1  0.259245  0.500000  0.778153  1
  Ni  Ni7  1  0.744167  0.000000  0.223358  1
  P  P8  1  0.489149  0.000000  0.401541  1
  P  P9  1  0.328174  0.000000  0.910631  1
  P  P10  1  0.679020  0.500000  0.094808  1
  P  P11  1  0.504324  0.500000  0.593006  1
  O  O12  1  0.751479  0.000000  0.542825  1
  O  O13  1  0.557577  0.207189  0.331593  1
  O  O14  1  0.557577  0.792811  0.331593  1
  O  O15  1  0.836504  0.500000  0.601761  1
  O  O16  1  0.361178  0.500000  0.100593  1
  O  O17  1  0.120682  0.206746  0.839173  1
  O  O18  1  0.120682  0.793254  0.839173  1
  O  O19  1  0.346749  0.000000  0.051990  1
  O  O20  1  0.654157  0.500000  0.952581  1
  O  O21  1  0.890923  0.705954  0.165522  1
  O  O22  1  0.890923  0.294046  0.165522  1
  O  O23  1  0.647450  0.000000  0.907033  1
  O  O24  1  0.162242  0.000000  0.398727  1
  O  O25  1  0.430214  0.703529  0.663262  1
  O  O26  1  0.430214  0.296471  0.663262  1
  O  O27  1  0.249755  0.500000  0.449713  1
