# generated using pymatgen
data_LiFe2O3F
_symmetry_space_group_name_H-M   'P 1'
_cell_length_a   7.98815458
_cell_length_b   7.98815458
_cell_length_c   5.99067849
_cell_angle_alpha   68.37664149
_cell_angle_beta   111.62335851
_cell_angle_gamma   115.71810505
_symmetry_Int_Tables_number   1
_chemical_formula_structural   LiFe2O3F
_chemical_formula_sum   'Li4 Fe8 O12 F4'
_cell_volume   310.07583507
_cell_formula_units_Z   4
loop_
 _symmetry_equiv_pos_site_id
 _symmetry_equiv_pos_as_xyz
  1  'x, y, z'
loop_
 _atom_site_type_symbol
 _atom_site_label
 _atom_site_symmetry_multiplicity
 _atom_site_fract_x
 _atom_site_fract_y
 _atom_site_fract_z
 _atom_site_occupancy
  Li  Li0  1  0.011725  0.748891  0.898602  1
  Li  Li1  1  0.736762  0.003783  0.606544  1
  Li  Li2  1  0.251109  0.988275  0.398602  1
  Li  Li3  1  0.996217  0.263238  0.106544  1
  Fe  Fe4  1  0.765405  0.778374  0.228600  1
  Fe  Fe5  1  0.009867  0.496341  0.495274  1
  Fe  Fe6  1  0.503659  0.990133  0.995274  1
  Fe  Fe7  1  0.370519  0.624732  0.862871  1
  Fe  Fe8  1  0.641799  0.387099  0.135744  1
  Fe  Fe9  1  0.612901  0.358201  0.635744  1
  Fe  Fe10  1  0.375268  0.629481  0.362871  1
  Fe  Fe11  1  0.221626  0.234595  0.728600  1
  O  O12  1  0.870051  0.620168  0.158167  1
  O  O13  1  0.614597  0.860801  0.344956  1
  O  O14  1  0.615660  0.859485  0.890273  1
  O  O15  1  0.522292  0.513476  0.258349  1
  O  O16  1  0.747922  0.283309  0.492103  1
  O  O17  1  0.275288  0.744143  0.009192  1
  O  O18  1  0.716691  0.252078  0.992103  1
  O  O19  1  0.255857  0.724712  0.509192  1
  O  O20  1  0.486524  0.477708  0.758349  1
  O  O21  1  0.139199  0.385403  0.844956  1
  O  O22  1  0.379832  0.129949  0.658167  1
  O  O23  1  0.140515  0.384340  0.390273  1
  F  F24  1  0.998968  0.002927  0.753103  1
  F  F25  1  0.870460  0.627790  0.616223  1
  F  F26  1  0.372210  0.129540  0.116223  1
  F  F27  1  0.997073  0.001032  0.253103  1
