# generated using pymatgen
data_LiFeSiO4
_symmetry_space_group_name_H-M   'P 1'
_cell_length_a   5.36702441
_cell_length_b   5.36702441
_cell_length_c   5.36702441
_cell_angle_alpha   129.94034716
_cell_angle_beta   129.94034716
_cell_angle_gamma   73.50214755
_symmetry_Int_Tables_number   1
_chemical_formula_structural   LiFeSiO4
_chemical_formula_sum   'Li1 Fe1 Si1 O4'
_cell_volume   88.69318613
_cell_formula_units_Z   1
loop_
 _symmetry_equiv_pos_site_id
 _symmetry_equiv_pos_as_xyz
  1  'x, y, z'
loop_
 _atom_site_type_symbol
 _atom_site_label
 _atom_site_symmetry_multiplicity
 _atom_site_fract_x
 _atom_site_fract_y
 _atom_site_fract_z
 _atom_site_occupancy
  Li  Li0  1  0.500000  0.500000  0.000000  1
  Fe  Fe1  1  0.250000  0.750000  0.500000  1
  Si  Si2  1  0.000000  0.000000  0.000000  1
  O  O3  1  0.129845  0.708528  0.054964  1
  O  O4  1  0.925119  0.870155  0.578683  1
  O  O5  1  0.653564  0.074881  0.945036  1
  O  O6  1  0.291472  0.346436  0.421317  1
