# generated using pymatgen
data_Na3AsH22S2O13
_symmetry_space_group_name_H-M   'P 1'
_cell_length_a   9.68695690
_cell_length_b   12.63445058
_cell_length_c   14.32670028
_cell_angle_alpha   90.00000000
_cell_angle_beta   90.00000000
_cell_angle_gamma   90.00000000
_symmetry_Int_Tables_number   1
_chemical_formula_structural   Na3AsH22S2O13
_chemical_formula_sum   'Na12 As4 H88 S8 O52'
_cell_volume   1753.43593927
_cell_formula_units_Z   4
loop_
 _symmetry_equiv_pos_site_id
 _symmetry_equiv_pos_as_xyz
  1  'x, y, z'
loop_
 _atom_site_type_symbol
 _atom_site_label
 _atom_site_symmetry_multiplicity
 _atom_site_fract_x
 _atom_site_fract_y
 _atom_site_fract_z
 _atom_site_occupancy
  Na  Na0  1  0.504548  0.729329  0.095546  1
  Na  Na1  1  0.995452  0.229329  0.404454  1
  Na  Na2  1  0.495452  0.270671  0.595546  1
  Na  Na3  1  0.004548  0.770671  0.904454  1
  Na  Na4  1  0.495452  0.270671  0.904454  1
  Na  Na5  1  0.004548  0.770671  0.595546  1
  Na  Na6  1  0.504548  0.729329  0.404454  1
  Na  Na7  1  0.995452  0.229329  0.095546  1
  Na  Na8  1  0.500000  0.500000  0.000000  1
  Na  Na9  1  0.000000  0.000000  0.500000  1
  Na  Na10  1  0.500000  0.500000  0.500000  1
  Na  Na11  1  0.000000  0.000000  0.000000  1
  As  As12  1  0.462803  0.087818  0.250000  1
  As  As13  1  0.037197  0.587818  0.250000  1
  As  As14  1  0.537197  0.912182  0.750000  1
  As  As15  1  0.962803  0.412182  0.750000  1
  H  H16  1  0.285152  0.562889  0.144087  1
  H  H17  1  0.214848  0.062889  0.355913  1
  H  H18  1  0.714848  0.437111  0.644087  1
  H  H19  1  0.785152  0.937111  0.855913  1
  H  H20  1  0.714848  0.437111  0.855913  1
  H  H21  1  0.785152  0.937111  0.644087  1
  H  H22  1  0.285152  0.562889  0.355913  1
  H  H23  1  0.214848  0.062889  0.144087  1
  H  H24  1  0.426368  0.517189  0.180407  1
  H  H25  1  0.073632  0.017189  0.319593  1
  H  H26  1  0.573632  0.482811  0.680407  1
  H  H27  1  0.926368  0.982811  0.819593  1
  H  H28  1  0.573632  0.482811  0.819593  1
  H  H29  1  0.926368  0.982811  0.680407  1
  H  H30  1  0.426368  0.517189  0.319593  1
  H  H31  1  0.073632  0.017189  0.180407  1
  H  H32  1  0.309277  0.668589  0.550060  1
  H  H33  1  0.190723  0.168589  0.949940  1
  H  H34  1  0.690723  0.331411  0.050060  1
  H  H35  1  0.809277  0.831411  0.449940  1
  H  H36  1  0.690723  0.331411  0.449940  1
  H  H37  1  0.809277  0.831411  0.050060  1
  H  H38  1  0.309277  0.668589  0.949940  1
  H  H39  1  0.190723  0.168589  0.550060  1
  H  H40  1  0.438299  0.697767  0.614540  1
  H  H41  1  0.061701  0.197767  0.885460  1
  H  H42  1  0.561701  0.302233  0.114540  1
  H  H43  1  0.938299  0.802233  0.385460  1
  H  H44  1  0.561701  0.302233  0.385460  1
  H  H45  1  0.938299  0.802233  0.114540  1
  H  H46  1  0.438299  0.697767  0.885460  1
  H  H47  1  0.061701  0.197767  0.614540  1
  H  H48  1  0.382530  0.063368  0.563859  1
  H  H49  1  0.117470  0.563368  0.936141  1
  H  H50  1  0.617470  0.936632  0.063859  1
  H  H51  1  0.882530  0.436632  0.436141  1
  H  H52  1  0.617470  0.936632  0.436141  1
  H  H53  1  0.882530  0.436632  0.063859  1
  H  H54  1  0.382530  0.063368  0.936141  1
  H  H55  1  0.117470  0.563368  0.563859  1
  H  H56  1  0.390329  0.098069  0.458286  1
  H  H57  1  0.109671  0.598069  0.041714  1
  H  H58  1  0.609671  0.901931  0.958286  1
  H  H59  1  0.890329  0.401931  0.541714  1
  H  H60  1  0.609671  0.901931  0.541714  1
  H  H61  1  0.890329  0.401931  0.958286  1
  H  H62  1  0.390329  0.098069  0.041714  1
  H  H63  1  0.109671  0.598069  0.458286  1
  H  H64  1  0.234852  0.812606  0.159189  1
  H  H65  1  0.265148  0.312606  0.340811  1
  H  H66  1  0.765148  0.187394  0.659189  1
  H  H67  1  0.734852  0.687394  0.840811  1
  H  H68  1  0.765148  0.187394  0.840811  1
  H  H69  1  0.734852  0.687394  0.659189  1
  H  H70  1  0.234852  0.812606  0.340811  1
  H  H71  1  0.265148  0.312606  0.159189  1
  H  H72  1  0.336958  0.910845  0.139909  1
  H  H73  1  0.163042  0.410845  0.360091  1
  H  H74  1  0.663042  0.089155  0.639909  1
  H  H75  1  0.836958  0.589155  0.860091  1
  H  H76  1  0.663042  0.089155  0.860091  1
  H  H77  1  0.836958  0.589155  0.639909  1
  H  H78  1  0.336958  0.910845  0.360091  1
  H  H79  1  0.163042  0.410845  0.139909  1
  H  H80  1  0.258673  0.367656  0.493421  1
  H  H81  1  0.241327  0.867656  0.006579  1
  H  H82  1  0.741327  0.632344  0.993421  1
  H  H83  1  0.758673  0.132344  0.506579  1
  H  H84  1  0.741327  0.632344  0.506579  1
  H  H85  1  0.758673  0.132344  0.993421  1
  H  H86  1  0.258673  0.367656  0.006579  1
  H  H87  1  0.241327  0.867656  0.493421  1
  H  H88  1  0.248003  0.408877  0.599693  1
  H  H89  1  0.251997  0.908877  0.900307  1
  H  H90  1  0.751997  0.591123  0.099693  1
  H  H91  1  0.748003  0.091123  0.400307  1
  H  H92  1  0.751997  0.591123  0.400307  1
  H  H93  1  0.748003  0.091123  0.099693  1
  H  H94  1  0.248003  0.408877  0.900307  1
  H  H95  1  0.251997  0.908877  0.599693  1
  H  H96  1  0.343704  0.168902  0.750000  1
  H  H97  1  0.156296  0.668902  0.750000  1
  H  H98  1  0.656296  0.831098  0.250000  1
  H  H99  1  0.843704  0.331098  0.250000  1
  H  H100  1  0.292926  0.288031  0.750000  1
  H  H101  1  0.207074  0.788031  0.750000  1
  H  H102  1  0.707074  0.711969  0.250000  1
  H  H103  1  0.792926  0.211969  0.250000  1
  S  S104  1  0.458082  0.261385  0.250000  1
  S  S105  1  0.041918  0.761385  0.250000  1
  S  S106  1  0.541918  0.738615  0.750000  1
  S  S107  1  0.958082  0.238615  0.750000  1
  S  S108  1  0.825870  0.527576  0.250000  1
  S  S109  1  0.674130  0.027576  0.250000  1
  S  S110  1  0.174130  0.472424  0.750000  1
  S  S111  1  0.325870  0.972424  0.750000  1
  O  O112  1  0.378101  0.040052  0.151844  1
  O  O113  1  0.121899  0.540052  0.348156  1
  O  O114  1  0.621899  0.959948  0.651844  1
  O  O115  1  0.878101  0.459948  0.848156  1
  O  O116  1  0.621899  0.959948  0.848156  1
  O  O117  1  0.878101  0.459948  0.651844  1
  O  O118  1  0.378101  0.040052  0.348156  1
  O  O119  1  0.121899  0.540052  0.151844  1
  O  O120  1  0.389535  0.566528  0.134977  1
  O  O121  1  0.110465  0.066528  0.365023  1
  O  O122  1  0.610465  0.433472  0.634977  1
  O  O123  1  0.889535  0.933472  0.865023  1
  O  O124  1  0.610465  0.433472  0.865023  1
  O  O125  1  0.889535  0.933472  0.634977  1
  O  O126  1  0.389535  0.566528  0.365023  1
  O  O127  1  0.110465  0.066528  0.134977  1
  O  O128  1  0.410980  0.667657  0.553663  1
  O  O129  1  0.089020  0.167657  0.946337  1
  O  O130  1  0.589020  0.332343  0.053663  1
  O  O131  1  0.910980  0.832343  0.446337  1
  O  O132  1  0.589020  0.332343  0.446337  1
  O  O133  1  0.910980  0.832343  0.053663  1
  O  O134  1  0.410980  0.667657  0.946337  1
  O  O135  1  0.089020  0.167657  0.553663  1
  O  O136  1  0.378682  0.125535  0.523628  1
  O  O137  1  0.121318  0.625535  0.976372  1
  O  O138  1  0.621318  0.874465  0.023628  1
  O  O139  1  0.878682  0.374465  0.476372  1
  O  O140  1  0.621318  0.874465  0.476372  1
  O  O141  1  0.878682  0.374465  0.023628  1
  O  O142  1  0.378682  0.125535  0.976372  1
  O  O143  1  0.121318  0.625535  0.523628  1
  O  O144  1  0.308792  0.838409  0.117664  1
  O  O145  1  0.191208  0.338409  0.382336  1
  O  O146  1  0.691208  0.161591  0.617664  1
  O  O147  1  0.808792  0.661591  0.882336  1
  O  O148  1  0.691208  0.161591  0.882336  1
  O  O149  1  0.808792  0.661591  0.617664  1
  O  O150  1  0.308792  0.838409  0.382336  1
  O  O151  1  0.191208  0.338409  0.117664  1
  O  O152  1  0.312372  0.388485  0.549803  1
  O  O153  1  0.187628  0.888485  0.950197  1
  O  O154  1  0.687628  0.611515  0.049803  1
  O  O155  1  0.812372  0.111515  0.450197  1
  O  O156  1  0.687628  0.611515  0.450197  1
  O  O157  1  0.812372  0.111515  0.049803  1
  O  O158  1  0.312372  0.388485  0.950197  1
  O  O159  1  0.187628  0.888485  0.549803  1
  O  O160  1  0.624146  0.757055  0.250000  1
  O  O161  1  0.875854  0.257055  0.250000  1
  O  O162  1  0.375854  0.242945  0.750000  1
  O  O163  1  0.124146  0.742945  0.750000  1
