# generated using pymatgen
data_PH6NO2
_symmetry_space_group_name_H-M   'P 1'
_cell_length_a   6.94446229
_cell_length_b   6.94446229
_cell_length_c   4.04955135
_cell_angle_alpha   90.00000000
_cell_angle_beta   90.00000000
_cell_angle_gamma   113.35006706
_symmetry_Int_Tables_number   1
_chemical_formula_structural   PH6NO2
_chemical_formula_sum   'P2 H12 N2 O4'
_cell_volume   179.29753934
_cell_formula_units_Z   2
loop_
 _symmetry_equiv_pos_site_id
 _symmetry_equiv_pos_as_xyz
  1  'x, y, z'
loop_
 _atom_site_type_symbol
 _atom_site_label
 _atom_site_symmetry_multiplicity
 _atom_site_fract_x
 _atom_site_fract_y
 _atom_site_fract_z
 _atom_site_occupancy
  P  P0  1  0.750000  0.250000  0.037498  1
  P  P1  1  0.250000  0.750000  0.962502  1
  H  H2  1  0.221935  0.117596  0.352862  1
  H  H3  1  0.117596  0.221935  0.647138  1
  H  H4  1  0.278065  0.382404  0.352862  1
  H  H5  1  0.382404  0.278065  0.647138  1
  H  H6  1  0.605090  0.105090  0.257858  1
  H  H7  1  0.105090  0.605090  0.742142  1
  H  H8  1  0.894910  0.394910  0.257858  1
  H  H9  1  0.394910  0.894910  0.742142  1
  H  H10  1  0.617596  0.721935  0.352862  1
  H  H11  1  0.721935  0.617596  0.647138  1
  H  H12  1  0.778065  0.882404  0.647138  1
  H  H13  1  0.882404  0.778065  0.352862  1
  N  N14  1  0.250000  0.250000  0.500000  1
  N  N15  1  0.750000  0.750000  0.500000  1
  O  O16  1  0.863559  0.136441  0.847511  1
  O  O17  1  0.136441  0.863559  0.152489  1
  O  O18  1  0.636441  0.363559  0.847511  1
  O  O19  1  0.363559  0.636441  0.152489  1
