# generated using pymatgen
data_LiVFeP2(HO5)2
_symmetry_space_group_name_H-M   'P 1'
_cell_length_a   5.21653502
_cell_length_b   5.30089279
_cell_length_c   7.42110407
_cell_angle_alpha   110.15067149
_cell_angle_beta   105.19917870
_cell_angle_gamma   97.90830040
_symmetry_Int_Tables_number   1
_chemical_formula_structural   LiVFeP2(HO5)2
_chemical_formula_sum   'Li1 V1 Fe1 P2 H2 O10'
_cell_volume   179.93199104
_cell_formula_units_Z   1
loop_
 _symmetry_equiv_pos_site_id
 _symmetry_equiv_pos_as_xyz
  1  'x, y, z'
loop_
 _atom_site_type_symbol
 _atom_site_label
 _atom_site_symmetry_multiplicity
 _atom_site_fract_x
 _atom_site_fract_y
 _atom_site_fract_z
 _atom_site_occupancy
  Li  Li0  1  0.774183  0.409363  0.154859  1
  V  V1  1  0.998737  0.997259  0.504243  1
  Fe  Fe2  1  0.004344  0.005657  0.995766  1
  P  P3  1  0.317695  0.643923  0.229434  1
  P  P4  1  0.676499  0.355676  0.774099  1
  H  H5  1  0.645739  0.939584  0.348631  1
  H  H6  1  0.351657  0.035550  0.657197  1
  O  O7  1  0.143615  0.971621  0.714589  1
  O  O8  1  0.272025  0.808283  0.378560  1
  O  O9  1  0.721092  0.658239  0.650243  1
  O  O10  1  0.627717  0.749592  0.074748  1
  O  O11  1  0.102852  0.664500  0.130208  1
  O  O12  1  0.870358  0.331142  0.891369  1
  O  O13  1  0.369080  0.239997  0.926220  1
  O  O14  1  0.291976  0.341351  0.343425  1
  O  O15  1  0.735836  0.197852  0.619927  1
  O  O16  1  0.844824  0.048543  0.283943  1
