# generated using pymatgen
data_Zr2N2O
_symmetry_space_group_name_H-M   'P 1'
_cell_length_a   8.86938379
_cell_length_b   8.87429248
_cell_length_c   8.87997991
_cell_angle_alpha   109.40894321
_cell_angle_beta   109.41136259
_cell_angle_gamma   109.52944958
_symmetry_Int_Tables_number   1
_chemical_formula_structural   Zr2N2O
_chemical_formula_sum   'Zr16 N16 O8'
_cell_volume   538.46671169
_cell_formula_units_Z   8
loop_
 _symmetry_equiv_pos_site_id
 _symmetry_equiv_pos_as_xyz
  1  'x, y, z'
loop_
 _atom_site_type_symbol
 _atom_site_label
 _atom_site_symmetry_multiplicity
 _atom_site_fract_x
 _atom_site_fract_y
 _atom_site_fract_z
 _atom_site_occupancy
  Zr  Zr0  1  0.512246  0.499744  0.500996  1
  Zr  Zr1  1  0.206050  0.749572  0.464641  1
  Zr  Zr2  1  0.963209  0.214714  0.249438  1
  Zr  Zr3  1  0.476008  0.719026  0.251132  1
  Zr  Zr4  1  0.294988  0.246384  0.035109  1
  Zr  Zr5  1  0.001207  0.999362  0.489268  1
  Zr  Zr6  1  0.501465  0.999989  0.000513  1
  Zr  Zr7  1  0.982986  0.492946  0.995322  1
  Zr  Zr8  1  0.240496  0.531291  0.785666  1
  Zr  Zr9  1  0.748143  0.964147  0.713883  1
  Zr  Zr10  1  0.753033  0.471041  0.212701  1
  Zr  Zr11  1  0.252693  0.035476  0.285879  1
  Zr  Zr12  1  0.717570  0.759138  0.968998  1
  Zr  Zr13  1  0.027455  0.780940  0.751404  1
  Zr  Zr14  1  0.535863  0.282666  0.747876  1
  Zr  Zr15  1  0.787968  0.249717  0.542503  1
  N  N16  1  0.768619  0.727899  0.734286  1
  N  N17  1  0.539961  0.511764  0.272614  1
  N  N18  1  0.504893  0.767834  0.040504  1
  N  N19  1  0.956633  0.728665  0.472846  1
  N  N20  1  0.012856  0.465849  0.238366  1
  N  N21  1  0.737071  0.014882  0.966566  1
  N  N22  1  0.996406  0.538486  0.767578  1
  N  N23  1  0.761521  0.229214  0.773209  1
  N  N24  1  0.968654  0.955860  0.227013  1
  N  N25  1  0.259591  0.987479  0.032564  1
  N  N26  1  0.487687  0.226428  0.955456  1
  N  N27  1  0.726746  0.963881  0.457276  1
  N  N28  1  0.772598  0.546518  0.010938  1
  N  N29  1  0.047967  0.274538  0.534381  1
  N  N30  1  0.273236  0.030243  0.542468  1
  N  N31  1  0.535859  0.266280  0.485930  1
  O  O32  1  0.278222  0.760767  0.725427  1
  O  O33  1  0.227982  0.272304  0.264504  1
  O  O34  1  0.461862  0.738740  0.514522  1
  O  O35  1  0.244525  0.771414  0.230443  1
  O  O36  1  0.223706  0.448401  0.984930  1
  O  O37  1  0.452482  0.489492  0.723598  1
  O  O38  1  0.725066  0.233489  0.270351  1
  O  O39  1  0.034483  0.053424  0.778902  1
