# generated using pymatgen
data_NbPO5
_symmetry_space_group_name_H-M   'P 1'
_cell_length_a   6.55773631
_cell_length_b   7.52707226
_cell_length_c   7.66239193
_cell_angle_alpha   90.00000000
_cell_angle_beta   90.00000000
_cell_angle_gamma   90.00000000
_symmetry_Int_Tables_number   1
_chemical_formula_structural   NbPO5
_chemical_formula_sum   'Nb4 P4 O20'
_cell_volume   378.21991881
_cell_formula_units_Z   4
loop_
 _symmetry_equiv_pos_site_id
 _symmetry_equiv_pos_as_xyz
  1  'x, y, z'
loop_
 _atom_site_type_symbol
 _atom_site_label
 _atom_site_symmetry_multiplicity
 _atom_site_fract_x
 _atom_site_fract_y
 _atom_site_fract_z
 _atom_site_occupancy
  Nb  Nb0  1  0.250000  0.740111  0.154356  1
  Nb  Nb1  1  0.750000  0.240111  0.345644  1
  Nb  Nb2  1  0.250000  0.759889  0.654356  1
  Nb  Nb3  1  0.750000  0.259889  0.845644  1
  P  P4  1  0.750000  0.623215  0.121794  1
  P  P5  1  0.250000  0.123215  0.378206  1
  P  P6  1  0.750000  0.876785  0.621794  1
  P  P7  1  0.250000  0.376785  0.878206  1
  O  O8  1  0.250000  0.489822  0.047631  1
  O  O9  1  0.750000  0.174567  0.118300  1
  O  O10  1  0.558787  0.741373  0.127384  1
  O  O11  1  0.941213  0.741373  0.127384  1
  O  O12  1  0.250000  0.998791  0.215038  1
  O  O13  1  0.750000  0.498791  0.284962  1
  O  O14  1  0.058787  0.241373  0.372616  1
  O  O15  1  0.441213  0.241373  0.372616  1
  O  O16  1  0.250000  0.674567  0.381700  1
  O  O17  1  0.750000  0.989822  0.452369  1
  O  O18  1  0.250000  0.010178  0.547631  1
  O  O19  1  0.750000  0.325433  0.618300  1
  O  O20  1  0.558787  0.758627  0.627384  1
  O  O21  1  0.941213  0.758627  0.627384  1
  O  O22  1  0.250000  0.501209  0.715038  1
  O  O23  1  0.750000  0.001209  0.784962  1
  O  O24  1  0.058787  0.258627  0.872616  1
  O  O25  1  0.441213  0.258627  0.872616  1
  O  O26  1  0.250000  0.825433  0.881700  1
  O  O27  1  0.750000  0.510178  0.952369  1
