# generated using pymatgen
data_LiCu3F7
_symmetry_space_group_name_H-M   'P 1'
_cell_length_a   6.96067761
_cell_length_b   6.96067761
_cell_length_c   6.95384457
_cell_angle_alpha   65.67197236
_cell_angle_beta   114.32802764
_cell_angle_gamma   116.36334797
_symmetry_Int_Tables_number   1
_chemical_formula_structural   LiCu3F7
_chemical_formula_sum   'Li2 Cu6 F14'
_cell_volume   264.02891885
_cell_formula_units_Z   2
loop_
 _symmetry_equiv_pos_site_id
 _symmetry_equiv_pos_as_xyz
  1  'x, y, z'
loop_
 _atom_site_type_symbol
 _atom_site_label
 _atom_site_symmetry_multiplicity
 _atom_site_fract_x
 _atom_site_fract_y
 _atom_site_fract_z
 _atom_site_occupancy
  Li  Li0  1  0.500000  0.500000  0.500000  1
  Li  Li1  1  0.500000  0.500000  0.000000  1
  Cu  Cu2  1  0.000000  0.500000  0.500000  1
  Cu  Cu3  1  0.000000  0.500000  0.000000  1
  Cu  Cu4  1  0.000000  0.000000  0.500000  1
  Cu  Cu5  1  0.000000  0.000000  0.000000  1
  Cu  Cu6  1  0.500000  1.000000  0.500000  1
  Cu  Cu7  1  0.500000  1.000000  0.000000  1
  F  F8  1  0.983089  0.633589  0.187984  1
  F  F9  1  0.870922  0.692688  0.498113  1
  F  F10  1  0.602950  0.316149  0.398158  1
  F  F11  1  0.307312  0.129078  0.998113  1
  F  F12  1  0.897674  0.897674  0.750000  1
  F  F13  1  0.683851  0.397050  0.898158  1
  F  F14  1  0.366411  0.016911  0.687984  1
  F  F15  1  0.633589  0.983089  0.312016  1
  F  F16  1  0.316149  0.602950  0.101842  1
  F  F17  1  0.102326  0.102326  0.250000  1
  F  F18  1  0.692688  0.870922  0.001887  1
  F  F19  1  0.397050  0.683851  0.601842  1
  F  F20  1  0.129078  0.307312  0.501887  1
  F  F21  1  0.016911  0.366411  0.812016  1
