# generated using pymatgen
data_Ba3LaCl9
_symmetry_space_group_name_H-M   'P 1'
_cell_length_a   7.70367830
_cell_length_b   7.18299136
_cell_length_c   29.93891432
_cell_angle_alpha   90.00000000
_cell_angle_beta   92.10079089
_cell_angle_gamma   90.00000000
_symmetry_Int_Tables_number   1
_chemical_formula_structural   Ba3LaCl9
_chemical_formula_sum   'Ba12 La4 Cl36'
_cell_volume   1655.56995858
_cell_formula_units_Z   4
loop_
 _symmetry_equiv_pos_site_id
 _symmetry_equiv_pos_as_xyz
  1  'x, y, z'
loop_
 _atom_site_type_symbol
 _atom_site_label
 _atom_site_symmetry_multiplicity
 _atom_site_fract_x
 _atom_site_fract_y
 _atom_site_fract_z
 _atom_site_occupancy
  Ba  Ba0  1  0.684082  0.973380  0.066936  1
  Ba  Ba1  1  0.712965  0.004756  0.308006  1
  Ba  Ba2  1  0.684082  0.026620  0.566936  1
  Ba  Ba3  1  0.712965  0.995244  0.808006  1
  Ba  Ba4  1  0.312837  0.989632  0.430143  1
  Ba  Ba5  1  0.281221  0.986179  0.191785  1
  Ba  Ba6  1  0.312837  0.010368  0.930143  1
  Ba  Ba7  1  0.281221  0.013821  0.691785  1
  Ba  Ba8  1  0.219154  0.524347  0.307880  1
  Ba  Ba9  1  0.182476  0.514819  0.069368  1
  Ba  Ba10  1  0.219154  0.475653  0.807880  1
  Ba  Ba11  1  0.182476  0.485181  0.569368  1
  La  La12  1  0.792858  0.520052  0.193329  1
  La  La13  1  0.818122  0.544026  0.433029  1
  La  La14  1  0.792858  0.479948  0.693329  1
  La  La15  1  0.818122  0.455974  0.933029  1
  Cl  Cl16  1  0.976246  0.790879  0.132236  1
  Cl  Cl17  1  0.982303  0.810012  0.246885  1
  Cl  Cl18  1  0.992289  0.804158  0.372924  1
  Cl  Cl19  1  0.976246  0.209121  0.632236  1
  Cl  Cl20  1  0.982303  0.189988  0.746885  1
  Cl  Cl21  1  0.891187  0.700491  0.005746  1
  Cl  Cl22  1  0.992289  0.195842  0.872924  1
  Cl  Cl23  1  0.846933  0.335529  0.109395  1
  Cl  Cl24  1  0.891187  0.299509  0.505746  1
  Cl  Cl25  1  0.840685  0.402735  0.290462  1
  Cl  Cl26  1  0.846933  0.664471  0.609395  1
  Cl  Cl27  1  0.840685  0.597265  0.790462  1
  Cl  Cl28  1  0.646751  0.162744  0.204271  1
  Cl  Cl29  1  0.649860  0.214611  0.400486  1
  Cl  Cl30  1  0.646751  0.837256  0.704271  1
  Cl  Cl31  1  0.649860  0.785389  0.900486  1
  Cl  Cl32  1  0.589677  0.743665  0.488067  1
  Cl  Cl33  1  0.511819  0.679791  0.133743  1
  Cl  Cl34  1  0.517113  0.692490  0.247343  1
  Cl  Cl35  1  0.530732  0.698758  0.372646  1
  Cl  Cl36  1  0.589677  0.256335  0.988067  1
  Cl  Cl37  1  0.511819  0.320209  0.633743  1
  Cl  Cl38  1  0.517113  0.307510  0.747343  1
  Cl  Cl39  1  0.530732  0.301242  0.872646  1
  Cl  Cl40  1  0.400508  0.764314  0.010241  1
  Cl  Cl41  1  0.400508  0.235686  0.510241  1
  Cl  Cl42  1  0.344132  0.146925  0.099058  1
  Cl  Cl43  1  0.321872  0.105253  0.301244  1
  Cl  Cl44  1  0.344132  0.853075  0.599058  1
  Cl  Cl45  1  0.321872  0.894747  0.801244  1
  Cl  Cl46  1  0.143909  0.396570  0.202505  1
  Cl  Cl47  1  0.119083  0.357403  0.401284  1
  Cl  Cl48  1  0.143909  0.603430  0.702505  1
  Cl  Cl49  1  0.119083  0.642597  0.901284  1
  Cl  Cl50  1  0.060452  0.752892  0.489172  1
  Cl  Cl51  1  0.060452  0.247108  0.989172  1
