# generated using pymatgen
data_Li5Ni7O12
_symmetry_space_group_name_H-M   'P 1'
_cell_length_a   5.03649261
_cell_length_b   5.03649261
_cell_length_c   9.61046932
_cell_angle_alpha   84.97680582
_cell_angle_beta   95.02319418
_cell_angle_gamma   60.01161153
_symmetry_Int_Tables_number   1
_chemical_formula_structural   Li5Ni7O12
_chemical_formula_sum   'Li5 Ni7 O12'
_cell_volume   207.88420608
_cell_formula_units_Z   1
loop_
 _symmetry_equiv_pos_site_id
 _symmetry_equiv_pos_as_xyz
  1  'x, y, z'
loop_
 _atom_site_type_symbol
 _atom_site_label
 _atom_site_symmetry_multiplicity
 _atom_site_fract_x
 _atom_site_fract_y
 _atom_site_fract_z
 _atom_site_occupancy
  Li  Li0  1  0.840826  0.338823  0.748562  1
  Li  Li1  1  0.661819  0.163460  0.250697  1
  Li  Li2  1  0.338823  0.840826  0.251438  1
  Li  Li3  1  0.163460  0.661819  0.749303  1
  Li  Li4  1  0.084373  0.084373  0.500000  1
  Ni  Ni5  1  0.916524  0.916524  0.000000  1
  Ni  Ni6  1  0.000101  0.496618  0.252244  1
  Ni  Ni7  1  0.745526  0.745526  0.500000  1
  Ni  Ni8  1  0.496618  0.000101  0.747756  1
  Ni  Ni9  1  0.584459  0.584459  0.000000  1
  Ni  Ni10  1  0.417937  0.417937  0.500000  1
  Ni  Ni11  1  0.251709  0.251709  0.000000  1
  O  O12  1  0.019226  0.772524  0.381968  1
  O  O13  1  0.772524  0.019226  0.618032  1
  O  O14  1  0.859199  0.642018  0.870710  1
  O  O15  1  0.642018  0.859199  0.129290  1
  O  O16  1  0.693857  0.478992  0.386914  1
  O  O17  1  0.478992  0.693857  0.613086  1
  O  O18  1  0.523621  0.287147  0.884274  1
  O  O19  1  0.287147  0.523621  0.115726  1
  O  O20  1  0.367457  0.155000  0.379218  1
  O  O21  1  0.155000  0.367457  0.620782  1
  O  O22  1  0.215980  0.982804  0.879952  1
  O  O23  1  0.982804  0.215980  0.120048  1
