# generated using pymatgen
data_Li4AlCr3O8
_symmetry_space_group_name_H-M   'P 1'
_cell_length_a   5.10915034
_cell_length_b   5.86599719
_cell_length_c   10.15822589
_cell_angle_alpha   89.96220796
_cell_angle_beta   99.53971544
_cell_angle_gamma   106.67025514
_symmetry_Int_Tables_number   1
_chemical_formula_structural   Li4AlCr3O8
_chemical_formula_sum   'Li8 Al2 Cr6 O16'
_cell_volume   287.26174081
_cell_formula_units_Z   2
loop_
 _symmetry_equiv_pos_site_id
 _symmetry_equiv_pos_as_xyz
  1  'x, y, z'
loop_
 _atom_site_type_symbol
 _atom_site_label
 _atom_site_symmetry_multiplicity
 _atom_site_fract_x
 _atom_site_fract_y
 _atom_site_fract_z
 _atom_site_occupancy
  Li  Li0  1  0.499399  0.249098  0.248830  1
  Li  Li1  1  0.500320  0.249343  0.751049  1
  Li  Li2  1  0.500000  0.000000  0.000000  1
  Li  Li3  1  0.500000  0.000000  0.500000  1
  Li  Li4  1  0.499680  0.750657  0.248951  1
  Li  Li5  1  0.500601  0.750902  0.751170  1
  Li  Li6  1  0.500000  0.500000  0.000000  1
  Li  Li7  1  0.500000  0.500000  0.500000  1
  Al  Al8  1  0.000224  0.123912  0.876808  1
  Al  Al9  1  0.999776  0.876088  0.123192  1
  Cr  Cr10  1  0.000266  0.123994  0.373341  1
  Cr  Cr11  1  0.999734  0.876006  0.626659  1
  Cr  Cr12  1  0.999685  0.626251  0.876754  1
  Cr  Cr13  1  0.999812  0.626128  0.373099  1
  Cr  Cr14  1  0.000315  0.373749  0.123246  1
  Cr  Cr15  1  0.000188  0.373872  0.626901  1
  O  O16  1  0.779696  0.060746  0.186021  1
  O  O17  1  0.778484  0.069068  0.697731  1
  O  O18  1  0.216981  0.170665  0.056672  1
  O  O19  1  0.227526  0.181605  0.560372  1
  O  O20  1  0.783019  0.829335  0.943328  1
  O  O21  1  0.220304  0.939254  0.813979  1
  O  O22  1  0.772474  0.818395  0.439628  1
  O  O23  1  0.221516  0.930932  0.302269  1
  O  O24  1  0.778187  0.578346  0.184948  1
  O  O25  1  0.220260  0.689296  0.063235  1
  O  O26  1  0.772641  0.568228  0.690532  1
  O  O27  1  0.226840  0.682015  0.560741  1
  O  O28  1  0.779740  0.310704  0.936765  1
  O  O29  1  0.221813  0.421654  0.815052  1
  O  O30  1  0.773160  0.317985  0.439259  1
  O  O31  1  0.227359  0.431772  0.309468  1
