# generated using pymatgen
data_Li2Sn(PO3)6
_symmetry_space_group_name_H-M   'P 1'
_cell_length_a   7.59079380
_cell_length_b   7.65430314
_cell_length_c   7.68790206
_cell_angle_alpha   106.45456241
_cell_angle_beta   101.24834294
_cell_angle_gamma   114.88806144
_symmetry_Int_Tables_number   1
_chemical_formula_structural   Li2Sn(PO3)6
_chemical_formula_sum   'Li2 Sn1 P6 O18'
_cell_volume   362.36533254
_cell_formula_units_Z   1
loop_
 _symmetry_equiv_pos_site_id
 _symmetry_equiv_pos_as_xyz
  1  'x, y, z'
loop_
 _atom_site_type_symbol
 _atom_site_label
 _atom_site_symmetry_multiplicity
 _atom_site_fract_x
 _atom_site_fract_y
 _atom_site_fract_z
 _atom_site_occupancy
  Li  Li0  1  0.516221  0.962522  0.423329  1
  Li  Li1  1  0.720672  0.866659  0.164570  1
  Sn  Sn2  1  0.242088  0.095178  0.831004  1
  P  P3  1  0.964985  0.296209  0.732476  1
  P  P4  1  0.316855  0.679885  0.790055  1
  P  P5  1  0.225881  0.281401  0.505212  1
  P  P6  1  0.815342  0.740699  0.514767  1
  P  P7  1  0.006579  0.687738  0.223670  1
  P  P8  1  0.670035  0.318092  0.231775  1
  O  O9  1  0.103657  0.274229  0.892089  1
  O  O10  1  0.471687  0.710578  0.960909  1
  O  O11  1  0.079988  0.544666  0.777286  1
  O  O12  1  0.741601  0.207428  0.696815  1
  O  O13  1  0.349319  0.229432  0.650481  1
  O  O14  1  0.001890  0.202237  0.532297  1
  O  O15  1  0.333785  0.875875  0.760782  1
  O  O16  1  0.933780  0.846041  0.738144  1
  O  O17  1  0.319255  0.535004  0.590850  1
  O  O18  1  0.203500  0.193859  0.300960  1
  O  O19  1  0.704552  0.487496  0.439407  1
  O  O20  1  0.639991  0.121825  0.251527  1
  O  O21  1  0.009893  0.799855  0.444481  1
  O  O22  1  0.667851  0.801296  0.432295  1
  O  O23  1  0.226509  0.751341  0.249209  1
  O  O24  1  0.881821  0.437714  0.198708  1
  O  O25  1  0.492340  0.299992  0.075052  1
  O  O26  1  0.866857  0.718518  0.087413  1
