# generated using pymatgen
data_Mn3Cr(PO4)4
_symmetry_space_group_name_H-M   'P 1'
_cell_length_a   4.86318219
_cell_length_b   5.97186359
_cell_length_c   9.85736148
_cell_angle_alpha   90.00000000
_cell_angle_beta   90.72199944
_cell_angle_gamma   90.00000000
_symmetry_Int_Tables_number   1
_chemical_formula_structural   Mn3Cr(PO4)4
_chemical_formula_sum   'Mn3 Cr1 P4 O16'
_cell_volume   286.25733227
_cell_formula_units_Z   1
loop_
 _symmetry_equiv_pos_site_id
 _symmetry_equiv_pos_as_xyz
  1  'x, y, z'
loop_
 _atom_site_type_symbol
 _atom_site_label
 _atom_site_symmetry_multiplicity
 _atom_site_fract_x
 _atom_site_fract_y
 _atom_site_fract_z
 _atom_site_occupancy
  Mn  Mn0  1  0.931628  0.500000  0.715424  1
  Mn  Mn1  1  0.565497  0.500000  0.219606  1
  Mn  Mn2  1  0.434495  0.000000  0.783275  1
  Cr  Cr3  1  0.037831  0.000000  0.275572  1
  P  P4  1  0.906815  0.000000  0.597849  1
  P  P5  1  0.588295  0.000000  0.096513  1
  P  P6  1  0.416225  0.500000  0.901162  1
  P  P7  1  0.090656  0.500000  0.401728  1
  O  O8  1  0.838068  0.000000  0.446559  1
  O  O9  1  0.765502  0.201188  0.671312  1
  O  O10  1  0.765502  0.798812  0.671312  1
  O  O11  1  0.774097  0.500000  0.382880  1
  O  O12  1  0.729520  0.500000  0.881165  1
  O  O13  1  0.743827  0.198378  0.172266  1
  O  O14  1  0.743827  0.801622  0.172266  1
  O  O15  1  0.659140  0.000000  0.945625  1
  O  O16  1  0.358074  0.500000  0.054551  1
  O  O17  1  0.269101  0.701479  0.830478  1
  O  O18  1  0.269101  0.298521  0.830478  1
  O  O19  1  0.279741  0.000000  0.115761  1
  O  O20  1  0.221805  0.000000  0.618983  1
  O  O21  1  0.229932  0.704257  0.330073  1
  O  O22  1  0.229932  0.295743  0.330073  1
  O  O23  1  0.151392  0.500000  0.555088  1
