# generated using pymatgen
data_LiVF3
_symmetry_space_group_name_H-M   'P 1'
_cell_length_a   5.01117832
_cell_length_b   5.37241856
_cell_length_c   8.90879702
_cell_angle_alpha   90.00000000
_cell_angle_beta   90.00000000
_cell_angle_gamma   90.00000000
_symmetry_Int_Tables_number   1
_chemical_formula_structural   LiVF3
_chemical_formula_sum   'Li4 V4 F12'
_cell_volume   239.84394665
_cell_formula_units_Z   4
loop_
 _symmetry_equiv_pos_site_id
 _symmetry_equiv_pos_as_xyz
  1  'x, y, z'
loop_
 _atom_site_type_symbol
 _atom_site_label
 _atom_site_symmetry_multiplicity
 _atom_site_fract_x
 _atom_site_fract_y
 _atom_site_fract_z
 _atom_site_occupancy
  Li  Li0  1  0.500000  0.250000  0.189546  1
  Li  Li1  1  0.500000  0.750000  0.810454  1
  Li  Li2  1  0.000000  0.750000  0.689546  1
  Li  Li3  1  0.000000  0.250000  0.310454  1
  V  V4  1  0.500000  0.750000  0.405416  1
  V  V5  1  0.500000  0.250000  0.594584  1
  V  V6  1  0.000000  0.750000  0.094584  1
  V  V7  1  0.000000  0.250000  0.905416  1
  F  F8  1  0.282067  0.915016  0.585469  1
  F  F9  1  0.282067  0.415016  0.414531  1
  F  F10  1  0.250000  0.447584  0.750000  1
  F  F11  1  0.250000  0.947584  0.250000  1
  F  F12  1  0.217933  0.915016  0.914531  1
  F  F13  1  0.217933  0.415016  0.085469  1
  F  F14  1  0.782067  0.084984  0.085469  1
  F  F15  1  0.782067  0.584984  0.914531  1
  F  F16  1  0.750000  0.052416  0.750000  1
  F  F17  1  0.750000  0.552416  0.250000  1
  F  F18  1  0.717933  0.084984  0.414531  1
  F  F19  1  0.717933  0.584984  0.585469  1
