# generated using pymatgen
data_Ba6CaI14
_symmetry_space_group_name_H-M   'P 1'
_cell_length_a   15.97622704
_cell_length_b   15.97622704
_cell_length_c   8.47072361
_cell_angle_alpha   90.00000000
_cell_angle_beta   90.00000000
_cell_angle_gamma   98.41038541
_symmetry_Int_Tables_number   1
_chemical_formula_structural   Ba6CaI14
_chemical_formula_sum   'Ba12 Ca2 I28'
_cell_volume   2138.81484893
_cell_formula_units_Z   2
loop_
 _symmetry_equiv_pos_site_id
 _symmetry_equiv_pos_as_xyz
  1  'x, y, z'
loop_
 _atom_site_type_symbol
 _atom_site_label
 _atom_site_symmetry_multiplicity
 _atom_site_fract_x
 _atom_site_fract_y
 _atom_site_fract_z
 _atom_site_occupancy
  Ba  Ba0  1  0.752984  0.051728  0.311837  1
  Ba  Ba1  1  0.948272  0.247016  0.688163  1
  Ba  Ba2  1  0.551728  0.252984  0.188163  1
  Ba  Ba3  1  0.747016  0.448272  0.811837  1
  Ba  Ba4  1  0.692997  0.692997  0.260365  1
  Ba  Ba5  1  0.192997  0.192997  0.239635  1
  Ba  Ba6  1  0.307003  0.307003  0.739635  1
  Ba  Ba7  1  0.807003  0.807003  0.760365  1
  Ba  Ba8  1  0.448272  0.747016  0.811837  1
  Ba  Ba9  1  0.252984  0.551728  0.188163  1
  Ba  Ba10  1  0.051728  0.752984  0.311837  1
  Ba  Ba11  1  0.247016  0.948272  0.688163  1
  Ca  Ca12  1  0.000000  0.000000  0.000000  1
  Ca  Ca13  1  0.500000  0.500000  0.500000  1
  I  I14  1  0.966024  0.149455  0.228951  1
  I  I15  1  0.850545  0.033976  0.771049  1
  I  I16  1  0.745845  0.254155  1.000000  1
  I  I17  1  0.950920  0.450920  0.750000  1
  I  I18  1  0.549080  0.049080  0.250000  1
  I  I19  1  0.754155  0.245845  0.500000  1
  I  I20  1  0.362738  0.160815  0.004743  1
  I  I21  1  0.339185  0.137262  0.504743  1
  I  I22  1  0.839185  0.637262  0.995257  1
  I  I23  1  0.862738  0.660815  0.495257  1
  I  I24  1  0.649455  0.466024  0.271049  1
  I  I25  1  0.533976  0.350545  0.728951  1
  I  I26  1  0.122227  0.122227  0.795533  1
  I  I27  1  0.377773  0.377773  0.295533  1
  I  I28  1  0.622227  0.622227  0.704467  1
  I  I29  1  0.877773  0.877773  0.204467  1
  I  I30  1  0.350545  0.533976  0.728951  1
  I  I31  1  0.466024  0.649455  0.271049  1
  I  I32  1  0.637262  0.839185  0.995257  1
  I  I33  1  0.137262  0.339185  0.504743  1
  I  I34  1  0.160815  0.362738  0.004743  1
  I  I35  1  0.660815  0.862738  0.495257  1
  I  I36  1  0.245845  0.754155  0.500000  1
  I  I37  1  0.049080  0.549080  0.250000  1
  I  I38  1  0.450920  0.950920  0.750000  1
  I  I39  1  0.254155  0.745845  0.000000  1
  I  I40  1  0.149455  0.966024  0.228951  1
  I  I41  1  0.033976  0.850545  0.771049  1
