# generated using pymatgen
data_VF5
_symmetry_space_group_name_H-M   'P 1'
_cell_length_a   5.06644542
_cell_length_b   5.76765941
_cell_length_c   12.94423742
_cell_angle_alpha   90.00000000
_cell_angle_beta   90.00000000
_cell_angle_gamma   90.00000000
_symmetry_Int_Tables_number   1
_chemical_formula_structural   VF5
_chemical_formula_sum   'V4 F20'
_cell_volume   378.25044283
_cell_formula_units_Z   4
loop_
 _symmetry_equiv_pos_site_id
 _symmetry_equiv_pos_as_xyz
  1  'x, y, z'
loop_
 _atom_site_type_symbol
 _atom_site_label
 _atom_site_symmetry_multiplicity
 _atom_site_fract_x
 _atom_site_fract_y
 _atom_site_fract_z
 _atom_site_occupancy
  V  V0  1  0.320283  0.110120  0.594065  1
  V  V1  1  0.820283  0.389880  0.405935  1
  V  V2  1  0.179717  0.889880  0.094065  1
  V  V3  1  0.679717  0.610120  0.905935  1
  F  F4  1  0.594002  0.091417  0.675461  1
  F  F5  1  0.127652  0.915227  0.663492  1
  F  F6  1  0.186101  0.360849  0.651745  1
  F  F7  1  0.531837  0.336579  0.509671  1
  F  F8  1  0.425549  0.902344  0.502647  1
  F  F9  1  0.925549  0.597656  0.497353  1
  F  F10  1  0.031837  0.163421  0.490329  1
  F  F11  1  0.686101  0.139151  0.348255  1
  F  F12  1  0.627652  0.584773  0.336508  1
  F  F13  1  0.094002  0.408583  0.324539  1
  F  F14  1  0.905998  0.908583  0.175461  1
  F  F15  1  0.372348  0.084773  0.163492  1
  F  F16  1  0.313899  0.639151  0.151745  1
  F  F17  1  0.968163  0.663421  0.009671  1
  F  F18  1  0.074451  0.097656  0.002647  1
  F  F19  1  0.574451  0.402344  0.997353  1
  F  F20  1  0.468163  0.836579  0.990329  1
  F  F21  1  0.813899  0.860849  0.848255  1
  F  F22  1  0.872348  0.415227  0.836508  1
  F  F23  1  0.405998  0.591417  0.824539  1
