# generated using pymatgen
data_Mn2FeO6
_symmetry_space_group_name_H-M   'P 1'
_cell_length_a   6.52134835
_cell_length_b   6.52134835
_cell_length_c   5.77516355
_cell_angle_alpha   79.07611485
_cell_angle_beta   100.92388515
_cell_angle_gamma   153.85480723
_symmetry_Int_Tables_number   1
_chemical_formula_structural   Mn2FeO6
_chemical_formula_sum   'Mn2 Fe1 O6'
_cell_volume   106.15782722
_cell_formula_units_Z   1
loop_
 _symmetry_equiv_pos_site_id
 _symmetry_equiv_pos_as_xyz
  1  'x, y, z'
loop_
 _atom_site_type_symbol
 _atom_site_label
 _atom_site_symmetry_multiplicity
 _atom_site_fract_x
 _atom_site_fract_y
 _atom_site_fract_z
 _atom_site_occupancy
  Mn  Mn0  1  0.167898  0.832102  0.334778  1
  Mn  Mn1  1  0.832102  0.167898  0.665222  1
  Fe  Fe2  1  0.500000  0.500000  0.000000  1
  O  O3  1  0.659844  0.340156  0.113510  1
  O  O4  1  0.322675  0.677325  0.441293  1
  O  O5  1  0.340156  0.659844  0.886490  1
  O  O6  1  0.987571  0.012429  0.768610  1
  O  O7  1  0.012429  0.987571  0.231390  1
  O  O8  1  0.677325  0.322675  0.558707  1
