# generated using pymatgen
data_TmTaO4
_symmetry_space_group_name_H-M   'P 1'
_cell_length_a   7.91822880
_cell_length_b   7.91822880
_cell_length_c   5.39936491
_cell_angle_alpha   90.00000000
_cell_angle_beta   90.00000000
_cell_angle_gamma   151.75819695
_symmetry_Int_Tables_number   1
_chemical_formula_structural   TmTaO4
_chemical_formula_sum   'Tm2 Ta2 O8'
_cell_volume   160.19083701
_cell_formula_units_Z   2
loop_
 _symmetry_equiv_pos_site_id
 _symmetry_equiv_pos_as_xyz
  1  'x, y, z'
loop_
 _atom_site_type_symbol
 _atom_site_label
 _atom_site_symmetry_multiplicity
 _atom_site_fract_x
 _atom_site_fract_y
 _atom_site_fract_z
 _atom_site_occupancy
  Tm  Tm0  1  0.198234  0.801766  0.120449  1
  Tm  Tm1  1  0.801766  0.198234  0.620449  1
  Ta  Ta2  1  0.414308  0.585692  0.191738  1
  Ta  Ta3  1  0.585692  0.414308  0.691738  1
  O  O4  1  0.100868  0.899132  0.751322  1
  O  O5  1  0.297805  0.702195  0.413007  1
  O  O6  1  0.331542  0.668458  0.912802  1
  O  O7  1  0.477730  0.522270  0.525881  1
  O  O8  1  0.522270  0.477730  0.025881  1
  O  O9  1  0.668458  0.331542  0.412802  1
  O  O10  1  0.702195  0.297805  0.913007  1
  O  O11  1  0.899132  0.100868  0.251322  1
