# generated using pymatgen
data_V6O7F5
_symmetry_space_group_name_H-M   'P 1'
_cell_length_a   4.68149445
_cell_length_b   5.61602092
_cell_length_c   7.80288063
_cell_angle_alpha   86.38536098
_cell_angle_beta   89.46263143
_cell_angle_gamma   88.94065167
_symmetry_Int_Tables_number   1
_chemical_formula_structural   V6O7F5
_chemical_formula_sum   'V6 O7 F5'
_cell_volume   204.69838790
_cell_formula_units_Z   1
loop_
 _symmetry_equiv_pos_site_id
 _symmetry_equiv_pos_as_xyz
  1  'x, y, z'
loop_
 _atom_site_type_symbol
 _atom_site_label
 _atom_site_symmetry_multiplicity
 _atom_site_fract_x
 _atom_site_fract_y
 _atom_site_fract_z
 _atom_site_occupancy
  V  V0  1  0.522408  0.162485  0.334224  1
  V  V1  1  0.465913  0.479026  0.985870  1
  V  V2  1  0.524514  0.823951  0.662214  1
  V  V3  1  0.995717  0.678407  0.322078  1
  V  V4  1  0.970355  0.344670  0.671918  1
  V  V5  1  0.013018  0.012372  0.016105  1
  O  O6  1  0.808877  0.630656  0.555708  1
  O  O7  1  0.784834  0.300639  0.910335  1
  O  O8  1  0.806012  0.965909  0.238100  1
  O  O9  1  0.691453  0.129676  0.569695  1
  O  O10  1  0.303216  0.532581  0.766563  1
  O  O11  1  0.304235  0.207367  0.106251  1
  O  O12  1  0.210313  0.695541  0.097932  1
  F  F13  1  0.707894  0.795909  0.901775  1
  F  F14  1  0.693150  0.470408  0.227035  1
  F  F15  1  0.304604  0.868969  0.433863  1
  F  F16  1  0.198426  0.032711  0.770827  1
  F  F17  1  0.195064  0.368724  0.429505  1
