# generated using pymatgen
data_Li4CoO4
_symmetry_space_group_name_H-M   'P 1'
_cell_length_a   6.24272050
_cell_length_b   6.24272050
_cell_length_c   4.76992008
_cell_angle_alpha   90.00000000
_cell_angle_beta   90.00000000
_cell_angle_gamma   90.00000000
_symmetry_Int_Tables_number   1
_chemical_formula_structural   Li4CoO4
_chemical_formula_sum   'Li8 Co2 O8'
_cell_volume   185.89122269
_cell_formula_units_Z   2
loop_
 _symmetry_equiv_pos_site_id
 _symmetry_equiv_pos_as_xyz
  1  'x, y, z'
loop_
 _atom_site_type_symbol
 _atom_site_label
 _atom_site_symmetry_multiplicity
 _atom_site_fract_x
 _atom_site_fract_y
 _atom_site_fract_z
 _atom_site_occupancy
  Li  Li0  1  0.700720  0.299280  0.500000  1
  Li  Li1  1  0.000000  0.500000  0.936143  1
  Li  Li2  1  0.000000  0.500000  0.436143  1
  Li  Li3  1  0.299280  0.700720  0.500000  1
  Li  Li4  1  0.799280  0.799280  0.000000  1
  Li  Li5  1  0.500000  0.000000  0.063857  1
  Li  Li6  1  0.500000  0.000000  0.563857  1
  Li  Li7  1  0.200720  0.200720  0.000000  1
  Co  Co8  1  0.500000  0.500000  0.000000  1
  Co  Co9  1  0.000000  0.000000  0.500000  1
  O  O10  1  0.987764  0.248272  0.696311  1
  O  O11  1  0.251728  0.487764  0.196311  1
  O  O12  1  0.748272  0.512236  0.196311  1
  O  O13  1  0.012236  0.751728  0.696311  1
  O  O14  1  0.512236  0.748272  0.803689  1
  O  O15  1  0.751728  0.012236  0.303689  1
  O  O16  1  0.248272  0.987764  0.303689  1
  O  O17  1  0.487764  0.251728  0.803689  1
