# generated using pymatgen
data_Li4Fe2Si3O10
_symmetry_space_group_name_H-M   'P 1'
_cell_length_a   5.36603332
_cell_length_b   5.36603332
_cell_length_c   17.21453147
_cell_angle_alpha   81.84827368
_cell_angle_beta   98.15172632
_cell_angle_gamma   119.22082691
_symmetry_Int_Tables_number   1
_chemical_formula_structural   Li4Fe2Si3O10
_chemical_formula_sum   'Li8 Fe4 Si6 O20'
_cell_volume   426.71798105
_cell_formula_units_Z   2
loop_
 _symmetry_equiv_pos_site_id
 _symmetry_equiv_pos_as_xyz
  1  'x, y, z'
loop_
 _atom_site_type_symbol
 _atom_site_label
 _atom_site_symmetry_multiplicity
 _atom_site_fract_x
 _atom_site_fract_y
 _atom_site_fract_z
 _atom_site_occupancy
  Li  Li0  1  0.826995  0.317350  0.051803  1
  Li  Li1  1  0.577162  0.205881  0.228292  1
  Li  Li2  1  0.682650  0.173005  0.551803  1
  Li  Li3  1  0.794119  0.422838  0.728292  1
  Li  Li4  1  0.205881  0.577162  0.271708  1
  Li  Li5  1  0.317350  0.826995  0.448197  1
  Li  Li6  1  0.422838  0.794119  0.771708  1
  Li  Li7  1  0.173005  0.682650  0.948197  1
  Fe  Fe8  1  0.196700  0.988033  0.084129  1
  Fe  Fe9  1  0.011967  0.803300  0.584129  1
  Fe  Fe10  1  0.988033  0.196700  0.415871  1
  Fe  Fe11  1  0.803300  0.011967  0.915871  1
  Si  Si12  1  0.660711  0.532865  0.401236  1
  Si  Si13  1  0.885677  0.885677  0.250000  1
  Si  Si14  1  0.532865  0.660711  0.098764  1
  Si  Si15  1  0.467135  0.339289  0.901236  1
  Si  Si16  1  0.114323  0.114323  0.750000  1
  Si  Si17  1  0.339289  0.467135  0.598764  1
  O  O18  1  0.918321  0.162849  0.286866  1
  O  O19  1  0.837151  0.081679  0.786866  1
  O  O20  1  0.619025  0.215988  0.434646  1
  O  O21  1  0.556511  0.363532  0.109659  1
  O  O22  1  0.780960  0.590827  0.312225  1
  O  O23  1  0.783593  0.920151  0.047283  1
  O  O24  1  0.920151  0.783593  0.452717  1
  O  O25  1  0.784012  0.380975  0.934646  1
  O  O26  1  0.636468  0.443489  0.609659  1
  O  O27  1  0.590827  0.780960  0.187775  1
  O  O28  1  0.409173  0.219040  0.812225  1
  O  O29  1  0.363532  0.556511  0.390341  1
  O  O30  1  0.215988  0.619025  0.065354  1
  O  O31  1  0.079849  0.216407  0.547283  1
  O  O32  1  0.216407  0.079849  0.952717  1
  O  O33  1  0.219040  0.409173  0.687775  1
  O  O34  1  0.443489  0.636468  0.890341  1
  O  O35  1  0.380975  0.784012  0.565354  1
  O  O36  1  0.162849  0.918321  0.213134  1
  O  O37  1  0.081679  0.837151  0.713134  1
