# generated using pymatgen
data_Ti2Mn3Co3O16
_symmetry_space_group_name_H-M   'P 1'
_cell_length_a   5.67722820
_cell_length_b   5.67722820
_cell_length_c   9.02587271
_cell_angle_alpha   89.30135283
_cell_angle_beta   90.69864717
_cell_angle_gamma   119.76164126
_symmetry_Int_Tables_number   1
_chemical_formula_structural   Ti2Mn3Co3O16
_chemical_formula_sum   'Ti2 Mn3 Co3 O16'
_cell_volume   252.51518332
_cell_formula_units_Z   1
loop_
 _symmetry_equiv_pos_site_id
 _symmetry_equiv_pos_as_xyz
  1  'x, y, z'
loop_
 _atom_site_type_symbol
 _atom_site_label
 _atom_site_symmetry_multiplicity
 _atom_site_fract_x
 _atom_site_fract_y
 _atom_site_fract_z
 _atom_site_occupancy
  Ti  Ti0  1  0.334784  0.665216  0.504862  1
  Ti  Ti1  1  0.666724  0.333276  0.003184  1
  Mn  Mn2  1  0.167185  0.832815  0.786547  1
  Mn  Mn3  1  0.335784  0.168636  0.286116  1
  Mn  Mn4  1  0.831364  0.664216  0.286116  1
  Co  Co5  1  0.167143  0.337311  0.787707  1
  Co  Co6  1  0.662689  0.832857  0.787707  1
  Co  Co7  1  0.831535  0.168465  0.288172  1
  O  O8  1  0.161579  0.330112  0.398902  1
  O  O9  1  0.479964  0.520036  0.672133  1
  O  O10  1  0.334366  0.665634  0.895634  1
  O  O11  1  0.997309  0.002691  0.683038  1
  O  O12  1  0.998554  0.001446  0.181445  1
  O  O13  1  0.669888  0.838421  0.398902  1
  O  O14  1  0.037995  0.516250  0.666680  1
  O  O15  1  0.483750  0.962005  0.666680  1
  O  O16  1  0.837286  0.162714  0.894775  1
  O  O17  1  0.167248  0.832752  0.401849  1
  O  O18  1  0.523609  0.037707  0.167377  1
  O  O19  1  0.962293  0.476391  0.167377  1
  O  O20  1  0.666643  0.333357  0.396793  1
  O  O21  1  0.332715  0.168749  0.899543  1
  O  O22  1  0.518110  0.481890  0.163304  1
  O  O23  1  0.831251  0.667285  0.899543  1
