# generated using pymatgen
data_Li3Fe2(PO4)3
_symmetry_space_group_name_H-M   'P 1'
_cell_length_a   8.39074740
_cell_length_b   8.41317454
_cell_length_c   9.05010383
_cell_angle_alpha   117.68348244
_cell_angle_beta   90.02471110
_cell_angle_gamma   119.87948051
_symmetry_Int_Tables_number   1
_chemical_formula_structural   Li3Fe2(PO4)3
_chemical_formula_sum   'Li6 Fe4 P6 O24'
_cell_volume   467.63482105
_cell_formula_units_Z   2
loop_
 _symmetry_equiv_pos_site_id
 _symmetry_equiv_pos_as_xyz
  1  'x, y, z'
loop_
 _atom_site_type_symbol
 _atom_site_label
 _atom_site_symmetry_multiplicity
 _atom_site_fract_x
 _atom_site_fract_y
 _atom_site_fract_z
 _atom_site_occupancy
  Li  Li0  1  0.081192  0.271284  0.148266  1
  Li  Li1  1  0.329198  0.922384  0.141946  1
  Li  Li2  1  0.745297  0.557434  0.380162  1
  Li  Li3  1  0.267152  0.325929  0.864481  1
  Li  Li4  1  0.671335  0.069167  0.864504  1
  Li  Li5  1  0.922419  0.733128  0.863166  1
  Fe  Fe6  1  0.357336  0.656175  0.046761  1
  Fe  Fe7  1  0.150446  0.853007  0.441202  1
  Fe  Fe8  1  0.857258  0.146779  0.561093  1
  Fe  Fe9  1  0.653157  0.350272  0.956149  1
  P  P10  1  0.039291  0.544715  0.244410  1
  P  P11  1  0.458257  0.251151  0.253602  1
  P  P12  1  0.750840  0.956922  0.251454  1
  P  P13  1  0.252837  0.040909  0.753209  1
  P  P14  1  0.537821  0.747223  0.748991  1
  P  P15  1  0.960151  0.451071  0.757812  1
  O  O16  1  0.173482  0.511281  0.195793  1
  O  O17  1  0.133448  0.750405  0.260816  1
  O  O18  1  0.997646  0.393462  0.413744  1
  O  O19  1  0.461595  0.209957  0.101556  1
  O  O20  1  0.252495  0.123503  0.270872  1
  O  O21  1  0.492552  0.466800  0.203055  1
  O  O22  1  0.533319  0.833361  0.195799  1
  O  O23  1  0.795490  0.147578  0.094924  1
  O  O24  1  0.846924  0.535683  0.089237  1
  O  O25  1  0.198211  0.997691  0.586415  1
  O  O26  1  0.126860  0.141257  0.731470  1
  O  O27  1  0.384976  0.795424  0.574617  1
  O  O28  1  0.617030  0.210584  0.424324  1
  O  O29  1  0.871369  0.844625  0.286744  1
  O  O30  1  0.799964  0.004970  0.413652  1
  O  O31  1  0.157587  0.458427  0.907667  1
  O  O32  1  0.210478  0.846968  0.908314  1
  O  O33  1  0.469229  0.166794  0.809877  1
  O  O34  1  0.504258  0.530034  0.809448  1
  O  O35  1  0.743493  0.872495  0.731169  1
  O  O36  1  0.523046  0.794554  0.890002  1
  O  O37  1  0.987592  0.600766  0.581733  1
  O  O38  1  0.864485  0.246023  0.740933  1
  O  O39  1  0.833000  0.489600  0.808549  1
