# generated using pymatgen
data_Li6MnCoP2(CO7)2
_symmetry_space_group_name_H-M   'P 1'
_cell_length_a   4.99583740
_cell_length_b   6.53169119
_cell_length_c   8.48773087
_cell_angle_alpha   90.00000000
_cell_angle_beta   94.44843712
_cell_angle_gamma   90.00000000
_symmetry_Int_Tables_number   1
_chemical_formula_structural   Li6MnCoP2(CO7)2
_chemical_formula_sum   'Li6 Mn1 Co1 P2 C2 O14'
_cell_volume   276.13106587
_cell_formula_units_Z   1
loop_
 _symmetry_equiv_pos_site_id
 _symmetry_equiv_pos_as_xyz
  1  'x, y, z'
loop_
 _atom_site_type_symbol
 _atom_site_label
 _atom_site_symmetry_multiplicity
 _atom_site_fract_x
 _atom_site_fract_y
 _atom_site_fract_z
 _atom_site_occupancy
  Li  Li0  1  0.758688  0.500000  0.908409  1
  Li  Li1  1  0.246096  0.273742  0.726205  1
  Li  Li2  1  0.246096  0.726258  0.726205  1
  Li  Li3  1  0.753881  0.776743  0.274250  1
  Li  Li4  1  0.753881  0.223257  0.274250  1
  Li  Li5  1  0.239629  0.000000  0.092672  1
  Mn  Mn6  1  0.221267  0.500000  0.340759  1
  Co  Co7  1  0.793563  0.000000  0.665056  1
  P  P8  1  0.718696  0.500000  0.589410  1
  P  P9  1  0.278977  0.000000  0.412750  1
  C  C10  1  0.703963  0.000000  0.963668  1
  C  C11  1  0.295871  0.500000  0.033059  1
  O  O12  1  0.950403  0.000000  0.926485  1
  O  O13  1  0.355611  0.500000  0.886170  1
  O  O14  1  0.512091  0.000000  0.849978  1
  O  O15  1  0.827419  0.312976  0.689116  1
  O  O16  1  0.827419  0.687024  0.689116  1
  O  O17  1  0.175709  0.000000  0.580334  1
  O  O18  1  0.405226  0.500000  0.576543  1
  O  O19  1  0.592969  0.000000  0.431679  1
  O  O20  1  0.810906  0.500000  0.419636  1
  O  O21  1  0.173711  0.184280  0.310012  1
  O  O22  1  0.173711  0.815720  0.310012  1
  O  O23  1  0.490120  0.500000  0.144626  1
  O  O24  1  0.644179  0.000000  0.109985  1
  O  O25  1  0.049918  0.500000  0.069616  1
