# generated using pymatgen
data_Li3Fe(CoO3)2
_symmetry_space_group_name_H-M   'P 1'
_cell_length_a   6.45494527
_cell_length_b   6.45494527
_cell_length_c   5.75609967
_cell_angle_alpha   76.31832817
_cell_angle_beta   103.68167183
_cell_angle_gamma   154.56029590
_symmetry_Int_Tables_number   1
_chemical_formula_structural   Li3Fe(CoO3)2
_chemical_formula_sum   'Li3 Fe1 Co2 O6'
_cell_volume   99.94941350
_cell_formula_units_Z   1
loop_
 _symmetry_equiv_pos_site_id
 _symmetry_equiv_pos_as_xyz
  1  'x, y, z'
loop_
 _atom_site_type_symbol
 _atom_site_label
 _atom_site_symmetry_multiplicity
 _atom_site_fract_x
 _atom_site_fract_y
 _atom_site_fract_z
 _atom_site_occupancy
  Li  Li0  1  0.330370  0.669630  0.663076  1
  Li  Li1  1  0.000000  1.000000  0.000000  1
  Li  Li2  1  0.669630  0.330370  0.336924  1
  Fe  Fe3  1  0.000000  1.000000  0.500000  1
  Co  Co4  1  0.332482  0.667518  0.164693  1
  Co  Co5  1  0.667518  0.332482  0.835307  1
  O  O6  1  0.838736  0.161264  0.396720  1
  O  O7  1  0.508363  0.491637  0.737008  1
  O  O8  1  0.174665  0.825335  0.066595  1
  O  O9  1  0.491637  0.508363  0.262992  1
  O  O10  1  0.161264  0.838736  0.603280  1
  O  O11  1  0.825335  0.174665  0.933405  1
