# generated using pymatgen
data_Li6V3Sb3O16
_symmetry_space_group_name_H-M   'P 1'
_cell_length_a   6.05881777
_cell_length_b   6.11989684
_cell_length_c   10.07365408
_cell_angle_alpha   90.33604995
_cell_angle_beta   89.99103354
_cell_angle_gamma   119.64136722
_symmetry_Int_Tables_number   1
_chemical_formula_structural   Li6V3Sb3O16
_chemical_formula_sum   'Li6 V3 Sb3 O16'
_cell_volume   324.63711388
_cell_formula_units_Z   1
loop_
 _symmetry_equiv_pos_site_id
 _symmetry_equiv_pos_as_xyz
  1  'x, y, z'
loop_
 _atom_site_type_symbol
 _atom_site_label
 _atom_site_symmetry_multiplicity
 _atom_site_fract_x
 _atom_site_fract_y
 _atom_site_fract_z
 _atom_site_occupancy
  Li  Li0  1  0.663996  0.328187  0.506699  1
  Li  Li1  1  0.668312  0.336931  0.879444  1
  Li  Li2  1  0.988094  0.976475  0.997476  1
  Li  Li3  1  0.995083  0.990150  0.502958  1
  Li  Li4  1  0.337467  0.674885  0.002730  1
  Li  Li5  1  0.329456  0.659111  0.388404  1
  V  V6  1  0.176808  0.838969  0.718209  1
  V  V7  1  0.832535  0.665192  0.216793  1
  V  V8  1  0.668549  0.831011  0.713212  1
  Sb  Sb9  1  0.336233  0.169140  0.215279  1
  Sb  Sb10  1  0.832802  0.169147  0.215288  1
  Sb  Sb11  1  0.169171  0.340174  0.715492  1
  O  O12  1  0.305137  0.151493  0.609284  1
  O  O13  1  0.513560  0.027194  0.328401  1
  O  O14  1  0.662206  0.324539  0.101352  1
  O  O15  1  0.004711  0.009496  0.322638  1
  O  O16  1  0.002384  0.004785  0.818261  1
  O  O17  1  0.845034  0.151583  0.609531  1
  O  O18  1  0.508520  0.481724  0.321783  1
  O  O19  1  0.973070  0.481712  0.321808  1
  O  O20  1  0.151646  0.303439  0.102120  1
  O  O21  1  0.848684  0.703545  0.618603  1
  O  O22  1  0.029899  0.521231  0.821947  1
  O  O23  1  0.489749  0.521498  0.822361  1
  O  O24  1  0.333432  0.667324  0.605283  1
  O  O25  1  0.159159  0.852420  0.110373  1
  O  O26  1  0.480812  0.966186  0.811738  1
  O  O27  1  0.693190  0.852460  0.110374  1
