# generated using pymatgen
data_Co3SnO8
_symmetry_space_group_name_H-M   'P 1'
_cell_length_a   5.67547687
_cell_length_b   5.67547687
_cell_length_c   9.39117031
_cell_angle_alpha   90.00000000
_cell_angle_beta   90.00000000
_cell_angle_gamma   120.00000000
_symmetry_Int_Tables_number   1
_chemical_formula_structural   Co3SnO8
_chemical_formula_sum   'Co6 Sn2 O16'
_cell_volume   261.97211398
_cell_formula_units_Z   2
loop_
 _symmetry_equiv_pos_site_id
 _symmetry_equiv_pos_as_xyz
  1  'x, y, z'
loop_
 _atom_site_type_symbol
 _atom_site_label
 _atom_site_symmetry_multiplicity
 _atom_site_fract_x
 _atom_site_fract_y
 _atom_site_fract_z
 _atom_site_occupancy
  Co  Co0  1  0.167531  0.832469  0.212811  1
  Co  Co1  1  0.167531  0.335061  0.212811  1
  Co  Co2  1  0.664939  0.832469  0.212811  1
  Co  Co3  1  0.335061  0.167531  0.712811  1
  Co  Co4  1  0.832469  0.664939  0.712811  1
  Co  Co5  1  0.832469  0.167531  0.712811  1
  Sn  Sn6  1  0.333333  0.666667  0.491473  1
  Sn  Sn7  1  0.666667  0.333333  0.991473  1
  O  O8  1  0.156528  0.843472  0.609077  1
  O  O9  1  0.032091  0.516046  0.325341  1
  O  O10  1  0.333333  0.666667  0.109012  1
  O  O11  1  0.000000  0.000000  0.315973  1
  O  O12  1  0.000000  0.000000  0.815973  1
  O  O13  1  0.156528  0.313055  0.609077  1
  O  O14  1  0.483954  0.967909  0.325341  1
  O  O15  1  0.483954  0.516046  0.325341  1
  O  O16  1  0.313055  0.156528  0.109077  1
  O  O17  1  0.686945  0.843472  0.609077  1
  O  O18  1  0.516046  0.483954  0.825341  1
  O  O19  1  0.516046  0.032091  0.825341  1
  O  O20  1  0.666667  0.333333  0.609012  1
  O  O21  1  0.843472  0.686945  0.109077  1
  O  O22  1  0.967909  0.483954  0.825341  1
  O  O23  1  0.843472  0.156528  0.109077  1
