# generated using pymatgen
data_Gd3SbO7
_symmetry_space_group_name_H-M   'P 1'
_cell_length_a   6.51296777
_cell_length_b   6.55228333
_cell_length_c   7.66518544
_cell_angle_alpha   106.84645397
_cell_angle_beta   89.84675440
_cell_angle_gamma   97.98955548
_symmetry_Int_Tables_number   1
_chemical_formula_structural   Gd3SbO7
_chemical_formula_sum   'Gd6 Sb2 O14'
_cell_volume   309.78933664
_cell_formula_units_Z   2
loop_
 _symmetry_equiv_pos_site_id
 _symmetry_equiv_pos_as_xyz
  1  'x, y, z'
loop_
 _atom_site_type_symbol
 _atom_site_label
 _atom_site_symmetry_multiplicity
 _atom_site_fract_x
 _atom_site_fract_y
 _atom_site_fract_z
 _atom_site_occupancy
  Gd  Gd0  1  0.736971  0.466489  0.117932  1
  Gd  Gd1  1  0.739614  0.476517  0.615944  1
  Gd  Gd2  1  0.539632  0.995894  0.748299  1
  Gd  Gd3  1  0.460368  0.004106  0.251701  1
  Gd  Gd4  1  0.260386  0.523483  0.384056  1
  Gd  Gd5  1  0.263029  0.533511  0.882068  1
  Sb  Sb6  1  0.000000  0.000000  0.000000  1
  Sb  Sb7  1  0.000000  0.000000  0.500000  1
  O  O8  1  0.712274  0.060837  0.483967  1
  O  O9  1  0.924038  0.681519  0.955440  1
  O  O10  1  0.711335  0.067338  0.046266  1
  O  O11  1  0.930772  0.671377  0.388742  1
  O  O12  1  0.903611  0.931684  0.732460  1
  O  O13  1  0.560157  0.355002  0.834187  1
  O  O14  1  0.548542  0.362174  0.344655  1
  O  O15  1  0.451458  0.637826  0.655345  1
  O  O16  1  0.439843  0.644998  0.165813  1
  O  O17  1  0.096389  0.068316  0.267540  1
  O  O18  1  0.069228  0.328623  0.611258  1
  O  O19  1  0.288665  0.932662  0.953734  1
  O  O20  1  0.075962  0.318481  0.044560  1
  O  O21  1  0.287726  0.939163  0.516033  1
