# generated using pymatgen
data_V5Co(PO4)6
_symmetry_space_group_name_H-M   'P 1'
_cell_length_a   8.53241110
_cell_length_b   8.53241110
_cell_length_c   8.53241110
_cell_angle_alpha   60.94848032
_cell_angle_beta   60.94848032
_cell_angle_gamma   60.94848032
_symmetry_Int_Tables_number   1
_chemical_formula_structural   V5Co(PO4)6
_chemical_formula_sum   'V5 Co1 P6 O24'
_cell_volume   448.62574903
_cell_formula_units_Z   1
loop_
 _symmetry_equiv_pos_site_id
 _symmetry_equiv_pos_as_xyz
  1  'x, y, z'
loop_
 _atom_site_type_symbol
 _atom_site_label
 _atom_site_symmetry_multiplicity
 _atom_site_fract_x
 _atom_site_fract_y
 _atom_site_fract_z
 _atom_site_occupancy
  V  V0  1  0.002539  0.002539  0.002539  1
  V  V1  1  0.644931  0.644931  0.644931  1
  V  V2  1  0.500445  0.500445  0.500445  1
  V  V3  1  0.857750  0.857750  0.857750  1
  V  V4  1  0.355183  0.355183  0.355183  1
  Co  Co5  1  0.145799  0.145799  0.145799  1
  P  P6  1  0.955476  0.249626  0.544811  1
  P  P7  1  0.544811  0.955476  0.249626  1
  P  P8  1  0.249626  0.544811  0.955476  1
  P  P9  1  0.749180  0.454799  0.043544  1
  P  P10  1  0.454799  0.043544  0.749180  1
  P  P11  1  0.043544  0.749180  0.454799  1
  O  O12  1  0.497113  0.115957  0.320145  1
  O  O13  1  0.320145  0.497113  0.115957  1
  O  O14  1  0.115957  0.320145  0.497113  1
  O  O15  1  0.945257  0.095050  0.745976  1
  O  O16  1  0.984993  0.184293  0.395288  1
  O  O17  1  0.757026  0.413442  0.567381  1
  O  O18  1  0.745976  0.945257  0.095050  1
  O  O19  1  0.567381  0.757026  0.413442  1
  O  O20  1  0.813002  0.611111  0.006336  1
  O  O21  1  0.413442  0.567381  0.757026  1
  O  O22  1  0.902729  0.257811  0.051141  1
  O  O23  1  0.611111  0.006336  0.813002  1
  O  O24  1  0.395288  0.984993  0.184293  1
  O  O25  1  0.095050  0.745976  0.945257  1
  O  O26  1  0.585594  0.438037  0.241960  1
  O  O27  1  0.184293  0.395288  0.984993  1
  O  O28  1  0.438037  0.241960  0.585594  1
  O  O29  1  0.257811  0.051141  0.902729  1
  O  O30  1  0.241960  0.585594  0.438037  1
  O  O31  1  0.006336  0.813002  0.611111  1
  O  O32  1  0.051141  0.902729  0.257811  1
  O  O33  1  0.886572  0.672758  0.506961  1
  O  O34  1  0.672758  0.506961  0.886572  1
  O  O35  1  0.506961  0.886572  0.672758  1
