# generated using pymatgen
data_Li3VSiCO7
_symmetry_space_group_name_H-M   'P 1'
_cell_length_a   5.05581593
_cell_length_b   6.48054384
_cell_length_c   8.38732679
_cell_angle_alpha   90.00000000
_cell_angle_beta   94.49823109
_cell_angle_gamma   90.00000000
_symmetry_Int_Tables_number   1
_chemical_formula_structural   Li3VSiCO7
_chemical_formula_sum   'Li6 V2 Si2 C2 O14'
_cell_volume   273.95956856
_cell_formula_units_Z   2
loop_
 _symmetry_equiv_pos_site_id
 _symmetry_equiv_pos_as_xyz
  1  'x, y, z'
loop_
 _atom_site_type_symbol
 _atom_site_label
 _atom_site_symmetry_multiplicity
 _atom_site_fract_x
 _atom_site_fract_y
 _atom_site_fract_z
 _atom_site_occupancy
  Li  Li0  1  0.231710  0.750000  0.108130  1
  Li  Li1  1  0.761872  0.961838  0.291063  1
  Li  Li2  1  0.761872  0.538162  0.291063  1
  Li  Li3  1  0.238128  0.461838  0.708937  1
  Li  Li4  1  0.238128  0.038162  0.708937  1
  Li  Li5  1  0.768290  0.250000  0.891870  1
  V  V6  1  0.192451  0.250000  0.319416  1
  V  V7  1  0.807549  0.750000  0.680584  1
  Si  Si8  1  0.290222  0.750000  0.420767  1
  Si  Si9  1  0.709778  0.250000  0.579233  1
  C  C10  1  0.296692  0.250000  0.028334  1
  C  C11  1  0.703308  0.750000  0.971666  1
  O  O12  1  0.637774  0.750000  0.116535  1
  O  O13  1  0.051206  0.250000  0.064773  1
  O  O14  1  0.477924  0.250000  0.148506  1
  O  O15  1  0.183338  0.943948  0.304650  1
  O  O16  1  0.183338  0.556052  0.304650  1
  O  O17  1  0.615999  0.750000  0.449653  1
  O  O18  1  0.835576  0.250000  0.404964  1
  O  O19  1  0.164424  0.750000  0.595036  1
  O  O20  1  0.384001  0.250000  0.550347  1
  O  O21  1  0.816662  0.443948  0.695350  1
  O  O22  1  0.816662  0.056052  0.695350  1
  O  O23  1  0.522076  0.750000  0.851494  1
  O  O24  1  0.948794  0.750000  0.935227  1
  O  O25  1  0.362226  0.250000  0.883465  1
