# generated using pymatgen
data_Li2(FeO2)3
_symmetry_space_group_name_H-M   'P 1'
_cell_length_a   5.12841811
_cell_length_b   5.13666045
_cell_length_c   10.51394238
_cell_angle_alpha   90.61460774
_cell_angle_beta   103.72342772
_cell_angle_gamma   119.40953176
_symmetry_Int_Tables_number   1
_chemical_formula_structural   Li2(FeO2)3
_chemical_formula_sum   'Li4 Fe6 O12'
_cell_volume   231.72428163
_cell_formula_units_Z   2
loop_
 _symmetry_equiv_pos_site_id
 _symmetry_equiv_pos_as_xyz
  1  'x, y, z'
loop_
 _atom_site_type_symbol
 _atom_site_label
 _atom_site_symmetry_multiplicity
 _atom_site_fract_x
 _atom_site_fract_y
 _atom_site_fract_z
 _atom_site_occupancy
  Li  Li0  1  0.846844  0.254845  0.741763  1
  Li  Li1  1  0.512053  0.426362  0.241727  1
  Li  Li2  1  0.156167  0.758206  0.243439  1
  Li  Li3  1  0.165827  0.923802  0.743251  1
  Fe  Fe4  1  0.980084  0.161614  0.481928  1
  Fe  Fe5  1  0.003156  0.333899  0.007273  1
  Fe  Fe6  1  0.669793  0.499469  0.507690  1
  Fe  Fe7  1  0.652281  0.652236  0.981784  1
  Fe  Fe8  1  0.334441  0.831405  0.506600  1
  Fe  Fe9  1  0.340720  0.998646  0.007201  1
  O  O10  1  0.088932  0.031825  0.107293  1
  O  O11  1  0.392716  0.174468  0.606622  1
  O  O12  1  0.576172  0.133046  0.389128  1
  O  O13  1  0.243684  0.273029  0.890391  1
  O  O14  1  0.737460  0.386810  0.107249  1
  O  O15  1  0.059221  0.529133  0.610363  1
  O  O16  1  0.276655  0.490325  0.398570  1
  O  O17  1  0.940796  0.626244  0.890232  1
  O  O18  1  0.402295  0.694786  0.108236  1
  O  O19  1  0.740015  0.884043  0.604799  1
  O  O20  1  0.937853  0.785833  0.393931  1
  O  O21  1  0.587729  0.972418  0.897458  1
