# generated using pymatgen
data_V6O7F5
_symmetry_space_group_name_H-M   'P 1'
_cell_length_a   4.64540952
_cell_length_b   5.62902154
_cell_length_c   7.81123015
_cell_angle_alpha   87.04639421
_cell_angle_beta   89.13443782
_cell_angle_gamma   89.14425982
_symmetry_Int_Tables_number   1
_chemical_formula_structural   V6O7F5
_chemical_formula_sum   'V6 O7 F5'
_cell_volume   203.94160693
_cell_formula_units_Z   1
loop_
 _symmetry_equiv_pos_site_id
 _symmetry_equiv_pos_as_xyz
  1  'x, y, z'
loop_
 _atom_site_type_symbol
 _atom_site_label
 _atom_site_symmetry_multiplicity
 _atom_site_fract_x
 _atom_site_fract_y
 _atom_site_fract_z
 _atom_site_occupancy
  V  V0  1  0.532960  0.843933  0.652708  1
  V  V1  1  0.501715  0.496835  0.002199  1
  V  V2  1  0.476981  0.173763  0.351746  1
  V  V3  1  0.999703  0.322122  0.693758  1
  V  V4  1  0.987273  0.662306  0.319157  1
  V  V5  1  0.987214  0.991330  0.993037  1
  O  O6  1  0.807130  0.700881  0.091463  1
  O  O7  1  0.798569  0.041231  0.769629  1
  O  O8  1  0.713614  0.532667  0.760343  1
  O  O9  1  0.699100  0.876997  0.424279  1
  O  O10  1  0.283684  0.148314  0.569397  1
  O  O11  1  0.309109  0.464321  0.233059  1
  O  O12  1  0.197818  0.284939  0.904725  1
  F  F13  1  0.803662  0.368827  0.442744  1
  F  F14  1  0.699642  0.194966  0.114277  1
  F  F15  1  0.305169  0.795465  0.886665  1
  F  F16  1  0.198940  0.964439  0.224762  1
  F  F17  1  0.197716  0.636664  0.566052  1
