# generated using pymatgen
data_Li2VF5
_symmetry_space_group_name_H-M   'P 1'
_cell_length_a   5.35157365
_cell_length_b   7.72448348
_cell_length_c   10.09109256
_cell_angle_alpha   90.00000000
_cell_angle_beta   90.00000000
_cell_angle_gamma   90.00000000
_symmetry_Int_Tables_number   1
_chemical_formula_structural   Li2VF5
_chemical_formula_sum   'Li8 V4 F20'
_cell_volume   417.14701972
_cell_formula_units_Z   4
loop_
 _symmetry_equiv_pos_site_id
 _symmetry_equiv_pos_as_xyz
  1  'x, y, z'
loop_
 _atom_site_type_symbol
 _atom_site_label
 _atom_site_symmetry_multiplicity
 _atom_site_fract_x
 _atom_site_fract_y
 _atom_site_fract_z
 _atom_site_occupancy
  Li  Li0  1  0.815826  0.139310  0.502527  1
  Li  Li1  1  0.815826  0.139310  0.997473  1
  Li  Li2  1  0.315826  0.360690  0.002527  1
  Li  Li3  1  0.315826  0.360690  0.497473  1
  Li  Li4  1  0.684174  0.639310  0.502527  1
  Li  Li5  1  0.684174  0.639310  0.997473  1
  Li  Li6  1  0.184174  0.860690  0.002527  1
  Li  Li7  1  0.184174  0.860690  0.497473  1
  V  V8  1  0.290992  0.117966  0.250000  1
  V  V9  1  0.790992  0.382034  0.750000  1
  V  V10  1  0.209008  0.617966  0.250000  1
  V  V11  1  0.709008  0.882034  0.750000  1
  F  F12  1  0.056616  0.053978  0.114439  1
  F  F13  1  0.056616  0.053978  0.385561  1
  F  F14  1  0.622481  0.140502  0.750000  1
  F  F15  1  0.512265  0.180414  0.100200  1
  F  F16  1  0.512265  0.180414  0.399800  1
  F  F17  1  0.012265  0.319586  0.600200  1
  F  F18  1  0.012265  0.319586  0.899800  1
  F  F19  1  0.122481  0.359498  0.250000  1
  F  F20  1  0.556616  0.446022  0.614439  1
  F  F21  1  0.556616  0.446022  0.885561  1
  F  F22  1  0.443384  0.553978  0.114439  1
  F  F23  1  0.443384  0.553978  0.385561  1
  F  F24  1  0.877519  0.640502  0.750000  1
  F  F25  1  0.987735  0.680414  0.100200  1
  F  F26  1  0.987735  0.680414  0.399800  1
  F  F27  1  0.487735  0.819586  0.600200  1
  F  F28  1  0.487735  0.819586  0.899800  1
  F  F29  1  0.377519  0.859498  0.250000  1
  F  F30  1  0.943384  0.946022  0.614439  1
  F  F31  1  0.943384  0.946022  0.885561  1
