# generated using pymatgen
data_Gd3NbO7
_symmetry_space_group_name_H-M   'P 1'
_cell_length_a   7.56820901
_cell_length_b   7.58103193
_cell_length_c   10.76848685
_cell_angle_alpha   90.00000000
_cell_angle_beta   90.00000000
_cell_angle_gamma   90.00000000
_symmetry_Int_Tables_number   1
_chemical_formula_structural   Gd3NbO7
_chemical_formula_sum   'Gd12 Nb4 O28'
_cell_volume   617.84014737
_cell_formula_units_Z   4
loop_
 _symmetry_equiv_pos_site_id
 _symmetry_equiv_pos_as_xyz
  1  'x, y, z'
loop_
 _atom_site_type_symbol
 _atom_site_label
 _atom_site_symmetry_multiplicity
 _atom_site_fract_x
 _atom_site_fract_y
 _atom_site_fract_z
 _atom_site_occupancy
  Gd  Gd0  1  0.291377  0.010417  0.750000  1
  Gd  Gd1  1  0.462203  0.248965  0.021482  1
  Gd  Gd2  1  0.462203  0.248965  0.478518  1
  Gd  Gd3  1  0.962203  0.251035  0.521482  1
  Gd  Gd4  1  0.962203  0.251035  0.978518  1
  Gd  Gd5  1  0.791377  0.489583  0.250000  1
  Gd  Gd6  1  0.208623  0.510417  0.750000  1
  Gd  Gd7  1  0.037797  0.748965  0.021482  1
  Gd  Gd8  1  0.037797  0.748965  0.478518  1
  Gd  Gd9  1  0.537797  0.751035  0.521482  1
  Gd  Gd10  1  0.537797  0.751035  0.978518  1
  Gd  Gd11  1  0.708623  0.989583  0.250000  1
  Nb  Nb12  1  0.243432  0.997409  0.250000  1
  Nb  Nb13  1  0.743432  0.502591  0.750000  1
  Nb  Nb14  1  0.256568  0.497409  0.250000  1
  Nb  Nb15  1  0.756568  0.002591  0.750000  1
  O  O16  1  0.547771  0.034963  0.624900  1
  O  O17  1  0.547771  0.034963  0.875100  1
  O  O18  1  0.081065  0.040842  0.114113  1
  O  O19  1  0.081065  0.040842  0.385887  1
  O  O20  1  0.830780  0.248614  0.750000  1
  O  O21  1  0.229757  0.253427  0.617123  1
  O  O22  1  0.229757  0.253427  0.882877  1
  O  O23  1  0.729757  0.246573  0.117123  1
  O  O24  1  0.729757  0.246573  0.382877  1
  O  O25  1  0.330780  0.251386  0.250000  1
  O  O26  1  0.581065  0.459158  0.614113  1
  O  O27  1  0.581065  0.459158  0.885887  1
  O  O28  1  0.047771  0.465037  0.124900  1
  O  O29  1  0.047771  0.465037  0.375100  1
  O  O30  1  0.952229  0.534963  0.624900  1
  O  O31  1  0.952229  0.534963  0.875100  1
  O  O32  1  0.418935  0.540842  0.114113  1
  O  O33  1  0.418935  0.540842  0.385887  1
  O  O34  1  0.669220  0.748614  0.750000  1
  O  O35  1  0.270243  0.753427  0.617123  1
  O  O36  1  0.270243  0.753427  0.882877  1
  O  O37  1  0.770243  0.746573  0.117123  1
  O  O38  1  0.770243  0.746573  0.382877  1
  O  O39  1  0.169220  0.751386  0.250000  1
  O  O40  1  0.918935  0.959158  0.614113  1
  O  O41  1  0.918935  0.959158  0.885887  1
  O  O42  1  0.452229  0.965037  0.124900  1
  O  O43  1  0.452229  0.965037  0.375100  1
