# generated using pymatgen
data_HfNi3
_symmetry_space_group_name_H-M   'P 1'
_cell_length_a   7.10730825
_cell_length_b   7.10730825
_cell_length_c   7.10730825
_cell_angle_alpha   43.50916125
_cell_angle_beta   43.50916125
_cell_angle_gamma   43.50916125
_symmetry_Int_Tables_number   1
_chemical_formula_structural   HfNi3
_chemical_formula_sum   'Hf3 Ni9'
_cell_volume   154.40467375
_cell_formula_units_Z   3
loop_
 _symmetry_equiv_pos_site_id
 _symmetry_equiv_pos_as_xyz
  1  'x, y, z'
loop_
 _atom_site_type_symbol
 _atom_site_label
 _atom_site_symmetry_multiplicity
 _atom_site_fract_x
 _atom_site_fract_y
 _atom_site_fract_z
 _atom_site_occupancy
  Hf  Hf0  1  0.218775  0.218775  0.218775  1
  Hf  Hf1  1  0.781225  0.781225  0.781225  1
  Hf  Hf2  1  0.000000  0.000000  0.000000  1
  Ni  Ni3  1  0.755733  0.287247  0.287247  1
  Ni  Ni4  1  0.287247  0.287247  0.755733  1
  Ni  Ni5  1  0.287247  0.755733  0.287247  1
  Ni  Ni6  1  0.500000  0.000000  0.500000  1
  Ni  Ni7  1  0.500000  0.500000  0.000000  1
  Ni  Ni8  1  0.000000  0.500000  0.500000  1
  Ni  Ni9  1  0.712753  0.244267  0.712753  1
  Ni  Ni10  1  0.712753  0.712753  0.244267  1
  Ni  Ni11  1  0.244267  0.712753  0.712753  1
