# generated using pymatgen
data_MnFe(PO4)2
_symmetry_space_group_name_H-M   'P 1'
_cell_length_a   4.91802475
_cell_length_b   6.00458539
_cell_length_c   9.89358950
_cell_angle_alpha   90.00000000
_cell_angle_beta   90.00000000
_cell_angle_gamma   90.00000000
_symmetry_Int_Tables_number   1
_chemical_formula_structural   MnFe(PO4)2
_chemical_formula_sum   'Mn2 Fe2 P4 O16'
_cell_volume   292.16461911
_cell_formula_units_Z   2
loop_
 _symmetry_equiv_pos_site_id
 _symmetry_equiv_pos_as_xyz
  1  'x, y, z'
loop_
 _atom_site_type_symbol
 _atom_site_label
 _atom_site_symmetry_multiplicity
 _atom_site_fract_x
 _atom_site_fract_y
 _atom_site_fract_z
 _atom_site_occupancy
  Mn  Mn0  1  0.564599  0.000000  0.534921  1
  Mn  Mn1  1  0.064599  0.500000  0.465079  1
  Fe  Fe2  1  0.968906  0.000000  0.023558  1
  Fe  Fe3  1  0.468906  0.500000  0.976442  1
  P  P4  1  0.578711  0.500000  0.649180  1
  P  P5  1  0.078711  0.000000  0.350820  1
  P  P6  1  0.919211  0.500000  0.152619  1
  P  P7  1  0.419211  0.000000  0.847381  1
  O  O8  1  0.347914  0.000000  0.696492  1
  O  O9  1  0.268251  0.500000  0.629365  1
  O  O10  1  0.720815  0.700247  0.577617  1
  O  O11  1  0.720815  0.299753  0.577617  1
  O  O12  1  0.220815  0.200247  0.422383  1
  O  O13  1  0.220815  0.799753  0.422383  1
  O  O14  1  0.768251  0.000000  0.370635  1
  O  O15  1  0.847914  0.500000  0.303508  1
  O  O16  1  0.137598  0.000000  0.198700  1
  O  O17  1  0.226135  0.500000  0.131301  1
  O  O18  1  0.773718  0.699799  0.078013  1
  O  O19  1  0.773718  0.300201  0.078013  1
  O  O20  1  0.273718  0.199799  0.921987  1
  O  O21  1  0.273718  0.800201  0.921987  1
  O  O22  1  0.726135  0.000000  0.868699  1
  O  O23  1  0.637598  0.500000  0.801300  1
