# generated using pymatgen
data_Ti2Ni3Te3O16
_symmetry_space_group_name_H-M   'P 1'
_cell_length_a   6.09170086
_cell_length_b   6.09170086
_cell_length_c   9.31041103
_cell_angle_alpha   88.81246667
_cell_angle_beta   91.18753333
_cell_angle_gamma   120.20053412
_symmetry_Int_Tables_number   1
_chemical_formula_structural   Ti2Ni3Te3O16
_chemical_formula_sum   'Ti2 Ni3 Te3 O16'
_cell_volume   298.51856313
_cell_formula_units_Z   1
loop_
 _symmetry_equiv_pos_site_id
 _symmetry_equiv_pos_as_xyz
  1  'x, y, z'
loop_
 _atom_site_type_symbol
 _atom_site_label
 _atom_site_symmetry_multiplicity
 _atom_site_fract_x
 _atom_site_fract_y
 _atom_site_fract_z
 _atom_site_occupancy
  Ti  Ti0  1  0.677188  0.322812  0.513093  1
  Ti  Ti1  1  0.362278  0.637722  0.960107  1
  Ni  Ni2  1  0.826556  0.173444  0.210256  1
  Ni  Ni3  1  0.167437  0.330881  0.704631  1
  Ni  Ni4  1  0.669119  0.832563  0.704631  1
  Te  Te5  1  0.329209  0.173162  0.215091  1
  Te  Te6  1  0.826838  0.670791  0.215091  1
  Te  Te7  1  0.170420  0.829580  0.713647  1
  O  O8  1  0.346624  0.155856  0.598537  1
  O  O9  1  0.510134  0.489866  0.335526  1
  O  O10  1  0.651141  0.348859  0.097168  1
  O  O11  1  0.000456  0.999544  0.323749  1
  O  O12  1  0.011759  0.988241  0.807219  1
  O  O13  1  0.844144  0.653376  0.598537  1
  O  O14  1  0.503665  0.052287  0.335386  1
  O  O15  1  0.947713  0.496335  0.335386  1
  O  O16  1  0.154619  0.845381  0.107731  1
  O  O17  1  0.828259  0.171741  0.590660  1
  O  O18  1  0.049898  0.531675  0.847070  1
  O  O19  1  0.468325  0.950102  0.847070  1
  O  O20  1  0.321662  0.678338  0.602900  1
  O  O21  1  0.175279  0.329910  0.104468  1
  O  O22  1  0.487012  0.512988  0.843288  1
  O  O23  1  0.670090  0.824721  0.104468  1
