# generated using pymatgen
data_LiPWO5
_symmetry_space_group_name_H-M   'P 1'
_cell_length_a   7.53937742
_cell_length_b   7.53937742
_cell_length_c   10.86446205
_cell_angle_alpha   68.40581210
_cell_angle_beta   111.59418790
_cell_angle_gamma   137.56086356
_symmetry_Int_Tables_number   1
_chemical_formula_structural   LiPWO5
_chemical_formula_sum   'Li4 P4 W4 O20'
_cell_volume   382.88160308
_cell_formula_units_Z   4
loop_
 _symmetry_equiv_pos_site_id
 _symmetry_equiv_pos_as_xyz
  1  'x, y, z'
loop_
 _atom_site_type_symbol
 _atom_site_label
 _atom_site_symmetry_multiplicity
 _atom_site_fract_x
 _atom_site_fract_y
 _atom_site_fract_z
 _atom_site_occupancy
  Li  Li0  1  0.500000  0.000000  0.500000  1
  Li  Li1  1  0.500000  0.500000  0.500000  1
  Li  Li2  1  0.500000  0.500000  0.000000  1
  Li  Li3  1  0.000000  0.500000  0.000000  1
  P  P4  1  0.881110  0.130932  0.310969  1
  P  P5  1  0.118890  0.869068  0.689031  1
  P  P6  1  0.869068  0.118890  0.810969  1
  P  P7  1  0.130932  0.881110  0.189031  1
  W  W8  1  0.505985  0.505985  0.250000  1
  W  W9  1  1.000000  0.500000  0.500000  1
  W  W10  1  0.494015  0.494015  0.750000  1
  W  W11  1  0.500000  0.000000  0.000000  1
  O  O12  1  0.206204  0.811386  0.339406  1
  O  O13  1  0.828158  0.197921  0.404013  1
  O  O14  1  0.342129  0.591370  0.576578  1
  O  O15  1  0.183240  0.294835  0.342713  1
  O  O16  1  0.705802  0.827698  0.344789  1
  O  O17  1  0.657871  0.408630  0.423422  1
  O  O18  1  0.793796  0.188614  0.660594  1
  O  O19  1  0.171842  0.802079  0.595987  1
  O  O20  1  0.172302  0.294198  0.844789  1
  O  O21  1  0.294198  0.172302  0.655211  1
  O  O22  1  0.705165  0.816760  0.842713  1
  O  O23  1  0.816760  0.705165  0.657287  1
  O  O24  1  0.188614  0.793796  0.839406  1
  O  O25  1  0.802079  0.171842  0.904013  1
  O  O26  1  0.294835  0.183240  0.157287  1
  O  O27  1  0.827698  0.705802  0.155211  1
  O  O28  1  0.591370  0.342129  0.923422  1
  O  O29  1  0.408630  0.657871  0.076578  1
  O  O30  1  0.197921  0.828158  0.095987  1
  O  O31  1  0.811386  0.206204  0.160594  1
