# generated using pymatgen
data_Li3TlPCO7
_symmetry_space_group_name_H-M   'P 1'
_cell_length_a   5.22786881
_cell_length_b   6.95527869
_cell_length_c   8.70040000
_cell_angle_alpha   90.00000000
_cell_angle_beta   91.70814307
_cell_angle_gamma   90.00000000
_symmetry_Int_Tables_number   1
_chemical_formula_structural   Li3TlPCO7
_chemical_formula_sum   'Li6 Tl2 P2 C2 O14'
_cell_volume   316.21714123
_cell_formula_units_Z   2
loop_
 _symmetry_equiv_pos_site_id
 _symmetry_equiv_pos_as_xyz
  1  'x, y, z'
loop_
 _atom_site_type_symbol
 _atom_site_label
 _atom_site_symmetry_multiplicity
 _atom_site_fract_x
 _atom_site_fract_y
 _atom_site_fract_z
 _atom_site_occupancy
  Li  Li0  1  0.948446  0.508018  0.000988  1
  Li  Li1  1  0.497163  0.817305  0.841886  1
  Li  Li2  1  0.578971  0.482576  0.509712  1
  Li  Li3  1  0.421029  0.982576  0.490288  1
  Li  Li4  1  0.502837  0.317305  0.158114  1
  Li  Li5  1  0.051554  0.008018  0.999012  1
  Tl  Tl6  1  0.007110  0.247173  0.692324  1
  Tl  Tl7  1  0.992890  0.747173  0.307676  1
  P  P8  1  0.992974  0.760211  0.701287  1
  P  P9  1  0.007026  0.260211  0.298713  1
  C  C10  1  0.508042  0.268639  0.860623  1
  C  C11  1  0.491958  0.768639  0.139377  1
  O  O12  1  0.695021  0.305241  0.955552  1
  O  O13  1  0.297076  0.202074  0.916089  1
  O  O14  1  0.858010  0.914156  0.803170  1
  O  O15  1  0.035958  0.574097  0.797331  1
  O  O16  1  0.523092  0.293424  0.710900  1
  O  O17  1  0.255559  0.838154  0.651225  1
  O  O18  1  0.806305  0.714332  0.561510  1
  O  O19  1  0.193695  0.214332  0.438490  1
  O  O20  1  0.744441  0.338154  0.348775  1
  O  O21  1  0.476908  0.793424  0.289100  1
  O  O22  1  0.964042  0.074097  0.202669  1
  O  O23  1  0.141990  0.414156  0.196830  1
  O  O24  1  0.702924  0.702074  0.083911  1
  O  O25  1  0.304979  0.805241  0.044448  1
