# generated using pymatgen
data_Na2LiFePCO7
_symmetry_space_group_name_H-M   'P 1'
_cell_length_a   8.91014833
_cell_length_b   6.61533118
_cell_length_c   10.30112107
_cell_angle_alpha   90.00000000
_cell_angle_beta   91.61260495
_cell_angle_gamma   90.00000000
_symmetry_Int_Tables_number   1
_chemical_formula_structural   Na2LiFePCO7
_chemical_formula_sum   'Na8 Li4 Fe4 P4 C4 O28'
_cell_volume   606.94449855
_cell_formula_units_Z   4
loop_
 _symmetry_equiv_pos_site_id
 _symmetry_equiv_pos_as_xyz
  1  'x, y, z'
loop_
 _atom_site_type_symbol
 _atom_site_label
 _atom_site_symmetry_multiplicity
 _atom_site_fract_x
 _atom_site_fract_y
 _atom_site_fract_z
 _atom_site_occupancy
  Na  Na0  1  0.083354  0.501171  0.119840  1
  Na  Na1  1  0.083354  0.498829  0.619840  1
  Na  Na2  1  0.261725  0.249404  0.373472  1
  Na  Na3  1  0.261725  0.750596  0.873472  1
  Na  Na4  1  0.739014  0.752183  0.125873  1
  Na  Na5  1  0.737958  0.249355  0.125323  1
  Na  Na6  1  0.737958  0.750645  0.625323  1
  Na  Na7  1  0.739014  0.247817  0.625873  1
  Li  Li8  1  0.273339  0.740542  0.377407  1
  Li  Li9  1  0.273339  0.259458  0.877407  1
  Li  Li10  1  0.915755  0.992100  0.374460  1
  Li  Li11  1  0.915755  0.007900  0.874460  1
  Fe  Fe12  1  0.348947  0.002219  0.108199  1
  Fe  Fe13  1  0.348947  0.997781  0.608199  1
  Fe  Fe14  1  0.648373  0.498936  0.390497  1
  Fe  Fe15  1  0.648373  0.501064  0.890497  1
  P  P16  1  0.411263  0.505279  0.147049  1
  P  P17  1  0.411263  0.494721  0.647049  1
  P  P18  1  0.587096  0.994072  0.350006  1
  P  P19  1  0.587096  0.005928  0.850006  1
  C  C20  1  0.053257  0.998102  0.139108  1
  C  C21  1  0.053257  0.001898  0.639108  1
  C  C22  1  0.946788  0.508440  0.365620  1
  C  C23  1  0.946788  0.491560  0.865620  1
  O  O24  1  0.090989  0.526790  0.360240  1
  O  O25  1  0.090989  0.473210  0.860240  1
  O  O26  1  0.094477  0.999983  0.018850  1
  O  O27  1  0.094477  0.000017  0.518850  1
  O  O28  1  0.154410  0.994239  0.233748  1
  O  O29  1  0.154410  0.005761  0.733748  1
  O  O30  1  0.315764  0.315823  0.106838  1
  O  O31  1  0.316536  0.691792  0.102025  1
  O  O32  1  0.316536  0.308208  0.602025  1
  O  O33  1  0.315764  0.684177  0.606838  1
  O  O34  1  0.430750  0.514070  0.298500  1
  O  O35  1  0.433646  0.978833  0.415607  1
  O  O36  1  0.430750  0.485930  0.798500  1
  O  O37  1  0.433646  0.021167  0.915607  1
  O  O38  1  0.565339  0.501053  0.083457  1
  O  O39  1  0.561842  0.998615  0.199940  1
  O  O40  1  0.565339  0.498947  0.583457  1
  O  O41  1  0.561842  0.001385  0.699940  1
  O  O42  1  0.692528  0.812099  0.386981  1
  O  O43  1  0.679652  0.184975  0.392590  1
  O  O44  1  0.679652  0.815025  0.892590  1
  O  O45  1  0.692528  0.187901  0.886981  1
  O  O46  1  0.863350  0.497941  0.259356  1
  O  O47  1  0.863350  0.502059  0.759356  1
  O  O48  1  0.880982  0.499195  0.476769  1
  O  O49  1  0.880982  0.500805  0.976769  1
  O  O50  1  0.912864  0.000597  0.168245  1
  O  O51  1  0.912864  0.999403  0.668245  1
