# generated using pymatgen
data_NaLi5Fe2P2(CO7)2
_symmetry_space_group_name_H-M   'P 1'
_cell_length_a   6.53097272
_cell_length_b   8.58042985
_cell_length_c   10.11517103
_cell_angle_alpha   94.00732471
_cell_angle_beta   90.03967146
_cell_angle_gamma   90.51665671
_symmetry_Int_Tables_number   1
_chemical_formula_structural   NaLi5Fe2P2(CO7)2
_chemical_formula_sum   'Na2 Li10 Fe4 P4 C4 O28'
_cell_volume   565.43021197
_cell_formula_units_Z   2
loop_
 _symmetry_equiv_pos_site_id
 _symmetry_equiv_pos_as_xyz
  1  'x, y, z'
loop_
 _atom_site_type_symbol
 _atom_site_label
 _atom_site_symmetry_multiplicity
 _atom_site_fract_x
 _atom_site_fract_y
 _atom_site_fract_z
 _atom_site_occupancy
  Na  Na0  1  0.498737  0.742362  0.877618  1
  Na  Na1  1  0.501263  0.257638  0.122382  1
  Li  Li2  1  0.242043  0.913595  0.622717  1
  Li  Li3  1  0.223160  0.909081  0.128536  1
  Li  Li4  1  0.021666  0.725472  0.372098  1
  Li  Li5  1  0.477888  0.726549  0.372883  1
  Li  Li6  1  0.020366  0.722400  0.871411  1
  Li  Li7  1  0.522112  0.273451  0.627117  1
  Li  Li8  1  0.978334  0.274528  0.627902  1
  Li  Li9  1  0.979634  0.277600  0.128589  1
  Li  Li10  1  0.757957  0.086405  0.377283  1
  Li  Li11  1  0.776840  0.090919  0.871464  1
  Fe  Fe12  1  0.758040  0.661948  0.640181  1
  Fe  Fe13  1  0.750478  0.659067  0.146078  1
  Fe  Fe14  1  0.241960  0.338052  0.359819  1
  Fe  Fe15  1  0.249522  0.340933  0.853922  1
  P  P16  1  0.252706  0.589530  0.602162  1
  P  P17  1  0.239728  0.588739  0.109440  1
  P  P18  1  0.747294  0.410470  0.397838  1
  P  P19  1  0.760272  0.411261  0.890560  1
  C  C20  1  0.751333  0.964593  0.606543  1
  C  C21  1  0.763878  0.959185  0.106403  1
  C  C22  1  0.248667  0.035407  0.393457  1
  C  C23  1  0.236122  0.040815  0.893597  1
  O  O24  1  0.254742  0.889279  0.419212  1
  O  O25  1  0.219486  0.897661  0.926419  1
  O  O26  1  0.749566  0.922664  0.727881  1
  O  O27  1  0.751923  0.924559  0.228826  1
  O  O28  1  0.760338  0.857488  0.508667  1
  O  O29  1  0.758987  0.846570  0.012540  1
  O  O30  1  0.071595  0.693416  0.655969  1
  O  O31  1  0.445876  0.687937  0.644612  1
  O  O32  1  0.063748  0.697783  0.163649  1
  O  O33  1  0.437249  0.681919  0.154220  1
  O  O34  1  0.242463  0.570882  0.447532  1
  O  O35  1  0.748364  0.574262  0.342600  1
  O  O36  1  0.228169  0.568734  0.955173  1
  O  O37  1  0.771936  0.573170  0.833922  1
  O  O38  1  0.251636  0.425738  0.657400  1
  O  O39  1  0.757537  0.429118  0.552468  1
  O  O40  1  0.228064  0.426830  0.166078  1
  O  O41  1  0.771831  0.431266  0.044827  1
  O  O42  1  0.554124  0.312063  0.355388  1
  O  O43  1  0.928405  0.306584  0.344031  1
  O  O44  1  0.562751  0.318081  0.845780  1
  O  O45  1  0.936252  0.302217  0.836351  1
  O  O46  1  0.239662  0.142512  0.491333  1
  O  O47  1  0.241013  0.153430  0.987460  1
  O  O48  1  0.250434  0.077336  0.272119  1
  O  O49  1  0.248077  0.075441  0.771174  1
  O  O50  1  0.745258  0.110721  0.580788  1
  O  O51  1  0.780514  0.102339  0.073581  1
