# generated using pymatgen
data_K(WO3)3
_symmetry_space_group_name_H-M   'P 1'
_cell_length_a   7.51019741
_cell_length_b   7.51019741
_cell_length_c   7.74336140
_cell_angle_alpha   90.00000000
_cell_angle_beta   90.00000000
_cell_angle_gamma   120.00000000
_symmetry_Int_Tables_number   1
_chemical_formula_structural   K(WO3)3
_chemical_formula_sum   'K2 W6 O18'
_cell_volume   378.23600430
_cell_formula_units_Z   2
loop_
 _symmetry_equiv_pos_site_id
 _symmetry_equiv_pos_as_xyz
  1  'x, y, z'
loop_
 _atom_site_type_symbol
 _atom_site_label
 _atom_site_symmetry_multiplicity
 _atom_site_fract_x
 _atom_site_fract_y
 _atom_site_fract_z
 _atom_site_occupancy
  K  K0  1  0.000000  0.000000  0.267195  1
  K  K1  1  0.000000  0.000000  0.767195  1
  W  W2  1  0.000023  0.500011  0.500169  1
  W  W3  1  0.999977  0.499989  0.000169  1
  W  W4  1  0.499989  0.500011  0.500169  1
  W  W5  1  0.500011  0.499989  0.000169  1
  W  W6  1  0.500011  0.000023  0.000169  1
  W  W7  1  0.499989  0.999977  0.500169  1
  O  O8  1  0.013438  0.506719  0.750236  1
  O  O9  1  0.209556  0.790444  0.007935  1
  O  O10  1  0.209561  0.790439  0.491834  1
  O  O11  1  0.209561  0.419122  0.491834  1
  O  O12  1  0.493281  0.986562  0.750236  1
  O  O13  1  0.209556  0.419112  0.007935  1
  O  O14  1  0.580888  0.790444  0.007935  1
  O  O15  1  0.580878  0.790439  0.491834  1
  O  O16  1  0.493281  0.506719  0.750236  1
  O  O17  1  0.506719  0.493281  0.250236  1
  O  O18  1  0.419122  0.209561  0.991834  1
  O  O19  1  0.419112  0.209556  0.507934  1
  O  O20  1  0.790444  0.580888  0.507934  1
  O  O21  1  0.506719  0.013438  0.250236  1
  O  O22  1  0.790439  0.580878  0.991834  1
  O  O23  1  0.790439  0.209561  0.991834  1
  O  O24  1  0.790444  0.209556  0.507934  1
  O  O25  1  0.986562  0.493281  0.250236  1
