# generated using pymatgen
data_MnCd9O10
_symmetry_space_group_name_H-M   'P 1'
_cell_length_a   5.83263926
_cell_length_b   6.73663247
_cell_length_c   7.53099112
_cell_angle_alpha   102.91796035
_cell_angle_beta   97.40999291
_cell_angle_gamma   106.83490326
_symmetry_Int_Tables_number   1
_chemical_formula_structural   MnCd9O10
_chemical_formula_sum   'Mn1 Cd9 O10'
_cell_volume   270.04358257
_cell_formula_units_Z   1
loop_
 _symmetry_equiv_pos_site_id
 _symmetry_equiv_pos_as_xyz
  1  'x, y, z'
loop_
 _atom_site_type_symbol
 _atom_site_label
 _atom_site_symmetry_multiplicity
 _atom_site_fract_x
 _atom_site_fract_y
 _atom_site_fract_z
 _atom_site_occupancy
  Mn  Mn0  1  0.000000  0.000000  0.000000  1
  Cd  Cd1  1  0.400708  0.801649  0.799948  1
  Cd  Cd2  1  0.405592  0.300507  0.802988  1
  Cd  Cd3  1  0.199228  0.398360  0.398230  1
  Cd  Cd4  1  0.800772  0.601640  0.601770  1
  Cd  Cd5  1  0.803549  0.099485  0.599180  1
  Cd  Cd6  1  0.196451  0.900515  0.400820  1
  Cd  Cd7  1  0.000000  0.500000  0.000000  1
  Cd  Cd8  1  0.594408  0.699493  0.197012  1
  Cd  Cd9  1  0.599292  0.198351  0.200052  1
  O  O10  1  0.103585  0.450386  0.699338  1
  O  O11  1  0.098598  0.951985  0.709343  1
  O  O12  1  0.707727  0.661873  0.904657  1
  O  O13  1  0.714836  0.144351  0.903914  1
  O  O14  1  0.502440  0.250365  0.505087  1
  O  O15  1  0.497560  0.749635  0.494913  1
  O  O16  1  0.285164  0.855649  0.096086  1
  O  O17  1  0.292273  0.338127  0.095343  1
  O  O18  1  0.901402  0.048015  0.290657  1
  O  O19  1  0.896415  0.549614  0.300662  1
