# generated using pymatgen
data_LiMnOF2
_symmetry_space_group_name_H-M   'P 1'
_cell_length_a   5.39575078
_cell_length_b   5.39575078
_cell_length_c   9.50495083
_cell_angle_alpha   68.04408672
_cell_angle_beta   111.95591328
_cell_angle_gamma   118.75144515
_symmetry_Int_Tables_number   1
_chemical_formula_structural   LiMnOF2
_chemical_formula_sum   'Li4 Mn4 O4 F8'
_cell_volume   218.51436210
_cell_formula_units_Z   4
loop_
 _symmetry_equiv_pos_site_id
 _symmetry_equiv_pos_as_xyz
  1  'x, y, z'
loop_
 _atom_site_type_symbol
 _atom_site_label
 _atom_site_symmetry_multiplicity
 _atom_site_fract_x
 _atom_site_fract_y
 _atom_site_fract_z
 _atom_site_occupancy
  Li  Li0  1  0.439425  0.122878  0.651726  1
  Li  Li1  1  0.122878  0.439425  0.848274  1
  Li  Li2  1  0.877122  0.560575  0.151726  1
  Li  Li3  1  0.560575  0.877122  0.348274  1
  Mn  Mn4  1  0.500000  1.000000  0.000000  1
  Mn  Mn5  1  0.173665  0.173665  0.250000  1
  Mn  Mn6  1  0.000000  0.500000  0.500000  1
  Mn  Mn7  1  0.826335  0.826335  0.750000  1
  O  O8  1  0.215810  0.879951  0.821900  1
  O  O9  1  0.120049  0.784190  0.321900  1
  O  O10  1  0.879951  0.215810  0.678100  1
  O  O11  1  0.784190  0.120049  0.178100  1
  F  F12  1  0.193093  0.289887  0.473636  1
  F  F13  1  0.273760  0.593554  0.151815  1
  F  F14  1  0.593554  0.273760  0.348185  1
  F  F15  1  0.710113  0.806907  0.973636  1
  F  F16  1  0.289887  0.193093  0.026364  1
  F  F17  1  0.406446  0.726240  0.651815  1
  F  F18  1  0.726240  0.406446  0.848185  1
  F  F19  1  0.806907  0.710113  0.526364  1
