# generated using pymatgen
data_Dy3Sb5O12
_symmetry_space_group_name_H-M   'P 1'
_cell_length_a   9.41818568
_cell_length_b   9.41818568
_cell_length_c   9.41818568
_cell_angle_alpha   109.47122063
_cell_angle_beta   109.47122063
_cell_angle_gamma   109.47122063
_symmetry_Int_Tables_number   1
_chemical_formula_structural   Dy3Sb5O12
_chemical_formula_sum   'Dy6 Sb10 O24'
_cell_volume   643.10199199
_cell_formula_units_Z   2
loop_
 _symmetry_equiv_pos_site_id
 _symmetry_equiv_pos_as_xyz
  1  'x, y, z'
loop_
 _atom_site_type_symbol
 _atom_site_label
 _atom_site_symmetry_multiplicity
 _atom_site_fract_x
 _atom_site_fract_y
 _atom_site_fract_z
 _atom_site_occupancy
  Dy  Dy0  1  0.750000  0.250000  0.500000  1
  Dy  Dy1  1  0.750000  0.500000  0.250000  1
  Dy  Dy2  1  0.500000  0.250000  0.750000  1
  Dy  Dy3  1  0.500000  0.750000  0.250000  1
  Dy  Dy4  1  0.250000  0.750000  0.500000  1
  Dy  Dy5  1  0.250000  0.500000  0.750000  1
  Sb  Sb6  1  0.514741  1.000000  1.000000  1
  Sb  Sb7  1  0.283887  1.000000  0.283887  1
  Sb  Sb8  1  0.283887  0.283887  0.000000  1
  Sb  Sb9  1  0.716113  1.000000  0.716113  1
  Sb  Sb10  1  0.716113  0.716113  0.000000  1
  Sb  Sb11  1  1.000000  0.514741  0.000000  1
  Sb  Sb12  1  0.000000  0.000000  0.514741  1
  Sb  Sb13  1  0.485259  0.485259  0.485259  1
  Sb  Sb14  1  0.000000  0.283887  0.283887  1
  Sb  Sb15  1  0.000000  0.716113  0.716113  1
  O  O16  1  0.479411  0.000000  0.201457  1
  O  O17  1  0.479411  0.201457  0.000000  1
  O  O18  1  0.703623  0.501921  0.000000  1
  O  O19  1  0.703623  0.000000  0.501921  1
  O  O20  1  0.798297  0.296377  0.296377  1
  O  O21  1  0.498079  0.498079  0.201703  1
  O  O22  1  0.498079  0.201703  0.498079  1
  O  O23  1  0.501921  0.703623  1.000000  1
  O  O24  1  0.501921  0.000000  0.703623  1
  O  O25  1  0.722047  0.520589  0.520589  1
  O  O26  1  0.798543  0.277953  0.798543  1
  O  O27  1  0.798543  0.798543  0.277953  1
  O  O28  1  0.201457  0.479411  1.000000  1
  O  O29  1  0.201457  0.000000  0.479411  1
  O  O30  1  0.520589  0.722047  0.520589  1
  O  O31  1  0.520589  0.520589  0.722047  1
  O  O32  1  0.000000  0.479411  0.201457  1
  O  O33  1  0.000000  0.201457  0.479411  1
  O  O34  1  0.296377  0.798297  0.296377  1
  O  O35  1  0.296377  0.296377  0.798297  1
  O  O36  1  0.201703  0.498079  0.498079  1
  O  O37  1  0.000000  0.703623  0.501921  1
  O  O38  1  0.000000  0.501921  0.703623  1
  O  O39  1  0.277953  0.798543  0.798543  1
