# generated using pymatgen
data_Li4Nb2V3Cr3O16
_symmetry_space_group_name_H-M   'P 1'
_cell_length_a   6.02044877
_cell_length_b   6.02044877
_cell_length_c   9.68387394
_cell_angle_alpha   89.54960823
_cell_angle_beta   90.45039177
_cell_angle_gamma   120.17778236
_symmetry_Int_Tables_number   1
_chemical_formula_structural   Li4Nb2V3Cr3O16
_chemical_formula_sum   'Li4 Nb2 V3 Cr3 O16'
_cell_volume   303.41623973
_cell_formula_units_Z   1
loop_
 _symmetry_equiv_pos_site_id
 _symmetry_equiv_pos_as_xyz
  1  'x, y, z'
loop_
 _atom_site_type_symbol
 _atom_site_label
 _atom_site_symmetry_multiplicity
 _atom_site_fract_x
 _atom_site_fract_y
 _atom_site_fract_z
 _atom_site_occupancy
  Li  Li0  1  0.666513  0.333487  0.901094  1
  Li  Li1  1  0.000548  0.999452  0.992137  1
  Li  Li2  1  0.001254  0.998746  0.491964  1
  Li  Li3  1  0.332462  0.667538  0.397729  1
  Nb  Nb4  1  0.665872  0.334128  0.493061  1
  Nb  Nb5  1  0.331161  0.668839  0.994574  1
  V  V6  1  0.828708  0.171292  0.217704  1
  V  V7  1  0.171770  0.343145  0.716131  1
  V  V8  1  0.656855  0.828230  0.716131  1
  Cr  Cr9  1  0.340905  0.171247  0.214687  1
  Cr  Cr10  1  0.828753  0.659095  0.214687  1
  Cr  Cr11  1  0.169414  0.830586  0.714712  1
  O  O12  1  0.335581  0.167527  0.593394  1
  O  O13  1  0.519604  0.480396  0.339261  1
  O  O14  1  0.667324  0.332676  0.108770  1
  O  O15  1  0.999269  0.000731  0.305265  1
  O  O16  1  0.999619  0.000381  0.804673  1
  O  O17  1  0.832473  0.664419  0.593394  1
  O  O18  1  0.516023  0.040858  0.343526  1
  O  O19  1  0.959142  0.483977  0.343526  1
  O  O20  1  0.166211  0.833789  0.095420  1
  O  O21  1  0.832182  0.167818  0.591350  1
  O  O22  1  0.040446  0.523412  0.842699  1
  O  O23  1  0.476588  0.959554  0.842699  1
  O  O24  1  0.332741  0.667259  0.608015  1
  O  O25  1  0.170325  0.336120  0.092596  1
  O  O26  1  0.479708  0.520292  0.845444  1
  O  O27  1  0.663880  0.829675  0.092596  1
