# generated using pymatgen
data_Li5Fe2P2(CO7)2
_symmetry_space_group_name_H-M   'P 1'
_cell_length_a   8.25097360
_cell_length_b   8.26234118
_cell_length_c   9.40986629
_cell_angle_alpha   105.41033181
_cell_angle_beta   107.01757524
_cell_angle_gamma   104.53356547
_symmetry_Int_Tables_number   1
_chemical_formula_structural   Li5Fe2P2(CO7)2
_chemical_formula_sum   'Li10 Fe4 P4 C4 O28'
_cell_volume   552.47690315
_cell_formula_units_Z   2
loop_
 _symmetry_equiv_pos_site_id
 _symmetry_equiv_pos_as_xyz
  1  'x, y, z'
loop_
 _atom_site_type_symbol
 _atom_site_label
 _atom_site_symmetry_multiplicity
 _atom_site_fract_x
 _atom_site_fract_y
 _atom_site_fract_z
 _atom_site_occupancy
  Li  Li0  1  0.689454  0.947732  0.904190  1
  Li  Li1  1  0.183584  0.437670  0.896200  1
  Li  Li2  1  0.464702  0.509595  0.719230  1
  Li  Li3  1  0.745224  0.233956  0.730736  1
  Li  Li4  1  0.973870  0.988392  0.733265  1
  Li  Li5  1  0.535298  0.490405  0.280770  1
  Li  Li6  1  0.026130  0.011608  0.266735  1
  Li  Li7  1  0.254776  0.766044  0.269264  1
  Li  Li8  1  0.816416  0.562330  0.103800  1
  Li  Li9  1  0.310546  0.052268  0.095810  1
  Fe  Fe10  1  0.819409  0.568104  0.667971  1
  Fe  Fe11  1  0.308189  0.053770  0.668603  1
  Fe  Fe12  1  0.691811  0.946230  0.331397  1
  Fe  Fe13  1  0.180591  0.431896  0.332029  1
  P  P14  1  0.058015  0.295807  0.586288  1
  P  P15  1  0.555709  0.805705  0.580978  1
  P  P16  1  0.444291  0.194295  0.419022  1
  P  P17  1  0.941985  0.704193  0.413712  1
  C  C18  1  0.501706  0.265977  0.955861  1
  C  C19  1  0.005856  0.763711  0.969007  1
  C  C20  1  0.498294  0.734023  0.044139  1
  C  C21  1  0.994144  0.236289  0.030993  1
  O  O22  1  0.877186  0.614416  0.932988  1
  O  O23  1  0.368133  0.118567  0.923882  1
  O  O24  1  0.406262  0.615957  0.906235  1
  O  O25  1  0.532703  0.282614  0.829315  1
  O  O26  1  0.883546  0.139171  0.883377  1
  O  O27  1  0.027494  0.815407  0.854411  1
  O  O28  1  0.641648  0.716114  0.691997  1
  O  O29  1  0.484279  0.928835  0.683361  1
  O  O30  1  0.968500  0.394279  0.686165  1
  O  O31  1  0.150084  0.204955  0.697807  1
  O  O32  1  0.590722  0.330525  0.580241  1
  O  O33  1  0.706157  0.932668  0.547372  1
  O  O34  1  0.204958  0.422086  0.556356  1
  O  O35  1  0.080662  0.846890  0.578625  1
  O  O36  1  0.409278  0.669475  0.419759  1
  O  O37  1  0.293843  0.067332  0.452628  1
  O  O38  1  0.795042  0.577914  0.443644  1
  O  O39  1  0.919338  0.153110  0.421375  1
  O  O40  1  0.358352  0.283886  0.308003  1
  O  O41  1  0.515721  0.071165  0.316639  1
  O  O42  1  0.031500  0.605721  0.313835  1
  O  O43  1  0.849916  0.795045  0.302193  1
  O  O44  1  0.467297  0.717386  0.170685  1
  O  O45  1  0.593738  0.384043  0.093765  1
  O  O46  1  0.972506  0.184593  0.145589  1
  O  O47  1  0.116454  0.860829  0.116623  1
  O  O48  1  0.122814  0.385584  0.067012  1
  O  O49  1  0.631867  0.881433  0.076118  1
