# generated using pymatgen
data_Li3LaNiO4
_symmetry_space_group_name_H-M   'P 1'
_cell_length_a   5.88309345
_cell_length_b   7.41278005
_cell_length_c   9.79225844
_cell_angle_alpha   85.03308724
_cell_angle_beta   76.98285943
_cell_angle_gamma   79.73993795
_symmetry_Int_Tables_number   1
_chemical_formula_structural   Li3LaNiO4
_chemical_formula_sum   'Li12 La4 Ni4 O16'
_cell_volume   408.93316583
_cell_formula_units_Z   4
loop_
 _symmetry_equiv_pos_site_id
 _symmetry_equiv_pos_as_xyz
  1  'x, y, z'
loop_
 _atom_site_type_symbol
 _atom_site_label
 _atom_site_symmetry_multiplicity
 _atom_site_fract_x
 _atom_site_fract_y
 _atom_site_fract_z
 _atom_site_occupancy
  Li  Li0  1  0.972769  0.804877  0.124702  1
  Li  Li1  1  0.319795  0.061248  0.097889  1
  Li  Li2  1  0.040321  0.450442  0.128786  1
  Li  Li3  1  0.970892  0.054284  0.375681  1
  Li  Li4  1  0.677217  0.433885  0.402465  1
  Li  Li5  1  0.324120  0.316031  0.346846  1
  Li  Li6  1  0.675880  0.683969  0.653154  1
  Li  Li7  1  0.322783  0.566115  0.597535  1
  Li  Li8  1  0.029108  0.945716  0.624319  1
  Li  Li9  1  0.959679  0.549558  0.871214  1
  Li  Li10  1  0.680205  0.938751  0.902111  1
  Li  Li11  1  0.027231  0.195123  0.875298  1
  La  La12  1  0.520003  0.627733  0.122798  1
  La  La13  1  0.505256  0.877557  0.375834  1
  La  La14  1  0.494744  0.122443  0.624166  1
  La  La15  1  0.479997  0.372267  0.877202  1
  Ni  Ni16  1  0.685818  0.186289  0.150340  1
  Ni  Ni17  1  0.037204  0.693944  0.376575  1
  Ni  Ni18  1  0.962796  0.306056  0.623425  1
  Ni  Ni19  1  0.314182  0.813711  0.849660  1
  O  O20  1  0.830212  0.364734  0.019514  1
  O  O21  1  0.656163  0.933509  0.112467  1
  O  O22  1  0.821469  0.616746  0.270681  1
  O  O23  1  0.358818  0.319677  0.135547  1
  O  O24  1  0.656960  0.178176  0.356391  1
  O  O25  1  0.184677  0.879316  0.235237  1
  O  O26  1  0.820557  0.859485  0.515618  1
  O  O27  1  0.348503  0.567445  0.391648  1
  O  O28  1  0.651497  0.432555  0.608352  1
  O  O29  1  0.179443  0.140515  0.484382  1
  O  O30  1  0.815323  0.120684  0.764763  1
  O  O31  1  0.343040  0.821824  0.643609  1
  O  O32  1  0.641182  0.680323  0.864453  1
  O  O33  1  0.178531  0.383254  0.729319  1
  O  O34  1  0.343837  0.066491  0.887533  1
  O  O35  1  0.169788  0.635266  0.980486  1
