# generated using pymatgen
data_LiFe(CO3)2
_symmetry_space_group_name_H-M   'P 1'
_cell_length_a   6.16427101
_cell_length_b   6.16427101
_cell_length_c   8.30347556
_cell_angle_alpha   82.67357620
_cell_angle_beta   97.32642380
_cell_angle_gamma   53.93295390
_symmetry_Int_Tables_number   1
_chemical_formula_structural   LiFe(CO3)2
_chemical_formula_sum   'Li2 Fe2 C4 O12'
_cell_volume   244.74955490
_cell_formula_units_Z   2
loop_
 _symmetry_equiv_pos_site_id
 _symmetry_equiv_pos_as_xyz
  1  'x, y, z'
loop_
 _atom_site_type_symbol
 _atom_site_label
 _atom_site_symmetry_multiplicity
 _atom_site_fract_x
 _atom_site_fract_y
 _atom_site_fract_z
 _atom_site_occupancy
  Li  Li0  1  0.545444  0.281866  0.344044  1
  Li  Li1  1  0.718134  0.454556  0.844044  1
  Fe  Fe2  1  0.170558  0.095986  0.499985  1
  Fe  Fe3  1  0.904014  0.829442  0.999985  1
  C  C4  1  0.947673  0.384759  0.210319  1
  C  C5  1  0.997044  0.850000  0.294763  1
  C  C6  1  0.615241  0.052327  0.710319  1
  C  C7  1  0.150000  0.002956  0.794763  1
  O  O8  1  0.844898  0.540201  0.057460  1
  O  O9  1  0.202087  0.158193  0.259404  1
  O  O10  1  0.180041  0.641817  0.241666  1
  O  O11  1  0.757224  0.036441  0.186085  1
  O  O12  1  0.041445  0.876872  0.443588  1
  O  O13  1  0.805832  0.447133  0.322946  1
  O  O14  1  0.459799  0.155102  0.557460  1
  O  O15  1  0.358183  0.819959  0.741666  1
  O  O16  1  0.552867  0.194168  0.822946  1
  O  O17  1  0.841807  0.797913  0.759404  1
  O  O18  1  0.963559  0.242776  0.686085  1
  O  O19  1  0.123128  0.958555  0.943588  1
