# generated using pymatgen
data_LiP3(WO6)2
_symmetry_space_group_name_H-M   'P 1'
_cell_length_a   9.06222257
_cell_length_b   9.22159819
_cell_length_c   12.49177018
_cell_angle_alpha   90.00000000
_cell_angle_beta   90.00000000
_cell_angle_gamma   90.00000000
_symmetry_Int_Tables_number   1
_chemical_formula_structural   LiP3(WO6)2
_chemical_formula_sum   'Li4 P12 W8 O48'
_cell_volume   1043.91443957
_cell_formula_units_Z   4
loop_
 _symmetry_equiv_pos_site_id
 _symmetry_equiv_pos_as_xyz
  1  'x, y, z'
loop_
 _atom_site_type_symbol
 _atom_site_label
 _atom_site_symmetry_multiplicity
 _atom_site_fract_x
 _atom_site_fract_y
 _atom_site_fract_z
 _atom_site_occupancy
  Li  Li0  1  0.146439  0.769009  0.250000  1
  Li  Li1  1  0.146439  0.730991  0.750000  1
  Li  Li2  1  0.853561  0.269009  0.250000  1
  Li  Li3  1  0.853561  0.230991  0.750000  1
  P  P4  1  0.033859  0.750000  0.000000  1
  P  P5  1  0.033859  0.750000  0.500000  1
  P  P6  1  0.398863  0.373327  0.132050  1
  P  P7  1  0.398863  0.126673  0.632050  1
  P  P8  1  0.398863  0.373327  0.367950  1
  P  P9  1  0.398863  0.126673  0.867950  1
  P  P10  1  0.601137  0.626673  0.867950  1
  P  P11  1  0.601137  0.626673  0.632050  1
  P  P12  1  0.601137  0.873327  0.132050  1
  P  P13  1  0.601137  0.873327  0.367950  1
  P  P14  1  0.966141  0.250000  0.000000  1
  P  P15  1  0.966141  0.250000  0.500000  1
  W  W16  1  0.246584  0.022949  0.099201  1
  W  W17  1  0.246584  0.022949  0.400799  1
  W  W18  1  0.246584  0.477051  0.599201  1
  W  W19  1  0.246584  0.477051  0.900799  1
  W  W20  1  0.753416  0.522949  0.099201  1
  W  W21  1  0.753416  0.522949  0.400799  1
  W  W22  1  0.753416  0.977051  0.900799  1
  W  W23  1  0.753416  0.977051  0.599201  1
  O  O24  1  0.055939  0.137130  0.438291  1
  O  O25  1  0.055939  0.362870  0.561709  1
  O  O26  1  0.055939  0.362870  0.938291  1
  O  O27  1  0.055939  0.137130  0.061709  1
  O  O28  1  0.132492  0.821898  0.088259  1
  O  O29  1  0.132492  0.821898  0.411741  1
  O  O30  1  0.132492  0.678102  0.911741  1
  O  O31  1  0.132492  0.678102  0.588259  1
  O  O32  1  0.206780  0.014717  0.250000  1
  O  O33  1  0.206780  0.485283  0.750000  1
  O  O34  1  0.304500  0.027045  0.561173  1
  O  O35  1  0.304500  0.472955  0.061173  1
  O  O36  1  0.304500  0.472955  0.438827  1
  O  O37  1  0.304500  0.027045  0.938827  1
  O  O38  1  0.343687  0.077230  0.750000  1
  O  O39  1  0.343687  0.422770  0.250000  1
  O  O40  1  0.366567  0.213322  0.381591  1
  O  O41  1  0.366567  0.286678  0.618409  1
  O  O42  1  0.366567  0.286678  0.881591  1
  O  O43  1  0.366567  0.213322  0.118409  1
  O  O44  1  0.436240  0.897774  0.123990  1
  O  O45  1  0.436240  0.602226  0.623990  1
  O  O46  1  0.436240  0.897774  0.376010  1
  O  O47  1  0.436240  0.602226  0.876010  1
  O  O48  1  0.563760  0.102226  0.876010  1
  O  O49  1  0.563760  0.397774  0.123990  1
  O  O50  1  0.563760  0.397774  0.376010  1
  O  O51  1  0.563760  0.102226  0.623990  1
  O  O52  1  0.633433  0.713322  0.118409  1
  O  O53  1  0.633433  0.713322  0.381591  1
  O  O54  1  0.633433  0.786678  0.881591  1
  O  O55  1  0.633433  0.786678  0.618409  1
  O  O56  1  0.656313  0.577230  0.750000  1
  O  O57  1  0.656313  0.922770  0.250000  1
  O  O58  1  0.695500  0.527045  0.561173  1
  O  O59  1  0.695500  0.527045  0.938827  1
  O  O60  1  0.695500  0.972955  0.061173  1
  O  O61  1  0.695500  0.972955  0.438827  1
  O  O62  1  0.793220  0.514717  0.250000  1
  O  O63  1  0.793220  0.985283  0.750000  1
  O  O64  1  0.867508  0.178102  0.588259  1
  O  O65  1  0.867508  0.321898  0.411741  1
  O  O66  1  0.867508  0.321898  0.088259  1
  O  O67  1  0.867508  0.178102  0.911741  1
  O  O68  1  0.944061  0.862870  0.938291  1
  O  O69  1  0.944061  0.637130  0.061709  1
  O  O70  1  0.944061  0.637130  0.438291  1
  O  O71  1  0.944061  0.862870  0.561709  1
