# generated using pymatgen
data_ZnSb
_symmetry_space_group_name_H-M   'P 1'
_cell_length_a   6.28387175
_cell_length_b   7.82284542
_cell_length_c   8.23234625
_cell_angle_alpha   90.00000000
_cell_angle_beta   90.00000000
_cell_angle_gamma   90.00000000
_symmetry_Int_Tables_number   1
_chemical_formula_structural   ZnSb
_chemical_formula_sum   'Zn8 Sb8'
_cell_volume   404.68367929
_cell_formula_units_Z   8
loop_
 _symmetry_equiv_pos_site_id
 _symmetry_equiv_pos_as_xyz
  1  'x, y, z'
loop_
 _atom_site_type_symbol
 _atom_site_label
 _atom_site_symmetry_multiplicity
 _atom_site_fract_x
 _atom_site_fract_y
 _atom_site_fract_z
 _atom_site_occupancy
  Zn  Zn0  1  0.459713  0.106411  0.872682  1
  Zn  Zn1  1  0.959713  0.393589  0.127318  1
  Zn  Zn2  1  0.540287  0.606411  0.627318  1
  Zn  Zn3  1  0.040287  0.893589  0.372682  1
  Zn  Zn4  1  0.540287  0.893589  0.127318  1
  Zn  Zn5  1  0.040287  0.606411  0.872682  1
  Zn  Zn6  1  0.459713  0.393589  0.372682  1
  Zn  Zn7  1  0.959713  0.106411  0.627318  1
  Sb  Sb8  1  0.141848  0.082681  0.109309  1
  Sb  Sb9  1  0.641848  0.417319  0.890691  1
  Sb  Sb10  1  0.858152  0.582681  0.390691  1
  Sb  Sb11  1  0.358152  0.917319  0.609309  1
  Sb  Sb12  1  0.858152  0.917319  0.890691  1
  Sb  Sb13  1  0.358152  0.582681  0.109309  1
  Sb  Sb14  1  0.141848  0.417319  0.609309  1
  Sb  Sb15  1  0.641848  0.082681  0.390691  1
