# generated using pymatgen
data_Si3Sb2O9
_symmetry_space_group_name_H-M   'P 1'
_cell_length_a   6.98046114
_cell_length_b   6.98046114
_cell_length_c   9.50003123
_cell_angle_alpha   90.00000000
_cell_angle_beta   90.00000000
_cell_angle_gamma   120.00000000
_symmetry_Int_Tables_number   1
_chemical_formula_structural   Si3Sb2O9
_chemical_formula_sum   'Si6 Sb4 O18'
_cell_volume   400.88877120
_cell_formula_units_Z   2
loop_
 _symmetry_equiv_pos_site_id
 _symmetry_equiv_pos_as_xyz
  1  'x, y, z'
loop_
 _atom_site_type_symbol
 _atom_site_label
 _atom_site_symmetry_multiplicity
 _atom_site_fract_x
 _atom_site_fract_y
 _atom_site_fract_z
 _atom_site_occupancy
  Si  Si0  1  0.205214  0.927441  0.250000  1
  Si  Si1  1  0.072559  0.277773  0.250000  1
  Si  Si2  1  0.277773  0.205214  0.750000  1
  Si  Si3  1  0.722227  0.794786  0.250000  1
  Si  Si4  1  0.927441  0.722227  0.750000  1
  Si  Si5  1  0.794786  0.072559  0.750000  1
  Sb  Sb6  1  0.333333  0.666667  0.991188  1
  Sb  Sb7  1  0.333333  0.666667  0.508812  1
  Sb  Sb8  1  0.666667  0.333333  0.491188  1
  Sb  Sb9  1  0.666667  0.333333  0.008812  1
  O  O10  1  0.181606  0.936323  0.750000  1
  O  O11  1  0.322452  0.903373  0.107655  1
  O  O12  1  0.322452  0.903373  0.392345  1
  O  O13  1  0.096627  0.419078  0.107655  1
  O  O14  1  0.096627  0.419078  0.392345  1
  O  O15  1  0.063677  0.245283  0.750000  1
  O  O16  1  0.245283  0.181606  0.250000  1
  O  O17  1  0.580922  0.677548  0.107655  1
  O  O18  1  0.580922  0.677548  0.392345  1
  O  O19  1  0.419078  0.322452  0.607655  1
  O  O20  1  0.419078  0.322452  0.892345  1
  O  O21  1  0.754717  0.818394  0.750000  1
  O  O22  1  0.936323  0.754717  0.250000  1
  O  O23  1  0.903373  0.580922  0.607655  1
  O  O24  1  0.903373  0.580922  0.892345  1
  O  O25  1  0.677548  0.096627  0.607655  1
  O  O26  1  0.677548  0.096627  0.892345  1
  O  O27  1  0.818394  0.063677  0.250000  1
