# generated using pymatgen
data_Na(WO3)9
_symmetry_space_group_name_H-M   'P 1'
_cell_length_a   8.65712660
_cell_length_b   8.65712660
_cell_length_c   8.65712660
_cell_angle_alpha   66.42269745
_cell_angle_beta   66.42269745
_cell_angle_gamma   66.42269745
_symmetry_Int_Tables_number   1
_chemical_formula_structural   Na(WO3)9
_chemical_formula_sum   'Na1 W9 O27'
_cell_volume   522.29464141
_cell_formula_units_Z   1
loop_
 _symmetry_equiv_pos_site_id
 _symmetry_equiv_pos_as_xyz
  1  'x, y, z'
loop_
 _atom_site_type_symbol
 _atom_site_label
 _atom_site_symmetry_multiplicity
 _atom_site_fract_x
 _atom_site_fract_y
 _atom_site_fract_z
 _atom_site_occupancy
  Na  Na0  1  0.000000  0.000000  1.000000  1
  W  W1  1  0.500000  0.500000  0.500000  1
  W  W2  1  0.609514  0.279569  0.943134  1
  W  W3  1  0.832334  0.832334  0.832334  1
  W  W4  1  0.056866  0.390486  0.720431  1
  W  W5  1  0.167666  0.167666  0.167666  1
  W  W6  1  0.943134  0.609514  0.279569  1
  W  W7  1  0.720431  0.056866  0.390486  1
  W  W8  1  0.279569  0.943134  0.609514  1
  W  W9  1  0.390486  0.720431  0.056866  1
  O  O10  1  0.610940  0.277937  0.444627  1
  O  O11  1  0.669806  0.165024  0.165047  1
  O  O12  1  0.500000  0.500000  0.000000  1
  O  O13  1  0.555373  0.389060  0.722063  1
  O  O14  1  0.611112  0.777618  0.944442  1
  O  O15  1  0.834953  0.330194  0.834976  1
  O  O16  1  0.500000  0.000000  0.500000  1
  O  O17  1  0.722063  0.555373  0.389060  1
  O  O18  1  0.724864  0.055013  0.889918  1
  O  O19  1  0.889918  0.724864  0.055013  1
  O  O20  1  0.834976  0.834953  0.330194  1
  O  O21  1  0.055558  0.388888  0.222382  1
  O  O22  1  0.165024  0.165047  0.669806  1
  O  O23  1  0.944442  0.611112  0.777618  1
  O  O24  1  0.110082  0.275136  0.944987  1
  O  O25  1  0.000000  0.500000  0.500000  1
  O  O26  1  0.777618  0.944442  0.611112  1
  O  O27  1  0.055013  0.889918  0.724864  1
  O  O28  1  0.388888  0.222382  0.055558  1
  O  O29  1  0.277937  0.444627  0.610940  1
  O  O30  1  0.944987  0.110082  0.275136  1
  O  O31  1  0.165047  0.669806  0.165024  1
  O  O32  1  0.330194  0.834976  0.834953  1
  O  O33  1  0.444627  0.610940  0.277937  1
  O  O34  1  0.222382  0.055558  0.388888  1
  O  O35  1  0.275136  0.944987  0.110082  1
  O  O36  1  0.389060  0.722063  0.555373  1
