# generated using pymatgen
data_SrBi5O9
_symmetry_space_group_name_H-M   'P 1'
_cell_length_a   4.06570089
_cell_length_b   6.89485177
_cell_length_c   9.99715593
_cell_angle_alpha   98.18353641
_cell_angle_beta   101.61318791
_cell_angle_gamma   90.08465870
_symmetry_Int_Tables_number   1
_chemical_formula_structural   SrBi5O9
_chemical_formula_sum   'Sr1 Bi5 O9'
_cell_volume   271.58091539
_cell_formula_units_Z   1
loop_
 _symmetry_equiv_pos_site_id
 _symmetry_equiv_pos_as_xyz
  1  'x, y, z'
loop_
 _atom_site_type_symbol
 _atom_site_label
 _atom_site_symmetry_multiplicity
 _atom_site_fract_x
 _atom_site_fract_y
 _atom_site_fract_z
 _atom_site_occupancy
  Sr  Sr0  1  0.027309  0.000714  0.011643  1
  Bi  Bi1  1  0.178944  0.416569  0.317864  1
  Bi  Bi2  1  0.363803  0.101797  0.682754  1
  Bi  Bi3  1  0.521715  0.502854  0.012710  1
  Bi  Bi4  1  0.678763  0.876256  0.331186  1
  Bi  Bi5  1  0.862405  0.604395  0.674294  1
  O  O6  1  0.357601  0.433883  0.664473  1
  O  O7  1  0.188088  0.092694  0.307037  1
  O  O8  1  0.069283  0.380336  0.096759  1
  O  O9  1  0.222841  0.737632  0.399824  1
  O  O10  1  0.469733  0.149214  0.897094  1
  O  O11  1  0.863598  0.940149  0.684185  1
  O  O12  1  0.652823  0.516961  0.267117  1
  O  O13  1  0.574910  0.832605  0.111793  1
  O  O14  1  0.972041  0.638360  0.887664  1
