# generated using pymatgen
data_KSr3La8Mn12O36
_symmetry_space_group_name_H-M   'P 1'
_cell_length_a   5.52132196
_cell_length_b   16.67674210
_cell_length_c   7.83233664
_cell_angle_alpha   90.00000000
_cell_angle_beta   90.58141041
_cell_angle_gamma   90.00000000
_symmetry_Int_Tables_number   1
_chemical_formula_structural   KSr3La8Mn12O36
_chemical_formula_sum   'K1 Sr3 La8 Mn12 O36'
_cell_volume   721.14611899
_cell_formula_units_Z   1
loop_
 _symmetry_equiv_pos_site_id
 _symmetry_equiv_pos_as_xyz
  1  'x, y, z'
loop_
 _atom_site_type_symbol
 _atom_site_label
 _atom_site_symmetry_multiplicity
 _atom_site_fract_x
 _atom_site_fract_y
 _atom_site_fract_z
 _atom_site_occupancy
  K  K0  1  0.000000  0.166633  0.500000  1
  Sr  Sr1  1  0.000000  0.832726  0.000000  1
  Sr  Sr2  1  0.500000  0.667566  0.500000  1
  Sr  Sr3  1  0.000000  0.500509  0.000000  1
  La  La4  1  0.000000  0.833766  0.500000  1
  La  La5  1  0.500000  0.332076  0.500000  1
  La  La6  1  0.500000  0.666590  0.000000  1
  La  La7  1  0.000000  0.165767  0.000000  1
  La  La8  1  0.000000  0.501941  0.500000  1
  La  La9  1  0.500000  0.001424  0.500000  1
  La  La10  1  0.500000  0.332037  0.000000  1
  La  La11  1  0.500000  0.999072  0.000000  1
  Mn  Mn12  1  0.999501  0.000525  0.250570  1
  Mn  Mn13  1  0.499360  0.500163  0.750712  1
  Mn  Mn14  1  0.499621  0.832669  0.249479  1
  Mn  Mn15  1  0.500379  0.832669  0.750521  1
  Mn  Mn16  1  0.000112  0.666700  0.749922  1
  Mn  Mn17  1  0.999888  0.666700  0.250078  1
  Mn  Mn18  1  0.500640  0.500163  0.249288  1
  Mn  Mn19  1  0.999550  0.332928  0.749382  1
  Mn  Mn20  1  0.000450  0.332928  0.250618  1
  Mn  Mn21  1  0.500295  0.166963  0.253057  1
  Mn  Mn22  1  0.499705  0.166963  0.746943  1
  Mn  Mn23  1  0.000499  0.000525  0.749430  1
  O  O24  1  0.770760  0.909955  0.721912  1
  O  O25  1  0.000000  0.987345  0.000000  1
  O  O26  1  0.229240  0.909955  0.278088  1
  O  O27  1  0.275360  0.742025  0.224348  1
  O  O28  1  0.276944  0.925400  0.724985  1
  O  O29  1  0.500000  0.822155  0.500000  1
  O  O30  1  0.500000  0.850136  0.000000  1
  O  O31  1  0.724640  0.742025  0.775652  1
  O  O32  1  0.723056  0.925400  0.275015  1
  O  O33  1  0.773914  0.574635  0.723863  1
  O  O34  1  0.769834  0.757210  0.231194  1
  O  O35  1  0.000000  0.653833  0.000000  1
  O  O36  1  0.000000  0.683278  0.500000  1
  O  O37  1  0.226086  0.574635  0.276137  1
  O  O38  1  0.230166  0.757210  0.768806  1
  O  O39  1  0.277633  0.407623  0.230657  1
  O  O40  1  0.269806  0.589374  0.729772  1
  O  O41  1  0.500000  0.482083  0.500000  1
  O  O42  1  0.500000  0.516686  0.000000  1
  O  O43  1  0.722367  0.407623  0.769343  1
  O  O44  1  0.730194  0.589374  0.270228  1
  O  O45  1  0.760957  0.246469  0.742120  1
  O  O46  1  0.768617  0.422975  0.232897  1
  O  O47  1  0.000000  0.316896  0.000000  1
  O  O48  1  0.000000  0.351964  0.500000  1
  O  O49  1  0.239043  0.246469  0.257880  1
  O  O50  1  0.231383  0.422975  0.767103  1
  O  O51  1  0.276802  0.073952  0.221990  1
  O  O52  1  0.281321  0.261323  0.736294  1
  O  O53  1  0.500000  0.149869  0.500000  1
  O  O54  1  0.500000  0.181839  0.000000  1
  O  O55  1  0.723198  0.073952  0.778010  1
  O  O56  1  0.718679  0.261323  0.263706  1
  O  O57  1  0.764950  0.087800  0.213562  1
  O  O58  1  0.000000  0.006427  0.500000  1
  O  O59  1  0.235050  0.087800  0.786438  1
