# generated using pymatgen
data_FeCu(PO4)2
_symmetry_space_group_name_H-M   'P 1'
_cell_length_a   5.04909780
_cell_length_b   5.96661733
_cell_length_c   10.00434425
_cell_angle_alpha   90.00000000
_cell_angle_beta   93.63918996
_cell_angle_gamma   90.00000000
_symmetry_Int_Tables_number   1
_chemical_formula_structural   FeCu(PO4)2
_chemical_formula_sum   'Fe2 Cu2 P4 O16'
_cell_volume   300.78347812
_cell_formula_units_Z   2
loop_
 _symmetry_equiv_pos_site_id
 _symmetry_equiv_pos_as_xyz
  1  'x, y, z'
loop_
 _atom_site_type_symbol
 _atom_site_label
 _atom_site_symmetry_multiplicity
 _atom_site_fract_x
 _atom_site_fract_y
 _atom_site_fract_z
 _atom_site_occupancy
  Fe  Fe0  1  0.459080  0.750000  0.717396  1
  Fe  Fe1  1  0.540920  0.250000  0.282604  1
  Cu  Cu2  1  0.867561  0.250000  0.803822  1
  Cu  Cu3  1  0.132439  0.750000  0.196178  1
  P  P4  1  0.403115  0.250000  0.604267  1
  P  P5  1  0.941569  0.750000  0.898194  1
  P  P6  1  0.058431  0.250000  0.101806  1
  P  P7  1  0.596885  0.750000  0.395733  1
  O  O8  1  0.643231  0.750000  0.549096  1
  O  O9  1  0.713582  0.250000  0.632678  1
  O  O10  1  0.284058  0.039535  0.668333  1
  O  O11  1  0.284058  0.460465  0.668333  1
  O  O12  1  0.771289  0.943974  0.826488  1
  O  O13  1  0.771289  0.556026  0.826488  1
  O  O14  1  0.235091  0.750000  0.876112  1
  O  O15  1  0.110103  0.250000  0.951209  1
  O  O16  1  0.889897  0.750000  0.048791  1
  O  O17  1  0.764909  0.250000  0.123888  1
  O  O18  1  0.228711  0.056026  0.173512  1
  O  O19  1  0.228711  0.443974  0.173512  1
  O  O20  1  0.715942  0.539535  0.331667  1
  O  O21  1  0.715942  0.960465  0.331667  1
  O  O22  1  0.286418  0.750000  0.367322  1
  O  O23  1  0.356769  0.250000  0.450904  1
