# generated using pymatgen
data_Sn(PO3)2
_symmetry_space_group_name_H-M   'P 1'
_cell_length_a   8.08043676
_cell_length_b   8.08043676
_cell_length_c   9.77355728
_cell_angle_alpha   90.00000000
_cell_angle_beta   90.00000000
_cell_angle_gamma   90.15680152
_symmetry_Int_Tables_number   1
_chemical_formula_structural   Sn(PO3)2
_chemical_formula_sum   'Sn4 P8 O24'
_cell_volume   638.14696459
_cell_formula_units_Z   4
loop_
 _symmetry_equiv_pos_site_id
 _symmetry_equiv_pos_as_xyz
  1  'x, y, z'
loop_
 _atom_site_type_symbol
 _atom_site_label
 _atom_site_symmetry_multiplicity
 _atom_site_fract_x
 _atom_site_fract_y
 _atom_site_fract_z
 _atom_site_occupancy
  Sn  Sn0  1  0.689050  0.146544  0.491425  1
  Sn  Sn1  1  0.146544  0.689050  0.508575  1
  Sn  Sn2  1  0.853456  0.310950  0.008575  1
  Sn  Sn3  1  0.310950  0.853456  0.991425  1
  P  P4  1  0.617722  0.840131  0.238131  1
  P  P5  1  0.840131  0.617722  0.761869  1
  P  P6  1  0.852234  0.852234  1.000000  1
  P  P7  1  0.471599  0.528401  0.750000  1
  P  P8  1  0.528401  0.471599  0.250000  1
  P  P9  1  0.147766  0.147766  0.500000  1
  P  P10  1  0.382278  0.159869  0.738131  1
  P  P11  1  0.159869  0.382278  0.261869  1
  O  O12  1  0.537660  0.667862  0.286741  1
  O  O13  1  0.667862  0.537660  0.713259  1
  O  O14  1  0.710079  0.914225  0.358528  1
  O  O15  1  0.914225  0.710079  0.641472  1
  O  O16  1  0.750755  0.775219  0.127119  1
  O  O17  1  0.775219  0.750755  0.872881  1
  O  O18  1  0.512890  0.053300  0.673393  1
  O  O19  1  0.053300  0.512890  0.326607  1
  O  O20  1  0.377330  0.564428  0.621363  1
  O  O21  1  0.564428  0.377330  0.378637  1
  O  O22  1  0.030274  0.805140  0.019761  1
  O  O23  1  0.805140  0.030274  0.980239  1
  O  O24  1  0.969726  0.194860  0.519761  1
  O  O25  1  0.194860  0.969726  0.480239  1
  O  O26  1  0.435572  0.622670  0.878637  1
  O  O27  1  0.622670  0.435572  0.121363  1
  O  O28  1  0.946700  0.487110  0.826607  1
  O  O29  1  0.487110  0.946700  0.173393  1
  O  O30  1  0.249245  0.224781  0.627119  1
  O  O31  1  0.224781  0.249245  0.372881  1
  O  O32  1  0.289921  0.085775  0.858528  1
  O  O33  1  0.085775  0.289921  0.141472  1
  O  O34  1  0.332138  0.462340  0.213259  1
  O  O35  1  0.462340  0.332138  0.786741  1
