# generated using pymatgen
data_Li3V3(BO5)2
_symmetry_space_group_name_H-M   'P 1'
_cell_length_a   9.43392813
_cell_length_b   2.99295924
_cell_length_c   12.06467373
_cell_angle_alpha   90.00000000
_cell_angle_beta   90.84567617
_cell_angle_gamma   90.00000000
_symmetry_Int_Tables_number   1
_chemical_formula_structural   Li3V3(BO5)2
_chemical_formula_sum   'Li6 V6 B4 O20'
_cell_volume   340.61332972
_cell_formula_units_Z   2
loop_
 _symmetry_equiv_pos_site_id
 _symmetry_equiv_pos_as_xyz
  1  'x, y, z'
loop_
 _atom_site_type_symbol
 _atom_site_label
 _atom_site_symmetry_multiplicity
 _atom_site_fract_x
 _atom_site_fract_y
 _atom_site_fract_z
 _atom_site_occupancy
  Li  Li0  1  0.992016  0.500000  0.003116  1
  Li  Li1  1  0.001559  0.500000  0.275845  1
  Li  Li2  1  0.500198  0.500000  0.496493  1
  Li  Li3  1  0.494346  0.000000  0.012627  1
  Li  Li4  1  0.495154  0.500000  0.210779  1
  Li  Li5  1  0.999861  0.500000  0.721810  1
  V  V6  1  0.004371  0.000000  0.498993  1
  V  V7  1  0.756131  0.000000  0.113812  1
  V  V8  1  0.737549  0.000000  0.611964  1
  V  V9  1  0.495632  0.500000  0.786772  1
  V  V10  1  0.264467  0.000000  0.380038  1
  V  V11  1  0.229269  0.000000  0.897828  1
  B  B12  1  0.768685  0.000000  0.858731  1
  B  B13  1  0.736388  0.000000  0.361744  1
  B  B14  1  0.271265  0.000000  0.632632  1
  B  B15  1  0.237384  0.000000  0.141858  1
  O  O16  1  0.877766  0.500000  0.145487  1
  O  O17  1  0.879634  0.500000  0.570225  1
  O  O18  1  0.882708  0.000000  0.365442  1
  O  O19  1  0.838223  0.000000  0.757913  1
  O  O20  1  0.841244  0.000000  0.957043  1
  O  O21  1  0.658939  0.000000  0.461273  1
  O  O22  1  0.664745  0.000000  0.261801  1
  O  O23  1  0.617329  0.000000  0.854101  1
  O  O24  1  0.632384  0.500000  0.073139  1
  O  O25  1  0.614533  0.500000  0.651531  1
  O  O26  1  0.375404  0.500000  0.353422  1
  O  O27  1  0.374551  0.500000  0.919994  1
  O  O28  1  0.379083  0.000000  0.142010  1
  O  O29  1  0.348982  0.000000  0.736183  1
  O  O30  1  0.349072  0.000000  0.537912  1
  O  O31  1  0.153165  0.000000  0.042530  1
  O  O32  1  0.159194  0.000000  0.240405  1
  O  O33  1  0.126166  0.000000  0.637227  1
  O  O34  1  0.122558  0.500000  0.430686  1
  O  O35  1  0.120043  0.500000  0.856636  1
