# generated using pymatgen
data_Li3SiSbCO7
_symmetry_space_group_name_H-M   'P 1'
_cell_length_a   5.04498712
_cell_length_b   6.87162295
_cell_length_c   9.07251978
_cell_angle_alpha   90.00000000
_cell_angle_beta   93.34798441
_cell_angle_gamma   90.00000000
_symmetry_Int_Tables_number   1
_chemical_formula_structural   Li3SiSbCO7
_chemical_formula_sum   'Li6 Si2 Sb2 C2 O14'
_cell_volume   313.98250114
_cell_formula_units_Z   2
loop_
 _symmetry_equiv_pos_site_id
 _symmetry_equiv_pos_as_xyz
  1  'x, y, z'
loop_
 _atom_site_type_symbol
 _atom_site_label
 _atom_site_symmetry_multiplicity
 _atom_site_fract_x
 _atom_site_fract_y
 _atom_site_fract_z
 _atom_site_occupancy
  Li  Li0  1  0.833058  0.250000  0.080156  1
  Li  Li1  1  0.223804  0.052383  0.282912  1
  Li  Li2  1  0.223804  0.447617  0.282912  1
  Li  Li3  1  0.776196  0.552383  0.717088  1
  Li  Li4  1  0.776196  0.947617  0.717088  1
  Li  Li5  1  0.166942  0.750000  0.919844  1
  Si  Si6  1  0.730457  0.250000  0.405040  1
  Si  Si7  1  0.269543  0.750000  0.594960  1
  Sb  Sb8  1  0.752959  0.750000  0.339129  1
  Sb  Sb9  1  0.247041  0.250000  0.660871  1
  C  C10  1  0.708531  0.750000  0.020636  1
  C  C11  1  0.291469  0.250000  0.979364  1
  O  O12  1  0.235245  0.250000  0.116894  1
  O  O13  1  0.915397  0.750000  0.117773  1
  O  O14  1  0.470776  0.750000  0.063166  1
  O  O15  1  0.836833  0.063451  0.310691  1
  O  O16  1  0.836833  0.436549  0.310691  1
  O  O17  1  0.405642  0.250000  0.412575  1
  O  O18  1  0.145366  0.750000  0.418907  1
  O  O19  1  0.854634  0.250000  0.581093  1
  O  O20  1  0.594358  0.750000  0.587425  1
  O  O21  1  0.163167  0.563451  0.689309  1
  O  O22  1  0.163167  0.936549  0.689309  1
  O  O23  1  0.529224  0.250000  0.936834  1
  O  O24  1  0.084603  0.250000  0.882227  1
  O  O25  1  0.764755  0.750000  0.883106  1
