# generated using pymatgen
data_LiFe2(BO3)2
_symmetry_space_group_name_H-M   'P 1'
_cell_length_a   5.26593562
_cell_length_b   9.07275566
_cell_length_c   10.21963553
_cell_angle_alpha   90.00000000
_cell_angle_beta   91.32572753
_cell_angle_gamma   90.00000000
_symmetry_Int_Tables_number   1
_chemical_formula_structural   LiFe2(BO3)2
_chemical_formula_sum   'Li4 Fe8 B8 O24'
_cell_volume   488.12820248
_cell_formula_units_Z   4
loop_
 _symmetry_equiv_pos_site_id
 _symmetry_equiv_pos_as_xyz
  1  'x, y, z'
loop_
 _atom_site_type_symbol
 _atom_site_label
 _atom_site_symmetry_multiplicity
 _atom_site_fract_x
 _atom_site_fract_y
 _atom_site_fract_z
 _atom_site_occupancy
  Li  Li0  1  0.355318  0.995687  0.914843  1
  Li  Li1  1  0.147174  0.513805  0.666528  1
  Li  Li2  1  0.147174  0.486195  0.166528  1
  Li  Li3  1  0.355318  0.004313  0.414843  1
  Fe  Fe4  1  0.839317  0.825610  0.873588  1
  Fe  Fe5  1  0.157569  0.847917  0.627810  1
  Fe  Fe6  1  0.659236  0.675576  0.135146  1
  Fe  Fe7  1  0.344411  0.657327  0.384766  1
  Fe  Fe8  1  0.659236  0.324424  0.635146  1
  Fe  Fe9  1  0.839317  0.174390  0.373588  1
  Fe  Fe10  1  0.344411  0.342673  0.884766  1
  Fe  Fe11  1  0.157569  0.152083  0.127810  1
  B  B12  1  0.846699  0.845108  0.372631  1
  B  B13  1  0.655045  0.654898  0.635431  1
  B  B14  1  0.173900  0.819754  0.120438  1
  B  B15  1  0.332540  0.679262  0.876907  1
  B  B16  1  0.655045  0.345102  0.135431  1
  B  B17  1  0.332540  0.320738  0.376907  1
  B  B18  1  0.846699  0.154892  0.872631  1
  B  B19  1  0.173900  0.180246  0.620438  1
  O  O20  1  0.716133  0.977583  0.378378  1
  O  O21  1  0.922390  0.807625  0.075058  1
  O  O22  1  0.298374  0.950723  0.114115  1
  O  O23  1  0.793044  0.777456  0.681408  1
  O  O24  1  0.712351  0.721954  0.326860  1
  O  O25  1  0.207220  0.812930  0.843437  1
  O  O26  1  0.100715  0.836303  0.412604  1
  O  O27  1  0.575267  0.693628  0.933325  1
  O  O28  1  0.781177  0.521943  0.631473  1
  O  O29  1  0.400574  0.666430  0.595596  1
  O  O30  1  0.291928  0.688988  0.163856  1
  O  O31  1  0.781177  0.478057  0.131473  1
  O  O32  1  0.223190  0.547171  0.855040  1
  O  O33  1  0.712351  0.278046  0.826860  1
  O  O34  1  0.575267  0.306372  0.433325  1
  O  O35  1  0.223190  0.452829  0.355040  1
  O  O36  1  0.400574  0.333570  0.095596  1
  O  O37  1  0.922390  0.192375  0.575058  1
  O  O38  1  0.793044  0.222544  0.181408  1
  O  O39  1  0.291928  0.311012  0.663856  1
  O  O40  1  0.207220  0.187070  0.343437  1
  O  O41  1  0.716133  0.022417  0.878378  1
  O  O42  1  0.100715  0.163697  0.912604  1
  O  O43  1  0.298374  0.049277  0.614115  1
