# generated using pymatgen
data_LiTi2VO6
_symmetry_space_group_name_H-M   'P 1'
_cell_length_a   6.59213340
_cell_length_b   6.59213340
_cell_length_c   6.02016854
_cell_angle_alpha   77.57808838
_cell_angle_beta   102.42191162
_cell_angle_gamma   153.70796294
_symmetry_Int_Tables_number   1
_chemical_formula_structural   LiTi2VO6
_chemical_formula_sum   'Li1 Ti2 V1 O6'
_cell_volume   113.01832480
_cell_formula_units_Z   1
loop_
 _symmetry_equiv_pos_site_id
 _symmetry_equiv_pos_as_xyz
  1  'x, y, z'
loop_
 _atom_site_type_symbol
 _atom_site_label
 _atom_site_symmetry_multiplicity
 _atom_site_fract_x
 _atom_site_fract_y
 _atom_site_fract_z
 _atom_site_occupancy
  Li  Li0  1  0.500000  0.500000  0.500000  1
  Ti  Ti1  1  0.180929  0.819071  0.301684  1
  Ti  Ti2  1  0.819071  0.180929  0.698316  1
  V  V3  1  0.500000  0.500000  0.000000  1
  O  O4  1  0.981313  0.018687  0.764052  1
  O  O5  1  0.327200  0.672800  0.461975  1
  O  O6  1  0.018687  0.981313  0.235948  1
  O  O7  1  0.332682  0.667318  0.898982  1
  O  O8  1  0.672800  0.327200  0.538025  1
  O  O9  1  0.667318  0.332682  0.101018  1
