# generated using pymatgen
data_V2OF5
_symmetry_space_group_name_H-M   'P 1'
_cell_length_a   5.27511758
_cell_length_b   5.43831784
_cell_length_c   17.36666375
_cell_angle_alpha   88.88090352
_cell_angle_beta   98.17072652
_cell_angle_gamma   118.78310826
_symmetry_Int_Tables_number   1
_chemical_formula_structural   V2OF5
_chemical_formula_sum   'V8 O4 F20'
_cell_volume   431.53649612
_cell_formula_units_Z   4
loop_
 _symmetry_equiv_pos_site_id
 _symmetry_equiv_pos_as_xyz
  1  'x, y, z'
loop_
 _atom_site_type_symbol
 _atom_site_label
 _atom_site_symmetry_multiplicity
 _atom_site_fract_x
 _atom_site_fract_y
 _atom_site_fract_z
 _atom_site_occupancy
  V  V0  1  0.245260  0.622668  0.876173  1
  V  V1  1  0.248665  0.123611  0.375496  1
  V  V2  1  0.500755  0.252718  0.748282  1
  V  V3  1  0.505185  0.743083  0.243055  1
  V  V4  1  0.734691  0.842993  0.629021  1
  V  V5  1  0.748025  0.390700  0.125059  1
  V  V6  1  0.999450  0.034145  0.995025  1
  V  V7  1  0.005743  0.475959  0.494029  1
  O  O8  1  0.042523  0.307405  0.941554  1
  O  O9  1  0.080904  0.329530  0.422901  1
  O  O10  1  0.557127  0.568325  0.683775  1
  O  O11  1  0.580209  0.596126  0.170378  1
  F  F12  1  0.068151  0.835918  0.912696  1
  F  F13  1  0.021883  0.798844  0.436058  1
  F  F14  1  0.468969  0.940850  0.811734  1
  F  F15  1  0.072618  0.037863  0.711441  1
  F  F16  1  0.077001  0.542219  0.212544  1
  F  F17  1  0.574338  0.797887  0.962980  1
  F  F18  1  0.431271  0.421329  0.837485  1
  F  F19  1  0.419661  0.907330  0.332029  1
  F  F20  1  0.423651  0.713220  0.538453  1
  F  F21  1  0.476786  0.446565  0.315236  1
  F  F22  1  0.569042  0.071622  0.662105  1
  F  F23  1  0.576958  0.279061  0.462951  1
  F  F24  1  0.421069  0.209722  0.038515  1
  F  F25  1  0.928266  0.664174  0.581310  1
  F  F26  1  0.929775  0.455100  0.788459  1
  F  F27  1  0.922065  0.974380  0.288533  1
  F  F28  1  0.519837  0.066188  0.187234  1
  F  F29  1  0.965892  0.702573  0.059705  1
  F  F30  1  0.962850  0.181262  0.567823  1
  F  F31  1  0.921377  0.166627  0.087960  1
