# generated using pymatgen
data_NiH8(ClO2)2
_symmetry_space_group_name_H-M   'P 1'
_cell_length_a   6.09967719
_cell_length_b   9.45117234
_cell_length_c   11.50747300
_cell_angle_alpha   90.00000000
_cell_angle_beta   110.93843948
_cell_angle_gamma   90.00000000
_symmetry_Int_Tables_number   1
_chemical_formula_structural   NiH8(ClO2)2
_chemical_formula_sum   'Ni4 H32 Cl8 O16'
_cell_volume   619.58810028
_cell_formula_units_Z   4
loop_
 _symmetry_equiv_pos_site_id
 _symmetry_equiv_pos_as_xyz
  1  'x, y, z'
loop_
 _atom_site_type_symbol
 _atom_site_label
 _atom_site_symmetry_multiplicity
 _atom_site_fract_x
 _atom_site_fract_y
 _atom_site_fract_z
 _atom_site_occupancy
  Ni  Ni0  1  0.241275  0.671788  0.737226  1
  Ni  Ni1  1  0.758725  0.171788  0.762774  1
  Ni  Ni2  1  0.758725  0.328212  0.262774  1
  Ni  Ni3  1  0.241275  0.828212  0.237226  1
  H  H4  1  0.452858  0.706226  0.574121  1
  H  H5  1  0.547142  0.206226  0.925879  1
  H  H6  1  0.547142  0.293774  0.425879  1
  H  H7  1  0.452858  0.793774  0.074121  1
  H  H8  1  0.653495  0.679361  0.704395  1
  H  H9  1  0.346505  0.179361  0.795605  1
  H  H10  1  0.346505  0.320639  0.295605  1
  H  H11  1  0.653495  0.820639  0.204395  1
  H  H12  1  0.009468  0.650590  0.889165  1
  H  H13  1  0.990532  0.150590  0.610835  1
  H  H14  1  0.990532  0.349410  0.110835  1
  H  H15  1  0.009468  0.849410  0.389165  1
  H  H16  1  0.964725  0.508243  0.817213  1
  H  H17  1  0.035275  0.008243  0.682787  1
  H  H18  1  0.035275  0.491757  0.182787  1
  H  H19  1  0.964725  0.991757  0.317213  1
  H  H20  1  0.185916  0.407394  0.686238  1
  H  H21  1  0.814084  0.907394  0.813762  1
  H  H22  1  0.814084  0.592606  0.313762  1
  H  H23  1  0.185916  0.092606  0.186238  1
  H  H24  1  0.977959  0.478908  0.585869  1
  H  H25  1  0.022041  0.978908  0.914131  1
  H  H26  1  0.022041  0.521092  0.414131  1
  H  H27  1  0.977959  0.021092  0.085869  1
  H  H28  1  0.613892  0.578028  0.933324  1
  H  H29  1  0.386108  0.078028  0.566676  1
  H  H30  1  0.386108  0.421972  0.066676  1
  H  H31  1  0.613892  0.921972  0.433324  1
  H  H32  1  0.515413  0.439692  0.851620  1
  H  H33  1  0.484587  0.939692  0.648380  1
  H  H34  1  0.484587  0.560308  0.148380  1
  H  H35  1  0.515413  0.060308  0.351620  1
  Cl  Cl36  1  0.337243  0.854776  0.887435  1
  Cl  Cl37  1  0.662757  0.354776  0.612565  1
  Cl  Cl38  1  0.662757  0.145224  0.112565  1
  Cl  Cl39  1  0.337243  0.645224  0.387435  1
  Cl  Cl40  1  0.971327  0.813928  0.573848  1
  Cl  Cl41  1  0.028673  0.313928  0.926152  1
  Cl  Cl42  1  0.028673  0.186072  0.426152  1
  Cl  Cl43  1  0.971327  0.686072  0.073848  1
  O  O44  1  0.503852  0.730948  0.664613  1
  O  O45  1  0.496148  0.230948  0.835387  1
  O  O46  1  0.496148  0.269052  0.335387  1
  O  O47  1  0.503852  0.769052  0.164613  1
  O  O48  1  0.967097  0.612060  0.803736  1
  O  O49  1  0.032903  0.112060  0.696264  1
  O  O50  1  0.032903  0.387940  0.196264  1
  O  O51  1  0.967097  0.887940  0.303736  1
  O  O52  1  0.149595  0.488023  0.630199  1
  O  O53  1  0.850405  0.988023  0.869801  1
  O  O54  1  0.850405  0.511977  0.369801  1
  O  O55  1  0.149595  0.011977  0.130199  1
  O  O56  1  0.479265  0.538316  0.866408  1
  O  O57  1  0.520735  0.038316  0.633592  1
  O  O58  1  0.520735  0.461684  0.133592  1
  O  O59  1  0.479265  0.961684  0.366408  1
