# generated using pymatgen
data_LiMnP2O7
_symmetry_space_group_name_H-M   'P 1'
_cell_length_a   7.13329275
_cell_length_b   9.81243938
_cell_length_c   8.42105077
_cell_angle_alpha   90.00000000
_cell_angle_beta   110.78405600
_cell_angle_gamma   90.00000000
_symmetry_Int_Tables_number   1
_chemical_formula_structural   LiMnP2O7
_chemical_formula_sum   'Li4 Mn4 P8 O28'
_cell_volume   551.07389818
_cell_formula_units_Z   4
loop_
 _symmetry_equiv_pos_site_id
 _symmetry_equiv_pos_as_xyz
  1  'x, y, z'
loop_
 _atom_site_type_symbol
 _atom_site_label
 _atom_site_symmetry_multiplicity
 _atom_site_fract_x
 _atom_site_fract_y
 _atom_site_fract_z
 _atom_site_occupancy
  Li  Li0  1  0.393495  0.846517  0.959871  1
  Li  Li1  1  0.393495  0.653483  0.459871  1
  Li  Li2  1  0.606505  0.346517  0.540129  1
  Li  Li3  1  0.606505  0.153483  0.040129  1
  Mn  Mn4  1  0.271227  0.397033  0.746961  1
  Mn  Mn5  1  0.271227  0.102967  0.246961  1
  Mn  Mn6  1  0.728773  0.897033  0.753039  1
  Mn  Mn7  1  0.728773  0.602967  0.253039  1
  P  P8  1  0.037970  0.142710  0.794308  1
  P  P9  1  0.037970  0.357290  0.294308  1
  P  P10  1  0.363885  0.094365  0.684609  1
  P  P11  1  0.363885  0.405635  0.184609  1
  P  P12  1  0.636115  0.594365  0.815391  1
  P  P13  1  0.636115  0.905635  0.315391  1
  P  P14  1  0.962030  0.642710  0.705692  1
  P  P15  1  0.962030  0.857290  0.205692  1
  O  O16  1  0.020186  0.294264  0.739643  1
  O  O17  1  0.171661  0.111495  0.973887  1
  O  O18  1  0.174486  0.582947  0.757306  1
  O  O19  1  0.135898  0.066578  0.668187  1
  O  O20  1  0.020186  0.205736  0.239643  1
  O  O21  1  0.171661  0.388505  0.473887  1
  O  O22  1  0.381169  0.394054  0.014559  1
  O  O23  1  0.174486  0.917053  0.257306  1
  O  O24  1  0.135898  0.433422  0.168187  1
  O  O25  1  0.432295  0.226761  0.792549  1
  O  O26  1  0.381169  0.105946  0.514559  1
  O  O27  1  0.513035  0.477465  0.701163  1
  O  O28  1  0.486965  0.977465  0.798837  1
  O  O29  1  0.432295  0.273239  0.292549  1
  O  O30  1  0.567705  0.726761  0.707451  1
  O  O31  1  0.513035  0.022535  0.201163  1
  O  O32  1  0.486965  0.522535  0.298837  1
  O  O33  1  0.618831  0.894054  0.485441  1
  O  O34  1  0.567705  0.773239  0.207451  1
  O  O35  1  0.864102  0.566578  0.831813  1
  O  O36  1  0.825514  0.082947  0.742694  1
  O  O37  1  0.618831  0.605946  0.985441  1
  O  O38  1  0.828339  0.611495  0.526113  1
  O  O39  1  0.979814  0.794264  0.760357  1
  O  O40  1  0.864102  0.933422  0.331813  1
  O  O41  1  0.825514  0.417053  0.242694  1
  O  O42  1  0.828339  0.888505  0.026113  1
  O  O43  1  0.979814  0.705736  0.260357  1
