# generated using pymatgen
data_Er(ReO4)2
_symmetry_space_group_name_H-M   'P 1'
_cell_length_a   6.05563364
_cell_length_b   6.05563364
_cell_length_c   6.27779345
_cell_angle_alpha   90.00000000
_cell_angle_beta   90.00000000
_cell_angle_gamma   120.00000000
_symmetry_Int_Tables_number   1
_chemical_formula_structural   Er(ReO4)2
_chemical_formula_sum   'Er1 Re2 O8'
_cell_volume   199.36863716
_cell_formula_units_Z   1
loop_
 _symmetry_equiv_pos_site_id
 _symmetry_equiv_pos_as_xyz
  1  'x, y, z'
loop_
 _atom_site_type_symbol
 _atom_site_label
 _atom_site_symmetry_multiplicity
 _atom_site_fract_x
 _atom_site_fract_y
 _atom_site_fract_z
 _atom_site_occupancy
  Er  Er0  1  0.000000  0.000000  0.000000  1
  Re  Re1  1  0.333333  0.666667  0.703020  1
  Re  Re2  1  0.666667  0.333333  0.296980  1
  O  O3  1  0.210462  0.863393  0.797568  1
  O  O4  1  0.863393  0.652931  0.202432  1
  O  O5  1  0.347069  0.210462  0.202432  1
  O  O6  1  0.333333  0.666667  0.425027  1
  O  O7  1  0.666667  0.333333  0.574973  1
  O  O8  1  0.652931  0.789538  0.797568  1
  O  O9  1  0.136607  0.347069  0.797568  1
  O  O10  1  0.789538  0.136607  0.202432  1
