# generated using pymatgen
data_VCrO3
_symmetry_space_group_name_H-M   'P 1'
_cell_length_a   5.12699319
_cell_length_b   5.49904413
_cell_length_c   8.82791832
_cell_angle_alpha   105.45597136
_cell_angle_beta   89.97797588
_cell_angle_gamma   117.72081329
_symmetry_Int_Tables_number   1
_chemical_formula_structural   VCrO3
_chemical_formula_sum   'V4 Cr4 O12'
_cell_volume   210.11675011
_cell_formula_units_Z   4
loop_
 _symmetry_equiv_pos_site_id
 _symmetry_equiv_pos_as_xyz
  1  'x, y, z'
loop_
 _atom_site_type_symbol
 _atom_site_label
 _atom_site_symmetry_multiplicity
 _atom_site_fract_x
 _atom_site_fract_y
 _atom_site_fract_z
 _atom_site_occupancy
  V  V0  1  0.780111  0.629049  0.924211  1
  V  V1  1  0.476793  0.122950  0.825310  1
  V  V2  1  0.973127  0.623210  0.324386  1
  V  V3  1  0.721830  0.871203  0.575435  1
  Cr  Cr4  1  0.271984  0.122832  0.424983  1
  Cr  Cr5  1  0.023748  0.372865  0.674731  1
  Cr  Cr6  1  0.525039  0.875128  0.174932  1
  Cr  Cr7  1  0.228045  0.378608  0.075119  1
  O  O8  1  0.523896  0.472742  0.276782  1
  O  O9  1  0.024725  0.974856  0.776925  1
  O  O10  1  0.571097  0.126456  0.624966  1
  O  O11  1  0.932776  0.376300  0.874646  1
  O  O12  1  0.477468  0.226942  0.026536  1
  O  O13  1  0.974188  0.723701  0.527533  1
  O  O14  1  0.024778  0.275065  0.472950  1
  O  O15  1  0.525460  0.775821  0.975213  1
  O  O16  1  0.076027  0.626887  0.123956  1
  O  O17  1  0.426289  0.874895  0.374478  1
  O  O18  1  0.974000  0.027511  0.223714  1
  O  O19  1  0.468622  0.522981  0.723194  1
