# generated using pymatgen
data_Li3Bi(BO3)2
_symmetry_space_group_name_H-M   'P 1'
_cell_length_a   5.10635896
_cell_length_b   7.11885842
_cell_length_c   8.30860009
_cell_angle_alpha   69.99777990
_cell_angle_beta   87.64798352
_cell_angle_gamma   88.36415851
_symmetry_Int_Tables_number   1
_chemical_formula_structural   Li3Bi(BO3)2
_chemical_formula_sum   'Li6 Bi2 B4 O12'
_cell_volume   283.53805320
_cell_formula_units_Z   2
loop_
 _symmetry_equiv_pos_site_id
 _symmetry_equiv_pos_as_xyz
  1  'x, y, z'
loop_
 _atom_site_type_symbol
 _atom_site_label
 _atom_site_symmetry_multiplicity
 _atom_site_fract_x
 _atom_site_fract_y
 _atom_site_fract_z
 _atom_site_occupancy
  Li  Li0  1  0.178463  0.073473  0.080029  1
  Li  Li1  1  0.313823  0.948968  0.737063  1
  Li  Li2  1  0.323995  0.238020  0.373716  1
  Li  Li3  1  0.676005  0.761980  0.626284  1
  Li  Li4  1  0.686177  0.051032  0.262937  1
  Li  Li5  1  0.821537  0.926527  0.919971  1
  Bi  Bi6  1  0.167915  0.435987  0.713045  1
  Bi  Bi7  1  0.832085  0.564013  0.286955  1
  B  B8  1  0.176394  0.859973  0.434552  1
  B  B9  1  0.337488  0.688594  0.081371  1
  B  B10  1  0.662512  0.311406  0.918629  1
  B  B11  1  0.823606  0.140027  0.565448  1
  O  O12  1  0.082709  0.194330  0.582190  1
  O  O13  1  0.247772  0.522549  0.222132  1
  O  O14  1  0.170174  0.828854  0.982101  1
  O  O15  1  0.294646  0.764571  0.593542  1
  O  O16  1  0.308574  0.999296  0.304683  1
  O  O17  1  0.391712  0.293005  0.946189  1
  O  O18  1  0.608288  0.706995  0.053811  1
  O  O19  1  0.691426  0.000704  0.695317  1
  O  O20  1  0.705354  0.235429  0.406458  1
  O  O21  1  0.829826  0.171146  0.017899  1
  O  O22  1  0.752228  0.477451  0.777868  1
  O  O23  1  0.917291  0.805670  0.417810  1
