# generated using pymatgen
data_Fe(SO4)2
_symmetry_space_group_name_H-M   'P 1'
_cell_length_a   8.94592673
_cell_length_b   8.94592673
_cell_length_c   8.94592673
_cell_angle_alpha   55.71332200
_cell_angle_beta   55.71332200
_cell_angle_gamma   55.71332200
_symmetry_Int_Tables_number   1
_chemical_formula_structural   Fe(SO4)2
_chemical_formula_sum   'Fe3 S6 O24'
_cell_volume   455.90596292
_cell_formula_units_Z   3
loop_
 _symmetry_equiv_pos_site_id
 _symmetry_equiv_pos_as_xyz
  1  'x, y, z'
loop_
 _atom_site_type_symbol
 _atom_site_label
 _atom_site_symmetry_multiplicity
 _atom_site_fract_x
 _atom_site_fract_y
 _atom_site_fract_z
 _atom_site_occupancy
  Fe  Fe0  1  0.851159  0.851159  0.851159  1
  Fe  Fe1  1  0.356087  0.356087  0.356087  1
  Fe  Fe2  1  0.150666  0.150666  0.150666  1
  S  S3  1  0.247624  0.541161  0.958531  1
  S  S4  1  0.958531  0.247624  0.541161  1
  S  S5  1  0.541161  0.958531  0.247624  1
  S  S6  1  0.458059  0.042347  0.751299  1
  S  S7  1  0.042347  0.751299  0.458059  1
  S  S8  1  0.751299  0.458059  0.042347  1
  O  O9  1  0.710821  0.487198  0.888817  1
  O  O10  1  0.487198  0.888817  0.710821  1
  O  O11  1  0.038794  0.669106  0.993792  1
  O  O12  1  0.888817  0.710821  0.487198  1
  O  O13  1  0.278985  0.347184  0.978082  1
  O  O14  1  0.372639  0.620062  0.762444  1
  O  O15  1  0.762444  0.372639  0.620062  1
  O  O16  1  0.993792  0.038794  0.669106  1
  O  O17  1  0.620062  0.762444  0.372639  1
  O  O18  1  0.322281  0.022165  0.955943  1
  O  O19  1  0.647658  0.025151  0.724685  1
  O  O20  1  0.025151  0.724685  0.647658  1
  O  O21  1  0.978082  0.278985  0.347184  1
  O  O22  1  0.347184  0.978082  0.278985  1
  O  O23  1  0.669106  0.993792  0.038794  1
  O  O24  1  0.376120  0.240246  0.619008  1
  O  O25  1  0.022165  0.955943  0.322281  1
  O  O26  1  0.240246  0.619008  0.376120  1
  O  O27  1  0.619008  0.376120  0.240246  1
  O  O28  1  0.724685  0.647658  0.025151  1
  O  O29  1  0.109958  0.296002  0.510965  1
  O  O30  1  0.955943  0.322281  0.022165  1
  O  O31  1  0.510965  0.109958  0.296002  1
  O  O32  1  0.296002  0.510965  0.109958  1
