# generated using pymatgen
data_Co4NiO8
_symmetry_space_group_name_H-M   'P 1'
_cell_length_a   5.63162968
_cell_length_b   5.63162968
_cell_length_c   5.88420771
_cell_angle_alpha   60.60600414
_cell_angle_beta   119.39399586
_cell_angle_gamma   120.21243434
_symmetry_Int_Tables_number   1
_chemical_formula_structural   Co4NiO8
_chemical_formula_sum   'Co4 Ni1 O8'
_cell_volume   132.93659244
_cell_formula_units_Z   1
loop_
 _symmetry_equiv_pos_site_id
 _symmetry_equiv_pos_as_xyz
  1  'x, y, z'
loop_
 _atom_site_type_symbol
 _atom_site_label
 _atom_site_symmetry_multiplicity
 _atom_site_fract_x
 _atom_site_fract_y
 _atom_site_fract_z
 _atom_site_occupancy
  Co  Co0  1  0.500000  0.500000  0.500000  1
  Co  Co1  1  0.000000  0.000000  0.000000  1
  Co  Co2  1  0.500000  0.000000  0.000000  1
  Co  Co3  1  0.000000  0.500000  0.000000  1
  Ni  Ni4  1  0.500000  0.500000  0.000000  1
  O  O5  1  0.267321  0.732679  0.804432  1
  O  O6  1  0.750938  0.721999  0.794840  1
  O  O7  1  0.278001  0.249062  0.794840  1
  O  O8  1  0.759125  0.240875  0.793837  1
  O  O9  1  0.240875  0.759125  0.206163  1
  O  O10  1  0.721999  0.750938  0.205160  1
  O  O11  1  0.249062  0.278001  0.205160  1
  O  O12  1  0.732679  0.267321  0.195568  1
