# generated using pymatgen
data_Li5Ni5(SbO6)2
_symmetry_space_group_name_H-M   'P 1'
_cell_length_a   5.26258888
_cell_length_b   5.26258888
_cell_length_c   10.02270407
_cell_angle_alpha   84.59286915
_cell_angle_beta   95.40713085
_cell_angle_gamma   59.41228779
_symmetry_Int_Tables_number   1
_chemical_formula_structural   Li5Ni5(SbO6)2
_chemical_formula_sum   'Li5 Ni5 Sb2 O12'
_cell_volume   234.59269807
_cell_formula_units_Z   1
loop_
 _symmetry_equiv_pos_site_id
 _symmetry_equiv_pos_as_xyz
  1  'x, y, z'
loop_
 _atom_site_type_symbol
 _atom_site_label
 _atom_site_symmetry_multiplicity
 _atom_site_fract_x
 _atom_site_fract_y
 _atom_site_fract_z
 _atom_site_occupancy
  Li  Li0  1  0.324646  0.826826  0.755003  1
  Li  Li1  1  0.170961  0.674271  0.243156  1
  Li  Li2  1  0.826826  0.324646  0.244997  1
  Li  Li3  1  0.674271  0.170961  0.756844  1
  Li  Li4  1  0.083943  0.083943  0.000000  1
  Ni  Ni5  1  0.918703  0.918703  0.500000  1
  Ni  Ni6  1  0.496558  0.998948  0.247261  1
  Ni  Ni7  1  0.998948  0.496558  0.752739  1
  Ni  Ni8  1  0.585766  0.585766  0.500000  1
  Ni  Ni9  1  0.414461  0.414461  0.000000  1
  Sb  Sb10  1  0.747926  0.747926  0.000000  1
  Sb  Sb11  1  0.252502  0.252502  0.500000  1
  O  O12  1  0.772786  0.027917  0.118444  1
  O  O13  1  0.027917  0.772786  0.881556  1
  O  O14  1  0.634072  0.869972  0.619627  1
  O  O15  1  0.869972  0.634072  0.380373  1
  O  O16  1  0.476907  0.707759  0.117737  1
  O  O17  1  0.707759  0.476907  0.882263  1
  O  O18  1  0.285638  0.544619  0.623440  1
  O  O19  1  0.544619  0.285638  0.376560  1
  O  O20  1  0.113729  0.394256  0.117909  1
  O  O21  1  0.394256  0.113729  0.882091  1
  O  O22  1  0.959733  0.217101  0.623628  1
  O  O23  1  0.217101  0.959733  0.376372  1
