# generated using pymatgen
data_Li24Ti7Cr5O36
_symmetry_space_group_name_H-M   'P 1'
_cell_length_a   5.05812983
_cell_length_b   9.81175310
_cell_length_c   13.45953302
_cell_angle_alpha   80.81143156
_cell_angle_beta   79.30837204
_cell_angle_gamma   85.51175185
_symmetry_Int_Tables_number   1
_chemical_formula_structural   Li24Ti7Cr5O36
_chemical_formula_sum   'Li24 Ti7 Cr5 O36'
_cell_volume   647.15108965
_cell_formula_units_Z   1
loop_
 _symmetry_equiv_pos_site_id
 _symmetry_equiv_pos_as_xyz
  1  'x, y, z'
loop_
 _atom_site_type_symbol
 _atom_site_label
 _atom_site_symmetry_multiplicity
 _atom_site_fract_x
 _atom_site_fract_y
 _atom_site_fract_z
 _atom_site_occupancy
  Li  Li0  1  0.666365  0.000384  0.166915  1
  Li  Li1  1  0.568968  0.000110  0.388721  1
  Li  Li2  1  0.251520  0.750071  0.748967  1
  Li  Li3  1  0.581445  0.749369  0.083949  1
  Li  Li4  1  0.066191  0.500280  0.887085  1
  Li  Li5  1  0.392987  0.500614  0.219065  1
  Li  Li6  1  0.170952  0.502009  0.666589  1
  Li  Li7  1  0.498674  0.498611  0.000514  1
  Li  Li8  1  0.268725  0.501173  0.446409  1
  Li  Li9  1  0.083661  0.249971  0.583019  1
  Li  Li10  1  0.003765  0.999004  0.498200  1
  Li  Li11  1  0.765618  0.999978  0.946634  1
  Li  Li12  1  0.097053  0.000300  0.278379  1
  Li  Li13  1  0.896137  0.000339  0.721058  1
  Li  Li14  1  0.233401  0.001206  0.054464  1
  Li  Li15  1  0.917442  0.750315  0.415774  1
  Li  Li16  1  0.729942  0.498735  0.554004  1
  Li  Li17  1  0.834181  0.498580  0.332548  1
  Li  Li18  1  0.598541  0.497938  0.779919  1
  Li  Li19  1  0.940647  0.499634  0.114079  1
  Li  Li20  1  0.415905  0.249983  0.916438  1
  Li  Li21  1  0.335015  0.001143  0.833121  1
  Li  Li22  1  0.752036  0.250079  0.251467  1
  Li  Li23  1  0.434077  0.999942  0.612243  1
  Ti  Ti24  1  0.864720  0.246518  0.027784  1
  Ti  Ti25  1  0.464773  0.755862  0.306115  1
  Ti  Ti26  1  0.967341  0.253512  0.805148  1
  Ti  Ti27  1  0.194973  0.250624  0.360222  1
  Ti  Ti28  1  0.698008  0.751681  0.860187  1
  Ti  Ti29  1  0.807434  0.746878  0.638858  1
  Ti  Ti30  1  0.142138  0.746248  0.973993  1
  Cr  Cr31  1  0.367647  0.750045  0.526624  1
  Cr  Cr32  1  0.308998  0.250347  0.140148  1
  Cr  Cr33  1  0.021956  0.749588  0.194069  1
  Cr  Cr34  1  0.521846  0.251153  0.692285  1
  Cr  Cr35  1  0.643136  0.247740  0.474107  1
  O  O36  1  0.926659  0.861530  0.075107  1
  O  O37  1  0.722704  0.635539  0.215284  1
  O  O38  1  0.425348  0.360536  0.574833  1
  O  O39  1  0.502033  0.362408  0.358958  1
  O  O40  1  0.610014  0.363907  0.119613  1
  O  O41  1  0.259419  0.864239  0.403668  1
  O  O42  1  0.222063  0.135238  0.713773  1
  O  O43  1  0.337397  0.138603  0.477324  1
  O  O44  1  0.550201  0.133877  0.047768  1
  O  O45  1  0.999480  0.864104  0.856808  1
  O  O46  1  0.123079  0.863936  0.616310  1
  O  O47  1  0.329418  0.861830  0.189694  1
  O  O48  1  0.405878  0.137873  0.259458  1
  O  O49  1  0.832248  0.636370  0.977396  1
  O  O50  1  0.051366  0.635623  0.546881  1
  O  O51  1  0.164013  0.637495  0.309029  1
  O  O52  1  0.905223  0.636068  0.762294  1
  O  O53  1  0.243463  0.637013  0.095232  1
  O  O54  1  0.762540  0.364235  0.904375  1
  O  O55  1  0.092190  0.363434  0.238998  1
  O  O56  1  0.830388  0.361788  0.688261  1
  O  O57  1  0.944251  0.365208  0.452352  1
  O  O58  1  0.169240  0.361826  0.024872  1
  O  O59  1  0.596403  0.863537  0.736407  1
  O  O60  1  0.664386  0.138426  0.807363  1
  O  O61  1  0.884776  0.133187  0.381350  1
  O  O62  1  0.003508  0.138471  0.144498  1
  O  O63  1  0.452730  0.866100  0.951490  1
  O  O64  1  0.661187  0.862378  0.521986  1
  O  O65  1  0.782384  0.866089  0.286041  1
  O  O66  1  0.741803  0.138815  0.591445  1
  O  O67  1  0.379282  0.634272  0.882230  1
  O  O68  1  0.500411  0.636594  0.643641  1
  O  O69  1  0.566758  0.637658  0.431807  1
  O  O70  1  0.282367  0.366114  0.785297  1
  O  O71  1  0.069171  0.135712  0.929055  1
