# generated using pymatgen
data_Be2GeO4
_symmetry_space_group_name_H-M   'P 1'
_cell_length_a   7.95781813
_cell_length_b   7.95781813
_cell_length_c   7.95781813
_cell_angle_alpha   107.99042100
_cell_angle_beta   107.99042100
_cell_angle_gamma   107.99042100
_symmetry_Int_Tables_number   1
_chemical_formula_structural   Be2GeO4
_chemical_formula_sum   'Be12 Ge6 O24'
_cell_volume   407.81916426
_cell_formula_units_Z   6
loop_
 _symmetry_equiv_pos_site_id
 _symmetry_equiv_pos_as_xyz
  1  'x, y, z'
loop_
 _atom_site_type_symbol
 _atom_site_label
 _atom_site_symmetry_multiplicity
 _atom_site_fract_x
 _atom_site_fract_y
 _atom_site_fract_z
 _atom_site_occupancy
  Be  Be0  1  0.707031  0.929383  0.110422  1
  Be  Be1  1  0.070617  0.889578  0.292969  1
  Be  Be2  1  0.604765  0.778226  0.371820  1
  Be  Be3  1  0.889578  0.292969  0.070617  1
  Be  Be4  1  0.221774  0.628180  0.395235  1
  Be  Be5  1  0.628180  0.395235  0.221774  1
  Be  Be6  1  0.371820  0.604765  0.778226  1
  Be  Be7  1  0.778226  0.371820  0.604765  1
  Be  Be8  1  0.110422  0.707031  0.929383  1
  Be  Be9  1  0.395235  0.221774  0.628180  1
  Be  Be10  1  0.929383  0.110422  0.707031  1
  Be  Be11  1  0.292969  0.070617  0.889578  1
  Ge  Ge12  1  0.267675  0.444607  0.037291  1
  Ge  Ge13  1  0.555393  0.962709  0.732325  1
  Ge  Ge14  1  0.962709  0.732325  0.555393  1
  Ge  Ge15  1  0.037291  0.267675  0.444607  1
  Ge  Ge16  1  0.444607  0.037291  0.267675  1
  Ge  Ge17  1  0.732325  0.555393  0.962709  1
  O  O18  1  0.193999  0.863692  0.162909  1
  O  O19  1  0.591434  0.911079  0.248877  1
  O  O20  1  0.837091  0.806001  0.136308  1
  O  O21  1  0.751123  0.408566  0.088921  1
  O  O22  1  0.518725  0.543368  0.212016  1
  O  O23  1  0.830873  0.876020  0.544756  1
  O  O24  1  0.123980  0.455244  0.169127  1
  O  O25  1  0.088921  0.751123  0.408566  1
  O  O26  1  0.456632  0.787984  0.481275  1
  O  O27  1  0.787984  0.481275  0.456632  1
  O  O28  1  0.136308  0.837091  0.806001  1
  O  O29  1  0.455244  0.169127  0.123980  1
  O  O30  1  0.544756  0.830873  0.876020  1
  O  O31  1  0.863692  0.162909  0.193999  1
  O  O32  1  0.212016  0.518725  0.543368  1
  O  O33  1  0.543368  0.212016  0.518725  1
  O  O34  1  0.911079  0.248877  0.591434  1
  O  O35  1  0.876020  0.544756  0.830873  1
  O  O36  1  0.169127  0.123980  0.455244  1
  O  O37  1  0.481275  0.456632  0.787984  1
  O  O38  1  0.248877  0.591434  0.911079  1
  O  O39  1  0.162909  0.193999  0.863692  1
  O  O40  1  0.408566  0.088921  0.751123  1
  O  O41  1  0.806001  0.136308  0.837091  1
