# generated using pymatgen
data_KCaCrH10C6O17
_symmetry_space_group_name_H-M   'P 1'
_cell_length_a   11.18186390
_cell_length_b   11.31903713
_cell_length_c   16.20144882
_cell_angle_alpha   90.00000000
_cell_angle_beta   123.43961325
_cell_angle_gamma   90.00000000
_symmetry_Int_Tables_number   1
_chemical_formula_structural   KCaCrH10C6O17
_chemical_formula_sum   'K4 Ca4 Cr4 H40 C24 O68'
_cell_volume   1711.14472808
_cell_formula_units_Z   4
loop_
 _symmetry_equiv_pos_site_id
 _symmetry_equiv_pos_as_xyz
  1  'x, y, z'
loop_
 _atom_site_type_symbol
 _atom_site_label
 _atom_site_symmetry_multiplicity
 _atom_site_fract_x
 _atom_site_fract_y
 _atom_site_fract_z
 _atom_site_occupancy
  K  K0  1  0.733768  0.279815  0.069142  1
  K  K1  1  0.733768  0.220185  0.569142  1
  K  K2  1  0.266232  0.720185  0.930858  1
  K  K3  1  0.266232  0.779815  0.430858  1
  Ca  Ca4  1  0.895930  0.594128  0.351756  1
  Ca  Ca5  1  0.895930  0.905872  0.851756  1
  Ca  Ca6  1  0.104070  0.405872  0.648244  1
  Ca  Ca7  1  0.104070  0.094128  0.148244  1
  Cr  Cr8  1  0.728045  0.092855  0.322993  1
  Cr  Cr9  1  0.728045  0.407145  0.822993  1
  Cr  Cr10  1  0.271955  0.907145  0.677007  1
  Cr  Cr11  1  0.271955  0.592855  0.177007  1
  H  H12  1  0.988288  0.569121  0.202081  1
  H  H13  1  0.988288  0.930879  0.702081  1
  H  H14  1  0.011712  0.430879  0.797919  1
  H  H15  1  0.011712  0.069121  0.297919  1
  H  H16  1  0.869219  0.669194  0.162280  1
  H  H17  1  0.869219  0.830806  0.662280  1
  H  H18  1  0.130781  0.330806  0.837720  1
  H  H19  1  0.130781  0.169194  0.337720  1
  H  H20  1  0.166474  0.472533  0.400571  1
  H  H21  1  0.166474  0.027467  0.900571  1
  H  H22  1  0.833526  0.527467  0.599429  1
  H  H23  1  0.833526  0.972533  0.099429  1
  H  H24  1  0.211311  0.535348  0.497560  1
  H  H25  1  0.211311  0.964652  0.997560  1
  H  H26  1  0.788689  0.464652  0.502440  1
  H  H27  1  0.788689  0.035348  0.002440  1
  H  H28  1  0.772971  0.785098  0.017420  1
  H  H29  1  0.772971  0.714902  0.517420  1
  H  H30  1  0.227029  0.214902  0.982580  1
  H  H31  1  0.227029  0.285098  0.482580  1
  H  H32  1  0.685765  0.793656  0.068384  1
  H  H33  1  0.685765  0.706344  0.568384  1
  H  H34  1  0.314235  0.206344  0.931616  1
  H  H35  1  0.314235  0.293656  0.431616  1
  H  H36  1  0.481331  0.095917  0.895449  1
  H  H37  1  0.481331  0.404083  0.395449  1
  H  H38  1  0.518669  0.904083  0.104551  1
  H  H39  1  0.518669  0.595917  0.604551  1
  H  H40  1  0.424418  0.060955  0.958606  1
  H  H41  1  0.424418  0.439045  0.458606  1
  H  H42  1  0.575582  0.939045  0.041394  1
  H  H43  1  0.575582  0.560955  0.541394  1
  H  H44  1  0.671444  0.534076  0.980018  1
  H  H45  1  0.671444  0.965924  0.480018  1
  H  H46  1  0.328556  0.465924  0.019982  1
  H  H47  1  0.328556  0.034076  0.519982  1
  H  H48  1  0.561402  0.561972  0.008457  1
  H  H49  1  0.561402  0.938028  0.508457  1
  H  H50  1  0.438598  0.438028  0.991543  1
  H  H51  1  0.438598  0.061972  0.491543  1
  C  C52  1  0.800865  0.861988  0.393696  1
  C  C53  1  0.800865  0.638012  0.893696  1
  C  C54  1  0.199135  0.138012  0.606304  1
  C  C55  1  0.199135  0.361988  0.106304  1
  C  C56  1  0.882162  0.887299  0.342837  1
  C  C57  1  0.882162  0.612701  0.842837  1
  C  C58  1  0.117838  0.112701  0.657163  1
  C  C59  1  0.117838  0.387299  0.157163  1
  C  C60  1  0.802388  0.314781  0.291019  1
  C  C61  1  0.802388  0.185219  0.791019  1
  C  C62  1  0.197612  0.685219  0.708981  1
  C  C63  1  0.197612  0.814781  0.208981  1
  C  C64  1  0.887460  0.298615  0.404519  1
  C  C65  1  0.887460  0.201385  0.904519  1
  C  C66  1  0.112540  0.701385  0.595481  1
  C  C67  1  0.112540  0.798615  0.095481  1
  C  C68  1  0.452115  0.132960  0.280129  1
  C  C69  1  0.452115  0.367040  0.780129  1
  C  C70  1  0.547885  0.867040  0.719871  1
  C  C71  1  0.547885  0.632960  0.219871  1
  C  C72  1  0.433235  0.047897  0.198298  1
  C  C73  1  0.433235  0.452103  0.698298  1
  C  C74  1  0.566765  0.952103  0.801702  1
  C  C75  1  0.566765  0.547897  0.301702  1
  O  O76  1  0.745396  0.954668  0.407109  1
  O  O77  1  0.745396  0.545332  0.907109  1
  O  O78  1  0.254604  0.045332  0.592891  1
  O  O79  1  0.254604  0.454668  0.092891  1
  O  O80  1  0.795627  0.759953  0.419396  1
  O  O81  1  0.795627  0.740047  0.919396  1
  O  O82  1  0.204373  0.240047  0.580604  1
  O  O83  1  0.204373  0.259953  0.080604  1
  O  O84  1  0.866790  0.994303  0.309384  1
  O  O85  1  0.866790  0.505697  0.809384  1
  O  O86  1  0.133210  0.005697  0.690616  1
  O  O87  1  0.133210  0.494303  0.190616  1
  O  O88  1  0.956771  0.808966  0.339491  1
  O  O89  1  0.956771  0.691034  0.839491  1
  O  O90  1  0.043229  0.191034  0.660509  1
  O  O91  1  0.043229  0.308966  0.160509  1
  O  O92  1  0.726072  0.224086  0.240401  1
  O  O93  1  0.726072  0.275914  0.740401  1
  O  O94  1  0.273928  0.775914  0.759599  1
  O  O95  1  0.273928  0.724086  0.259599  1
  O  O96  1  0.810136  0.408139  0.254305  1
  O  O97  1  0.810136  0.091861  0.754305  1
  O  O98  1  0.189864  0.591861  0.745695  1
  O  O99  1  0.189864  0.908139  0.245695  1
  O  O100  1  0.876377  0.195022  0.433142  1
  O  O101  1  0.876377  0.304978  0.933142  1
  O  O102  1  0.123623  0.804978  0.566858  1
  O  O103  1  0.123623  0.695022  0.066858  1
  O  O104  1  0.958033  0.383122  0.459273  1
  O  O105  1  0.958033  0.116878  0.959273  1
  O  O106  1  0.041967  0.616878  0.540727  1
  O  O107  1  0.041967  0.883122  0.040727  1
  O  O108  1  0.582588  0.168048  0.341724  1
  O  O109  1  0.582588  0.331952  0.841724  1
  O  O110  1  0.417412  0.831952  0.658276  1
  O  O111  1  0.417412  0.668048  0.158276  1
  O  O112  1  0.346657  0.161429  0.282057  1
  O  O113  1  0.346657  0.338571  0.782057  1
  O  O114  1  0.653343  0.838571  0.717943  1
  O  O115  1  0.653343  0.661429  0.217943  1
  O  O116  1  0.550633  0.016755  0.206359  1
  O  O117  1  0.550633  0.483245  0.706359  1
  O  O118  1  0.449367  0.983245  0.793641  1
  O  O119  1  0.449367  0.516755  0.293641  1
  O  O120  1  0.310504  0.015117  0.131802  1
  O  O121  1  0.310504  0.484883  0.631802  1
  O  O122  1  0.689496  0.984883  0.868198  1
  O  O123  1  0.689496  0.515117  0.368198  1
  O  O124  1  0.929581  0.615448  0.218062  1
  O  O125  1  0.929581  0.884552  0.718062  1
  O  O126  1  0.070419  0.384552  0.781938  1
  O  O127  1  0.070419  0.115448  0.281938  1
  O  O128  1  0.158980  0.549941  0.425668  1
  O  O129  1  0.158980  0.950059  0.925668  1
  O  O130  1  0.841020  0.450059  0.574332  1
  O  O131  1  0.841020  0.049941  0.074332  1
  O  O132  1  0.780837  0.805866  0.079671  1
  O  O133  1  0.780837  0.694134  0.579671  1
  O  O134  1  0.219163  0.194134  0.920329  1
  O  O135  1  0.219163  0.305866  0.420329  1
  O  O136  1  0.482248  0.121909  0.953898  1
  O  O137  1  0.482248  0.378091  0.453898  1
  O  O138  1  0.517752  0.878091  0.046102  1
  O  O139  1  0.517752  0.621909  0.546102  1
  O  O140  1  0.639199  0.508939  0.022964  1
  O  O141  1  0.639199  0.991061  0.522964  1
  O  O142  1  0.360801  0.491061  0.977036  1
  O  O143  1  0.360801  0.008939  0.477036  1
