# generated using pymatgen
data_LiV6O7F5
_symmetry_space_group_name_H-M   'P 1'
_cell_length_a   6.58826425
_cell_length_b   9.28484091
_cell_length_c   9.61386762
_cell_angle_alpha   90.00000000
_cell_angle_beta   133.21312574
_cell_angle_gamma   90.00000000
_symmetry_Int_Tables_number   1
_chemical_formula_structural   LiV6O7F5
_chemical_formula_sum   'Li2 V12 O14 F10'
_cell_volume   428.60674604
_cell_formula_units_Z   2
loop_
 _symmetry_equiv_pos_site_id
 _symmetry_equiv_pos_as_xyz
  1  'x, y, z'
loop_
 _atom_site_type_symbol
 _atom_site_label
 _atom_site_symmetry_multiplicity
 _atom_site_fract_x
 _atom_site_fract_y
 _atom_site_fract_z
 _atom_site_occupancy
  Li  Li0  1  0.506739  0.235417  0.248578  1
  Li  Li1  1  0.506739  0.764583  0.748578  1
  V  V2  1  0.046725  0.497389  0.020897  1
  V  V3  1  0.503395  0.999817  0.006661  1
  V  V4  1  0.030595  0.829329  0.024351  1
  V  V5  1  0.986549  0.171426  0.000201  1
  V  V6  1  0.030595  0.170671  0.524351  1
  V  V7  1  0.986549  0.828574  0.500201  1
  V  V8  1  0.046725  0.502611  0.520897  1
  V  V9  1  0.470145  0.326862  0.484747  1
  V  V10  1  0.464083  0.673158  0.463492  1
  V  V11  1  0.503395  0.000183  0.506661  1
  V  V12  1  0.464083  0.326842  0.963492  1
  V  V13  1  0.470145  0.673138  0.984747  1
  O  O14  1  0.204242  0.328442  0.198503  1
  O  O15  1  0.197583  0.663598  0.192892  1
  O  O16  1  0.688217  0.164425  0.995670  1
  O  O17  1  0.694595  0.833840  0.996326  1
  O  O18  1  0.694595  0.166160  0.496326  1
  O  O19  1  0.688217  0.835575  0.495670  1
  O  O20  1  0.204242  0.671558  0.698503  1
  O  O21  1  0.197583  0.336402  0.692892  1
  O  O22  1  0.293705  0.836821  0.501345  1
  O  O23  1  0.302062  0.160605  0.505694  1
  O  O24  1  0.315756  0.503662  0.501217  1
  O  O25  1  0.293705  0.163179  0.001345  1
  O  O26  1  0.302062  0.839395  0.005694  1
  O  O27  1  0.315756  0.496338  0.001217  1
  F  F28  1  0.701224  0.498578  0.490528  1
  F  F29  1  0.806420  0.332112  0.306212  1
  F  F30  1  0.798602  0.663112  0.300304  1
  F  F31  1  0.803382  0.003370  0.310158  1
  F  F32  1  0.806420  0.667888  0.806212  1
  F  F33  1  0.798602  0.336888  0.800304  1
  F  F34  1  0.197925  0.005169  0.202550  1
  F  F35  1  0.197925  0.994831  0.702550  1
  F  F36  1  0.701224  0.501422  0.990528  1
  F  F37  1  0.803382  0.996630  0.810158  1
