# generated using pymatgen
data_InH10N2Cl5O
_symmetry_space_group_name_H-M   'P 1'
_cell_length_a   7.24004619
_cell_length_b   10.25436812
_cell_length_c   14.06326512
_cell_angle_alpha   90.00000000
_cell_angle_beta   90.00000000
_cell_angle_gamma   90.00000000
_symmetry_Int_Tables_number   1
_chemical_formula_structural   InH10N2Cl5O
_chemical_formula_sum   'In4 H40 N8 Cl20 O4'
_cell_volume   1044.08631902
_cell_formula_units_Z   4
loop_
 _symmetry_equiv_pos_site_id
 _symmetry_equiv_pos_as_xyz
  1  'x, y, z'
loop_
 _atom_site_type_symbol
 _atom_site_label
 _atom_site_symmetry_multiplicity
 _atom_site_fract_x
 _atom_site_fract_y
 _atom_site_fract_z
 _atom_site_occupancy
  In  In0  1  0.808926  0.750000  0.114983  1
  In  In1  1  0.308926  0.250000  0.385017  1
  In  In2  1  0.691074  0.750000  0.614983  1
  In  In3  1  0.191074  0.250000  0.885017  1
  H  H4  1  0.930451  0.328435  0.036670  1
  H  H5  1  0.930451  0.171565  0.036670  1
  H  H6  1  0.330306  0.469834  0.075340  1
  H  H7  1  0.330306  0.030166  0.075340  1
  H  H8  1  0.359549  0.893948  0.141352  1
  H  H9  1  0.359549  0.606052  0.141352  1
  H  H10  1  0.452389  0.463071  0.176615  1
  H  H11  1  0.452389  0.036929  0.176615  1
  H  H12  1  0.223226  0.016038  0.181235  1
  H  H13  1  0.223226  0.483962  0.181235  1
  H  H14  1  0.723226  0.983962  0.318765  1
  H  H15  1  0.723226  0.516038  0.318765  1
  H  H16  1  0.952389  0.963071  0.323385  1
  H  H17  1  0.952389  0.536929  0.323385  1
  H  H18  1  0.859549  0.393948  0.358648  1
  H  H19  1  0.859549  0.106052  0.358648  1
  H  H20  1  0.830306  0.969834  0.424660  1
  H  H21  1  0.830306  0.530166  0.424660  1
  H  H22  1  0.430451  0.828435  0.463330  1
  H  H23  1  0.430451  0.671565  0.463330  1
  H  H24  1  0.569549  0.328435  0.536670  1
  H  H25  1  0.569549  0.171565  0.536670  1
  H  H26  1  0.169694  0.469834  0.575340  1
  H  H27  1  0.169694  0.030166  0.575340  1
  H  H28  1  0.140451  0.893948  0.641352  1
  H  H29  1  0.140451  0.606052  0.641352  1
  H  H30  1  0.047611  0.463071  0.676615  1
  H  H31  1  0.047611  0.036929  0.676615  1
  H  H32  1  0.276774  0.483962  0.681235  1
  H  H33  1  0.276774  0.016038  0.681235  1
  H  H34  1  0.776774  0.983962  0.818765  1
  H  H35  1  0.776774  0.516038  0.818765  1
  H  H36  1  0.547611  0.963071  0.823385  1
  H  H37  1  0.547611  0.536929  0.823385  1
  H  H38  1  0.640451  0.393948  0.858648  1
  H  H39  1  0.640451  0.106052  0.858648  1
  H  H40  1  0.669694  0.969834  0.924660  1
  H  H41  1  0.669694  0.530166  0.924660  1
  H  H42  1  0.069549  0.828435  0.963330  1
  H  H43  1  0.069549  0.671565  0.963330  1
  N  N44  1  0.340972  0.994130  0.143627  1
  N  N45  1  0.340972  0.505870  0.143627  1
  N  N46  1  0.840972  0.494130  0.356373  1
  N  N47  1  0.840972  0.005870  0.356373  1
  N  N48  1  0.159028  0.994130  0.643627  1
  N  N49  1  0.159028  0.505870  0.643627  1
  N  N50  1  0.659028  0.494130  0.856373  1
  N  N51  1  0.659028  0.005870  0.856373  1
  Cl  Cl52  1  0.536072  0.750000  0.002794  1
  Cl  Cl53  1  0.817657  0.998561  0.103806  1
  Cl  Cl54  1  0.817657  0.501439  0.103806  1
  Cl  Cl55  1  0.080971  0.750000  0.226025  1
  Cl  Cl56  1  0.091894  0.250000  0.245120  1
  Cl  Cl57  1  0.591894  0.750000  0.254880  1
  Cl  Cl58  1  0.580971  0.250000  0.273975  1
  Cl  Cl59  1  0.317657  0.498561  0.396194  1
  Cl  Cl60  1  0.317657  0.001439  0.396194  1
  Cl  Cl61  1  0.036072  0.250000  0.497206  1
  Cl  Cl62  1  0.963928  0.750000  0.502794  1
  Cl  Cl63  1  0.682343  0.998561  0.603806  1
  Cl  Cl64  1  0.682343  0.501439  0.603806  1
  Cl  Cl65  1  0.419029  0.750000  0.726025  1
  Cl  Cl66  1  0.408106  0.250000  0.745120  1
  Cl  Cl67  1  0.908106  0.750000  0.754880  1
  Cl  Cl68  1  0.919029  0.250000  0.773975  1
  Cl  Cl69  1  0.182343  0.498561  0.896194  1
  Cl  Cl70  1  0.182343  0.001439  0.896194  1
  Cl  Cl71  1  0.463928  0.250000  0.997206  1
  O  O72  1  0.989526  0.250000  0.009567  1
  O  O73  1  0.489526  0.750000  0.490433  1
  O  O74  1  0.510474  0.250000  0.509567  1
  O  O75  1  0.010474  0.750000  0.990433  1
