# generated using pymatgen
data_Li6MnFeP2(CO7)2
_symmetry_space_group_name_H-M   'P 1'
_cell_length_a   4.99688039
_cell_length_b   6.57540460
_cell_length_c   8.52896594
_cell_angle_alpha   90.00000000
_cell_angle_beta   94.52640002
_cell_angle_gamma   90.00000000
_symmetry_Int_Tables_number   1
_chemical_formula_structural   Li6MnFeP2(CO7)2
_chemical_formula_sum   'Li6 Mn1 Fe1 P2 C2 O14'
_cell_volume   279.35803520
_cell_formula_units_Z   1
loop_
 _symmetry_equiv_pos_site_id
 _symmetry_equiv_pos_as_xyz
  1  'x, y, z'
loop_
 _atom_site_type_symbol
 _atom_site_label
 _atom_site_symmetry_multiplicity
 _atom_site_fract_x
 _atom_site_fract_y
 _atom_site_fract_z
 _atom_site_occupancy
  Li  Li0  1  0.757903  0.500000  0.908960  1
  Li  Li1  1  0.246118  0.275369  0.726406  1
  Li  Li2  1  0.246118  0.724631  0.726406  1
  Li  Li3  1  0.754063  0.777208  0.273850  1
  Li  Li4  1  0.754063  0.222792  0.273850  1
  Li  Li5  1  0.240970  0.000000  0.091922  1
  Mn  Mn6  1  0.221028  0.500000  0.340557  1
  Fe  Fe7  1  0.785556  0.000000  0.663532  1
  P  P8  1  0.719175  0.500000  0.590006  1
  P  P9  1  0.280201  0.000000  0.411481  1
  C  C10  1  0.704830  0.000000  0.965313  1
  C  C11  1  0.295348  0.500000  0.032712  1
  O  O12  1  0.950209  0.000000  0.928562  1
  O  O13  1  0.354671  0.500000  0.886968  1
  O  O14  1  0.512490  0.000000  0.852632  1
  O  O15  1  0.826942  0.314697  0.688882  1
  O  O16  1  0.826942  0.685303  0.688882  1
  O  O17  1  0.181202  0.000000  0.578948  1
  O  O18  1  0.405075  0.500000  0.576268  1
  O  O19  1  0.594397  0.000000  0.427796  1
  O  O20  1  0.811360  0.500000  0.420288  1
  O  O21  1  0.173513  0.184059  0.310012  1
  O  O22  1  0.173513  0.815941  0.310012  1
  O  O23  1  0.490056  0.500000  0.144492  1
  O  O24  1  0.644628  0.000000  0.111566  1
  O  O25  1  0.049630  0.500000  0.069699  1
