# generated using pymatgen
data_LiMn2PO5
_symmetry_space_group_name_H-M   'P 1'
_cell_length_a   6.45592199
_cell_length_b   7.82908013
_cell_length_c   8.64602611
_cell_angle_alpha   90.00000000
_cell_angle_beta   90.00000000
_cell_angle_gamma   90.00000000
_symmetry_Int_Tables_number   1
_chemical_formula_structural   LiMn2PO5
_chemical_formula_sum   'Li4 Mn8 P4 O20'
_cell_volume   437.00414345
_cell_formula_units_Z   4
loop_
 _symmetry_equiv_pos_site_id
 _symmetry_equiv_pos_as_xyz
  1  'x, y, z'
loop_
 _atom_site_type_symbol
 _atom_site_label
 _atom_site_symmetry_multiplicity
 _atom_site_fract_x
 _atom_site_fract_y
 _atom_site_fract_z
 _atom_site_occupancy
  Li  Li0  1  0.541858  0.659821  0.613426  1
  Li  Li1  1  0.541858  0.840179  0.113426  1
  Li  Li2  1  0.041858  0.159821  0.886574  1
  Li  Li3  1  0.041858  0.340179  0.386574  1
  Mn  Mn4  1  0.980165  0.510809  0.002255  1
  Mn  Mn5  1  0.480165  0.489191  0.997745  1
  Mn  Mn6  1  0.750238  0.624936  0.334020  1
  Mn  Mn7  1  0.750238  0.875064  0.834020  1
  Mn  Mn8  1  0.480165  0.010809  0.497745  1
  Mn  Mn9  1  0.980165  0.989191  0.502255  1
  Mn  Mn10  1  0.250238  0.124936  0.165980  1
  Mn  Mn11  1  0.250238  0.375064  0.665980  1
  P  P12  1  0.254042  0.661037  0.342608  1
  P  P13  1  0.254042  0.838963  0.842608  1
  P  P14  1  0.754042  0.161037  0.157392  1
  P  P15  1  0.754042  0.338963  0.657392  1
  O  O16  1  0.294817  0.570763  0.498380  1
  O  O17  1  0.444986  0.637029  0.233746  1
  O  O18  1  0.061172  0.577458  0.263456  1
  O  O19  1  0.721998  0.678675  0.988277  1
  O  O20  1  0.223057  0.644994  0.869531  1
  O  O21  1  0.223057  0.855006  0.369531  1
  O  O22  1  0.721998  0.821325  0.488277  1
  O  O23  1  0.444986  0.862971  0.733746  1
  O  O24  1  0.061172  0.922542  0.763456  1
  O  O25  1  0.294817  0.929237  0.998380  1
  O  O26  1  0.794817  0.070763  0.001620  1
  O  O27  1  0.944986  0.137029  0.266254  1
  O  O28  1  0.561172  0.077458  0.236544  1
  O  O29  1  0.221998  0.178675  0.511723  1
  O  O30  1  0.723057  0.144994  0.630469  1
  O  O31  1  0.723057  0.355006  0.130469  1
  O  O32  1  0.221998  0.321325  0.011723  1
  O  O33  1  0.944986  0.362971  0.766254  1
  O  O34  1  0.561172  0.422542  0.736544  1
  O  O35  1  0.794817  0.429237  0.501620  1
