# generated using pymatgen
data_Be2P2O7
_symmetry_space_group_name_H-M   'P 1'
_cell_length_a   4.98303589
_cell_length_b   4.98303589
_cell_length_c   8.89111977
_cell_angle_alpha   76.38213047
_cell_angle_beta   103.61786953
_cell_angle_gamma   83.83553507
_symmetry_Int_Tables_number   1
_chemical_formula_structural   Be2P2O7
_chemical_formula_sum   'Be4 P4 O14'
_cell_volume   205.41249025
_cell_formula_units_Z   2
loop_
 _symmetry_equiv_pos_site_id
 _symmetry_equiv_pos_as_xyz
  1  'x, y, z'
loop_
 _atom_site_type_symbol
 _atom_site_label
 _atom_site_symmetry_multiplicity
 _atom_site_fract_x
 _atom_site_fract_y
 _atom_site_fract_z
 _atom_site_occupancy
  Be  Be0  1  0.727553  0.608519  0.472599  1
  Be  Be1  1  0.608519  0.727553  0.027401  1
  Be  Be2  1  0.391481  0.272447  0.972599  1
  Be  Be3  1  0.272447  0.391481  0.527401  1
  P  P4  1  0.187566  0.794277  0.204204  1
  P  P5  1  0.205723  0.812434  0.704204  1
  P  P6  1  0.794277  0.187566  0.295796  1
  P  P7  1  0.812434  0.205723  0.795796  1
  O  O8  1  0.697354  0.945326  0.395123  1
  O  O9  1  0.398236  0.886578  0.108957  1
  O  O10  1  0.350799  0.578476  0.364911  1
  O  O11  1  0.072259  0.072259  0.250000  1
  O  O12  1  0.054674  0.302646  0.895123  1
  O  O13  1  0.113422  0.601764  0.608957  1
  O  O14  1  0.421524  0.649201  0.864911  1
  O  O15  1  0.578476  0.350799  0.135089  1
  O  O16  1  0.886578  0.398236  0.391043  1
  O  O17  1  0.945326  0.697354  0.104877  1
  O  O18  1  0.927741  0.927741  0.750000  1
  O  O19  1  0.649201  0.421524  0.635089  1
  O  O20  1  0.601764  0.113422  0.891043  1
  O  O21  1  0.302646  0.054674  0.604877  1
