# generated using pymatgen
data_Li2CoSn(PO4)2
_symmetry_space_group_name_H-M   'P 1'
_cell_length_a   4.88598899
_cell_length_b   6.24663435
_cell_length_c   11.09730198
_cell_angle_alpha   90.00000000
_cell_angle_beta   91.19890106
_cell_angle_gamma   90.00000000
_symmetry_Int_Tables_number   1
_chemical_formula_structural   Li2CoSn(PO4)2
_chemical_formula_sum   'Li4 Co2 Sn2 P4 O16'
_cell_volume   338.62645928
_cell_formula_units_Z   2
loop_
 _symmetry_equiv_pos_site_id
 _symmetry_equiv_pos_as_xyz
  1  'x, y, z'
loop_
 _atom_site_type_symbol
 _atom_site_label
 _atom_site_symmetry_multiplicity
 _atom_site_fract_x
 _atom_site_fract_y
 _atom_site_fract_z
 _atom_site_occupancy
  Li  Li0  1  0.000000  0.000000  0.000000  1
  Li  Li1  1  0.000000  0.500000  0.000000  1
  Li  Li2  1  0.500000  0.000000  0.500000  1
  Li  Li3  1  0.500000  0.500000  0.500000  1
  Co  Co4  1  0.023888  0.750000  0.293346  1
  Co  Co5  1  0.976112  0.250000  0.706654  1
  Sn  Sn6  1  0.508627  0.250000  0.221346  1
  Sn  Sn7  1  0.491373  0.750000  0.778654  1
  P  P8  1  0.631712  0.750000  0.103238  1
  P  P9  1  0.071407  0.250000  0.422858  1
  P  P10  1  0.928593  0.750000  0.577142  1
  P  P11  1  0.368288  0.250000  0.896762  1
  O  O12  1  0.260279  0.250000  0.028044  1
  O  O13  1  0.319653  0.750000  0.112010  1
  O  O14  1  0.778042  0.944730  0.167914  1
  O  O15  1  0.778042  0.555270  0.167914  1
  O  O16  1  0.184527  0.451724  0.353167  1
  O  O17  1  0.184527  0.048276  0.353167  1
  O  O18  1  0.756889  0.250000  0.428540  1
  O  O19  1  0.782218  0.750000  0.450970  1
  O  O20  1  0.217782  0.250000  0.549030  1
  O  O21  1  0.243111  0.750000  0.571460  1
  O  O22  1  0.815473  0.951724  0.646833  1
  O  O23  1  0.815473  0.548276  0.646833  1
  O  O24  1  0.221958  0.444730  0.832086  1
  O  O25  1  0.221958  0.055270  0.832086  1
  O  O26  1  0.680347  0.250000  0.887990  1
  O  O27  1  0.739721  0.750000  0.971956  1
