# generated using pymatgen
data_LiVSiO4
_symmetry_space_group_name_H-M   'P 1'
_cell_length_a   5.16484886
_cell_length_b   10.32251357
_cell_length_c   13.62911224
_cell_angle_alpha   90.00000000
_cell_angle_beta   90.00000000
_cell_angle_gamma   90.00000000
_symmetry_Int_Tables_number   1
_chemical_formula_structural   LiVSiO4
_chemical_formula_sum   'Li8 V8 Si8 O32'
_cell_volume   726.62552168
_cell_formula_units_Z   8
loop_
 _symmetry_equiv_pos_site_id
 _symmetry_equiv_pos_as_xyz
  1  'x, y, z'
loop_
 _atom_site_type_symbol
 _atom_site_label
 _atom_site_symmetry_multiplicity
 _atom_site_fract_x
 _atom_site_fract_y
 _atom_site_fract_z
 _atom_site_occupancy
  Li  Li0  1  0.914513  0.034096  0.498115  1
  Li  Li1  1  0.559744  0.217867  0.250073  1
  Li  Li2  1  0.559744  0.282133  0.750073  1
  Li  Li3  1  0.914513  0.465904  0.998115  1
  Li  Li4  1  0.085487  0.534096  0.498115  1
  Li  Li5  1  0.440256  0.717867  0.250073  1
  Li  Li6  1  0.440256  0.782133  0.750073  1
  Li  Li7  1  0.085487  0.965904  0.998115  1
  V  V8  1  0.069614  0.040338  0.248411  1
  V  V9  1  0.556976  0.214414  0.000510  1
  V  V10  1  0.556976  0.285586  0.500510  1
  V  V11  1  0.069614  0.459662  0.748411  1
  V  V12  1  0.930386  0.540338  0.248411  1
  V  V13  1  0.443024  0.714414  0.000510  1
  V  V14  1  0.443024  0.785586  0.500510  1
  V  V15  1  0.930386  0.959662  0.748411  1
  Si  Si16  1  0.427258  0.033177  0.623732  1
  Si  Si17  1  0.056415  0.213198  0.871908  1
  Si  Si18  1  0.056415  0.286802  0.371908  1
  Si  Si19  1  0.427258  0.466823  0.123732  1
  Si  Si20  1  0.572742  0.533177  0.623732  1
  Si  Si21  1  0.943585  0.713198  0.871908  1
  Si  Si22  1  0.943585  0.786802  0.371908  1
  Si  Si23  1  0.572742  0.966823  0.123732  1
  O  O24  1  0.885748  0.996156  0.127603  1
  O  O25  1  0.547543  0.964525  0.524453  1
  O  O26  1  0.436796  0.034505  0.220592  1
  O  O27  1  0.002768  0.056225  0.866437  1
  O  O28  1  0.489348  0.189024  0.620172  1
  O  O29  1  0.906683  0.230578  0.469915  1
  O  O30  1  0.941715  0.284962  0.773237  1
  O  O31  1  0.367043  0.247029  0.879242  1
  O  O32  1  0.367043  0.252971  0.379242  1
  O  O33  1  0.941715  0.215038  0.273237  1
  O  O34  1  0.906683  0.269422  0.969915  1
  O  O35  1  0.489348  0.310976  0.120172  1
  O  O36  1  0.002768  0.443775  0.366437  1
  O  O37  1  0.436796  0.465495  0.720592  1
  O  O38  1  0.547543  0.535475  0.024453  1
  O  O39  1  0.885748  0.503844  0.627603  1
  O  O40  1  0.114252  0.496156  0.127603  1
  O  O41  1  0.452457  0.464525  0.524453  1
  O  O42  1  0.563204  0.534505  0.220592  1
  O  O43  1  0.997232  0.556225  0.866437  1
  O  O44  1  0.510652  0.689024  0.620172  1
  O  O45  1  0.093317  0.730578  0.469915  1
  O  O46  1  0.058285  0.784962  0.773237  1
  O  O47  1  0.632957  0.747029  0.879242  1
  O  O48  1  0.632957  0.752971  0.379242  1
  O  O49  1  0.058285  0.715038  0.273237  1
  O  O50  1  0.093317  0.769422  0.969915  1
  O  O51  1  0.510652  0.810976  0.120172  1
  O  O52  1  0.997232  0.943775  0.366437  1
  O  O53  1  0.563204  0.965495  0.720592  1
  O  O54  1  0.452457  0.035475  0.024453  1
  O  O55  1  0.114252  0.003844  0.627603  1
