# generated using pymatgen
data_Li6CoOF6
_symmetry_space_group_name_H-M   'P 1'
_cell_length_a   14.72198609
_cell_length_b   14.72198609
_cell_length_c   14.72198609
_cell_angle_alpha   168.64371197
_cell_angle_beta   168.64371197
_cell_angle_gamma   16.08672683
_symmetry_Int_Tables_number   1
_chemical_formula_structural   Li6CoOF6
_chemical_formula_sum   'Li6 Co1 O1 F6'
_cell_volume   123.71175204
_cell_formula_units_Z   1
loop_
 _symmetry_equiv_pos_site_id
 _symmetry_equiv_pos_as_xyz
  1  'x, y, z'
loop_
 _atom_site_type_symbol
 _atom_site_label
 _atom_site_symmetry_multiplicity
 _atom_site_fract_x
 _atom_site_fract_y
 _atom_site_fract_z
 _atom_site_occupancy
  Li  Li0  1  0.925539  0.925539  0.000000  1
  Li  Li1  1  0.074461  0.074461  0.000000  1
  Li  Li2  1  0.645801  0.645801  0.000000  1
  Li  Li3  1  0.215109  0.215109  0.000000  1
  Li  Li4  1  0.784891  0.784891  0.000000  1
  Li  Li5  1  0.354199  0.354199  0.000000  1
  Co  Co6  1  0.500000  0.500000  0.000000  1
  O  O7  1  0.000000  0.000000  0.000000  1
  F  F8  1  0.423439  0.423439  0.000000  1
  F  F9  1  0.576561  0.576561  0.000000  1
  F  F10  1  0.145461  0.145461  0.000000  1
  F  F11  1  0.715169  0.715169  0.000000  1
  F  F12  1  0.284831  0.284831  0.000000  1
  F  F13  1  0.854539  0.854539  0.000000  1
