# generated using pymatgen
data_Na4Ni2O5
_symmetry_space_group_name_H-M   'P 1'
_cell_length_a   9.07390784
_cell_length_b   5.61991553
_cell_length_c   12.69398566
_cell_angle_alpha   90.00000000
_cell_angle_beta   117.48726470
_cell_angle_gamma   90.00000000
_symmetry_Int_Tables_number   1
_chemical_formula_structural   Na4Ni2O5
_chemical_formula_sum   'Na16 Ni8 O20'
_cell_volume   574.25041355
_cell_formula_units_Z   4
loop_
 _symmetry_equiv_pos_site_id
 _symmetry_equiv_pos_as_xyz
  1  'x, y, z'
loop_
 _atom_site_type_symbol
 _atom_site_label
 _atom_site_symmetry_multiplicity
 _atom_site_fract_x
 _atom_site_fract_y
 _atom_site_fract_z
 _atom_site_occupancy
  Na  Na0  1  0.699205  0.927979  0.537349  1
  Na  Na1  1  0.202288  0.587891  0.539926  1
  Na  Na2  1  0.109037  0.118601  0.630159  1
  Na  Na3  1  0.624874  0.373365  0.638725  1
  Na  Na4  1  0.890963  0.618601  0.869841  1
  Na  Na5  1  0.375126  0.873365  0.861275  1
  Na  Na6  1  0.300795  0.427979  0.962651  1
  Na  Na7  1  0.202288  0.912109  0.039926  1
  Na  Na8  1  0.797712  0.087891  0.960074  1
  Na  Na9  1  0.699205  0.572021  0.037349  1
  Na  Na10  1  0.624874  0.126635  0.138725  1
  Na  Na11  1  0.109037  0.381399  0.130159  1
  Na  Na12  1  0.375126  0.626635  0.361275  1
  Na  Na13  1  0.890963  0.881399  0.369841  1
  Na  Na14  1  0.797712  0.412109  0.460074  1
  Na  Na15  1  0.300795  0.072021  0.462651  1
  Ni  Ni16  1  0.041958  0.616555  0.700049  1
  Ni  Ni17  1  0.958042  0.116555  0.799951  1
  Ni  Ni18  1  0.544260  0.843957  0.702777  1
  Ni  Ni19  1  0.455740  0.343957  0.797223  1
  Ni  Ni20  1  0.544260  0.656043  0.202777  1
  Ni  Ni21  1  0.455740  0.156043  0.297223  1
  Ni  Ni22  1  0.041958  0.883445  0.200049  1
  Ni  Ni23  1  0.958042  0.383445  0.299951  1
  O  O24  1  0.950931  0.763708  0.556368  1
  O  O25  1  0.911273  0.341168  0.676823  1
  O  O26  1  0.470528  0.734708  0.553193  1
  O  O27  1  0.391155  0.082238  0.692853  1
  O  O28  1  0.258046  0.520371  0.741435  1
  O  O29  1  0.088727  0.841168  0.823177  1
  O  O30  1  0.741954  0.020371  0.758565  1
  O  O31  1  0.608845  0.582238  0.807147  1
  O  O32  1  0.049069  0.263708  0.943632  1
  O  O33  1  0.529472  0.234708  0.946807  1
  O  O34  1  0.470528  0.765292  0.053193  1
  O  O35  1  0.950931  0.736292  0.056368  1
  O  O36  1  0.391155  0.417762  0.192853  1
  O  O37  1  0.258046  0.979629  0.241435  1
  O  O38  1  0.911273  0.158832  0.176823  1
  O  O39  1  0.741954  0.479629  0.258565  1
  O  O40  1  0.608845  0.917762  0.307147  1
  O  O41  1  0.529472  0.265292  0.446807  1
  O  O42  1  0.088727  0.658832  0.323177  1
  O  O43  1  0.049069  0.236292  0.443632  1
