# generated using pymatgen
data_Li4Fe(OF)2
_symmetry_space_group_name_H-M   'P 1'
_cell_length_a   5.31731723
_cell_length_b   5.31731723
_cell_length_c   6.61518267
_cell_angle_alpha   54.60618462
_cell_angle_beta   125.39381538
_cell_angle_gamma   139.10813611
_symmetry_Int_Tables_number   1
_chemical_formula_structural   Li4Fe(OF)2
_chemical_formula_sum   'Li4 Fe1 O2 F2'
_cell_volume   96.24713736
_cell_formula_units_Z   1
loop_
 _symmetry_equiv_pos_site_id
 _symmetry_equiv_pos_as_xyz
  1  'x, y, z'
loop_
 _atom_site_type_symbol
 _atom_site_label
 _atom_site_symmetry_multiplicity
 _atom_site_fract_x
 _atom_site_fract_y
 _atom_site_fract_z
 _atom_site_occupancy
  Li  Li0  1  0.855944  0.144056  0.970448  1
  Li  Li1  1  0.339766  0.660234  0.653647  1
  Li  Li2  1  0.660234  0.339766  0.346353  1
  Li  Li3  1  0.144056  0.855944  0.029552  1
  Fe  Fe4  1  0.000000  0.000000  0.500000  1
  O  O5  1  0.911940  0.088060  0.688360  1
  O  O6  1  0.088060  0.911940  0.311640  1
  F  F7  1  0.259747  0.740253  0.855268  1
  F  F8  1  0.740253  0.259747  0.144732  1
