# generated using pymatgen
data_Li2VFeP2(O4F)2
_symmetry_space_group_name_H-M   'P 1'
_cell_length_a   6.96443062
_cell_length_b   7.56959768
_cell_length_c   7.79007424
_cell_angle_alpha   117.28124763
_cell_angle_beta   91.18874507
_cell_angle_gamma   90.49437100
_symmetry_Int_Tables_number   1
_chemical_formula_structural   Li2VFeP2(O4F)2
_chemical_formula_sum   'Li4 V2 Fe2 P4 O16 F4'
_cell_volume   364.84139348
_cell_formula_units_Z   2
loop_
 _symmetry_equiv_pos_site_id
 _symmetry_equiv_pos_as_xyz
  1  'x, y, z'
loop_
 _atom_site_type_symbol
 _atom_site_label
 _atom_site_symmetry_multiplicity
 _atom_site_fract_x
 _atom_site_fract_y
 _atom_site_fract_z
 _atom_site_occupancy
  Li  Li0  1  0.348195  0.920677  0.732665  1
  Li  Li1  1  0.847977  0.421508  0.232957  1
  Li  Li2  1  0.152700  0.578857  0.767128  1
  Li  Li3  1  0.651212  0.079006  0.267314  1
  V  V4  1  0.000028  0.000356  0.999777  1
  V  V5  1  0.749911  0.249990  0.750243  1
  Fe  Fe6  1  0.500153  0.499157  0.500301  1
  Fe  Fe7  1  0.249896  0.749998  0.249355  1
  P  P8  1  0.899445  0.777384  0.539914  1
  P  P9  1  0.600327  0.722324  0.960172  1
  P  P10  1  0.399389  0.278243  0.040259  1
  P  P11  1  0.100823  0.222034  0.459603  1
  O  O12  1  0.735235  0.896065  0.981882  1
  O  O13  1  0.785798  0.962342  0.572092  1
  O  O14  1  0.714012  0.537455  0.927817  1
  O  O15  1  0.996461  0.311023  0.654911  1
  O  O16  1  0.763546  0.603828  0.519017  1
  O  O17  1  0.452591  0.674890  0.788371  1
  O  O18  1  0.953237  0.175422  0.288213  1
  O  O19  1  0.503082  0.188476  0.844344  1
  O  O20  1  0.496260  0.812704  0.155778  1
  O  O21  1  0.046892  0.824666  0.711606  1
  O  O22  1  0.547126  0.324873  0.211801  1
  O  O23  1  0.235742  0.397064  0.482360  1
  O  O24  1  0.004486  0.687858  0.345101  1
  O  O25  1  0.286355  0.463637  0.073404  1
  O  O26  1  0.213772  0.036479  0.426416  1
  O  O27  1  0.265295  0.103120  0.016810  1
  F  F28  1  0.896981  0.233110  0.969859  1
  F  F29  1  0.397347  0.732417  0.469381  1
  F  F30  1  0.602393  0.268215  0.530137  1
  F  F31  1  0.103333  0.766818  0.031014  1
