# generated using pymatgen
data_LiP2WO7
_symmetry_space_group_name_H-M   'P 1'
_cell_length_a   6.57583993
_cell_length_b   6.62684507
_cell_length_c   6.86391605
_cell_angle_alpha   66.25367465
_cell_angle_beta   82.99871670
_cell_angle_gamma   81.18078546
_symmetry_Int_Tables_number   1
_chemical_formula_structural   LiP2WO7
_chemical_formula_sum   'Li2 P4 W2 O14'
_cell_volume   269.95007050
_cell_formula_units_Z   2
loop_
 _symmetry_equiv_pos_site_id
 _symmetry_equiv_pos_as_xyz
  1  'x, y, z'
loop_
 _atom_site_type_symbol
 _atom_site_label
 _atom_site_symmetry_multiplicity
 _atom_site_fract_x
 _atom_site_fract_y
 _atom_site_fract_z
 _atom_site_occupancy
  Li  Li0  1  0.900222  0.317984  0.160331  1
  Li  Li1  1  0.099778  0.682016  0.839669  1
  P  P2  1  0.861181  0.775640  0.237668  1
  P  P3  1  0.608098  0.646311  0.662368  1
  P  P4  1  0.391902  0.353689  0.337632  1
  P  P5  1  0.138819  0.224360  0.762332  1
  W  W6  1  0.656924  0.100518  0.771934  1
  W  W7  1  0.343076  0.899482  0.228066  1
  O  O8  1  0.991035  0.078829  0.736847  1
  O  O9  1  0.951392  0.621150  0.131033  1
  O  O10  1  0.768137  0.624687  0.468416  1
  O  O11  1  0.702849  0.784477  0.750156  1
  O  O12  1  0.670351  0.938840  0.124176  1
  O  O13  1  0.604025  0.407072  0.820696  1
  O  O14  1  0.603639  0.249076  0.431458  1
  O  O15  1  0.396361  0.750924  0.568542  1
  O  O16  1  0.395975  0.592928  0.179304  1
  O  O17  1  0.329649  0.061160  0.875824  1
  O  O18  1  0.297151  0.215523  0.249844  1
  O  O19  1  0.231863  0.375313  0.531584  1
  O  O20  1  0.048608  0.378850  0.868967  1
  O  O21  1  0.008965  0.921171  0.263153  1
