# generated using pymatgen
data_LiCu2F4
_symmetry_space_group_name_H-M   'P 1'
_cell_length_a   3.01857457
_cell_length_b   9.86276076
_cell_length_c   5.28836984
_cell_angle_alpha   90.00000000
_cell_angle_beta   95.64001673
_cell_angle_gamma   90.00000000
_symmetry_Int_Tables_number   1
_chemical_formula_structural   LiCu2F4
_chemical_formula_sum   'Li2 Cu4 F8'
_cell_volume   156.68041163
_cell_formula_units_Z   2
loop_
 _symmetry_equiv_pos_site_id
 _symmetry_equiv_pos_as_xyz
  1  'x, y, z'
loop_
 _atom_site_type_symbol
 _atom_site_label
 _atom_site_symmetry_multiplicity
 _atom_site_fract_x
 _atom_site_fract_y
 _atom_site_fract_z
 _atom_site_occupancy
  Li  Li0  1  0.962945  0.250000  0.778183  1
  Li  Li1  1  0.037055  0.750000  0.221817  1
  Cu  Cu2  1  0.641341  0.074606  0.265064  1
  Cu  Cu3  1  0.641341  0.425394  0.265064  1
  Cu  Cu4  1  0.358659  0.574606  0.734936  1
  Cu  Cu5  1  0.358659  0.925394  0.734936  1
  F  F6  1  0.675556  0.616961  0.418536  1
  F  F7  1  0.675556  0.883039  0.418536  1
  F  F8  1  0.573794  0.250000  0.070705  1
  F  F9  1  0.426206  0.750000  0.929295  1
  F  F10  1  0.324444  0.116961  0.581464  1
  F  F11  1  0.324444  0.383039  0.581464  1
  F  F12  1  0.000000  0.500000  0.000000  1
  F  F13  1  0.000000  0.000000  0.000000  1
