# generated using pymatgen
data_Li4Nb(TeO4)3
_symmetry_space_group_name_H-M   'P 1'
_cell_length_a   5.05179249
_cell_length_b   8.93469018
_cell_length_c   5.35518389
_cell_angle_alpha   90.00000000
_cell_angle_beta   90.43639586
_cell_angle_gamma   90.00000000
_symmetry_Int_Tables_number   1
_chemical_formula_structural   Li4Nb(TeO4)3
_chemical_formula_sum   'Li4 Nb1 Te3 O12'
_cell_volume   241.70564391
_cell_formula_units_Z   1
loop_
 _symmetry_equiv_pos_site_id
 _symmetry_equiv_pos_as_xyz
  1  'x, y, z'
loop_
 _atom_site_type_symbol
 _atom_site_label
 _atom_site_symmetry_multiplicity
 _atom_site_fract_x
 _atom_site_fract_y
 _atom_site_fract_z
 _atom_site_occupancy
  Li  Li0  1  0.000000  0.310742  0.000000  1
  Li  Li1  1  0.500000  0.169323  0.000000  1
  Li  Li2  1  0.000000  0.692887  0.500000  1
  Li  Li3  1  0.500000  0.801059  0.500000  1
  Nb  Nb4  1  0.000000  0.897942  0.000000  1
  Te  Te5  1  0.500000  0.592949  0.000000  1
  Te  Te6  1  0.000000  0.083024  0.500000  1
  Te  Te7  1  0.500000  0.397449  0.500000  1
  O  O8  1  0.263381  0.741684  0.146639  1
  O  O9  1  0.286100  0.431684  0.153155  1
  O  O10  1  0.209643  0.062577  0.170750  1
  O  O11  1  0.699499  0.584417  0.315201  1
  O  O12  1  0.803432  0.900802  0.325077  1
  O  O13  1  0.764919  0.235608  0.328737  1
  O  O14  1  0.235081  0.235608  0.671263  1
  O  O15  1  0.196568  0.900802  0.674923  1
  O  O16  1  0.300501  0.584417  0.684799  1
  O  O17  1  0.790357  0.062577  0.829250  1
  O  O18  1  0.713900  0.431684  0.846845  1
  O  O19  1  0.736619  0.741684  0.853361  1
