# generated using pymatgen
data_Li6CuO4
_symmetry_space_group_name_H-M   'P 1'
_cell_length_a   6.63328284
_cell_length_b   6.63328284
_cell_length_c   4.58955884
_cell_angle_alpha   90.00000000
_cell_angle_beta   90.00000000
_cell_angle_gamma   90.00000000
_symmetry_Int_Tables_number   1
_chemical_formula_structural   Li6CuO4
_chemical_formula_sum   'Li12 Cu2 O8'
_cell_volume   201.94261416
_cell_formula_units_Z   2
loop_
 _symmetry_equiv_pos_site_id
 _symmetry_equiv_pos_as_xyz
  1  'x, y, z'
loop_
 _atom_site_type_symbol
 _atom_site_label
 _atom_site_symmetry_multiplicity
 _atom_site_fract_x
 _atom_site_fract_y
 _atom_site_fract_z
 _atom_site_occupancy
  Li  Li0  1  0.218322  0.218322  0.500000  1
  Li  Li1  1  0.781678  0.218322  0.500000  1
  Li  Li2  1  0.500000  0.000000  0.437491  1
  Li  Li3  1  0.500000  0.000000  0.937491  1
  Li  Li4  1  0.218322  0.781678  0.500000  1
  Li  Li5  1  0.781678  0.781678  0.500000  1
  Li  Li6  1  0.718322  0.718322  0.000000  1
  Li  Li7  1  0.281678  0.718322  0.000000  1
  Li  Li8  1  0.000000  0.500000  0.062509  1
  Li  Li9  1  0.000000  0.500000  0.562509  1
  Li  Li10  1  0.718322  0.281678  0.000000  1
  Li  Li11  1  0.281678  0.281678  0.000000  1
  Cu  Cu12  1  0.000000  0.000000  0.000000  1
  Cu  Cu13  1  0.500000  0.500000  0.500000  1
  O  O14  1  0.500000  0.232422  0.697289  1
  O  O15  1  0.732422  0.000000  0.197289  1
  O  O16  1  0.267578  0.000000  0.197289  1
  O  O17  1  0.500000  0.767578  0.697289  1
  O  O18  1  0.000000  0.732422  0.802711  1
  O  O19  1  0.232422  0.500000  0.302711  1
  O  O20  1  0.767578  0.500000  0.302711  1
  O  O21  1  0.000000  0.267578  0.802711  1
