# generated using pymatgen
data_Li3Ti(CuO2)4
_symmetry_space_group_name_H-M   'P 1'
_cell_length_a   6.17992711
_cell_length_b   6.17992711
_cell_length_c   5.66437197
_cell_angle_alpha   64.18871969
_cell_angle_beta   115.81128031
_cell_angle_gamma   124.42738637
_symmetry_Int_Tables_number   1
_chemical_formula_structural   Li3Ti(CuO2)4
_chemical_formula_sum   'Li3 Ti1 Cu4 O8'
_cell_volume   155.33227373
_cell_formula_units_Z   1
loop_
 _symmetry_equiv_pos_site_id
 _symmetry_equiv_pos_as_xyz
  1  'x, y, z'
loop_
 _atom_site_type_symbol
 _atom_site_label
 _atom_site_symmetry_multiplicity
 _atom_site_fract_x
 _atom_site_fract_y
 _atom_site_fract_z
 _atom_site_occupancy
  Li  Li0  1  0.500000  0.000000  0.500000  1
  Li  Li1  1  0.000000  0.000000  0.000000  1
  Li  Li2  1  0.000000  0.500000  0.500000  1
  Ti  Ti3  1  0.500000  0.500000  0.500000  1
  Cu  Cu4  1  0.500000  0.500000  0.000000  1
  Cu  Cu5  1  0.000000  0.000000  0.500000  1
  Cu  Cu6  1  0.500000  0.000000  0.000000  1
  Cu  Cu7  1  0.000000  0.500000  0.000000  1
  O  O8  1  0.716048  0.283952  0.743832  1
  O  O9  1  0.293440  0.242867  0.269688  1
  O  O10  1  0.757133  0.706560  0.269688  1
  O  O11  1  0.206316  0.793684  0.739921  1
  O  O12  1  0.793684  0.206316  0.260079  1
  O  O13  1  0.242867  0.293440  0.730312  1
  O  O14  1  0.706560  0.757133  0.730312  1
  O  O15  1  0.283952  0.716048  0.256168  1
