# generated using pymatgen
data_Fe8O9
_symmetry_space_group_name_H-M   'P 1'
_cell_length_a   6.19122704
_cell_length_b   6.83548466
_cell_length_c   9.26247033
_cell_angle_alpha   102.96090906
_cell_angle_beta   90.29095776
_cell_angle_gamma   103.72882262
_symmetry_Int_Tables_number   1
_chemical_formula_structural   Fe8O9
_chemical_formula_sum   'Fe16 O18'
_cell_volume   370.38316875
_cell_formula_units_Z   2
loop_
 _symmetry_equiv_pos_site_id
 _symmetry_equiv_pos_as_xyz
  1  'x, y, z'
loop_
 _atom_site_type_symbol
 _atom_site_label
 _atom_site_symmetry_multiplicity
 _atom_site_fract_x
 _atom_site_fract_y
 _atom_site_fract_z
 _atom_site_occupancy
  Fe  Fe0  1  0.503480  0.993528  0.997925  1
  Fe  Fe1  1  0.833452  0.327800  0.890326  1
  Fe  Fe2  1  0.166154  0.669333  0.777605  1
  Fe  Fe3  1  0.493885  0.007683  0.663645  1
  Fe  Fe4  1  0.328278  0.328700  0.887979  1
  Fe  Fe5  1  0.658561  0.656027  0.447060  1
  Fe  Fe6  1  0.661843  0.662406  0.774658  1
  Fe  Fe7  1  0.840354  0.337525  0.557383  1
  Fe  Fe8  1  0.000378  0.000084  0.671289  1
  Fe  Fe9  1  0.171871  0.657294  0.445498  1
  Fe  Fe10  1  0.498110  0.004290  0.339405  1
  Fe  Fe11  1  0.838418  0.329911  0.218162  1
  Fe  Fe12  1  0.007418  0.003932  0.335418  1
  Fe  Fe13  1  0.158878  0.680833  0.108268  1
  Fe  Fe14  1  0.327458  0.331474  0.217899  1
  Fe  Fe15  1  0.674573  0.676004  0.109407  1
  O  O16  1  0.893393  0.640260  0.938468  1
  O  O17  1  0.269444  0.001304  0.818860  1
  O  O18  1  0.412905  0.657802  0.943179  1
  O  O19  1  0.597440  0.320047  0.732576  1
  O  O20  1  0.735030  0.011190  0.823740  1
  O  O21  1  0.917220  0.666044  0.608686  1
  O  O22  1  0.059434  0.334462  0.737446  1
  O  O23  1  0.254718  0.978838  0.494078  1
  O  O24  1  0.433053  0.695655  0.616752  1
  O  O25  1  0.598855  0.325376  0.370825  1
  O  O26  1  0.732380  0.001535  0.499738  1
  O  O27  1  0.911566  0.656922  0.280825  1
  O  O28  1  0.067172  0.335497  0.372066  1
  O  O29  1  0.277757  0.999323  0.178840  1
  O  O30  1  0.427657  0.680195  0.276927  1
  O  O31  1  0.600961  0.328656  0.057152  1
  O  O32  1  0.740018  0.011894  0.189038  1
  O  O33  1  0.074552  0.354843  0.063319  1
