# generated using pymatgen
data_Li2Mn3CuO8
_symmetry_space_group_name_H-M   'P 1'
_cell_length_a   8.30052144
_cell_length_b   8.33339325
_cell_length_c   8.38357568
_cell_angle_alpha   89.77117712
_cell_angle_beta   89.91942941
_cell_angle_gamma   89.89732943
_symmetry_Int_Tables_number   1
_chemical_formula_structural   Li2Mn3CuO8
_chemical_formula_sum   'Li8 Mn12 Cu4 O32'
_cell_volume   579.89846005
_cell_formula_units_Z   4
loop_
 _symmetry_equiv_pos_site_id
 _symmetry_equiv_pos_as_xyz
  1  'x, y, z'
loop_
 _atom_site_type_symbol
 _atom_site_label
 _atom_site_symmetry_multiplicity
 _atom_site_fract_x
 _atom_site_fract_y
 _atom_site_fract_z
 _atom_site_occupancy
  Li  Li0  1  0.993970  0.995364  0.005261  1
  Li  Li1  1  0.756730  0.757372  0.246695  1
  Li  Li2  1  0.245641  0.254320  0.255422  1
  Li  Li3  1  0.007480  0.493173  0.495440  1
  Li  Li4  1  0.504131  0.004296  0.503446  1
  Li  Li5  1  0.742665  0.242838  0.744463  1
  Li  Li6  1  0.256359  0.745872  0.754120  1
  Li  Li7  1  0.492593  0.506402  0.994610  1
  Mn  Mn8  1  0.870837  0.372210  0.119164  1
  Mn  Mn9  1  0.616768  0.129407  0.128164  1
  Mn  Mn10  1  0.374049  0.882113  0.133226  1
  Mn  Mn11  1  0.621268  0.379347  0.368938  1
  Mn  Mn12  1  0.378497  0.632626  0.376712  1
  Mn  Mn13  1  0.132878  0.878297  0.381834  1
  Mn  Mn14  1  0.629451  0.628824  0.616359  1
  Mn  Mn15  1  0.879987  0.871343  0.622925  1
  Mn  Mn16  1  0.129245  0.116677  0.631185  1
  Mn  Mn17  1  0.876273  0.620269  0.867808  1
  Mn  Mn18  1  0.120971  0.367804  0.874470  1
  Mn  Mn19  1  0.369998  0.121462  0.880684  1
  Cu  Cu20  1  0.125070  0.627648  0.123184  1
  Cu  Cu21  1  0.876833  0.124579  0.373099  1
  Cu  Cu22  1  0.374480  0.373121  0.622865  1
  Cu  Cu23  1  0.623318  0.873500  0.874853  1
  O  O24  1  0.884893  0.607616  0.099882  1
  O  O25  1  0.099659  0.366477  0.103405  1
  O  O26  1  0.381973  0.117063  0.115142  1
  O  O27  1  0.847154  0.140900  0.125742  1
  O  O28  1  0.604355  0.902501  0.140373  1
  O  O29  1  0.633718  0.368253  0.133737  1
  O  O30  1  0.364600  0.649875  0.143016  1
  O  O31  1  0.141614  0.883674  0.154559  1
  O  O32  1  0.857427  0.364971  0.350574  1
  O  O33  1  0.610085  0.153723  0.355312  1
  O  O34  1  0.366895  0.866680  0.366035  1
  O  O35  1  0.388898  0.403957  0.375128  1
  O  O36  1  0.148980  0.646601  0.381417  1
  O  O37  1  0.617605  0.614948  0.382111  1
  O  O38  1  0.901418  0.885537  0.391089  1
  O  O39  1  0.139848  0.107602  0.406090  1
  O  O40  1  0.614997  0.392825  0.600468  1
  O  O41  1  0.402274  0.638871  0.603607  1
  O  O42  1  0.116086  0.882760  0.617220  1
  O  O43  1  0.654007  0.857125  0.609513  1
  O  O44  1  0.894830  0.101433  0.624288  1
  O  O45  1  0.866713  0.632960  0.633455  1
  O  O46  1  0.135020  0.348582  0.641702  1
  O  O47  1  0.359477  0.110717  0.656250  1
  O  O48  1  0.640667  0.632838  0.848123  1
  O  O49  1  0.871936  0.850836  0.854370  1
  O  O50  1  0.133388  0.132153  0.866202  1
  O  O51  1  0.108047  0.596666  0.868509  1
  O  O52  1  0.351712  0.353745  0.874683  1
  O  O53  1  0.882338  0.384039  0.883551  1
  O  O54  1  0.602140  0.116002  0.894823  1
  O  O55  1  0.377613  0.889067  0.904693  1
