# generated using pymatgen
data_Li2TiP3O10
_symmetry_space_group_name_H-M   'P 1'
_cell_length_a   9.98282324
_cell_length_b   8.05610113
_cell_length_c   12.26151788
_cell_angle_alpha   90.00000000
_cell_angle_beta   98.04297117
_cell_angle_gamma   90.00000000
_symmetry_Int_Tables_number   1
_chemical_formula_structural   Li2TiP3O10
_chemical_formula_sum   'Li8 Ti4 P12 O40'
_cell_volume   976.40366502
_cell_formula_units_Z   4
loop_
 _symmetry_equiv_pos_site_id
 _symmetry_equiv_pos_as_xyz
  1  'x, y, z'
loop_
 _atom_site_type_symbol
 _atom_site_label
 _atom_site_symmetry_multiplicity
 _atom_site_fract_x
 _atom_site_fract_y
 _atom_site_fract_z
 _atom_site_occupancy
  Li  Li0  1  0.618839  0.547930  0.850393  1
  Li  Li1  1  0.118839  0.952070  0.850393  1
  Li  Li2  1  0.088399  0.887696  0.561098  1
  Li  Li3  1  0.588399  0.612304  0.561098  1
  Li  Li4  1  0.411601  0.387696  0.438902  1
  Li  Li5  1  0.911601  0.112304  0.438902  1
  Li  Li6  1  0.881161  0.047930  0.149607  1
  Li  Li7  1  0.381161  0.452070  0.149607  1
  Ti  Ti8  1  0.368521  0.142447  0.830552  1
  Ti  Ti9  1  0.868521  0.357553  0.830552  1
  Ti  Ti10  1  0.131479  0.642447  0.169448  1
  Ti  Ti11  1  0.631479  0.857553  0.169448  1
  P  P12  1  0.193711  0.425289  0.939202  1
  P  P13  1  0.693711  0.074711  0.939202  1
  P  P14  1  0.086578  0.572391  0.730284  1
  P  P15  1  0.586578  0.927609  0.730284  1
  P  P16  1  0.067232  0.213565  0.668719  1
  P  P17  1  0.567232  0.286435  0.668719  1
  P  P18  1  0.432768  0.713565  0.331281  1
  P  P19  1  0.932768  0.786435  0.331281  1
  P  P20  1  0.413422  0.072391  0.269716  1
  P  P21  1  0.913422  0.427609  0.269716  1
  P  P22  1  0.306289  0.925289  0.060798  1
  P  P23  1  0.806289  0.574711  0.060798  1
  O  O24  1  0.062021  0.329748  0.915968  1
  O  O25  1  0.281794  0.998834  0.944781  1
  O  O26  1  0.323177  0.333078  0.922143  1
  O  O27  1  0.562021  0.170252  0.915968  1
  O  O28  1  0.781794  0.501166  0.944781  1
  O  O29  1  0.823177  0.166922  0.922143  1
  O  O30  1  0.184696  0.576716  0.848719  1
  O  O31  1  0.684696  0.923284  0.848719  1
  O  O32  1  0.170131  0.114636  0.750255  1
  O  O33  1  0.441261  0.942298  0.754243  1
  O  O34  1  0.428111  0.278187  0.708307  1
  O  O35  1  0.670131  0.385364  0.750255  1
  O  O36  1  0.941261  0.557702  0.754243  1
  O  O37  1  0.928111  0.221813  0.708307  1
  O  O38  1  0.126010  0.405307  0.669054  1
  O  O39  1  0.123437  0.722336  0.670204  1
  O  O40  1  0.626010  0.094693  0.669054  1
  O  O41  1  0.623437  0.777664  0.670204  1
  O  O42  1  0.060862  0.142748  0.554294  1
  O  O43  1  0.560862  0.357252  0.554294  1
  O  O44  1  0.439138  0.642748  0.445706  1
  O  O45  1  0.939138  0.857252  0.445706  1
  O  O46  1  0.376563  0.222336  0.329796  1
  O  O47  1  0.373990  0.905307  0.330946  1
  O  O48  1  0.876563  0.277664  0.329796  1
  O  O49  1  0.873990  0.594693  0.330946  1
  O  O50  1  0.071889  0.778187  0.291693  1
  O  O51  1  0.058739  0.442298  0.245757  1
  O  O52  1  0.329869  0.614636  0.249745  1
  O  O53  1  0.571889  0.721813  0.291693  1
  O  O54  1  0.558739  0.057702  0.245757  1
  O  O55  1  0.829869  0.885364  0.249745  1
  O  O56  1  0.315304  0.076716  0.151281  1
  O  O57  1  0.815304  0.423284  0.151281  1
  O  O58  1  0.176823  0.833078  0.077857  1
  O  O59  1  0.218206  0.498834  0.055219  1
  O  O60  1  0.437979  0.829748  0.084032  1
  O  O61  1  0.676823  0.666922  0.077857  1
  O  O62  1  0.718206  0.001166  0.055219  1
  O  O63  1  0.937979  0.670252  0.084032  1
