# generated using pymatgen
data_Li2FeF5
_symmetry_space_group_name_H-M   'P 1'
_cell_length_a   6.19926936
_cell_length_b   6.39048759
_cell_length_c   8.90001102
_cell_angle_alpha   90.00000000
_cell_angle_beta   90.00000000
_cell_angle_gamma   90.00000000
_symmetry_Int_Tables_number   1
_chemical_formula_structural   Li2FeF5
_chemical_formula_sum   'Li8 Fe4 F20'
_cell_volume   352.58598640
_cell_formula_units_Z   4
loop_
 _symmetry_equiv_pos_site_id
 _symmetry_equiv_pos_as_xyz
  1  'x, y, z'
loop_
 _atom_site_type_symbol
 _atom_site_label
 _atom_site_symmetry_multiplicity
 _atom_site_fract_x
 _atom_site_fract_y
 _atom_site_fract_z
 _atom_site_occupancy
  Li  Li0  1  0.982378  0.556094  0.653684  1
  Li  Li1  1  0.517622  0.556094  0.653684  1
  Li  Li2  1  0.517622  0.943906  0.153684  1
  Li  Li3  1  0.982378  0.943906  0.153684  1
  Li  Li4  1  0.482378  0.056094  0.846316  1
  Li  Li5  1  0.017622  0.056094  0.846316  1
  Li  Li6  1  0.017622  0.443906  0.346316  1
  Li  Li7  1  0.482378  0.443906  0.346316  1
  Fe  Fe8  1  0.750000  0.419530  0.001173  1
  Fe  Fe9  1  0.750000  0.080470  0.501173  1
  Fe  Fe10  1  0.250000  0.919530  0.498827  1
  Fe  Fe11  1  0.250000  0.580470  0.998827  1
  F  F12  1  0.750000  0.415902  0.509923  1
  F  F13  1  0.250000  0.440914  0.196600  1
  F  F14  1  0.044422  0.332132  0.939141  1
  F  F15  1  0.455578  0.332132  0.939141  1
  F  F16  1  0.750000  0.380566  0.216636  1
  F  F17  1  0.750000  0.119434  0.716636  1
  F  F18  1  0.455578  0.167868  0.439141  1
  F  F19  1  0.044422  0.167868  0.439141  1
  F  F20  1  0.250000  0.059086  0.696600  1
  F  F21  1  0.750000  0.084098  0.009923  1
  F  F22  1  0.250000  0.915902  0.990077  1
  F  F23  1  0.750000  0.940914  0.303400  1
  F  F24  1  0.544422  0.832132  0.560859  1
  F  F25  1  0.955578  0.832132  0.560859  1
  F  F26  1  0.250000  0.880566  0.283364  1
  F  F27  1  0.250000  0.619434  0.783364  1
  F  F28  1  0.955578  0.667868  0.060859  1
  F  F29  1  0.544422  0.667868  0.060859  1
  F  F30  1  0.750000  0.559086  0.803400  1
  F  F31  1  0.250000  0.584098  0.490077  1
