# generated using pymatgen
data_Li2FeF4
_symmetry_space_group_name_H-M   'P 1'
_cell_length_a   5.21312574
_cell_length_b   5.21312574
_cell_length_c   6.56963659
_cell_angle_alpha   90.00000000
_cell_angle_beta   90.00000000
_cell_angle_gamma   112.99824064
_symmetry_Int_Tables_number   1
_chemical_formula_structural   Li2FeF4
_chemical_formula_sum   'Li4 Fe2 F8'
_cell_volume   164.34991762
_cell_formula_units_Z   2
loop_
 _symmetry_equiv_pos_site_id
 _symmetry_equiv_pos_as_xyz
  1  'x, y, z'
loop_
 _atom_site_type_symbol
 _atom_site_label
 _atom_site_symmetry_multiplicity
 _atom_site_fract_x
 _atom_site_fract_y
 _atom_site_fract_z
 _atom_site_occupancy
  Li  Li0  1  0.845279  0.154721  0.250000  1
  Li  Li1  1  0.500000  0.500000  0.000000  1
  Li  Li2  1  0.500000  0.500000  0.500000  1
  Li  Li3  1  0.154721  0.845279  0.750000  1
  Fe  Fe4  1  0.830012  0.169988  0.750000  1
  Fe  Fe5  1  0.169988  0.830012  0.250000  1
  F  F6  1  0.248891  0.238277  0.750000  1
  F  F7  1  0.238277  0.248891  0.250000  1
  F  F8  1  0.729145  0.270855  0.013269  1
  F  F9  1  0.729145  0.270855  0.486731  1
  F  F10  1  0.270855  0.729145  0.986731  1
  F  F11  1  0.270855  0.729145  0.513269  1
  F  F12  1  0.761723  0.751109  0.750000  1
  F  F13  1  0.751109  0.761723  0.250000  1
