# generated using pymatgen
data_V12PbO30
_symmetry_space_group_name_H-M   'P 1'
_cell_length_a   7.34633929
_cell_length_b   8.13168940
_cell_length_c   10.29579862
_cell_angle_alpha   108.68226794
_cell_angle_beta   89.97107231
_cell_angle_gamma   103.03507857
_symmetry_Int_Tables_number   1
_chemical_formula_structural   V12PbO30
_chemical_formula_sum   'V12 Pb1 O30'
_cell_volume   565.91338032
_cell_formula_units_Z   1
loop_
 _symmetry_equiv_pos_site_id
 _symmetry_equiv_pos_as_xyz
  1  'x, y, z'
loop_
 _atom_site_type_symbol
 _atom_site_label
 _atom_site_symmetry_multiplicity
 _atom_site_fract_x
 _atom_site_fract_y
 _atom_site_fract_z
 _atom_site_occupancy
  V  V0  1  0.832315  0.329752  0.903075  1
  V  V1  1  0.331936  0.327356  0.900838  1
  V  V2  1  0.857609  0.430416  0.593775  1
  V  V3  1  0.357295  0.429600  0.592794  1
  V  V4  1  0.555013  0.223588  0.112400  1
  V  V5  1  0.058156  0.228209  0.113169  1
  V  V6  1  0.942134  0.769234  0.885987  1
  V  V7  1  0.439890  0.758960  0.880765  1
  V  V8  1  0.140918  0.566260  0.404577  1
  V  V9  1  0.642454  0.566686  0.404517  1
  V  V10  1  0.669414  0.672786  0.102242  1
  V  V11  1  0.167296  0.673831  0.102051  1
  Pb  Pb12  1  0.495676  0.001292  0.602597  1
  O  O13  1  0.772708  0.132080  0.783868  1
  O  O14  1  0.295864  0.128062  0.780276  1
  O  O15  1  0.601376  0.376070  0.949060  1
  O  O16  1  0.085757  0.371418  0.945745  1
  O  O17  1  0.797540  0.213875  0.536648  1
  O  O18  1  0.309822  0.212647  0.535014  1
  O  O19  1  0.000235  0.001062  0.001770  1
  O  O20  1  0.500505  0.001872  0.004551  1
  O  O21  1  0.554520  0.218611  0.269571  1
  O  O22  1  0.055216  0.219970  0.268894  1
  O  O23  1  0.868891  0.476857  0.779193  1
  O  O24  1  0.369804  0.478673  0.776100  1
  O  O25  1  0.623563  0.489955  0.572780  1
  O  O26  1  0.120616  0.486720  0.571256  1
  O  O27  1  0.315460  0.269236  0.075891  1
  O  O28  1  0.818772  0.268605  0.075143  1
  O  O29  1  0.690273  0.733591  0.929643  1
  O  O30  1  0.176584  0.733582  0.929648  1
  O  O31  1  0.878020  0.510988  0.424571  1
  O  O32  1  0.377557  0.511037  0.425160  1
  O  O33  1  0.630269  0.526148  0.220100  1
  O  O34  1  0.132531  0.525323  0.219627  1
  O  O35  1  0.946016  0.784048  0.732315  1
  O  O36  1  0.445769  0.783437  0.724766  1
  O  O37  1  0.693197  0.784076  0.465486  1
  O  O38  1  0.198971  0.784089  0.465613  1
  O  O39  1  0.907520  0.628260  0.056848  1
  O  O40  1  0.406779  0.628224  0.049312  1
  O  O41  1  0.714513  0.868059  0.216199  1
  O  O42  1  0.219548  0.868655  0.216468  1
