# generated using pymatgen
data_LiCr2O3
_symmetry_space_group_name_H-M   'P 1'
_cell_length_a   5.21283923
_cell_length_b   5.21283923
_cell_length_c   5.27678867
_cell_angle_alpha   79.59325139
_cell_angle_beta   100.40674861
_cell_angle_gamma   60.92651045
_symmetry_Int_Tables_number   1
_chemical_formula_structural   LiCr2O3
_chemical_formula_sum   'Li2 Cr4 O6'
_cell_volume   117.09798378
_cell_formula_units_Z   2
loop_
 _symmetry_equiv_pos_site_id
 _symmetry_equiv_pos_as_xyz
  1  'x, y, z'
loop_
 _atom_site_type_symbol
 _atom_site_label
 _atom_site_symmetry_multiplicity
 _atom_site_fract_x
 _atom_site_fract_y
 _atom_site_fract_z
 _atom_site_occupancy
  Li  Li0  1  0.085288  0.085288  0.250000  1
  Li  Li1  1  0.914712  0.914712  0.750000  1
  Cr  Cr2  1  0.753980  0.753980  0.250000  1
  Cr  Cr3  1  0.414019  0.414019  0.250000  1
  Cr  Cr4  1  0.585981  0.585981  0.750000  1
  Cr  Cr5  1  0.246020  0.246020  0.750000  1
  O  O6  1  0.822622  0.358216  0.509313  1
  O  O7  1  0.641784  0.177378  0.009313  1
  O  O8  1  0.000000  0.500000  0.000000  1
  O  O9  1  0.358216  0.822622  0.990687  1
  O  O10  1  0.500000  0.000000  0.500000  1
  O  O11  1  0.177378  0.641784  0.490687  1
