# generated using pymatgen
data_MnV5O12
_symmetry_space_group_name_H-M   'P 1'
_cell_length_a   6.89428836
_cell_length_b   6.89428836
_cell_length_c   5.88416794
_cell_angle_alpha   74.92028382
_cell_angle_beta   105.07971618
_cell_angle_gamma   95.61103930
_symmetry_Int_Tables_number   1
_chemical_formula_structural   MnV5O12
_chemical_formula_sum   'Mn1 V5 O12'
_cell_volume   260.61564573
_cell_formula_units_Z   1
loop_
 _symmetry_equiv_pos_site_id
 _symmetry_equiv_pos_as_xyz
  1  'x, y, z'
loop_
 _atom_site_type_symbol
 _atom_site_label
 _atom_site_symmetry_multiplicity
 _atom_site_fract_x
 _atom_site_fract_y
 _atom_site_fract_z
 _atom_site_occupancy
  Mn  Mn0  1  0.088130  0.088130  0.500000  1
  V  V1  1  0.914313  0.914313  0.000000  1
  V  V2  1  0.390409  0.791152  0.017980  1
  V  V3  1  0.206703  0.611874  0.511634  1
  V  V4  1  0.791152  0.390409  0.982020  1
  V  V5  1  0.611874  0.206703  0.488366  1
  O  O6  1  0.197682  0.961053  0.903655  1
  O  O7  1  0.621867  0.901778  0.036508  1
  O  O8  1  0.039971  0.806680  0.379905  1
  O  O9  1  0.350985  0.637879  0.804159  1
  O  O10  1  0.901778  0.621867  0.963492  1
  O  O11  1  0.368079  0.638194  0.309411  1
  O  O12  1  0.637879  0.350985  0.195841  1
  O  O13  1  0.087179  0.386073  0.537134  1
  O  O14  1  0.638194  0.368079  0.690589  1
  O  O15  1  0.961053  0.197682  0.096345  1
  O  O16  1  0.386073  0.087179  0.462866  1
  O  O17  1  0.806680  0.039971  0.620095  1
