# generated using pymatgen
data_Li2Ti3NiO8
_symmetry_space_group_name_H-M   'P 1'
_cell_length_a   8.44283483
_cell_length_b   8.44283483
_cell_length_c   8.44283483
_cell_angle_alpha   90.00000000
_cell_angle_beta   90.00000000
_cell_angle_gamma   90.00000000
_symmetry_Int_Tables_number   1
_chemical_formula_structural   Li2Ti3NiO8
_chemical_formula_sum   'Li8 Ti12 Ni4 O32'
_cell_volume   601.81759248
_cell_formula_units_Z   4
loop_
 _symmetry_equiv_pos_site_id
 _symmetry_equiv_pos_as_xyz
  1  'x, y, z'
loop_
 _atom_site_type_symbol
 _atom_site_label
 _atom_site_symmetry_multiplicity
 _atom_site_fract_x
 _atom_site_fract_y
 _atom_site_fract_z
 _atom_site_occupancy
  Li  Li0  1  0.373718  0.873718  0.626282  1
  Li  Li1  1  0.252807  0.747193  0.247193  1
  Li  Li2  1  0.247193  0.252807  0.747193  1
  Li  Li3  1  0.126282  0.126282  0.126282  1
  Li  Li4  1  0.873718  0.626282  0.373718  1
  Li  Li5  1  0.752807  0.752807  0.752807  1
  Li  Li6  1  0.747193  0.247193  0.252807  1
  Li  Li7  1  0.626282  0.373718  0.873718  1
  Ti  Ti8  1  0.385265  0.621653  0.872091  1
  Ti  Ti9  1  0.378347  0.372091  0.114735  1
  Ti  Ti10  1  0.372091  0.114735  0.378347  1
  Ti  Ti11  1  0.127909  0.885265  0.878347  1
  Ti  Ti12  1  0.121653  0.627909  0.614735  1
  Ti  Ti13  1  0.114735  0.378347  0.372091  1
  Ti  Ti14  1  0.885265  0.878347  0.127909  1
  Ti  Ti15  1  0.878347  0.127909  0.885265  1
  Ti  Ti16  1  0.872091  0.385265  0.621653  1
  Ti  Ti17  1  0.627909  0.614735  0.121653  1
  Ti  Ti18  1  0.621653  0.872091  0.385265  1
  Ti  Ti19  1  0.614735  0.121653  0.627909  1
  Ni  Ni20  1  0.498328  0.498328  0.498328  1
  Ni  Ni21  1  0.001672  0.501672  0.998328  1
  Ni  Ni22  1  0.998328  0.001672  0.501672  1
  Ni  Ni23  1  0.501672  0.998328  0.001672  1
  O  O24  1  0.393738  0.125484  0.610268  1
  O  O25  1  0.389732  0.893738  0.374516  1
  O  O26  1  0.389260  0.610740  0.110740  1
  O  O27  1  0.374516  0.389732  0.893738  1
  O  O28  1  0.375372  0.144073  0.142512  1
  O  O29  1  0.363457  0.363457  0.363457  1
  O  O30  1  0.357488  0.624628  0.644073  1
  O  O31  1  0.355927  0.857488  0.875372  1
  O  O32  1  0.144073  0.142512  0.375372  1
  O  O33  1  0.142512  0.375372  0.144073  1
  O  O34  1  0.136543  0.636543  0.863457  1
  O  O35  1  0.124628  0.855927  0.642512  1
  O  O36  1  0.125484  0.610268  0.393738  1
  O  O37  1  0.110740  0.389260  0.610740  1
  O  O38  1  0.110268  0.106262  0.874516  1
  O  O39  1  0.106262  0.874516  0.110268  1
  O  O40  1  0.893738  0.374516  0.389732  1
  O  O41  1  0.889732  0.606262  0.625484  1
  O  O42  1  0.889260  0.889260  0.889260  1
  O  O43  1  0.874516  0.110268  0.106262  1
  O  O44  1  0.875372  0.355927  0.857488  1
  O  O45  1  0.863457  0.136543  0.636543  1
  O  O46  1  0.857488  0.875372  0.355927  1
  O  O47  1  0.855927  0.642512  0.124628  1
  O  O48  1  0.644073  0.357488  0.624628  1
  O  O49  1  0.642512  0.124628  0.855927  1
  O  O50  1  0.636543  0.863457  0.136543  1
  O  O51  1  0.624628  0.644073  0.357488  1
  O  O52  1  0.625484  0.889732  0.606262  1
  O  O53  1  0.610740  0.110740  0.389260  1
  O  O54  1  0.610268  0.393738  0.125484  1
  O  O55  1  0.606262  0.625484  0.889732  1
