# generated using pymatgen
data_Li2Mn3NiO8
_symmetry_space_group_name_H-M   'P 1'
_cell_length_a   5.90283416
_cell_length_b   5.90283416
_cell_length_c   5.90283416
_cell_angle_alpha   59.09040958
_cell_angle_beta   59.09040958
_cell_angle_gamma   59.09040958
_symmetry_Int_Tables_number   1
_chemical_formula_structural   Li2Mn3NiO8
_chemical_formula_sum   'Li2 Mn3 Ni1 O8'
_cell_volume   142.41836805
_cell_formula_units_Z   1
loop_
 _symmetry_equiv_pos_site_id
 _symmetry_equiv_pos_as_xyz
  1  'x, y, z'
loop_
 _atom_site_type_symbol
 _atom_site_label
 _atom_site_symmetry_multiplicity
 _atom_site_fract_x
 _atom_site_fract_y
 _atom_site_fract_z
 _atom_site_occupancy
  Li  Li0  1  0.883193  0.883193  0.883193  1
  Li  Li1  1  0.500852  0.500852  0.500852  1
  Mn  Mn2  1  0.500876  0.500876  0.995177  1
  Mn  Mn3  1  0.995177  0.500876  0.500876  1
  Mn  Mn4  1  0.500876  0.995177  0.500876  1
  Ni  Ni5  1  0.116008  0.116008  0.116008  1
  O  O6  1  0.737381  0.737381  0.737381  1
  O  O7  1  0.748493  0.290207  0.748493  1
  O  O8  1  0.290207  0.748493  0.748493  1
  O  O9  1  0.748493  0.748493  0.290207  1
  O  O10  1  0.252485  0.252485  0.711906  1
  O  O11  1  0.711906  0.252485  0.252485  1
  O  O12  1  0.252485  0.711906  0.252485  1
  O  O13  1  0.261568  0.261568  0.261568  1
