# generated using pymatgen
data_Li7TiFe3(PO4)6
_symmetry_space_group_name_H-M   'P 1'
_cell_length_a   8.87568701
_cell_length_b   8.87568701
_cell_length_c   8.87568701
_cell_angle_alpha   59.58656247
_cell_angle_beta   59.58656247
_cell_angle_gamma   59.58656247
_symmetry_Int_Tables_number   1
_chemical_formula_structural   Li7TiFe3(PO4)6
_chemical_formula_sum   'Li7 Ti1 Fe3 P6 O24'
_cell_volume   489.76783545
_cell_formula_units_Z   1
loop_
 _symmetry_equiv_pos_site_id
 _symmetry_equiv_pos_as_xyz
  1  'x, y, z'
loop_
 _atom_site_type_symbol
 _atom_site_label
 _atom_site_symmetry_multiplicity
 _atom_site_fract_x
 _atom_site_fract_y
 _atom_site_fract_z
 _atom_site_occupancy
  Li  Li0  1  0.201415  0.932147  0.748058  1
  Li  Li1  1  0.932147  0.748058  0.201415  1
  Li  Li2  1  0.531254  0.531254  0.531254  1
  Li  Li3  1  0.748058  0.201415  0.932147  1
  Li  Li4  1  0.388838  0.727086  0.217969  1
  Li  Li5  1  0.217969  0.388838  0.727086  1
  Li  Li6  1  0.727086  0.217969  0.388838  1
  Ti  Ti7  1  0.145305  0.145305  0.145305  1
  Fe  Fe8  1  0.647353  0.647353  0.647353  1
  Fe  Fe9  1  0.853441  0.853441  0.853441  1
  Fe  Fe10  1  0.353663  0.353663  0.353663  1
  P  P11  1  0.545544  0.957797  0.248434  1
  P  P12  1  0.248434  0.545544  0.957797  1
  P  P13  1  0.957797  0.248434  0.545544  1
  P  P14  1  0.044390  0.751656  0.459285  1
  P  P15  1  0.751656  0.459285  0.044390  1
  P  P16  1  0.459285  0.044390  0.751656  1
  O  O17  1  0.732572  0.933434  0.080916  1
  O  O18  1  0.382426  0.996637  0.193295  1
  O  O19  1  0.558798  0.773439  0.411470  1
  O  O20  1  0.280548  0.524047  0.121016  1
  O  O21  1  0.080916  0.732572  0.933434  1
  O  O22  1  0.411470  0.558798  0.773439  1
  O  O23  1  0.121016  0.280548  0.524047  1
  O  O24  1  0.773439  0.411470  0.558798  1
  O  O25  1  0.991757  0.806276  0.620696  1
  O  O26  1  0.100839  0.906171  0.267655  1
  O  O27  1  0.524047  0.121016  0.280548  1
  O  O28  1  0.806276  0.620696  0.991757  1
  O  O29  1  0.193295  0.382426  0.996637  1
  O  O30  1  0.457733  0.888612  0.723278  1
  O  O31  1  0.933434  0.080916  0.732572  1
  O  O32  1  0.996637  0.193295  0.382426  1
  O  O33  1  0.226171  0.581241  0.461086  1
  O  O34  1  0.888612  0.723278  0.457733  1
  O  O35  1  0.581241  0.461086  0.226171  1
  O  O36  1  0.906171  0.267655  0.100839  1
  O  O37  1  0.723278  0.457733  0.888612  1
  O  O38  1  0.620696  0.991757  0.806276  1
  O  O39  1  0.461086  0.226171  0.581241  1
  O  O40  1  0.267655  0.100839  0.906171  1
