# generated using pymatgen
data_Li4V7O12
_symmetry_space_group_name_H-M   'P 1'
_cell_length_a   5.20968372
_cell_length_b   8.92676578
_cell_length_c   9.89365808
_cell_angle_alpha   90.00000000
_cell_angle_beta   100.24705557
_cell_angle_gamma   90.00000000
_symmetry_Int_Tables_number   1
_chemical_formula_structural   Li4V7O12
_chemical_formula_sum   'Li8 V14 O24'
_cell_volume   452.77192594
_cell_formula_units_Z   2
loop_
 _symmetry_equiv_pos_site_id
 _symmetry_equiv_pos_as_xyz
  1  'x, y, z'
loop_
 _atom_site_type_symbol
 _atom_site_label
 _atom_site_symmetry_multiplicity
 _atom_site_fract_x
 _atom_site_fract_y
 _atom_site_fract_z
 _atom_site_occupancy
  Li  Li0  1  0.491527  0.919415  0.739399  1
  Li  Li1  1  0.995679  0.588304  0.256499  1
  Li  Li2  1  0.744948  0.582866  0.502802  1
  Li  Li3  1  0.507993  0.578232  0.742285  1
  Li  Li4  1  0.508473  0.419415  0.260601  1
  Li  Li5  1  0.255052  0.082866  0.497198  1
  Li  Li6  1  0.004321  0.088304  0.743501  1
  Li  Li7  1  0.492007  0.078232  0.257715  1
  V  V8  1  0.237784  0.916766  0.002189  1
  V  V9  1  0.249414  0.756861  0.492844  1
  V  V10  1  0.758827  0.923016  0.497174  1
  V  V11  1  0.991795  0.739886  0.742763  1
  V  V12  1  0.749333  0.755447  0.003000  1
  V  V13  1  0.251289  0.567498  0.996554  1
  V  V14  1  0.514511  0.747511  0.254096  1
  V  V15  1  0.241173  0.423016  0.502826  1
  V  V16  1  0.250667  0.255447  0.997000  1
  V  V17  1  0.762216  0.416766  0.997811  1
  V  V18  1  0.008205  0.239886  0.257237  1
  V  V19  1  0.750586  0.256861  0.507156  1
  V  V20  1  0.485489  0.247511  0.745904  1
  V  V21  1  0.748711  0.067498  0.003446  1
  O  O22  1  0.116630  0.907528  0.617962  1
  O  O23  1  0.872111  0.910242  0.871469  1
  O  O24  1  0.148048  0.742443  0.114272  1
  O  O25  1  0.858472  0.754662  0.376757  1
  O  O26  1  0.601919  0.912241  0.124788  1
  O  O27  1  0.403249  0.911540  0.383551  1
  O  O28  1  0.639377  0.760442  0.622561  1
  O  O29  1  0.133310  0.600787  0.615739  1
  O  O30  1  0.869899  0.585473  0.883642  1
  O  O31  1  0.350446  0.749805  0.879493  1
  O  O32  1  0.630934  0.579204  0.119899  1
  O  O33  1  0.127889  0.410242  0.128531  1
  O  O34  1  0.883370  0.407528  0.382038  1
  O  O35  1  0.367408  0.594572  0.374897  1
  O  O36  1  0.141528  0.254662  0.623243  1
  O  O37  1  0.596751  0.411540  0.616449  1
  O  O38  1  0.851952  0.242443  0.885728  1
  O  O39  1  0.398081  0.412241  0.875212  1
  O  O40  1  0.130101  0.085473  0.116358  1
  O  O41  1  0.649554  0.249805  0.120507  1
  O  O42  1  0.360623  0.260442  0.377439  1
  O  O43  1  0.866690  0.100787  0.384261  1
  O  O44  1  0.632592  0.094572  0.625103  1
  O  O45  1  0.369066  0.079204  0.880101  1
