# generated using pymatgen
data_V2OF5
_symmetry_space_group_name_H-M   'P 1'
_cell_length_a   5.41999041
_cell_length_b   5.41999041
_cell_length_c   17.69602210
_cell_angle_alpha   79.06193275
_cell_angle_beta   100.93806725
_cell_angle_gamma   121.96951903
_symmetry_Int_Tables_number   1
_chemical_formula_structural   V2OF5
_chemical_formula_sum   'V8 O4 F20'
_cell_volume   430.49242439
_cell_formula_units_Z   4
loop_
 _symmetry_equiv_pos_site_id
 _symmetry_equiv_pos_as_xyz
  1  'x, y, z'
loop_
 _atom_site_type_symbol
 _atom_site_label
 _atom_site_symmetry_multiplicity
 _atom_site_fract_x
 _atom_site_fract_y
 _atom_site_fract_z
 _atom_site_occupancy
  V  V0  1  0.616020  0.238550  0.064637  1
  V  V1  1  0.132069  0.751531  0.564167  1
  V  V2  1  0.238550  0.616020  0.935363  1
  V  V3  1  0.751531  0.132069  0.435833  1
  V  V4  1  0.886128  0.036871  0.813833  1
  V  V5  1  0.409307  0.498323  0.316273  1
  V  V6  1  0.036871  0.886128  0.186167  1
  V  V7  1  0.498323  0.409307  0.683727  1
  O  O8  1  0.400821  0.639225  0.628552  1
  O  O9  1  0.357933  0.062202  0.147920  1
  O  O10  1  0.062202  0.357933  0.852080  1
  O  O11  1  0.639225  0.400821  0.371448  1
  F  F12  1  0.824976  0.625870  0.103220  1
  F  F13  1  0.907355  0.151690  0.127299  1
  F  F14  1  0.330677  0.330677  0.000000  1
  F  F15  1  0.625870  0.824976  0.896780  1
  F  F16  1  0.348182  0.141766  0.601669  1
  F  F17  1  0.141766  0.348182  0.398331  1
  F  F18  1  0.414515  0.858872  0.023221  1
  F  F19  1  0.908091  0.365261  0.525679  1
  F  F20  1  0.113743  0.157843  0.725962  1
  F  F21  1  0.151690  0.907355  0.872701  1
  F  F22  1  0.843450  0.843450  0.500000  1
  F  F23  1  0.889883  0.595278  0.652706  1
  F  F24  1  0.595278  0.889883  0.347294  1
  F  F25  1  0.629658  0.665543  0.225576  1
  F  F26  1  0.665543  0.629658  0.774424  1
  F  F27  1  0.858872  0.414515  0.976779  1
  F  F28  1  0.365261  0.908091  0.474321  1
  F  F29  1  0.107087  0.591301  0.252908  1
  F  F30  1  0.591301  0.107087  0.747092  1
  F  F31  1  0.157843  0.113743  0.274038  1
