# generated using pymatgen
data_Ni(PS3)2
_symmetry_space_group_name_H-M   'P 1'
_cell_length_a   5.82332685
_cell_length_b   5.82332685
_cell_length_c   6.97334354
_cell_angle_alpha   82.26291113
_cell_angle_beta   97.73708887
_cell_angle_gamma   60.01053082
_symmetry_Int_Tables_number   1
_chemical_formula_structural   Ni(PS3)2
_chemical_formula_sum   'Ni1 P2 S6'
_cell_volume   197.25264528
_cell_formula_units_Z   1
loop_
 _symmetry_equiv_pos_site_id
 _symmetry_equiv_pos_as_xyz
  1  'x, y, z'
loop_
 _atom_site_type_symbol
 _atom_site_label
 _atom_site_symmetry_multiplicity
 _atom_site_fract_x
 _atom_site_fract_y
 _atom_site_fract_z
 _atom_site_occupancy
  Ni  Ni0  1  0.666728  0.666728  0.000000  1
  P  P1  1  0.052916  0.947088  0.162487  1
  P  P2  1  0.947088  0.052916  0.837513  1
  S  S3  1  0.433255  0.889352  0.232526  1
  S  S4  1  0.283173  0.752447  0.767688  1
  S  S5  1  0.889352  0.433255  0.767474  1
  S  S6  1  0.039438  0.602397  0.233422  1
  S  S7  1  0.602397  0.039438  0.766578  1
  S  S8  1  0.752447  0.283173  0.232312  1
