# generated using pymatgen
data_Li4Co4(OF3)3
_symmetry_space_group_name_H-M   'P 1'
_cell_length_a   5.07652813
_cell_length_b   5.50547745
_cell_length_c   8.92870199
_cell_angle_alpha   72.82886747
_cell_angle_beta   75.55686187
_cell_angle_gamma   63.59919804
_symmetry_Int_Tables_number   1
_chemical_formula_structural   Li4Co4(OF3)3
_chemical_formula_sum   'Li4 Co4 O3 F9'
_cell_volume   211.51161750
_cell_formula_units_Z   1
loop_
 _symmetry_equiv_pos_site_id
 _symmetry_equiv_pos_as_xyz
  1  'x, y, z'
loop_
 _atom_site_type_symbol
 _atom_site_label
 _atom_site_symmetry_multiplicity
 _atom_site_fract_x
 _atom_site_fract_y
 _atom_site_fract_z
 _atom_site_occupancy
  Li  Li0  1  0.566735  0.753161  0.150721  1
  Li  Li1  1  0.798549  0.991310  0.402125  1
  Li  Li2  1  0.050837  0.251469  0.649758  1
  Li  Li3  1  0.292747  0.499725  0.910991  1
  Co  Co4  1  0.471460  0.507113  0.499108  1
  Co  Co5  1  0.012540  0.032455  0.002945  1
  Co  Co6  1  0.243975  0.265609  0.252960  1
  Co  Co7  1  0.696833  0.786928  0.757332  1
  O  O8  1  0.315727  0.950881  0.813099  1
  O  O9  1  0.198752  0.196023  0.082528  1
  O  O10  1  0.307389  0.307214  0.426717  1
  F  F11  1  0.223483  0.884657  0.370650  1
  F  F12  1  0.797275  0.446825  0.303998  1
  F  F13  1  0.699952  0.688490  0.555047  1
  F  F14  1  0.729581  0.383547  0.860088  1
  F  F15  1  0.289743  0.619154  0.115905  1
  F  F16  1  0.833142  0.798499  0.948329  1
  F  F17  1  0.159291  0.556585  0.702432  1
  F  F18  1  0.694591  0.032610  0.199269  1
  F  F19  1  0.771739  0.123846  0.611219  1
