# generated using pymatgen
data_Ti3VCo2(PO4)6
_symmetry_space_group_name_H-M   'P 1'
_cell_length_a   8.63896450
_cell_length_b   8.63896450
_cell_length_c   8.63896450
_cell_angle_alpha   60.25332746
_cell_angle_beta   60.25332746
_cell_angle_gamma   60.25332746
_symmetry_Int_Tables_number   1
_chemical_formula_structural   Ti3VCo2(PO4)6
_chemical_formula_sum   'Ti3 V1 Co2 P6 O24'
_cell_volume   458.51478283
_cell_formula_units_Z   1
loop_
 _symmetry_equiv_pos_site_id
 _symmetry_equiv_pos_as_xyz
  1  'x, y, z'
loop_
 _atom_site_type_symbol
 _atom_site_label
 _atom_site_symmetry_multiplicity
 _atom_site_fract_x
 _atom_site_fract_y
 _atom_site_fract_z
 _atom_site_occupancy
  Ti  Ti0  1  0.642719  0.642719  0.642719  1
  Ti  Ti1  1  0.857113  0.857113  0.857113  1
  Ti  Ti2  1  0.357121  0.357121  0.357121  1
  V  V3  1  0.141533  0.141533  0.141533  1
  Co  Co4  1  0.000030  0.000030  0.000030  1
  Co  Co5  1  0.500776  0.500776  0.500776  1
  P  P6  1  0.958028  0.249291  0.541022  1
  P  P7  1  0.541022  0.958028  0.249291  1
  P  P8  1  0.249291  0.541022  0.958028  1
  P  P9  1  0.749586  0.457670  0.042452  1
  P  P10  1  0.457670  0.042452  0.749586  1
  P  P11  1  0.042452  0.749586  0.457670  1
  O  O12  1  0.498929  0.121301  0.310098  1
  O  O13  1  0.310098  0.498929  0.121301  1
  O  O14  1  0.121301  0.310098  0.498929  1
  O  O15  1  0.943878  0.085598  0.736891  1
  O  O16  1  0.994746  0.190422  0.384611  1
  O  O17  1  0.764386  0.413227  0.562665  1
  O  O18  1  0.736891  0.943878  0.085598  1
  O  O19  1  0.562665  0.764386  0.413227  1
  O  O20  1  0.812433  0.620014  0.997429  1
  O  O21  1  0.413227  0.562665  0.764386  1
  O  O22  1  0.910075  0.264854  0.054595  1
  O  O23  1  0.620014  0.997429  0.812433  1
  O  O24  1  0.384611  0.994746  0.190422  1
  O  O25  1  0.085598  0.736891  0.943878  1
  O  O26  1  0.585309  0.445044  0.234966  1
  O  O27  1  0.190422  0.384611  0.994746  1
  O  O28  1  0.445044  0.234966  0.585309  1
  O  O29  1  0.264854  0.054595  0.910075  1
  O  O30  1  0.234966  0.585309  0.445044  1
  O  O31  1  0.997429  0.812433  0.620014  1
  O  O32  1  0.054595  0.910075  0.264854  1
  O  O33  1  0.881300  0.685102  0.504773  1
  O  O34  1  0.685102  0.504773  0.881300  1
  O  O35  1  0.504773  0.881300  0.685102  1
