# generated using pymatgen
data_Lu3TaO7
_symmetry_space_group_name_H-M   'P 1'
_cell_length_a   6.34438838
_cell_length_b   6.34438838
_cell_length_c   7.43946418
_cell_angle_alpha   90.00000000
_cell_angle_beta   90.00000000
_cell_angle_gamma   110.00180844
_symmetry_Int_Tables_number   1
_chemical_formula_structural   Lu3TaO7
_chemical_formula_sum   'Lu6 Ta2 O14'
_cell_volume   281.38568915
_cell_formula_units_Z   2
loop_
 _symmetry_equiv_pos_site_id
 _symmetry_equiv_pos_as_xyz
  1  'x, y, z'
loop_
 _atom_site_type_symbol
 _atom_site_label
 _atom_site_symmetry_multiplicity
 _atom_site_fract_x
 _atom_site_fract_y
 _atom_site_fract_z
 _atom_site_occupancy
  Lu  Lu0  1  0.510712  0.043755  0.250000  1
  Lu  Lu1  1  0.956245  0.489288  0.750000  1
  Lu  Lu2  1  0.000000  0.000000  0.000000  1
  Lu  Lu3  1  0.000000  0.000000  0.500000  1
  Lu  Lu4  1  0.489288  0.956245  0.750000  1
  Lu  Lu5  1  0.043755  0.510712  0.250000  1
  Ta  Ta6  1  0.500000  0.500000  1.000000  1
  Ta  Ta7  1  0.500000  0.500000  0.500000  1
  O  O8  1  0.883060  0.150722  0.250000  1
  O  O9  1  0.849278  0.116940  0.750000  1
  O  O10  1  0.828500  0.567467  0.032102  1
  O  O11  1  0.828500  0.567467  0.467898  1
  O  O12  1  0.432533  0.171500  0.967898  1
  O  O13  1  0.432533  0.171500  0.532102  1
  O  O14  1  0.578337  0.578337  0.750000  1
  O  O15  1  0.421663  0.421663  0.250000  1
  O  O16  1  0.567467  0.828500  0.032102  1
  O  O17  1  0.171500  0.432533  0.532102  1
  O  O18  1  0.171500  0.432533  0.967898  1
  O  O19  1  0.567467  0.828500  0.467898  1
  O  O20  1  0.116940  0.849278  0.750000  1
  O  O21  1  0.150722  0.883060  0.250000  1
