# generated using pymatgen
data_LiFeF3
_symmetry_space_group_name_H-M   'P 1'
_cell_length_a   7.09373223
_cell_length_b   7.09373223
_cell_length_c   5.71572526
_cell_angle_alpha   73.83624739
_cell_angle_beta   106.16375261
_cell_angle_gamma   100.57829941
_symmetry_Int_Tables_number   1
_chemical_formula_structural   LiFeF3
_chemical_formula_sum   'Li4 Fe4 F12'
_cell_volume   263.57118943
_cell_formula_units_Z   4
loop_
 _symmetry_equiv_pos_site_id
 _symmetry_equiv_pos_as_xyz
  1  'x, y, z'
loop_
 _atom_site_type_symbol
 _atom_site_label
 _atom_site_symmetry_multiplicity
 _atom_site_fract_x
 _atom_site_fract_y
 _atom_site_fract_z
 _atom_site_occupancy
  Li  Li0  1  0.380352  0.794128  0.794090  1
  Li  Li1  1  0.205872  0.619648  0.294090  1
  Li  Li2  1  0.794128  0.380352  0.705910  1
  Li  Li3  1  0.619648  0.205872  0.205910  1
  Fe  Fe4  1  0.913760  0.913760  0.750000  1
  Fe  Fe5  1  0.294062  0.294062  0.750000  1
  Fe  Fe6  1  0.705938  0.705938  0.250000  1
  Fe  Fe7  1  0.086240  0.086240  0.250000  1
  F  F8  1  0.194955  0.991647  0.665111  1
  F  F9  1  0.008353  0.805045  0.165111  1
  F  F10  1  0.660789  0.866232  0.862108  1
  F  F11  1  0.306161  0.588954  0.638746  1
  F  F12  1  0.133768  0.339211  0.362108  1
  F  F13  1  0.411046  0.693839  0.138746  1
  F  F14  1  0.588954  0.306161  0.861254  1
  F  F15  1  0.866232  0.660789  0.637892  1
  F  F16  1  0.693839  0.411046  0.361254  1
  F  F17  1  0.339211  0.133768  0.137892  1
  F  F18  1  0.991647  0.194955  0.834889  1
  F  F19  1  0.805045  0.008353  0.334889  1
