# generated using pymatgen
data_YIO
_symmetry_space_group_name_H-M   'P 1'
_cell_length_a   11.06656683
_cell_length_b   11.06656683
_cell_length_c   11.06656683
_cell_angle_alpha   20.54239096
_cell_angle_beta   20.54239096
_cell_angle_gamma   20.54239096
_symmetry_Int_Tables_number   1
_chemical_formula_structural   YIO
_chemical_formula_sum   'Y2 I2 O2'
_cell_volume   146.07062250
_cell_formula_units_Z   2
loop_
 _symmetry_equiv_pos_site_id
 _symmetry_equiv_pos_as_xyz
  1  'x, y, z'
loop_
 _atom_site_type_symbol
 _atom_site_label
 _atom_site_symmetry_multiplicity
 _atom_site_fract_x
 _atom_site_fract_y
 _atom_site_fract_z
 _atom_site_occupancy
  Y  Y0  1  0.710207  0.710207  0.710207  1
  Y  Y1  1  0.289793  0.289793  0.289793  1
  I  I2  1  0.889042  0.889042  0.889042  1
  I  I3  1  0.110958  0.110958  0.110958  1
  O  O4  1  0.639987  0.639987  0.639987  1
  O  O5  1  0.360013  0.360013  0.360013  1
