# generated using pymatgen
data_Mn15CrO32
_symmetry_space_group_name_H-M   'P 1'
_cell_length_a   8.22356498
_cell_length_b   8.22356498
_cell_length_c   10.06577606
_cell_angle_alpha   65.91554591
_cell_angle_beta   114.08445409
_cell_angle_gamma   90.00930896
_symmetry_Int_Tables_number   1
_chemical_formula_structural   Mn15CrO32
_chemical_formula_sum   'Mn15 Cr1 O32'
_cell_volume   555.93946650
_cell_formula_units_Z   1
loop_
 _symmetry_equiv_pos_site_id
 _symmetry_equiv_pos_as_xyz
  1  'x, y, z'
loop_
 _atom_site_type_symbol
 _atom_site_label
 _atom_site_symmetry_multiplicity
 _atom_site_fract_x
 _atom_site_fract_y
 _atom_site_fract_z
 _atom_site_occupancy
  Mn  Mn0  1  0.750717  0.249283  0.000541  1
  Mn  Mn1  1  0.249283  0.750717  0.999459  1
  Mn  Mn2  1  1.000000  1.000000  0.000000  1
  Mn  Mn3  1  0.123413  0.623752  0.249140  1
  Mn  Mn4  1  0.623955  0.123211  0.251324  1
  Mn  Mn5  1  0.376248  0.876587  0.249140  1
  Mn  Mn6  1  0.876789  0.376045  0.251324  1
  Mn  Mn7  1  0.248547  0.248547  0.500000  1
  Mn  Mn8  1  0.500000  1.000000  0.500000  1
  Mn  Mn9  1  0.751453  0.751453  0.500000  1
  Mn  Mn10  1  0.000000  0.500000  0.500000  1
  Mn  Mn11  1  0.123211  0.623955  0.748676  1
  Mn  Mn12  1  0.623752  0.123413  0.750860  1
  Mn  Mn13  1  0.376045  0.876789  0.748676  1
  Mn  Mn14  1  0.876587  0.376248  0.750860  1
  Cr  Cr15  1  0.500000  0.500000  0.000000  1
  O  O16  1  0.742498  0.473890  0.016183  1
  O  O17  1  0.526110  0.257502  0.016183  1
  O  O18  1  0.241803  0.977410  0.015411  1
  O  O19  1  0.022590  0.758197  0.015411  1
  O  O20  1  0.633125  0.366875  0.236112  1
  O  O21  1  0.853987  0.146013  0.236961  1
  O  O22  1  0.133177  0.866823  0.236667  1
  O  O23  1  0.353100  0.646900  0.234234  1
  O  O24  1  0.116356  0.381056  0.263493  1
  O  O25  1  0.895342  0.601685  0.264220  1
  O  O26  1  0.618944  0.883644  0.263493  1
  O  O27  1  0.398315  0.104658  0.264220  1
  O  O28  1  0.227814  0.491162  0.484520  1
  O  O29  1  0.728437  0.991424  0.487079  1
  O  O30  1  0.008576  0.271563  0.487079  1
  O  O31  1  0.508838  0.772186  0.484520  1
  O  O32  1  0.491162  0.227814  0.515480  1
  O  O33  1  0.991424  0.728437  0.512921  1
  O  O34  1  0.271563  0.008576  0.512921  1
  O  O35  1  0.772186  0.508838  0.515480  1
  O  O36  1  0.883644  0.618944  0.736507  1
  O  O37  1  0.381056  0.116356  0.736507  1
  O  O38  1  0.104658  0.398315  0.735780  1
  O  O39  1  0.601685  0.895342  0.735780  1
  O  O40  1  0.146013  0.853987  0.763039  1
  O  O41  1  0.366875  0.633125  0.763888  1
  O  O42  1  0.646900  0.353100  0.765766  1
  O  O43  1  0.866823  0.133177  0.763333  1
  O  O44  1  0.977410  0.241803  0.984589  1
  O  O45  1  0.257502  0.526110  0.983817  1
  O  O46  1  0.473890  0.742498  0.983817  1
  O  O47  1  0.758197  0.022590  0.984589  1
