# generated using pymatgen
data_LiFe2Si2O7
_symmetry_space_group_name_H-M   'P 1'
_cell_length_a   5.66627022
_cell_length_b   12.99193158
_cell_length_c   10.43579990
_cell_angle_alpha   90.00000000
_cell_angle_beta   121.57861958
_cell_angle_gamma   90.00000000
_symmetry_Int_Tables_number   1
_chemical_formula_structural   LiFe2Si2O7
_chemical_formula_sum   'Li4 Fe8 Si8 O28'
_cell_volume   654.48061753
_cell_formula_units_Z   4
loop_
 _symmetry_equiv_pos_site_id
 _symmetry_equiv_pos_as_xyz
  1  'x, y, z'
loop_
 _atom_site_type_symbol
 _atom_site_label
 _atom_site_symmetry_multiplicity
 _atom_site_fract_x
 _atom_site_fract_y
 _atom_site_fract_z
 _atom_site_occupancy
  Li  Li0  1  0.564797  0.726486  0.876295  1
  Li  Li1  1  0.435203  0.226486  0.623705  1
  Li  Li2  1  0.564797  0.773514  0.376295  1
  Li  Li3  1  0.435203  0.273514  0.123705  1
  Fe  Fe4  1  0.031741  0.101587  0.875696  1
  Fe  Fe5  1  0.653153  0.492975  0.777948  1
  Fe  Fe6  1  0.346847  0.992975  0.722052  1
  Fe  Fe7  1  0.968259  0.601587  0.624304  1
  Fe  Fe8  1  0.031741  0.398413  0.375696  1
  Fe  Fe9  1  0.653153  0.007025  0.277948  1
  Fe  Fe10  1  0.346847  0.507025  0.222052  1
  Fe  Fe11  1  0.968259  0.898413  0.124304  1
  Si  Si12  1  0.292134  0.884763  0.972958  1
  Si  Si13  1  0.131454  0.665266  0.950292  1
  Si  Si14  1  0.868546  0.165266  0.549708  1
  Si  Si15  1  0.707866  0.384763  0.527042  1
  Si  Si16  1  0.292134  0.615237  0.472958  1
  Si  Si17  1  0.131454  0.834734  0.450292  1
  Si  Si18  1  0.868546  0.334734  0.049708  1
  Si  Si19  1  0.707866  0.115237  0.027042  1
  O  O20  1  0.415930  0.160010  0.994905  1
  O  O21  1  0.081593  0.792132  0.965952  1
  O  O22  1  0.824226  0.614803  0.888671  1
  O  O23  1  0.695779  0.041267  0.893309  1
  O  O24  1  0.646140  0.378407  0.881903  1
  O  O25  1  0.231862  0.655544  0.831485  1
  O  O26  1  0.148509  0.957257  0.820471  1
  O  O27  1  0.851491  0.457257  0.679529  1
  O  O28  1  0.768138  0.155544  0.668515  1
  O  O29  1  0.353860  0.878407  0.618097  1
  O  O30  1  0.304221  0.541267  0.606691  1
  O  O31  1  0.175774  0.114803  0.611329  1
  O  O32  1  0.918407  0.292132  0.534048  1
  O  O33  1  0.584070  0.660010  0.505095  1
  O  O34  1  0.415930  0.339990  0.494905  1
  O  O35  1  0.081593  0.707868  0.465952  1
  O  O36  1  0.824226  0.885197  0.388671  1
  O  O37  1  0.695779  0.458733  0.393309  1
  O  O38  1  0.646140  0.121593  0.381903  1
  O  O39  1  0.231862  0.844456  0.331485  1
  O  O40  1  0.148509  0.542743  0.320471  1
  O  O41  1  0.851491  0.042743  0.179529  1
  O  O42  1  0.768138  0.344456  0.168515  1
  O  O43  1  0.353860  0.621593  0.118097  1
  O  O44  1  0.304221  0.958733  0.106691  1
  O  O45  1  0.175774  0.385197  0.111329  1
  O  O46  1  0.918407  0.207868  0.034048  1
  O  O47  1  0.584070  0.839990  0.005095  1
