# generated using pymatgen
data_LiBi2P3O11
_symmetry_space_group_name_H-M   'P 1'
_cell_length_a   7.89124449
_cell_length_b   7.89124449
_cell_length_c   9.63482444
_cell_angle_alpha   67.25731864
_cell_angle_beta   112.74268136
_cell_angle_gamma   106.15708691
_symmetry_Int_Tables_number   1
_chemical_formula_structural   LiBi2P3O11
_chemical_formula_sum   'Li2 Bi4 P6 O22'
_cell_volume   504.42144870
_cell_formula_units_Z   2
loop_
 _symmetry_equiv_pos_site_id
 _symmetry_equiv_pos_as_xyz
  1  'x, y, z'
loop_
 _atom_site_type_symbol
 _atom_site_label
 _atom_site_symmetry_multiplicity
 _atom_site_fract_x
 _atom_site_fract_y
 _atom_site_fract_z
 _atom_site_occupancy
  Li  Li0  1  0.018523  0.513970  0.268745  1
  Li  Li1  1  0.513970  0.018523  0.731255  1
  Bi  Bi2  1  0.656348  0.879653  0.194548  1
  Bi  Bi3  1  0.120575  0.344750  0.696782  1
  Bi  Bi4  1  0.879653  0.656348  0.805452  1
  Bi  Bi5  1  0.344750  0.120575  0.303218  1
  P  P6  1  0.324000  0.553346  0.018731  1
  P  P7  1  0.949074  0.949074  0.000000  1
  P  P8  1  0.445173  0.677064  0.514743  1
  P  P9  1  0.553346  0.324000  0.981269  1
  P  P10  1  0.052317  0.052317  0.500000  1
  P  P11  1  0.677064  0.445173  0.485257  1
  O  O12  1  0.078889  0.995118  0.150783  1
  O  O13  1  0.007786  0.921508  0.650562  1
  O  O14  1  0.387678  0.753699  0.016469  1
  O  O15  1  0.156171  0.531186  0.871252  1
  O  O16  1  0.280117  0.422874  0.171622  1
  O  O17  1  0.740271  0.960612  0.969959  1
  O  O18  1  0.240689  0.612810  0.504280  1
  O  O19  1  0.491545  0.491545  0.000000  1
  O  O20  1  0.470942  0.843438  0.367879  1
  O  O21  1  0.570269  0.720776  0.668205  1
  O  O22  1  0.043008  0.261112  0.473773  1
  O  O23  1  0.960612  0.740271  0.030041  1
  O  O24  1  0.422874  0.280117  0.828378  1
  O  O25  1  0.531186  0.156171  0.128748  1
  O  O26  1  0.507685  0.507685  0.500000  1
  O  O27  1  0.753699  0.387678  0.983531  1
  O  O28  1  0.261112  0.043008  0.526227  1
  O  O29  1  0.720776  0.570269  0.331795  1
  O  O30  1  0.843438  0.470942  0.632121  1
  O  O31  1  0.612810  0.240689  0.495720  1
  O  O32  1  0.995118  0.078889  0.849217  1
  O  O33  1  0.921508  0.007786  0.349438  1
