# generated using pymatgen
data_LiNiPO4
_symmetry_space_group_name_H-M   'P 1'
_cell_length_a   4.85518149
_cell_length_b   6.22417180
_cell_length_c   9.51371861
_cell_angle_alpha   90.00000000
_cell_angle_beta   90.00000000
_cell_angle_gamma   90.00000000
_symmetry_Int_Tables_number   1
_chemical_formula_structural   LiNiPO4
_chemical_formula_sum   'Li4 Ni4 P4 O16'
_cell_volume   287.49966463
_cell_formula_units_Z   4
loop_
 _symmetry_equiv_pos_site_id
 _symmetry_equiv_pos_as_xyz
  1  'x, y, z'
loop_
 _atom_site_type_symbol
 _atom_site_label
 _atom_site_symmetry_multiplicity
 _atom_site_fract_x
 _atom_site_fract_y
 _atom_site_fract_z
 _atom_site_occupancy
  Li  Li0  1  0.000000  0.000000  0.000000  1
  Li  Li1  1  0.000000  0.500000  0.000000  1
  Li  Li2  1  0.500000  0.000000  0.500000  1
  Li  Li3  1  0.500000  0.500000  0.500000  1
  Ni  Ni4  1  0.536118  0.250000  0.147354  1
  Ni  Ni5  1  0.036118  0.750000  0.352646  1
  Ni  Ni6  1  0.963882  0.250000  0.647354  1
  Ni  Ni7  1  0.463882  0.750000  0.852646  1
  P  P8  1  0.535853  0.750000  0.183045  1
  P  P9  1  0.035853  0.250000  0.316955  1
  P  P10  1  0.964147  0.750000  0.683045  1
  P  P11  1  0.464147  0.250000  0.816955  1
  O  O12  1  0.219365  0.750000  0.162864  1
  O  O13  1  0.660183  0.949726  0.110729  1
  O  O14  1  0.660183  0.550274  0.110729  1
  O  O15  1  0.117417  0.250000  0.157521  1
  O  O16  1  0.617417  0.750000  0.342479  1
  O  O17  1  0.160183  0.050274  0.389271  1
  O  O18  1  0.160183  0.449726  0.389271  1
  O  O19  1  0.719365  0.250000  0.337136  1
  O  O20  1  0.280635  0.750000  0.662864  1
  O  O21  1  0.839817  0.949726  0.610729  1
  O  O22  1  0.839817  0.550274  0.610729  1
  O  O23  1  0.382583  0.250000  0.657521  1
  O  O24  1  0.882583  0.750000  0.842479  1
  O  O25  1  0.339817  0.449726  0.889271  1
  O  O26  1  0.339817  0.050274  0.889271  1
  O  O27  1  0.780635  0.250000  0.837136  1
