# generated using pymatgen
data_LiVFe(P2O7)2
_symmetry_space_group_name_H-M   'P 1'
_cell_length_a   7.17263693
_cell_length_b   8.08875745
_cell_length_c   9.72631041
_cell_angle_alpha   89.96392629
_cell_angle_beta   68.62739067
_cell_angle_gamma   89.92342009
_symmetry_Int_Tables_number   1
_chemical_formula_structural   LiVFe(P2O7)2
_chemical_formula_sum   'Li2 V2 Fe2 P8 O28'
_cell_volume   525.49116379
_cell_formula_units_Z   2
loop_
 _symmetry_equiv_pos_site_id
 _symmetry_equiv_pos_as_xyz
  1  'x, y, z'
loop_
 _atom_site_type_symbol
 _atom_site_label
 _atom_site_symmetry_multiplicity
 _atom_site_fract_x
 _atom_site_fract_y
 _atom_site_fract_z
 _atom_site_occupancy
  Li  Li0  1  0.076880  0.864161  0.250259  1
  Li  Li1  1  0.922867  0.361159  0.748327  1
  V  V2  1  0.034731  0.495056  0.243570  1
  V  V3  1  0.528482  0.507158  0.744087  1
  Fe  Fe4  1  0.476684  0.009760  0.257809  1
  Fe  Fe5  1  0.967118  0.994185  0.757428  1
  P  P6  1  0.846919  0.779199  0.065365  1
  P  P7  1  0.457405  0.677754  0.062633  1
  P  P8  1  0.035740  0.180886  0.440471  1
  P  P9  1  0.350228  0.781787  0.564575  1
  P  P10  1  0.650207  0.285507  0.435979  1
  P  P11  1  0.963008  0.681857  0.560160  1
  P  P12  1  0.540743  0.177332  0.939103  1
  P  P13  1  0.155037  0.283781  0.933319  1
  O  O14  1  0.669548  0.647636  0.079512  1
  O  O15  1  0.760016  0.932048  0.159923  1
  O  O16  1  0.503800  0.178602  0.102836  1
  O  O17  1  0.378445  0.847242  0.127161  1
  O  O18  1  0.321281  0.537386  0.147592  1
  O  O19  1  0.051815  0.331913  0.097183  1
  O  O20  1  0.984252  0.685373  0.129596  1
  O  O21  1  0.505039  0.193784  0.384213  1
  O  O22  1  0.454645  0.825958  0.402483  1
  O  O23  1  0.164941  0.040507  0.349801  1
  O  O24  1  0.107959  0.351820  0.371524  1
  O  O25  1  0.999049  0.673519  0.393142  1
  O  O26  1  0.754352  0.435882  0.341684  1
  O  O27  1  0.820391  0.149749  0.426540  1
  O  O28  1  0.173821  0.646020  0.577052  1
  O  O29  1  0.252923  0.930160  0.660363  1
  O  O30  1  0.006889  0.183992  0.603268  1
  O  O31  1  0.889010  0.851789  0.620230  1
  O  O32  1  0.829879  0.539997  0.649189  1
  O  O33  1  0.552222  0.339711  0.598513  1
  O  O34  1  0.488422  0.681091  0.621878  1
  O  O35  1  0.008612  0.200078  0.875563  1
  O  O36  1  0.956024  0.818270  0.903481  1
  O  O37  1  0.674519  0.040149  0.850825  1
  O  O38  1  0.616262  0.347760  0.865340  1
  O  O39  1  0.497402  0.665642  0.895721  1
  O  O40  1  0.248296  0.437955  0.840125  1
  O  O41  1  0.324188  0.150201  0.922271  1
