# generated using pymatgen
data_Cr(SbO3)2
_symmetry_space_group_name_H-M   'P 1'
_cell_length_a   4.75989907
_cell_length_b   4.75989907
_cell_length_c   9.58917070
_cell_angle_alpha   90.00000000
_cell_angle_beta   90.00000000
_cell_angle_gamma   90.00000000
_symmetry_Int_Tables_number   1
_chemical_formula_structural   Cr(SbO3)2
_chemical_formula_sum   'Cr2 Sb4 O12'
_cell_volume   217.25838053
_cell_formula_units_Z   2
loop_
 _symmetry_equiv_pos_site_id
 _symmetry_equiv_pos_as_xyz
  1  'x, y, z'
loop_
 _atom_site_type_symbol
 _atom_site_label
 _atom_site_symmetry_multiplicity
 _atom_site_fract_x
 _atom_site_fract_y
 _atom_site_fract_z
 _atom_site_occupancy
  Cr  Cr0  1  0.000000  0.000000  0.000000  1
  Cr  Cr1  1  0.500000  0.500000  0.500000  1
  Sb  Sb2  1  0.000000  0.000000  0.666993  1
  Sb  Sb3  1  0.500000  0.500000  0.166993  1
  Sb  Sb4  1  0.500000  0.500000  0.833007  1
  Sb  Sb5  1  0.000000  0.000000  0.333007  1
  O  O6  1  0.192950  0.807050  0.165591  1
  O  O7  1  0.193354  0.806646  0.500000  1
  O  O8  1  0.192950  0.807050  0.834409  1
  O  O9  1  0.692950  0.692950  0.665591  1
  O  O10  1  0.693354  0.693354  0.000000  1
  O  O11  1  0.692950  0.692950  0.334409  1
  O  O12  1  0.307050  0.307050  0.665591  1
  O  O13  1  0.306646  0.306646  0.000000  1
  O  O14  1  0.307050  0.307050  0.334409  1
  O  O15  1  0.807050  0.192950  0.165591  1
  O  O16  1  0.806646  0.193354  0.500000  1
  O  O17  1  0.807050  0.192950  0.834409  1
