# generated using pymatgen
data_LiFeP2O7
_symmetry_space_group_name_H-M   'P 1'
_cell_length_a   6.15030383
_cell_length_b   6.35321397
_cell_length_c   7.89179450
_cell_angle_alpha   99.21696387
_cell_angle_beta   103.51647584
_cell_angle_gamma   108.87737771
_symmetry_Int_Tables_number   1
_chemical_formula_structural   LiFeP2O7
_chemical_formula_sum   'Li2 Fe2 P4 O14'
_cell_volume   274.22205534
_cell_formula_units_Z   2
loop_
 _symmetry_equiv_pos_site_id
 _symmetry_equiv_pos_as_xyz
  1  'x, y, z'
loop_
 _atom_site_type_symbol
 _atom_site_label
 _atom_site_symmetry_multiplicity
 _atom_site_fract_x
 _atom_site_fract_y
 _atom_site_fract_z
 _atom_site_occupancy
  Li  Li0  1  0.000000  0.000000  0.000000  1
  Li  Li1  1  0.000000  0.000000  0.500000  1
  Fe  Fe2  1  0.631800  0.317835  0.771365  1
  Fe  Fe3  1  0.368200  0.682165  0.228635  1
  P  P4  1  0.178167  0.450552  0.790102  1
  P  P5  1  0.548628  0.766910  0.681678  1
  P  P6  1  0.451372  0.233090  0.318322  1
  P  P7  1  0.821833  0.549448  0.209898  1
  O  O8  1  0.209468  0.614458  0.963772  1
  O  O9  1  0.311339  0.284192  0.811459  1
  O  O10  1  0.583863  0.000810  0.792722  1
  O  O11  1  0.723112  0.672815  0.791105  1
  O  O12  1  0.274602  0.600774  0.656131  1
  O  O13  1  0.912767  0.305155  0.682986  1
  O  O14  1  0.423675  0.230119  0.505902  1
  O  O15  1  0.576325  0.769881  0.494098  1
  O  O16  1  0.087233  0.694845  0.317014  1
  O  O17  1  0.725398  0.399226  0.343869  1
  O  O18  1  0.276888  0.327185  0.208895  1
  O  O19  1  0.416137  0.999190  0.207278  1
  O  O20  1  0.688661  0.715808  0.188541  1
  O  O21  1  0.790532  0.385542  0.036228  1
