# generated using pymatgen
data_Li9Cr5O12
_symmetry_space_group_name_H-M   'P 1'
_cell_length_a   5.25497636
_cell_length_b   5.25497636
_cell_length_c   9.98617563
_cell_angle_alpha   88.68617641
_cell_angle_beta   91.31382359
_cell_angle_gamma   58.63008370
_symmetry_Int_Tables_number   1
_chemical_formula_structural   Li9Cr5O12
_chemical_formula_sum   'Li9 Cr5 O12'
_cell_volume   235.19737765
_cell_formula_units_Z   1
loop_
 _symmetry_equiv_pos_site_id
 _symmetry_equiv_pos_as_xyz
  1  'x, y, z'
loop_
 _atom_site_type_symbol
 _atom_site_label
 _atom_site_symmetry_multiplicity
 _atom_site_fract_x
 _atom_site_fract_y
 _atom_site_fract_z
 _atom_site_occupancy
  Li  Li0  1  0.796045  0.203955  0.232055  1
  Li  Li1  1  0.723288  0.276712  0.696213  1
  Li  Li2  1  0.336792  0.174971  0.741834  1
  Li  Li3  1  0.825029  0.663208  0.741834  1
  Li  Li4  1  0.000000  0.000000  0.500000  1
  Li  Li5  1  0.174971  0.336792  0.258166  1
  Li  Li6  1  0.663208  0.825029  0.258166  1
  Li  Li7  1  0.276712  0.723288  0.303787  1
  Li  Li8  1  0.203955  0.796045  0.767945  1
  Cr  Cr9  1  0.165824  0.165824  0.000000  1
  Cr  Cr10  1  0.500000  0.500000  0.000000  1
  Cr  Cr11  1  0.834176  0.834176  0.000000  1
  Cr  Cr12  1  0.333701  0.333701  0.500000  1
  Cr  Cr13  1  0.666299  0.666299  0.500000  1
  O  O14  1  0.830720  0.169280  0.893802  1
  O  O15  1  0.340681  0.009385  0.382403  1
  O  O16  1  0.990615  0.659319  0.382403  1
  O  O17  1  0.841568  0.489362  0.108361  1
  O  O18  1  0.510638  0.158432  0.108361  1
  O  O19  1  0.623757  0.376243  0.385921  1
  O  O20  1  0.376243  0.623757  0.614079  1
  O  O21  1  0.489362  0.841568  0.891639  1
  O  O22  1  0.158432  0.510638  0.891639  1
  O  O23  1  0.009385  0.340681  0.617597  1
  O  O24  1  0.659319  0.990615  0.617597  1
  O  O25  1  0.169280  0.830720  0.106198  1
