# generated using pymatgen
data_BaCe2O4
_symmetry_space_group_name_H-M   'P 1'
_cell_length_a   3.64031386
_cell_length_b   10.63589381
_cell_length_c   12.57892521
_cell_angle_alpha   90.00000000
_cell_angle_beta   90.00000000
_cell_angle_gamma   90.00000000
_symmetry_Int_Tables_number   1
_chemical_formula_structural   BaCe2O4
_chemical_formula_sum   'Ba4 Ce8 O16'
_cell_volume   487.03072125
_cell_formula_units_Z   4
loop_
 _symmetry_equiv_pos_site_id
 _symmetry_equiv_pos_as_xyz
  1  'x, y, z'
loop_
 _atom_site_type_symbol
 _atom_site_label
 _atom_site_symmetry_multiplicity
 _atom_site_fract_x
 _atom_site_fract_y
 _atom_site_fract_z
 _atom_site_occupancy
  Ba  Ba0  1  0.750000  0.249880  0.853249  1
  Ba  Ba1  1  0.750000  0.749880  0.646751  1
  Ba  Ba2  1  0.250000  0.750120  0.146751  1
  Ba  Ba3  1  0.250000  0.250120  0.353249  1
  Ce  Ce4  1  0.750000  0.423910  0.111940  1
  Ce  Ce5  1  0.750000  0.923910  0.388060  1
  Ce  Ce6  1  0.250000  0.576090  0.888060  1
  Ce  Ce7  1  0.250000  0.076090  0.611940  1
  Ce  Ce8  1  0.750000  0.918269  0.889192  1
  Ce  Ce9  1  0.750000  0.418269  0.610808  1
  Ce  Ce10  1  0.250000  0.081731  0.110808  1
  Ce  Ce11  1  0.250000  0.581731  0.389192  1
  O  O12  1  0.750000  0.214989  0.174053  1
  O  O13  1  0.750000  0.714989  0.325947  1
  O  O14  1  0.250000  0.785011  0.825947  1
  O  O15  1  0.250000  0.285011  0.674053  1
  O  O16  1  0.750000  0.122089  0.485135  1
  O  O17  1  0.750000  0.622089  0.014865  1
  O  O18  1  0.250000  0.877911  0.514865  1
  O  O19  1  0.250000  0.377911  0.985135  1
  O  O20  1  0.750000  0.012350  0.716256  1
  O  O21  1  0.750000  0.512350  0.783744  1
  O  O22  1  0.250000  0.987650  0.283744  1
  O  O23  1  0.250000  0.487650  0.216256  1
  O  O24  1  0.750000  0.433409  0.423719  1
  O  O25  1  0.750000  0.933409  0.076281  1
  O  O26  1  0.250000  0.566591  0.576281  1
  O  O27  1  0.250000  0.066591  0.923719  1
