# generated using pymatgen
data_Na3Li3Mn2P2(CO7)2
_symmetry_space_group_name_H-M   'P 1'
_cell_length_a   5.07933493
_cell_length_b   6.71965508
_cell_length_c   8.75975251
_cell_angle_alpha   89.74236016
_cell_angle_beta   89.01034141
_cell_angle_gamma   89.91346265
_symmetry_Int_Tables_number   1
_chemical_formula_structural   Na3Li3Mn2P2(CO7)2
_chemical_formula_sum   'Na3 Li3 Mn2 P2 C2 O14'
_cell_volume   298.93450196
_cell_formula_units_Z   1
loop_
 _symmetry_equiv_pos_site_id
 _symmetry_equiv_pos_as_xyz
  1  'x, y, z'
loop_
 _atom_site_type_symbol
 _atom_site_label
 _atom_site_symmetry_multiplicity
 _atom_site_fract_x
 _atom_site_fract_y
 _atom_site_fract_z
 _atom_site_occupancy
  Na  Na0  1  0.756558  0.743653  0.084015  1
  Na  Na1  1  0.250846  0.001918  0.252158  1
  Na  Na2  1  0.750628  0.498568  0.748078  1
  Li  Li3  1  0.226047  0.525248  0.272548  1
  Li  Li4  1  0.773210  0.021857  0.730128  1
  Li  Li5  1  0.253084  0.246461  0.912295  1
  Mn  Mn6  1  0.776490  0.255940  0.359307  1
  Mn  Mn7  1  0.224042  0.755347  0.644202  1
  P  P8  1  0.705208  0.752344  0.412562  1
  P  P9  1  0.296056  0.251123  0.593533  1
  C  C10  1  0.731004  0.241654  0.044606  1
  C  C11  1  0.266167  0.741910  0.947045  1
  O  O12  1  0.284523  0.723778  0.094863  1
  O  O13  1  0.976506  0.246184  0.084378  1
  O  O14  1  0.544230  0.260188  0.147684  1
  O  O15  1  0.778732  0.938931  0.315118  1
  O  O16  1  0.825235  0.570969  0.325772  1
  O  O17  1  0.398211  0.730194  0.420712  1
  O  O18  1  0.189662  0.266696  0.428008  1
  O  O19  1  0.806824  0.767570  0.578059  1
  O  O20  1  0.602323  0.229472  0.580283  1
  O  O21  1  0.225504  0.435374  0.693196  1
  O  O22  1  0.178938  0.071257  0.684010  1
  O  O23  1  0.476602  0.756389  0.861423  1
  O  O24  1  0.037622  0.746779  0.883423  1
  O  O25  1  0.665748  0.220195  0.902596  1
