# generated using pymatgen
data_Li2FeSiO4
_symmetry_space_group_name_H-M   'P 1'
_cell_length_a   5.18325792
_cell_length_b   6.31091449
_cell_length_c   11.00513202
_cell_angle_alpha   90.00000000
_cell_angle_beta   90.00000000
_cell_angle_gamma   90.00000000
_symmetry_Int_Tables_number   1
_chemical_formula_structural   Li2FeSiO4
_chemical_formula_sum   'Li8 Fe4 Si4 O16'
_cell_volume   359.98994692
_cell_formula_units_Z   4
loop_
 _symmetry_equiv_pos_site_id
 _symmetry_equiv_pos_as_xyz
  1  'x, y, z'
loop_
 _atom_site_type_symbol
 _atom_site_label
 _atom_site_symmetry_multiplicity
 _atom_site_fract_x
 _atom_site_fract_y
 _atom_site_fract_z
 _atom_site_occupancy
  Li  Li0  1  0.302497  0.450079  0.414180  1
  Li  Li1  1  0.688888  0.203196  0.325255  1
  Li  Li2  1  0.188888  0.703196  0.174745  1
  Li  Li3  1  0.802497  0.950079  0.085820  1
  Li  Li4  1  0.197503  0.450079  0.914180  1
  Li  Li5  1  0.811112  0.203196  0.825255  1
  Li  Li6  1  0.311112  0.703196  0.674745  1
  Li  Li7  1  0.697503  0.950079  0.585820  1
  Fe  Fe8  1  0.182262  0.968340  0.414272  1
  Fe  Fe9  1  0.317738  0.968340  0.914272  1
  Fe  Fe10  1  0.682262  0.468340  0.085728  1
  Fe  Fe11  1  0.817738  0.468340  0.585728  1
  Si  Si12  1  0.678090  0.711125  0.336919  1
  Si  Si13  1  0.178090  0.211125  0.163081  1
  Si  Si14  1  0.821910  0.711125  0.836919  1
  Si  Si15  1  0.321910  0.211125  0.663081  1
  O  O16  1  0.743518  0.486053  0.408087  1
  O  O17  1  0.786099  0.923195  0.410915  1
  O  O18  1  0.359412  0.720404  0.333260  1
  O  O19  1  0.296523  0.207714  0.302813  1
  O  O20  1  0.796523  0.707714  0.197187  1
  O  O21  1  0.859412  0.220404  0.166740  1
  O  O22  1  0.286099  0.423195  0.089085  1
  O  O23  1  0.243518  0.986053  0.091913  1
  O  O24  1  0.756482  0.486053  0.908087  1
  O  O25  1  0.713901  0.923195  0.910915  1
  O  O26  1  0.140588  0.720404  0.833260  1
  O  O27  1  0.203477  0.207714  0.802813  1
  O  O28  1  0.703477  0.707714  0.697187  1
  O  O29  1  0.640588  0.220404  0.666740  1
  O  O30  1  0.213901  0.423195  0.589085  1
  O  O31  1  0.256482  0.986053  0.591913  1
