# generated using pymatgen
data_Bi5O4F7
_symmetry_space_group_name_H-M   'P 1'
_cell_length_a   14.69083725
_cell_length_b   14.69083725
_cell_length_c   11.69791269
_cell_angle_alpha   90.00000000
_cell_angle_beta   90.00000000
_cell_angle_gamma   157.31747044
_symmetry_Int_Tables_number   1
_chemical_formula_structural   Bi5O4F7
_chemical_formula_sum   'Bi20 O16 F28'
_cell_volume   973.56812063
_cell_formula_units_Z   4
loop_
 _symmetry_equiv_pos_site_id
 _symmetry_equiv_pos_as_xyz
  1  'x, y, z'
loop_
 _atom_site_type_symbol
 _atom_site_label
 _atom_site_symmetry_multiplicity
 _atom_site_fract_x
 _atom_site_fract_y
 _atom_site_fract_z
 _atom_site_occupancy
  Bi  Bi0  1  0.298165  0.199887  0.893186  1
  Bi  Bi1  1  0.692462  0.791849  0.895453  1
  Bi  Bi2  1  0.472952  0.973373  0.886335  1
  Bi  Bi3  1  0.969074  0.670915  0.897408  1
  Bi  Bi4  1  0.138842  0.434155  0.892875  1
  Bi  Bi5  1  0.434155  0.138842  0.107125  1
  Bi  Bi6  1  0.670915  0.969074  0.102592  1
  Bi  Bi7  1  0.973373  0.472952  0.113665  1
  Bi  Bi8  1  0.199887  0.298165  0.106814  1
  Bi  Bi9  1  0.791849  0.692462  0.104547  1
  Bi  Bi10  1  0.699887  0.798165  0.393186  1
  Bi  Bi11  1  0.291849  0.192462  0.395453  1
  Bi  Bi12  1  0.473373  0.972952  0.386335  1
  Bi  Bi13  1  0.934155  0.638842  0.392875  1
  Bi  Bi14  1  0.170915  0.469074  0.397408  1
  Bi  Bi15  1  0.469074  0.170915  0.602592  1
  Bi  Bi16  1  0.638842  0.934155  0.607125  1
  Bi  Bi17  1  0.972952  0.473373  0.613665  1
  Bi  Bi18  1  0.192462  0.291849  0.604547  1
  Bi  Bi19  1  0.798165  0.699887  0.606814  1
  O  O20  1  0.931755  0.132719  0.989814  1
  O  O21  1  0.630006  0.425167  0.994426  1
  O  O22  1  0.809056  0.213310  0.987837  1
  O  O23  1  0.496388  0.496388  0.000000  1
  O  O24  1  0.999026  0.999026  0.000000  1
  O  O25  1  0.213310  0.809056  0.012163  1
  O  O26  1  0.425167  0.630006  0.005574  1
  O  O27  1  0.132719  0.931755  0.010186  1
  O  O28  1  0.632719  0.431755  0.489814  1
  O  O29  1  0.925167  0.130006  0.494426  1
  O  O30  1  0.713310  0.309056  0.487837  1
  O  O31  1  0.499026  0.499026  0.500000  1
  O  O32  1  0.996388  0.996388  0.500000  1
  O  O33  1  0.309056  0.713310  0.512163  1
  O  O34  1  0.431755  0.632719  0.510186  1
  O  O35  1  0.130006  0.925167  0.505574  1
  F  F36  1  0.085341  0.085055  0.748063  1
  F  F37  1  0.585341  0.585055  0.751937  1
  F  F38  1  0.316305  0.489696  0.778497  1
  F  F39  1  0.008514  0.836919  0.784677  1
  F  F40  1  0.484657  0.828724  0.809779  1
  F  F41  1  0.345088  0.002385  0.806316  1
  F  F42  1  0.104849  0.603855  0.810594  1
  F  F43  1  0.710069  0.308379  0.981729  1
  F  F44  1  0.308379  0.710069  0.018271  1
  F  F45  1  0.603855  0.104849  0.189406  1
  F  F46  1  0.002385  0.345088  0.193684  1
  F  F47  1  0.828724  0.484657  0.190221  1
  F  F48  1  0.836919  0.008514  0.215323  1
  F  F49  1  0.489696  0.316305  0.221503  1
  F  F50  1  0.085055  0.085341  0.251937  1
  F  F51  1  0.585055  0.585341  0.248063  1
  F  F52  1  0.989696  0.816305  0.278497  1
  F  F53  1  0.336919  0.508514  0.284677  1
  F  F54  1  0.502385  0.845088  0.306316  1
  F  F55  1  0.328724  0.984657  0.309779  1
  F  F56  1  0.103855  0.604849  0.310594  1
  F  F57  1  0.808379  0.210069  0.481729  1
  F  F58  1  0.210069  0.808379  0.518271  1
  F  F59  1  0.604849  0.103855  0.689406  1
  F  F60  1  0.984657  0.328724  0.690221  1
  F  F61  1  0.845088  0.502385  0.693684  1
  F  F62  1  0.508514  0.336919  0.715323  1
  F  F63  1  0.816305  0.989696  0.721503  1
