# generated using pymatgen
data_Na3CrPCO7
_symmetry_space_group_name_H-M   'P 1'
_cell_length_a   5.38555446
_cell_length_b   6.57713105
_cell_length_c   9.19430954
_cell_angle_alpha   90.00000000
_cell_angle_beta   91.02697888
_cell_angle_gamma   90.00000000
_symmetry_Int_Tables_number   1
_chemical_formula_structural   Na3CrPCO7
_chemical_formula_sum   'Na6 Cr2 P2 C2 O14'
_cell_volume   325.62389738
_cell_formula_units_Z   2
loop_
 _symmetry_equiv_pos_site_id
 _symmetry_equiv_pos_as_xyz
  1  'x, y, z'
loop_
 _atom_site_type_symbol
 _atom_site_label
 _atom_site_symmetry_multiplicity
 _atom_site_fract_x
 _atom_site_fract_y
 _atom_site_fract_z
 _atom_site_occupancy
  Na  Na0  1  0.001160  0.514816  0.992550  1
  Na  Na1  1  0.536407  0.820376  0.823473  1
  Na  Na2  1  0.497471  0.506983  0.516479  1
  Na  Na3  1  0.502529  0.006983  0.483521  1
  Na  Na4  1  0.463593  0.320376  0.176527  1
  Na  Na5  1  0.998840  0.014816  0.007450  1
  Cr  Cr6  1  0.975304  0.252574  0.709008  1
  Cr  Cr7  1  0.024696  0.752574  0.290992  1
  P  P8  1  0.017093  0.757951  0.649735  1
  P  P9  1  0.982907  0.257951  0.350265  1
  C  C10  1  0.508744  0.260668  0.860523  1
  C  C11  1  0.491256  0.760668  0.139477  1
  O  O12  1  0.676669  0.264212  0.964004  1
  O  O13  1  0.273839  0.252360  0.893241  1
  O  O14  1  0.931854  0.940872  0.747143  1
  O  O15  1  0.961386  0.563911  0.740965  1
  O  O16  1  0.573653  0.260325  0.725196  1
  O  O17  1  0.297065  0.775535  0.619915  1
  O  O18  1  0.858631  0.754818  0.506770  1
  O  O19  1  0.141369  0.254818  0.493230  1
  O  O20  1  0.702935  0.275535  0.380085  1
  O  O21  1  0.426347  0.760325  0.274804  1
  O  O22  1  0.038614  0.063911  0.259035  1
  O  O23  1  0.068146  0.440872  0.252857  1
  O  O24  1  0.726161  0.752360  0.106759  1
  O  O25  1  0.323331  0.764212  0.035996  1
