# generated using pymatgen
data_Li2MnF4
_symmetry_space_group_name_H-M   'P 1'
_cell_length_a   9.94308498
_cell_length_b   7.34957529
_cell_length_c   10.12079531
_cell_angle_alpha   90.00000000
_cell_angle_beta   116.82265081
_cell_angle_gamma   90.00000000
_symmetry_Int_Tables_number   1
_chemical_formula_structural   Li2MnF4
_chemical_formula_sum   'Li16 Mn8 F32'
_cell_volume   660.02631136
_cell_formula_units_Z   8
loop_
 _symmetry_equiv_pos_site_id
 _symmetry_equiv_pos_as_xyz
  1  'x, y, z'
loop_
 _atom_site_type_symbol
 _atom_site_label
 _atom_site_symmetry_multiplicity
 _atom_site_fract_x
 _atom_site_fract_y
 _atom_site_fract_z
 _atom_site_occupancy
  Li  Li0  1  0.340887  0.980703  0.920867  1
  Li  Li1  1  0.124357  0.636535  0.560728  1
  Li  Li2  1  0.354424  0.592260  0.943828  1
  Li  Li3  1  0.155157  0.004797  0.585336  1
  Li  Li4  1  0.340887  0.519297  0.420867  1
  Li  Li5  1  0.124357  0.863465  0.060728  1
  Li  Li6  1  0.354424  0.907740  0.443828  1
  Li  Li7  1  0.155157  0.495203  0.085336  1
  Li  Li8  1  0.844843  0.504797  0.914664  1
  Li  Li9  1  0.645576  0.092260  0.556172  1
  Li  Li10  1  0.875643  0.136535  0.939272  1
  Li  Li11  1  0.659113  0.480703  0.579133  1
  Li  Li12  1  0.844843  0.995203  0.414664  1
  Li  Li13  1  0.645576  0.407740  0.056172  1
  Li  Li14  1  0.875643  0.363465  0.439272  1
  Li  Li15  1  0.659113  0.019297  0.079133  1
  Mn  Mn16  1  0.038369  0.279489  0.767140  1
  Mn  Mn17  1  0.038369  0.220511  0.267140  1
  Mn  Mn18  1  0.480711  0.220136  0.750205  1
  Mn  Mn19  1  0.519289  0.720136  0.749795  1
  Mn  Mn20  1  0.480711  0.279864  0.250205  1
  Mn  Mn21  1  0.519289  0.779864  0.249795  1
  Mn  Mn22  1  0.961631  0.779489  0.732860  1
  Mn  Mn23  1  0.961631  0.720511  0.232860  1
  F  F24  1  0.037077  0.025765  0.878700  1
  F  F25  1  0.991707  0.164687  0.563100  1
  F  F26  1  0.210889  0.414702  0.934602  1
  F  F27  1  0.177926  0.791338  0.738319  1
  F  F28  1  0.037077  0.474235  0.378700  1
  F  F29  1  0.991707  0.335313  0.063100  1
  F  F30  1  0.286058  0.142207  0.756348  1
  F  F31  1  0.210889  0.085298  0.434602  1
  F  F32  1  0.511430  0.857015  0.921562  1
  F  F33  1  0.177926  0.708662  0.238319  1
  F  F34  1  0.316114  0.691901  0.555192  1
  F  F35  1  0.474810  0.482262  0.850036  1
  F  F36  1  0.525190  0.982262  0.649964  1
  F  F37  1  0.286058  0.357793  0.256348  1
  F  F38  1  0.683886  0.191901  0.944808  1
  F  F39  1  0.488570  0.357015  0.578438  1
  F  F40  1  0.511430  0.642985  0.421562  1
  F  F41  1  0.316114  0.808099  0.055192  1
  F  F42  1  0.713942  0.642207  0.743652  1
  F  F43  1  0.474810  0.017738  0.350036  1
  F  F44  1  0.525190  0.517738  0.149964  1
  F  F45  1  0.683886  0.308099  0.444808  1
  F  F46  1  0.822074  0.291338  0.761681  1
  F  F47  1  0.488570  0.142985  0.078438  1
  F  F48  1  0.789111  0.914702  0.565398  1
  F  F49  1  0.713942  0.857793  0.243652  1
  F  F50  1  0.008293  0.664687  0.936900  1
  F  F51  1  0.962923  0.525765  0.621300  1
  F  F52  1  0.822074  0.208662  0.261681  1
  F  F53  1  0.789111  0.585298  0.065398  1
  F  F54  1  0.008293  0.835313  0.436900  1
  F  F55  1  0.962923  0.974235  0.121300  1
