# generated using pymatgen
data_Sr3Li2Nb4O13
_symmetry_space_group_name_H-M   'P 1'
_cell_length_a   17.63339468
_cell_length_b   17.63339468
_cell_length_c   17.63339468
_cell_angle_alpha   166.80432162
_cell_angle_beta   166.80432162
_cell_angle_gamma   18.70322184
_symmetry_Int_Tables_number   1
_chemical_formula_structural   Sr3Li2Nb4O13
_chemical_formula_sum   'Sr3 Li2 Nb4 O13'
_cell_volume   285.68989896
_cell_formula_units_Z   1
loop_
 _symmetry_equiv_pos_site_id
 _symmetry_equiv_pos_as_xyz
  1  'x, y, z'
loop_
 _atom_site_type_symbol
 _atom_site_label
 _atom_site_symmetry_multiplicity
 _atom_site_fract_x
 _atom_site_fract_y
 _atom_site_fract_z
 _atom_site_occupancy
  Sr  Sr0  1  0.377054  0.377054  0.000000  1
  Sr  Sr1  1  0.500000  0.500000  0.000000  1
  Sr  Sr2  1  0.622946  0.622946  0.000000  1
  Li  Li3  1  0.250000  0.750000  0.500000  1
  Li  Li4  1  0.750000  0.250000  0.500000  1
  Nb  Nb5  1  0.059079  0.059079  0.000000  1
  Nb  Nb6  1  0.179304  0.179304  0.000000  1
  Nb  Nb7  1  0.820696  0.820696  0.000000  1
  Nb  Nb8  1  0.940921  0.940921  0.000000  1
  O  O9  1  0.000000  0.000000  0.000000  1
  O  O10  1  0.117102  0.117102  0.000000  1
  O  O11  1  0.057915  0.557915  0.500000  1
  O  O12  1  0.233852  0.233852  0.000000  1
  O  O13  1  0.172696  0.672696  0.500000  1
  O  O14  1  0.442085  0.942085  0.500000  1
  O  O15  1  0.327304  0.827304  0.500000  1
  O  O16  1  0.766148  0.766148  0.000000  1
  O  O17  1  0.882898  0.882898  0.000000  1
  O  O18  1  0.672696  0.172696  0.500000  1
  O  O19  1  0.827304  0.327304  0.500000  1
  O  O20  1  0.942085  0.442085  0.500000  1
  O  O21  1  0.557915  0.057915  0.500000  1
