# generated using pymatgen
data_Li3Mn2Fe(BO3)3
_symmetry_space_group_name_H-M   'P 1'
_cell_length_a   8.25393165
_cell_length_b   3.17052319
_cell_length_c   14.31657371
_cell_angle_alpha   90.00000000
_cell_angle_beta   90.06326515
_cell_angle_gamma   90.00000000
_symmetry_Int_Tables_number   1
_chemical_formula_structural   Li3Mn2Fe(BO3)3
_chemical_formula_sum   'Li6 Mn4 Fe2 B6 O18'
_cell_volume   374.65422226
_cell_formula_units_Z   2
loop_
 _symmetry_equiv_pos_site_id
 _symmetry_equiv_pos_as_xyz
  1  'x, y, z'
loop_
 _atom_site_type_symbol
 _atom_site_label
 _atom_site_symmetry_multiplicity
 _atom_site_fract_x
 _atom_site_fract_y
 _atom_site_fract_z
 _atom_site_occupancy
  Li  Li0  1  0.708057  0.500000  0.008902  1
  Li  Li1  1  0.659742  0.500000  0.642163  1
  Li  Li2  1  0.633457  0.500000  0.348997  1
  Li  Li3  1  0.206636  0.500000  0.508467  1
  Li  Li4  1  0.158136  0.500000  0.142102  1
  Li  Li5  1  0.131860  0.500000  0.849336  1
  Mn  Mn6  1  0.864587  0.000000  0.494209  1
  Mn  Mn7  1  0.366643  0.000000  0.993888  1
  Mn  Mn8  1  0.326410  0.000000  0.685391  1
  Mn  Mn9  1  0.308890  0.000000  0.320230  1
  Fe  Fe10  1  0.824402  0.000000  0.183864  1
  Fe  Fe11  1  0.812053  0.000000  0.820356  1
  B  B12  1  0.998308  0.500000  0.332295  1
  B  B13  1  0.998827  0.000000  0.000860  1
  B  B14  1  0.998958  0.500000  0.667811  1
  B  B15  1  0.502602  0.500000  0.832986  1
  B  B16  1  0.499909  0.000000  0.499987  1
  B  B17  1  0.502255  0.500000  0.166533  1
  O  O18  1  0.987888  0.500000  0.571071  1
  O  O19  1  0.981807  0.500000  0.235708  1
  O  O20  1  0.861259  0.500000  0.389148  1
  O  O21  1  0.859541  0.500000  0.722328  1
  O  O22  1  0.845949  0.000000  0.042288  1
  O  O23  1  0.655690  0.500000  0.873345  1
  O  O24  1  0.653585  0.500000  0.209202  1
  O  O25  1  0.635733  0.000000  0.557846  1
  O  O26  1  0.518586  0.000000  0.403236  1
  O  O27  1  0.490554  0.500000  0.069695  1
  O  O28  1  0.486243  0.500000  0.736109  1
  O  O29  1  0.363546  0.500000  0.888692  1
  O  O30  1  0.362222  0.500000  0.220208  1
  O  O31  1  0.345000  0.000000  0.539044  1
  O  O32  1  0.151627  0.500000  0.373445  1
  O  O33  1  0.150260  0.500000  0.710411  1
  O  O34  1  0.136621  0.000000  0.056335  1
  O  O35  1  0.012160  0.000000  0.903511  1
