# generated using pymatgen
data_V5BO9
_symmetry_space_group_name_H-M   'P 1'
_cell_length_a   8.57013340
_cell_length_b   8.57013340
_cell_length_c   8.35833651
_cell_angle_alpha   90.00000000
_cell_angle_beta   90.00000000
_cell_angle_gamma   137.90286157
_symmetry_Int_Tables_number   1
_chemical_formula_structural   V5BO9
_chemical_formula_sum   'V10 B2 O18'
_cell_volume   411.54967088
_cell_formula_units_Z   2
loop_
 _symmetry_equiv_pos_site_id
 _symmetry_equiv_pos_as_xyz
  1  'x, y, z'
loop_
 _atom_site_type_symbol
 _atom_site_label
 _atom_site_symmetry_multiplicity
 _atom_site_fract_x
 _atom_site_fract_y
 _atom_site_fract_z
 _atom_site_occupancy
  V  V0  1  0.639929  0.863913  0.996777  1
  V  V1  1  0.300839  0.699161  0.330846  1
  V  V2  1  0.253934  0.746066  0.679927  1
  V  V3  1  0.441943  0.558057  0.694940  1
  V  V4  1  0.136087  0.360071  0.996777  1
  V  V5  1  0.863913  0.639929  0.496777  1
  V  V6  1  0.558057  0.441943  0.194940  1
  V  V7  1  0.699161  0.300839  0.830846  1
  V  V8  1  0.746066  0.253934  0.179927  1
  V  V9  1  0.360071  0.136087  0.496777  1
  B  B10  1  0.015521  0.984479  0.224331  1
  B  B11  1  0.984479  0.015521  0.724331  1
  O  O12  1  0.756745  0.850969  0.786000  1
  O  O13  1  0.553052  0.928545  0.194769  1
  O  O14  1  0.192296  0.807704  0.443294  1
  O  O15  1  0.041563  0.958437  0.603699  1
  O  O16  1  0.335970  0.664030  0.859750  1
  O  O17  1  0.455191  0.544809  0.069479  1
  O  O18  1  0.353144  0.646856  0.540911  1
  O  O19  1  0.850969  0.756745  0.286000  1
  O  O20  1  0.071455  0.446948  0.194769  1
  O  O21  1  0.928545  0.553052  0.694769  1
  O  O22  1  0.149031  0.243255  0.786000  1
  O  O23  1  0.544809  0.455191  0.569479  1
  O  O24  1  0.646856  0.353144  0.040911  1
  O  O25  1  0.807704  0.192296  0.943294  1
  O  O26  1  0.958437  0.041563  0.103699  1
  O  O27  1  0.664030  0.335970  0.359750  1
  O  O28  1  0.446948  0.071455  0.694769  1
  O  O29  1  0.243255  0.149031  0.286000  1
