# generated using pymatgen
data_Li6AlCrO6
_symmetry_space_group_name_H-M   'P 1'
_cell_length_a   5.38495671
_cell_length_b   5.38495671
_cell_length_c   9.73250281
_cell_angle_alpha   90.00000000
_cell_angle_beta   90.00000000
_cell_angle_gamma   120.00000000
_symmetry_Int_Tables_number   1
_chemical_formula_structural   Li6AlCrO6
_chemical_formula_sum   'Li12 Al2 Cr2 O12'
_cell_volume   244.41035570
_cell_formula_units_Z   2
loop_
 _symmetry_equiv_pos_site_id
 _symmetry_equiv_pos_as_xyz
  1  'x, y, z'
loop_
 _atom_site_type_symbol
 _atom_site_label
 _atom_site_symmetry_multiplicity
 _atom_site_fract_x
 _atom_site_fract_y
 _atom_site_fract_z
 _atom_site_occupancy
  Li  Li0  1  0.936233  0.620588  0.422960  1
  Li  Li1  1  0.063767  0.684355  0.922960  1
  Li  Li2  1  0.620588  0.936233  0.922960  1
  Li  Li3  1  0.936233  0.315645  0.077040  1
  Li  Li4  1  0.684355  0.063767  0.422960  1
  Li  Li5  1  0.063767  0.379412  0.577040  1
  Li  Li6  1  0.620588  0.684355  0.577040  1
  Li  Li7  1  0.379412  0.315645  0.422960  1
  Li  Li8  1  0.315645  0.379412  0.922960  1
  Li  Li9  1  0.684355  0.620588  0.077040  1
  Li  Li10  1  0.379412  0.063767  0.077040  1
  Li  Li11  1  0.315645  0.936233  0.577040  1
  Al  Al12  1  0.666667  0.333333  0.750000  1
  Al  Al13  1  0.333333  0.666667  0.250000  1
  Cr  Cr14  1  0.000000  0.000000  0.250000  1
  Cr  Cr15  1  0.000000  0.000000  0.750000  1
  O  O16  1  0.052282  0.704414  0.134506  1
  O  O17  1  0.947718  0.652132  0.634506  1
  O  O18  1  0.652132  0.947718  0.134506  1
  O  O19  1  0.052282  0.347868  0.365494  1
  O  O20  1  0.947718  0.295586  0.865494  1
  O  O21  1  0.704414  0.052282  0.634506  1
  O  O22  1  0.347868  0.295586  0.634506  1
  O  O23  1  0.704414  0.652132  0.865494  1
  O  O24  1  0.295586  0.347868  0.134506  1
  O  O25  1  0.652132  0.704414  0.365494  1
  O  O26  1  0.295586  0.947718  0.365494  1
  O  O27  1  0.347868  0.052282  0.865494  1
