# generated using pymatgen
data_LiV2F7
_symmetry_space_group_name_H-M   'P 1'
_cell_length_a   5.40283351
_cell_length_b   7.45877822
_cell_length_c   11.71866988
_cell_angle_alpha   90.00000000
_cell_angle_beta   90.00000000
_cell_angle_gamma   90.00000000
_symmetry_Int_Tables_number   1
_chemical_formula_structural   LiV2F7
_chemical_formula_sum   'Li4 V8 F28'
_cell_volume   472.24525070
_cell_formula_units_Z   4
loop_
 _symmetry_equiv_pos_site_id
 _symmetry_equiv_pos_as_xyz
  1  'x, y, z'
loop_
 _atom_site_type_symbol
 _atom_site_label
 _atom_site_symmetry_multiplicity
 _atom_site_fract_x
 _atom_site_fract_y
 _atom_site_fract_z
 _atom_site_occupancy
  Li  Li0  1  0.884455  0.750000  0.849783  1
  Li  Li1  1  0.384455  0.250000  0.650217  1
  Li  Li2  1  0.615545  0.750000  0.349783  1
  Li  Li3  1  0.115545  0.250000  0.150217  1
  V  V4  1  0.374972  0.522418  0.874344  1
  V  V5  1  0.374972  0.977582  0.874344  1
  V  V6  1  0.874972  0.477582  0.625656  1
  V  V7  1  0.874972  0.022418  0.625656  1
  V  V8  1  0.125028  0.522418  0.374344  1
  V  V9  1  0.125028  0.977582  0.374344  1
  V  V10  1  0.625028  0.477582  0.125656  1
  V  V11  1  0.625028  0.022418  0.125656  1
  F  F12  1  0.704258  0.975944  0.957897  1
  F  F13  1  0.704258  0.524056  0.957897  1
  F  F14  1  0.189759  0.750000  0.934020  1
  F  F15  1  0.326094  0.250000  0.874144  1
  F  F16  1  0.535109  0.750000  0.815798  1
  F  F17  1  0.058836  0.547965  0.772193  1
  F  F18  1  0.058836  0.952035  0.772193  1
  F  F19  1  0.558836  0.452035  0.727807  1
  F  F20  1  0.558836  0.047965  0.727807  1
  F  F21  1  0.035109  0.250000  0.684202  1
  F  F22  1  0.826094  0.750000  0.625856  1
  F  F23  1  0.689759  0.250000  0.565980  1
  F  F24  1  0.204258  0.024056  0.542103  1
  F  F25  1  0.204258  0.475944  0.542103  1
  F  F26  1  0.795742  0.975944  0.457897  1
  F  F27  1  0.795742  0.524056  0.457897  1
  F  F28  1  0.310241  0.750000  0.434020  1
  F  F29  1  0.173906  0.250000  0.374144  1
  F  F30  1  0.964891  0.750000  0.315798  1
  F  F31  1  0.441164  0.547965  0.272193  1
  F  F32  1  0.441164  0.952035  0.272193  1
  F  F33  1  0.941164  0.452035  0.227807  1
  F  F34  1  0.941164  0.047965  0.227807  1
  F  F35  1  0.464891  0.250000  0.184202  1
  F  F36  1  0.673906  0.750000  0.125856  1
  F  F37  1  0.810241  0.250000  0.065980  1
  F  F38  1  0.295742  0.024056  0.042103  1
  F  F39  1  0.295742  0.475944  0.042103  1
