# generated using pymatgen
data_Li2BiPCO7
_symmetry_space_group_name_H-M   'P 1'
_cell_length_a   5.07554884
_cell_length_b   6.89339847
_cell_length_c   9.17143613
_cell_angle_alpha   90.00000000
_cell_angle_beta   90.33426932
_cell_angle_gamma   90.00000000
_symmetry_Int_Tables_number   1
_chemical_formula_structural   Li2BiPCO7
_chemical_formula_sum   'Li4 Bi2 P2 C2 O14'
_cell_volume   320.88273429
_cell_formula_units_Z   2
loop_
 _symmetry_equiv_pos_site_id
 _symmetry_equiv_pos_as_xyz
  1  'x, y, z'
loop_
 _atom_site_type_symbol
 _atom_site_label
 _atom_site_symmetry_multiplicity
 _atom_site_fract_x
 _atom_site_fract_y
 _atom_site_fract_z
 _atom_site_occupancy
  Li  Li0  1  0.783386  0.951077  0.216692  1
  Li  Li1  1  0.783386  0.548923  0.216692  1
  Li  Li2  1  0.216614  0.451077  0.783308  1
  Li  Li3  1  0.216614  0.048923  0.783308  1
  Bi  Bi4  1  0.237190  0.250000  0.366293  1
  Bi  Bi5  1  0.762810  0.750000  0.633707  1
  P  P6  1  0.262972  0.750000  0.395411  1
  P  P7  1  0.737028  0.250000  0.604589  1
  C  C8  1  0.258840  0.250000  0.068044  1
  C  C9  1  0.741160  0.750000  0.931956  1
  O  O10  1  0.735557  0.750000  0.069365  1
  O  O11  1  0.034715  0.250000  0.140930  1
  O  O12  1  0.474758  0.250000  0.148918  1
  O  O13  1  0.117878  0.929359  0.329631  1
  O  O14  1  0.117878  0.570641  0.329631  1
  O  O15  1  0.767760  0.250000  0.433914  1
  O  O16  1  0.559083  0.750000  0.360241  1
  O  O17  1  0.440917  0.250000  0.639759  1
  O  O18  1  0.232240  0.750000  0.566086  1
  O  O19  1  0.882122  0.429359  0.670369  1
  O  O20  1  0.882122  0.070641  0.670369  1
  O  O21  1  0.525242  0.750000  0.851082  1
  O  O22  1  0.965285  0.750000  0.859070  1
  O  O23  1  0.264443  0.250000  0.930635  1
