# generated using pymatgen
data_Na5LiCo2P2(CO7)2
_symmetry_space_group_name_H-M   'P 1'
_cell_length_a   5.22199953
_cell_length_b   6.64669435
_cell_length_c   8.82090529
_cell_angle_alpha   90.63931605
_cell_angle_beta   91.95788678
_cell_angle_gamma   90.15981437
_symmetry_Int_Tables_number   1
_chemical_formula_structural   Na5LiCo2P2(CO7)2
_chemical_formula_sum   'Na5 Li1 Co2 P2 C2 O14'
_cell_volume   305.96578399
_cell_formula_units_Z   1
loop_
 _symmetry_equiv_pos_site_id
 _symmetry_equiv_pos_as_xyz
  1  'x, y, z'
loop_
 _atom_site_type_symbol
 _atom_site_label
 _atom_site_symmetry_multiplicity
 _atom_site_fract_x
 _atom_site_fract_y
 _atom_site_fract_z
 _atom_site_occupancy
  Na  Na0  1  0.226936  0.754267  0.085298  1
  Na  Na1  1  0.744360  0.508385  0.271191  1
  Na  Na2  1  0.257711  0.008101  0.730172  1
  Na  Na3  1  0.256560  0.492362  0.729330  1
  Na  Na4  1  0.775880  0.248516  0.915870  1
  Li  Li5  1  0.751796  0.990377  0.281119  1
  Co  Co6  1  0.218310  0.245712  0.344551  1
  Co  Co7  1  0.780322  0.749829  0.652735  1
  P  P8  1  0.279648  0.752519  0.414600  1
  P  P9  1  0.714321  0.243968  0.579546  1
  C  C10  1  0.296150  0.247686  0.057537  1
  C  C11  1  0.709706  0.757092  0.947183  1
  O  O12  1  0.685102  0.768873  0.092863  1
  O  O13  1  0.068599  0.250571  0.113314  1
  O  O14  1  0.493065  0.240102  0.152856  1
  O  O15  1  0.183948  0.933358  0.317170  1
  O  O16  1  0.209541  0.560902  0.317871  1
  O  O17  1  0.839921  0.231651  0.423131  1
  O  O18  1  0.578215  0.766603  0.439786  1
  O  O19  1  0.416854  0.247489  0.553734  1
  O  O20  1  0.152173  0.749482  0.569834  1
  O  O21  1  0.799124  0.435101  0.672743  1
  O  O22  1  0.791840  0.062813  0.682261  1
  O  O23  1  0.509872  0.750018  0.854391  1
  O  O24  1  0.934342  0.751551  0.887774  1
  O  O25  1  0.325699  0.252675  0.913144  1
