# generated using pymatgen
data_Li3V3P8O29
_symmetry_space_group_name_H-M   'P 1'
_cell_length_a   9.76082979
_cell_length_b   9.76082979
_cell_length_c   13.88175536
_cell_angle_alpha   89.87548704
_cell_angle_beta   90.12451296
_cell_angle_gamma   119.83879605
_symmetry_Int_Tables_number   1
_chemical_formula_structural   Li3V3P8O29
_chemical_formula_sum   'Li6 V6 P16 O58'
_cell_volume   1147.22949768
_cell_formula_units_Z   2
loop_
 _symmetry_equiv_pos_site_id
 _symmetry_equiv_pos_as_xyz
  1  'x, y, z'
loop_
 _atom_site_type_symbol
 _atom_site_label
 _atom_site_symmetry_multiplicity
 _atom_site_fract_x
 _atom_site_fract_y
 _atom_site_fract_z
 _atom_site_occupancy
  Li  Li0  1  0.908821  0.683269  0.804802  1
  Li  Li1  1  0.323671  0.097970  0.311474  1
  Li  Li2  1  0.770880  0.089890  0.807064  1
  Li  Li3  1  0.089890  0.770880  0.192936  1
  Li  Li4  1  0.683269  0.908821  0.195198  1
  Li  Li5  1  0.097970  0.323671  0.688526  1
  V  V6  1  0.431087  0.995955  0.507310  1
  V  V7  1  0.561839  0.997106  0.999162  1
  V  V8  1  0.997106  0.561839  0.000838  1
  V  V9  1  0.995955  0.431087  0.492690  1
  V  V10  1  0.568245  0.568245  0.500000  1
  V  V11  1  0.433308  0.433308  0.000000  1
  P  P12  1  0.769230  0.684827  0.094119  1
  P  P13  1  0.912309  0.681874  0.591744  1
  P  P14  1  0.315240  0.230923  0.593642  1
  P  P15  1  0.661226  0.331490  0.377039  1
  P  P16  1  0.665427  0.332611  0.877358  1
  P  P17  1  0.315716  0.087730  0.091188  1
  P  P18  1  0.225891  0.914069  0.904533  1
  P  P19  1  0.914069  0.225891  0.095467  1
  P  P20  1  0.088301  0.773140  0.407887  1
  P  P21  1  0.773140  0.088301  0.592113  1
  P  P22  1  0.681874  0.912309  0.408256  1
  P  P23  1  0.331490  0.661226  0.622961  1
  P  P24  1  0.332611  0.665427  0.122642  1
  P  P25  1  0.684827  0.769230  0.905881  1
  P  P26  1  0.087730  0.315716  0.908812  1
  P  P27  1  0.230923  0.315240  0.406358  1
  O  O28  1  0.765942  0.760221  0.818492  1
  O  O29  1  0.743167  0.656560  0.584319  1
  O  O30  1  0.006488  0.761601  0.315480  1
  O  O31  1  0.915598  0.660407  0.090063  1
  O  O32  1  0.617398  0.523460  0.073925  1
  O  O33  1  0.664831  0.480013  0.423295  1
  O  O34  1  0.475643  0.382780  0.574913  1
  O  O35  1  0.237921  0.233154  0.318407  1
  O  O36  1  0.341543  0.256161  0.085695  1
  O  O37  1  0.816976  0.486028  0.920337  1
  O  O38  1  0.907198  0.522833  0.570533  1
  O  O39  1  0.519914  0.333699  0.923797  1
  O  O40  1  0.664811  0.331941  0.269913  1
  O  O41  1  0.673505  0.336392  0.770598  1
  O  O42  1  0.512601  0.181274  0.418242  1
  O  O43  1  0.905811  0.380757  0.071917  1
  O  O44  1  0.814172  0.333432  0.422007  1
  O  O45  1  0.343255  0.087379  0.585911  1
  O  O46  1  0.203276  0.994390  0.002211  1
  O  O47  1  0.238442  0.002207  0.816257  1
  O  O48  1  0.245919  0.000526  0.182916  1
  O  O49  1  0.477622  0.095353  0.071603  1
  O  O50  1  0.669861  0.182797  0.918891  1
  O  O51  1  0.257576  0.918533  0.411630  1
  O  O52  1  0.619556  0.097194  0.573470  1
  O  O53  1  0.918533  0.257576  0.588370  1
  O  O54  1  0.001751  0.794392  0.500040  1
  O  O55  1  0.994370  0.753632  0.683462  1
  O  O56  1  0.000526  0.245919  0.817084  1
  O  O57  1  0.082651  0.742565  0.911822  1
  O  O58  1  0.380757  0.905811  0.928083  1
  O  O59  1  0.742565  0.082651  0.088178  1
  O  O60  1  0.333432  0.814172  0.577993  1
  O  O61  1  0.522834  0.907198  0.429467  1
  O  O62  1  0.753632  0.994370  0.316538  1
  O  O63  1  0.761601  0.006488  0.684520  1
  O  O64  1  0.794392  0.001751  0.499960  1
  O  O65  1  0.660407  0.915598  0.909937  1
  O  O66  1  0.182797  0.669861  0.081109  1
  O  O67  1  0.097194  0.619556  0.426530  1
  O  O68  1  0.486028  0.816976  0.079663  1
  O  O69  1  0.336392  0.673505  0.229402  1
  O  O70  1  0.331941  0.664811  0.730087  1
  O  O71  1  0.480013  0.664831  0.576705  1
  O  O72  1  0.095353  0.477622  0.928397  1
  O  O73  1  0.181274  0.512601  0.581758  1
  O  O74  1  0.656560  0.743167  0.415681  1
  O  O75  1  0.792171  0.792171  0.000000  1
  O  O76  1  0.760221  0.765942  0.181508  1
  O  O77  1  0.523460  0.617398  0.926075  1
  O  O78  1  0.333699  0.519914  0.076203  1
  O  O79  1  0.382780  0.475643  0.425087  1
  O  O80  1  0.087379  0.343255  0.414089  1
  O  O81  1  0.002207  0.238442  0.183743  1
  O  O82  1  0.994390  0.203276  0.997789  1
  O  O83  1  0.256161  0.341543  0.914305  1
  O  O84  1  0.233154  0.237921  0.681593  1
  O  O85  1  0.206228  0.206228  0.500000  1
