# generated using pymatgen
data_Fe4O7F
_symmetry_space_group_name_H-M   'P 1'
_cell_length_a   5.53032121
_cell_length_b   9.28766112
_cell_length_c   5.54552321
_cell_angle_alpha   90.00000000
_cell_angle_beta   114.50773875
_cell_angle_gamma   90.00000000
_symmetry_Int_Tables_number   1
_chemical_formula_structural   Fe4O7F
_chemical_formula_sum   'Fe8 O14 F2'
_cell_volume   259.17637791
_cell_formula_units_Z   2
loop_
 _symmetry_equiv_pos_site_id
 _symmetry_equiv_pos_as_xyz
  1  'x, y, z'
loop_
 _atom_site_type_symbol
 _atom_site_label
 _atom_site_symmetry_multiplicity
 _atom_site_fract_x
 _atom_site_fract_y
 _atom_site_fract_z
 _atom_site_occupancy
  Fe  Fe0  1  0.997559  0.126987  0.999674  1
  Fe  Fe1  1  0.011578  0.618443  0.001009  1
  Fe  Fe2  1  0.500080  0.378505  0.982253  1
  Fe  Fe3  1  0.011578  0.381557  0.501009  1
  Fe  Fe4  1  0.487791  0.881382  0.014310  1
  Fe  Fe5  1  0.997559  0.873013  0.499674  1
  Fe  Fe6  1  0.500080  0.621495  0.482253  1
  Fe  Fe7  1  0.487791  0.118618  0.514310  1
  O  O8  1  0.160462  0.280898  0.843721  1
  O  O9  1  0.154249  0.778445  0.847426  1
  O  O10  1  0.343087  0.967896  0.668675  1
  O  O11  1  0.356374  0.478683  0.644381  1
  O  O12  1  0.160462  0.719102  0.343721  1
  O  O13  1  0.651451  0.222911  0.844129  1
  O  O14  1  0.154249  0.221555  0.347426  1
  O  O15  1  0.845960  0.530995  0.648102  1
  O  O16  1  0.356374  0.521317  0.144381  1
  O  O17  1  0.837638  0.030356  0.657462  1
  O  O18  1  0.343087  0.032104  0.168675  1
  O  O19  1  0.651451  0.777089  0.344129  1
  O  O20  1  0.845960  0.469005  0.148102  1
  O  O21  1  0.837638  0.969644  0.157462  1
  F  F22  1  0.653769  0.725342  0.848857  1
  F  F23  1  0.653769  0.274658  0.348857  1
