# generated using pymatgen
data_TbCeO4
_symmetry_space_group_name_H-M   'P 1'
_cell_length_a   6.55628252
_cell_length_b   6.55628252
_cell_length_c   6.55628252
_cell_angle_alpha   129.46445560
_cell_angle_beta   129.46445560
_cell_angle_gamma   74.26438421
_symmetry_Int_Tables_number   1
_chemical_formula_structural   TbCeO4
_chemical_formula_sum   'Tb2 Ce2 O8'
_cell_volume   163.74716575
_cell_formula_units_Z   2
loop_
 _symmetry_equiv_pos_site_id
 _symmetry_equiv_pos_as_xyz
  1  'x, y, z'
loop_
 _atom_site_type_symbol
 _atom_site_label
 _atom_site_symmetry_multiplicity
 _atom_site_fract_x
 _atom_site_fract_y
 _atom_site_fract_z
 _atom_site_occupancy
  Tb  Tb0  1  0.000000  0.000000  0.000000  1
  Tb  Tb1  1  0.750000  0.250000  0.500000  1
  Ce  Ce2  1  0.250000  0.750000  0.500000  1
  Ce  Ce3  1  0.500000  0.500000  1.000000  1
  O  O4  1  0.875000  0.871312  0.496312  1
  O  O5  1  0.375000  0.378688  0.503688  1
  O  O6  1  0.128688  0.625000  0.003688  1
  O  O7  1  0.621312  0.125000  0.996312  1
  O  O8  1  0.128688  0.125000  0.503688  1
  O  O9  1  0.621312  0.625000  0.496312  1
  O  O10  1  0.375000  0.871312  0.996312  1
  O  O11  1  0.875000  0.378688  0.003688  1
