# generated using pymatgen
data_RbP(HO2)2
_symmetry_space_group_name_H-M   'P 1'
_cell_length_a   7.66796734
_cell_length_b   6.27470748
_cell_length_c   9.68220228
_cell_angle_alpha   90.00000000
_cell_angle_beta   108.43585077
_cell_angle_gamma   90.00000000
_symmetry_Int_Tables_number   1
_chemical_formula_structural   RbP(HO2)2
_chemical_formula_sum   'Rb4 P4 H8 O16'
_cell_volume   441.94361753
_cell_formula_units_Z   4
loop_
 _symmetry_equiv_pos_site_id
 _symmetry_equiv_pos_as_xyz
  1  'x, y, z'
loop_
 _atom_site_type_symbol
 _atom_site_label
 _atom_site_symmetry_multiplicity
 _atom_site_fract_x
 _atom_site_fract_y
 _atom_site_fract_z
 _atom_site_occupancy
  Rb  Rb0  1  0.763107  0.757176  0.781064  1
  Rb  Rb1  1  0.236893  0.257176  0.718936  1
  Rb  Rb2  1  0.236893  0.242824  0.218936  1
  Rb  Rb3  1  0.763107  0.742824  0.281064  1
  P  P4  1  0.741789  0.245771  0.019414  1
  P  P5  1  0.258211  0.745770  0.480586  1
  P  P6  1  0.258211  0.754229  0.980586  1
  P  P7  1  0.741789  0.254229  0.519414  1
  H  H8  1  0.864194  0.263627  0.836746  1
  H  H9  1  0.135806  0.763627  0.663254  1
  H  H10  1  0.135806  0.736373  0.163254  1
  H  H11  1  0.864194  0.236373  0.336746  1
  H  H12  1  0.500000  0.000000  0.000000  1
  H  H13  1  0.500000  0.500000  0.500000  1
  H  H14  1  0.500000  0.500000  0.000000  1
  H  H15  1  0.500000  0.000000  0.500000  1
  O  O16  1  0.901361  0.240621  0.947377  1
  O  O17  1  0.098639  0.740621  0.552623  1
  O  O18  1  0.098639  0.759379  0.052623  1
  O  O19  1  0.901361  0.259379  0.447377  1
  O  O20  1  0.831711  0.190557  0.178677  1
  O  O21  1  0.168289  0.690557  0.321323  1
  O  O22  1  0.168289  0.809443  0.821323  1
  O  O23  1  0.831711  0.309443  0.678677  1
  O  O24  1  0.596556  0.077877  0.936521  1
  O  O25  1  0.403444  0.577877  0.563479  1
  O  O26  1  0.403444  0.922123  0.063479  1
  O  O27  1  0.596556  0.422123  0.436521  1
  O  O28  1  0.654743  0.473093  0.994604  1
  O  O29  1  0.345257  0.973093  0.505396  1
  O  O30  1  0.345257  0.526907  0.005396  1
  O  O31  1  0.654743  0.026907  0.494604  1
