# generated using pymatgen
data_Li3Si2(NiO4)2
_symmetry_space_group_name_H-M   'P 1'
_cell_length_a   4.96542148
_cell_length_b   5.34370795
_cell_length_c   6.41511486
_cell_angle_alpha   89.99352670
_cell_angle_beta   89.87570493
_cell_angle_gamma   89.49668047
_symmetry_Int_Tables_number   1
_chemical_formula_structural   Li3Si2(NiO4)2
_chemical_formula_sum   'Li3 Si2 Ni2 O8'
_cell_volume   170.21016333
_cell_formula_units_Z   1
loop_
 _symmetry_equiv_pos_site_id
 _symmetry_equiv_pos_as_xyz
  1  'x, y, z'
loop_
 _atom_site_type_symbol
 _atom_site_label
 _atom_site_symmetry_multiplicity
 _atom_site_fract_x
 _atom_site_fract_y
 _atom_site_fract_z
 _atom_site_occupancy
  Li  Li0  1  0.497125  0.168429  0.992459  1
  Li  Li1  1  0.999864  0.819550  0.503461  1
  Li  Li2  1  0.005416  0.343324  0.240913  1
  Si  Si3  1  0.996157  0.326830  0.745547  1
  Si  Si4  1  0.488226  0.680934  0.248052  1
  Ni  Ni5  1  0.998335  0.824613  0.984843  1
  Ni  Ni6  1  0.502023  0.170336  0.493790  1
  O  O7  1  0.100911  0.191832  0.961712  1
  O  O8  1  0.666870  0.274756  0.732416  1
  O  O9  1  0.064082  0.620863  0.743196  1
  O  O10  1  0.122423  0.187726  0.531217  1
  O  O11  1  0.596392  0.840829  0.453587  1
  O  O12  1  0.594886  0.382583  0.266932  1
  O  O13  1  0.157231  0.681132  0.244615  1
  O  O14  1  0.610194  0.819949  0.045078  1
