# generated using pymatgen
data_Li3MnBAsO7
_symmetry_space_group_name_H-M   'P 1'
_cell_length_a   5.05478276
_cell_length_b   6.81952132
_cell_length_c   8.49644960
_cell_angle_alpha   90.00000000
_cell_angle_beta   94.57196069
_cell_angle_gamma   90.00000000
_symmetry_Int_Tables_number   1
_chemical_formula_structural   Li3MnBAsO7
_chemical_formula_sum   'Li6 Mn2 B2 As2 O14'
_cell_volume   291.95085198
_cell_formula_units_Z   2
loop_
 _symmetry_equiv_pos_site_id
 _symmetry_equiv_pos_as_xyz
  1  'x, y, z'
loop_
 _atom_site_type_symbol
 _atom_site_label
 _atom_site_symmetry_multiplicity
 _atom_site_fract_x
 _atom_site_fract_y
 _atom_site_fract_z
 _atom_site_occupancy
  Li  Li0  1  0.246457  0.750000  0.090909  1
  Li  Li1  1  0.757646  0.995614  0.233537  1
  Li  Li2  1  0.757646  0.504386  0.233537  1
  Li  Li3  1  0.242354  0.495614  0.766463  1
  Li  Li4  1  0.242354  0.004386  0.766463  1
  Li  Li5  1  0.753543  0.250000  0.909091  1
  Mn  Mn6  1  0.206895  0.250000  0.317151  1
  Mn  Mn7  1  0.793105  0.750000  0.682849  1
  B  B8  1  0.283364  0.250000  0.039647  1
  B  B9  1  0.716636  0.750000  0.960353  1
  As  As10  1  0.269071  0.750000  0.414915  1
  As  As11  1  0.730929  0.250000  0.585085  1
  O  O12  1  0.644558  0.750000  0.110355  1
  O  O13  1  0.026185  0.250000  0.087423  1
  O  O14  1  0.477032  0.250000  0.169474  1
  O  O15  1  0.170503  0.940494  0.292450  1
  O  O16  1  0.170503  0.559506  0.292450  1
  O  O17  1  0.607497  0.750000  0.459913  1
  O  O18  1  0.858143  0.250000  0.402820  1
  O  O19  1  0.141857  0.750000  0.597180  1
  O  O20  1  0.392503  0.250000  0.540087  1
  O  O21  1  0.829497  0.440494  0.707550  1
  O  O22  1  0.829497  0.059506  0.707550  1
  O  O23  1  0.522968  0.750000  0.830526  1
  O  O24  1  0.973815  0.750000  0.912577  1
  O  O25  1  0.355442  0.250000  0.889645  1
