# generated using pymatgen
data_Na2Ti2O5
_symmetry_space_group_name_H-M   'P 1'
_cell_length_a   5.66041259
_cell_length_b   9.05360064
_cell_length_c   10.65487538
_cell_angle_alpha   90.00000000
_cell_angle_beta   90.00000000
_cell_angle_gamma   90.00000000
_symmetry_Int_Tables_number   1
_chemical_formula_structural   Na2Ti2O5
_chemical_formula_sum   'Na8 Ti8 O20'
_cell_volume   546.03162442
_cell_formula_units_Z   4
loop_
 _symmetry_equiv_pos_site_id
 _symmetry_equiv_pos_as_xyz
  1  'x, y, z'
loop_
 _atom_site_type_symbol
 _atom_site_label
 _atom_site_symmetry_multiplicity
 _atom_site_fract_x
 _atom_site_fract_y
 _atom_site_fract_z
 _atom_site_occupancy
  Na  Na0  1  0.932173  0.022814  0.489179  1
  Na  Na1  1  0.932173  0.522814  0.010821  1
  Na  Na2  1  0.912409  0.747799  0.733619  1
  Na  Na3  1  0.912409  0.247799  0.766381  1
  Na  Na4  1  0.087591  0.247799  0.266381  1
  Na  Na5  1  0.087591  0.747799  0.233619  1
  Na  Na6  1  0.067827  0.522814  0.510821  1
  Na  Na7  1  0.067827  0.022814  0.989179  1
  Ti  Ti8  1  0.625976  0.946470  0.202577  1
  Ti  Ti9  1  0.625976  0.446470  0.297423  1
  Ti  Ti10  1  0.529601  0.750566  0.466743  1
  Ti  Ti11  1  0.529601  0.250566  0.033257  1
  Ti  Ti12  1  0.470399  0.750566  0.966743  1
  Ti  Ti13  1  0.470399  0.250566  0.533257  1
  Ti  Ti14  1  0.374024  0.946470  0.702577  1
  Ti  Ti15  1  0.374024  0.446470  0.797423  1
  O  O16  1  0.911547  0.006807  0.241197  1
  O  O17  1  0.911547  0.506807  0.258803  1
  O  O18  1  0.829553  0.752699  0.508470  1
  O  O19  1  0.829553  0.252699  0.991530  1
  O  O20  1  0.667925  0.779274  0.104262  1
  O  O21  1  0.667925  0.279274  0.395738  1
  O  O22  1  0.561064  0.571596  0.896074  1
  O  O23  1  0.561064  0.071596  0.603926  1
  O  O24  1  0.544212  0.886364  0.841660  1
  O  O25  1  0.544212  0.386364  0.658340  1
  O  O26  1  0.455788  0.886364  0.341660  1
  O  O27  1  0.455788  0.386364  0.158340  1
  O  O28  1  0.438936  0.071596  0.103926  1
  O  O29  1  0.438936  0.571596  0.396074  1
  O  O30  1  0.332075  0.279274  0.895738  1
  O  O31  1  0.332075  0.779274  0.604262  1
  O  O32  1  0.170447  0.252699  0.491530  1
  O  O33  1  0.170447  0.752699  0.008470  1
  O  O34  1  0.088453  0.506807  0.758803  1
  O  O35  1  0.088453  0.006807  0.741197  1
