# generated using pymatgen
data_MnP4
_symmetry_space_group_name_H-M   'P 1'
_cell_length_a   5.88903276
_cell_length_b   5.88903276
_cell_length_c   11.08526860
_cell_angle_alpha   88.73074600
_cell_angle_beta   91.26925400
_cell_angle_gamma   51.56705014
_symmetry_Int_Tables_number   1
_chemical_formula_structural   MnP4
_chemical_formula_sum   'Mn4 P16'
_cell_volume   300.75887058
_cell_formula_units_Z   4
loop_
 _symmetry_equiv_pos_site_id
 _symmetry_equiv_pos_as_xyz
  1  'x, y, z'
loop_
 _atom_site_type_symbol
 _atom_site_label
 _atom_site_symmetry_multiplicity
 _atom_site_fract_x
 _atom_site_fract_y
 _atom_site_fract_z
 _atom_site_occupancy
  Mn  Mn0  1  0.000000  0.500000  0.000000  1
  Mn  Mn1  1  0.905969  0.905969  0.750000  1
  Mn  Mn2  1  0.500000  0.000000  0.500000  1
  Mn  Mn3  1  0.094031  0.094031  0.250000  1
  P  P4  1  0.947833  0.557215  0.210480  1
  P  P5  1  0.757389  0.360610  0.716969  1
  P  P6  1  0.659733  0.545418  0.525519  1
  P  P7  1  0.956508  0.862194  0.545478  1
  P  P8  1  0.862194  0.956508  0.954522  1
  P  P9  1  0.545418  0.659733  0.974481  1
  P  P10  1  0.557215  0.947833  0.289520  1
  P  P11  1  0.360610  0.757389  0.783031  1
  P  P12  1  0.639390  0.242611  0.216969  1
  P  P13  1  0.442785  0.052167  0.710480  1
  P  P14  1  0.454582  0.340267  0.025519  1
  P  P15  1  0.137806  0.043492  0.045478  1
  P  P16  1  0.043492  0.137806  0.454522  1
  P  P17  1  0.340267  0.454582  0.474481  1
  P  P18  1  0.242611  0.639390  0.283031  1
  P  P19  1  0.052167  0.442785  0.789520  1
