# generated using pymatgen
data_Li3TiV3O8
_symmetry_space_group_name_H-M   'P 1'
_cell_length_a   5.91543974
_cell_length_b   5.91543974
_cell_length_c   9.66869879
_cell_angle_alpha   90.00000000
_cell_angle_beta   90.00000000
_cell_angle_gamma   120.00000000
_symmetry_Int_Tables_number   1
_chemical_formula_structural   Li3TiV3O8
_chemical_formula_sum   'Li6 Ti2 V6 O16'
_cell_volume   293.00344826
_cell_formula_units_Z   2
loop_
 _symmetry_equiv_pos_site_id
 _symmetry_equiv_pos_as_xyz
  1  'x, y, z'
loop_
 _atom_site_type_symbol
 _atom_site_label
 _atom_site_symmetry_multiplicity
 _atom_site_fract_x
 _atom_site_fract_y
 _atom_site_fract_z
 _atom_site_occupancy
  Li  Li0  1  0.345076  0.172538  0.557693  1
  Li  Li1  1  0.827462  0.172538  0.557693  1
  Li  Li2  1  0.827462  0.654924  0.557693  1
  Li  Li3  1  0.172538  0.345076  0.057693  1
  Li  Li4  1  0.172538  0.827462  0.057693  1
  Li  Li5  1  0.654924  0.827462  0.057693  1
  Ti  Ti6  1  0.666667  0.333333  0.004892  1
  Ti  Ti7  1  0.333333  0.666667  0.504892  1
  V  V8  1  0.338541  0.169270  0.285641  1
  V  V9  1  0.830730  0.169270  0.285641  1
  V  V10  1  0.830730  0.661459  0.285641  1
  V  V11  1  0.169270  0.338541  0.785641  1
  V  V12  1  0.169270  0.830730  0.785641  1
  V  V13  1  0.661459  0.830730  0.785641  1
  O  O14  1  0.000000  0.000000  0.177885  1
  O  O15  1  0.000000  0.000000  0.677885  1
  O  O16  1  0.333886  0.166943  0.911191  1
  O  O17  1  0.517884  0.035768  0.153582  1
  O  O18  1  0.517884  0.482116  0.153582  1
  O  O19  1  0.666667  0.333333  0.400094  1
  O  O20  1  0.833057  0.166943  0.911191  1
  O  O21  1  0.964232  0.482116  0.153582  1
  O  O22  1  0.833057  0.666114  0.911191  1
  O  O23  1  0.166943  0.333886  0.411191  1
  O  O24  1  0.035768  0.517884  0.653582  1
  O  O25  1  0.482116  0.517884  0.653582  1
  O  O26  1  0.333333  0.666667  0.900094  1
  O  O27  1  0.166943  0.833057  0.411191  1
  O  O28  1  0.482116  0.964232  0.653582  1
  O  O29  1  0.666114  0.833057  0.411191  1
