# generated using pymatgen
data_Li2Mn2SbO6
_symmetry_space_group_name_H-M   'P 1'
_cell_length_a   5.36401898
_cell_length_b   5.36401898
_cell_length_c   10.29111780
_cell_angle_alpha   90.00000000
_cell_angle_beta   90.00000000
_cell_angle_gamma   117.33436094
_symmetry_Int_Tables_number   1
_chemical_formula_structural   Li2Mn2SbO6
_chemical_formula_sum   'Li4 Mn4 Sb2 O12'
_cell_volume   263.04094977
_cell_formula_units_Z   2
loop_
 _symmetry_equiv_pos_site_id
 _symmetry_equiv_pos_as_xyz
  1  'x, y, z'
loop_
 _atom_site_type_symbol
 _atom_site_label
 _atom_site_symmetry_multiplicity
 _atom_site_fract_x
 _atom_site_fract_y
 _atom_site_fract_z
 _atom_site_occupancy
  Li  Li0  1  0.607204  0.107204  0.750000  1
  Li  Li1  1  0.892796  0.392796  0.250000  1
  Li  Li2  1  0.107204  0.607204  0.750000  1
  Li  Li3  1  0.392796  0.892796  0.250000  1
  Mn  Mn4  1  0.834263  0.165737  0.500000  1
  Mn  Mn5  1  0.665737  0.334263  0.000000  1
  Mn  Mn6  1  0.334263  0.665737  1.000000  1
  Mn  Mn7  1  0.165737  0.834263  0.500000  1
  Sb  Sb8  1  0.000000  0.000000  0.000000  1
  Sb  Sb9  1  0.500000  0.500000  0.500000  1
  O  O10  1  0.708693  0.044571  0.113815  1
  O  O11  1  0.291307  0.955429  0.886185  1
  O  O12  1  0.544571  0.208693  0.386185  1
  O  O13  1  0.791307  0.455429  0.613815  1
  O  O14  1  0.181774  0.181774  0.588717  1
  O  O15  1  0.318226  0.318226  0.088717  1
  O  O16  1  0.681774  0.681774  0.911283  1
  O  O17  1  0.955429  0.291307  0.886185  1
  O  O18  1  0.818226  0.818226  0.411283  1
  O  O19  1  0.208693  0.544571  0.386185  1
  O  O20  1  0.455429  0.791307  0.613815  1
  O  O21  1  0.044571  0.708693  0.113815  1
