# generated using pymatgen
data_Mn3(SeO3)4
_symmetry_space_group_name_H-M   'P 1'
_cell_length_a   7.66699802
_cell_length_b   8.49961394
_cell_length_c   10.47724078
_cell_angle_alpha   106.47172437
_cell_angle_beta   88.23129137
_cell_angle_gamma   113.94131960
_symmetry_Int_Tables_number   1
_chemical_formula_structural   Mn3(SeO3)4
_chemical_formula_sum   'Mn6 Se8 O24'
_cell_volume   595.64367078
_cell_formula_units_Z   2
loop_
 _symmetry_equiv_pos_site_id
 _symmetry_equiv_pos_as_xyz
  1  'x, y, z'
loop_
 _atom_site_type_symbol
 _atom_site_label
 _atom_site_symmetry_multiplicity
 _atom_site_fract_x
 _atom_site_fract_y
 _atom_site_fract_z
 _atom_site_occupancy
  Mn  Mn0  1  0.000000  0.000000  0.000000  1
  Mn  Mn1  1  0.000000  0.000000  0.500000  1
  Mn  Mn2  1  0.947429  0.274840  0.780310  1
  Mn  Mn3  1  0.943982  0.625079  0.680213  1
  Mn  Mn4  1  0.056018  0.374921  0.319787  1
  Mn  Mn5  1  0.052571  0.725160  0.219690  1
  Se  Se6  1  0.719171  0.205564  0.484865  1
  Se  Se7  1  0.729791  0.241801  0.057809  1
  Se  Se8  1  0.685722  0.730227  0.205335  1
  Se  Se9  1  0.680643  0.809177  0.721746  1
  Se  Se10  1  0.319357  0.190823  0.278254  1
  Se  Se11  1  0.314278  0.269773  0.794665  1
  Se  Se12  1  0.270209  0.758199  0.942191  1
  Se  Se13  1  0.280829  0.794436  0.515135  1
  O  O14  1  0.893767  0.125561  0.421139  1
  O  O15  1  0.935592  0.410994  0.150055  1
  O  O16  1  0.767964  0.046349  0.037600  1
  O  O17  1  0.811636  0.335661  0.649954  1
  O  O18  1  0.745549  0.264763  0.898520  1
  O  O19  1  0.790704  0.366415  0.406797  1
  O  O20  1  0.881202  0.836755  0.822716  1
  O  O21  1  0.885355  0.761588  0.102696  1
  O  O22  1  0.852902  0.752190  0.340472  1
  O  O23  1  0.685686  0.628313  0.607015  1
  O  O24  1  0.783931  0.981637  0.644243  1
  O  O25  1  0.451568  0.485951  0.844730  1
  O  O26  1  0.548432  0.514049  0.155270  1
  O  O27  1  0.216069  0.018363  0.355757  1
  O  O28  1  0.314314  0.371687  0.392985  1
  O  O29  1  0.147098  0.247810  0.659528  1
  O  O30  1  0.114645  0.238412  0.897304  1
  O  O31  1  0.118798  0.163245  0.177284  1
  O  O32  1  0.209296  0.633585  0.593203  1
  O  O33  1  0.254451  0.735237  0.101480  1
  O  O34  1  0.188364  0.664339  0.350046  1
  O  O35  1  0.232036  0.953651  0.962400  1
  O  O36  1  0.064408  0.589006  0.849945  1
  O  O37  1  0.106233  0.874439  0.578861  1
