# generated using pymatgen
data_LiBH2C4O9
_symmetry_space_group_name_H-M   'P 1'
_cell_length_a   5.65596438
_cell_length_b   16.07750769
_cell_length_c   16.26743160
_cell_angle_alpha   90.00000000
_cell_angle_beta   90.00000000
_cell_angle_gamma   90.00000000
_symmetry_Int_Tables_number   1
_chemical_formula_structural   LiBH2C4O9
_chemical_formula_sum   'Li8 B8 H16 C32 O72'
_cell_volume   1479.25954754
_cell_formula_units_Z   8
loop_
 _symmetry_equiv_pos_site_id
 _symmetry_equiv_pos_as_xyz
  1  'x, y, z'
loop_
 _atom_site_type_symbol
 _atom_site_label
 _atom_site_symmetry_multiplicity
 _atom_site_fract_x
 _atom_site_fract_y
 _atom_site_fract_z
 _atom_site_occupancy
  Li  Li0  1  0.376816  0.751761  0.154428  1
  Li  Li1  1  0.623184  0.748239  0.654428  1
  Li  Li2  1  0.123184  0.251761  0.845572  1
  Li  Li3  1  0.876816  0.248239  0.345572  1
  Li  Li4  1  0.623184  0.248239  0.845572  1
  Li  Li5  1  0.376816  0.251761  0.345572  1
  Li  Li6  1  0.876816  0.748239  0.154428  1
  Li  Li7  1  0.123184  0.751761  0.654428  1
  B  B8  1  0.280843  0.557494  0.910216  1
  B  B9  1  0.719157  0.942506  0.410216  1
  B  B10  1  0.219157  0.057494  0.089784  1
  B  B11  1  0.780843  0.442506  0.589784  1
  B  B12  1  0.719157  0.442506  0.089784  1
  B  B13  1  0.280843  0.057494  0.589784  1
  B  B14  1  0.780843  0.942506  0.910216  1
  B  B15  1  0.219157  0.557494  0.410216  1
  H  H16  1  0.632907  0.771581  0.290751  1
  H  H17  1  0.367093  0.728419  0.790751  1
  H  H18  1  0.867093  0.271581  0.709249  1
  H  H19  1  0.132907  0.228419  0.209249  1
  H  H20  1  0.367093  0.228419  0.709249  1
  H  H21  1  0.632907  0.271581  0.209249  1
  H  H22  1  0.132907  0.728419  0.290751  1
  H  H23  1  0.867093  0.771581  0.790751  1
  H  H24  1  0.663549  0.854204  0.238057  1
  H  H25  1  0.336451  0.645796  0.738057  1
  H  H26  1  0.836451  0.354204  0.761943  1
  H  H27  1  0.163549  0.145796  0.261943  1
  H  H28  1  0.336451  0.145796  0.761943  1
  H  H29  1  0.663549  0.354204  0.261943  1
  H  H30  1  0.163549  0.645796  0.238057  1
  H  H31  1  0.836451  0.854204  0.738057  1
  C  C32  1  0.146923  0.654350  0.003942  1
  C  C33  1  0.853077  0.845650  0.503942  1
  C  C34  1  0.353077  0.154350  0.996058  1
  C  C35  1  0.646923  0.345650  0.496058  1
  C  C36  1  0.853077  0.345650  0.996058  1
  C  C37  1  0.146923  0.154350  0.496058  1
  C  C38  1  0.646923  0.845650  0.003942  1
  C  C39  1  0.353077  0.654350  0.503942  1
  C  C40  1  0.019610  0.667248  0.920813  1
  C  C41  1  0.980390  0.832752  0.420813  1
  C  C42  1  0.480390  0.167248  0.079187  1
  C  C43  1  0.519610  0.332752  0.579187  1
  C  C44  1  0.980390  0.332752  0.079187  1
  C  C45  1  0.019610  0.167248  0.579187  1
  C  C46  1  0.519610  0.832752  0.920813  1
  C  C47  1  0.480390  0.667248  0.420813  1
  C  C48  1  0.375369  0.425879  0.866879  1
  C  C49  1  0.624631  0.074121  0.366879  1
  C  C50  1  0.124631  0.925879  0.133121  1
  C  C51  1  0.875369  0.574121  0.633121  1
  C  C52  1  0.624631  0.574121  0.133121  1
  C  C53  1  0.375369  0.925879  0.633121  1
  C  C54  1  0.875369  0.074121  0.866879  1
  C  C55  1  0.124631  0.425879  0.366879  1
  C  C56  1  0.568735  0.486897  0.838062  1
  C  C57  1  0.431265  0.013103  0.338062  1
  C  C58  1  0.931265  0.986897  0.161938  1
  C  C59  1  0.068735  0.513103  0.661938  1
  C  C60  1  0.431265  0.513103  0.161938  1
  C  C61  1  0.568735  0.986897  0.661938  1
  C  C62  1  0.068735  0.013103  0.838062  1
  C  C63  1  0.931265  0.486897  0.338062  1
  O  O64  1  0.511144  0.561956  0.866809  1
  O  O65  1  0.488856  0.938044  0.366809  1
  O  O66  1  0.988856  0.061956  0.133191  1
  O  O67  1  0.011144  0.438044  0.633191  1
  O  O68  1  0.488856  0.438044  0.133191  1
  O  O69  1  0.511144  0.061956  0.633191  1
  O  O70  1  0.011144  0.938044  0.866809  1
  O  O71  1  0.988856  0.561956  0.366809  1
  O  O72  1  0.122124  0.696025  0.065997  1
  O  O73  1  0.877876  0.803975  0.565997  1
  O  O74  1  0.377876  0.196025  0.934003  1
  O  O75  1  0.622124  0.303975  0.434003  1
  O  O76  1  0.877876  0.303975  0.934003  1
  O  O77  1  0.122124  0.196025  0.434003  1
  O  O78  1  0.622124  0.803975  0.065997  1
  O  O79  1  0.377876  0.696025  0.565997  1
  O  O80  1  0.370233  0.351286  0.852423  1
  O  O81  1  0.629767  0.148714  0.352423  1
  O  O82  1  0.129767  0.851286  0.147577  1
  O  O83  1  0.870233  0.648714  0.647577  1
  O  O84  1  0.629767  0.648714  0.147577  1
  O  O85  1  0.370233  0.851286  0.647577  1
  O  O86  1  0.870233  0.148714  0.852423  1
  O  O87  1  0.129767  0.351286  0.352423  1
  O  O88  1  0.295075  0.590692  0.995669  1
  O  O89  1  0.704925  0.909308  0.495669  1
  O  O90  1  0.204925  0.090692  0.004331  1
  O  O91  1  0.795075  0.409308  0.504331  1
  O  O92  1  0.704925  0.409308  0.004331  1
  O  O93  1  0.295075  0.090692  0.504331  1
  O  O94  1  0.795075  0.909308  0.995669  1
  O  O95  1  0.204925  0.590692  0.495669  1
  O  O96  1  0.879435  0.722154  0.903896  1
  O  O97  1  0.120565  0.777846  0.403896  1
  O  O98  1  0.620565  0.222154  0.096104  1
  O  O99  1  0.379435  0.277846  0.596104  1
  O  O100  1  0.120565  0.277846  0.096104  1
  O  O101  1  0.879435  0.222154  0.596104  1
  O  O102  1  0.379435  0.777846  0.903896  1
  O  O103  1  0.620565  0.722154  0.403896  1
  O  O104  1  0.741163  0.469521  0.796787  1
  O  O105  1  0.258837  0.030479  0.296787  1
  O  O106  1  0.758837  0.969521  0.203213  1
  O  O107  1  0.241163  0.530479  0.703213  1
  O  O108  1  0.258837  0.530479  0.203213  1
  O  O109  1  0.741163  0.969521  0.703213  1
  O  O110  1  0.241163  0.030479  0.796787  1
  O  O111  1  0.758837  0.469521  0.296787  1
  O  O112  1  0.215128  0.467777  0.909478  1
  O  O113  1  0.784872  0.032223  0.409478  1
  O  O114  1  0.284872  0.967777  0.090522  1
  O  O115  1  0.715128  0.532223  0.590522  1
  O  O116  1  0.784872  0.532223  0.090522  1
  O  O117  1  0.215128  0.967777  0.590522  1
  O  O118  1  0.715128  0.032223  0.909478  1
  O  O119  1  0.284872  0.467777  0.409478  1
  O  O120  1  0.099491  0.609580  0.869279  1
  O  O121  1  0.900509  0.890420  0.369279  1
  O  O122  1  0.400509  0.109580  0.130721  1
  O  O123  1  0.599491  0.390420  0.630721  1
  O  O124  1  0.900509  0.390420  0.130721  1
  O  O125  1  0.099491  0.109580  0.630721  1
  O  O126  1  0.599491  0.890420  0.869279  1
  O  O127  1  0.400509  0.609580  0.369279  1
  O  O128  1  0.627285  0.794464  0.234749  1
  O  O129  1  0.372715  0.705536  0.734749  1
  O  O130  1  0.872715  0.294464  0.765251  1
  O  O131  1  0.127285  0.205536  0.265251  1
  O  O132  1  0.372715  0.205536  0.765251  1
  O  O133  1  0.627285  0.294464  0.265251  1
  O  O134  1  0.127285  0.705536  0.234749  1
  O  O135  1  0.872715  0.794464  0.734749  1
