# generated using pymatgen
data_Li2Fe3NiO8
_symmetry_space_group_name_H-M   'P 1'
_cell_length_a   5.69356958
_cell_length_b   5.69356958
_cell_length_c   5.92288648
_cell_angle_alpha   60.94356677
_cell_angle_beta   119.05643323
_cell_angle_gamma   119.65800193
_symmetry_Int_Tables_number   1
_chemical_formula_structural   Li2Fe3NiO8
_chemical_formula_sum   'Li2 Fe3 Ni1 O8'
_cell_volume   138.03128518
_cell_formula_units_Z   1
loop_
 _symmetry_equiv_pos_site_id
 _symmetry_equiv_pos_as_xyz
  1  'x, y, z'
loop_
 _atom_site_type_symbol
 _atom_site_label
 _atom_site_symmetry_multiplicity
 _atom_site_fract_x
 _atom_site_fract_y
 _atom_site_fract_z
 _atom_site_occupancy
  Li  Li0  1  0.000000  0.500000  0.000000  1
  Li  Li1  1  0.500000  0.000000  0.000000  1
  Fe  Fe2  1  1.000000  0.500000  0.500000  1
  Fe  Fe3  1  0.500000  0.000000  0.500000  1
  Fe  Fe4  1  0.500000  0.500000  0.500000  1
  Ni  Ni5  1  1.000000  0.000000  0.500000  1
  O  O6  1  0.230705  0.769295  0.706693  1
  O  O7  1  0.236856  0.253853  0.703646  1
  O  O8  1  0.746147  0.763144  0.703646  1
  O  O9  1  0.731706  0.268294  0.709080  1
  O  O10  1  0.268294  0.731706  0.290920  1
  O  O11  1  0.253853  0.236856  0.296354  1
  O  O12  1  0.763144  0.746147  0.296354  1
  O  O13  1  0.769295  0.230705  0.293307  1
