# generated using pymatgen
data_LiSbTe2WO12
_symmetry_space_group_name_H-M   'P 1'
_cell_length_a   5.14944622
_cell_length_b   5.34219491
_cell_length_c   7.43646574
_cell_angle_alpha   93.01450838
_cell_angle_beta   90.18459277
_cell_angle_gamma   90.08796962
_symmetry_Int_Tables_number   1
_chemical_formula_structural   LiSbTe2WO12
_chemical_formula_sum   'Li1 Sb1 Te2 W1 O12'
_cell_volume   204.28786953
_cell_formula_units_Z   1
loop_
 _symmetry_equiv_pos_site_id
 _symmetry_equiv_pos_as_xyz
  1  'x, y, z'
loop_
 _atom_site_type_symbol
 _atom_site_label
 _atom_site_symmetry_multiplicity
 _atom_site_fract_x
 _atom_site_fract_y
 _atom_site_fract_z
 _atom_site_occupancy
  Li  Li0  1  0.998942  0.474329  0.762206  1
  Sb  Sb1  1  0.498569  0.506808  0.492215  1
  Te  Te2  1  0.502434  0.508608  0.000377  1
  Te  Te3  1  0.000138  0.002845  0.495231  1
  W  W4  1  0.002562  0.009796  0.001210  1
  O  O5  1  0.308202  0.186471  0.433379  1
  O  O6  1  0.104479  0.010110  0.750217  1
  O  O7  1  0.305074  0.814046  0.052000  1
  O  O8  1  0.174503  0.690992  0.437709  1
  O  O9  1  0.808536  0.697784  0.934021  1
  O  O10  1  0.373863  0.508340  0.754379  1
  O  O11  1  0.630342  0.507488  0.240208  1
  O  O12  1  0.192896  0.317420  0.049908  1
  O  O13  1  0.818632  0.315341  0.559253  1
  O  O14  1  0.700956  0.207467  0.938100  1
  O  O15  1  0.884917  0.008390  0.243937  1
  O  O16  1  0.694956  0.819365  0.562847  1
