# generated using pymatgen
data_Fe7(OF7)2
_symmetry_space_group_name_H-M   'P 1'
_cell_length_a   4.84732129
_cell_length_b   6.07205587
_cell_length_c   10.39415989
_cell_angle_alpha   93.31504928
_cell_angle_beta   90.07153758
_cell_angle_gamma   92.11122796
_symmetry_Int_Tables_number   1
_chemical_formula_structural   Fe7(OF7)2
_chemical_formula_sum   'Fe7 O2 F14'
_cell_volume   305.21244340
_cell_formula_units_Z   1
loop_
 _symmetry_equiv_pos_site_id
 _symmetry_equiv_pos_as_xyz
  1  'x, y, z'
loop_
 _atom_site_type_symbol
 _atom_site_label
 _atom_site_symmetry_multiplicity
 _atom_site_fract_x
 _atom_site_fract_y
 _atom_site_fract_z
 _atom_site_occupancy
  Fe  Fe0  1  0.000000  0.500000  0.000000  1
  Fe  Fe1  1  0.509202  0.744309  0.241762  1
  Fe  Fe2  1  0.992919  0.227095  0.256470  1
  Fe  Fe3  1  0.500000  0.500000  0.500000  1
  Fe  Fe4  1  0.500000  0.000000  0.500000  1
  Fe  Fe5  1  0.007081  0.772905  0.743530  1
  Fe  Fe6  1  0.490798  0.255691  0.758238  1
  O  O7  1  0.671154  0.761307  0.410072  1
  O  O8  1  0.328846  0.238693  0.589928  1
  F  F9  1  0.260047  0.709530  0.091869  1
  F  F10  1  0.168130  0.265201  0.082782  1
  F  F11  1  0.759727  0.513459  0.160355  1
  F  F12  1  0.723148  0.983934  0.178005  1
  F  F13  1  0.261801  0.989470  0.331561  1
  F  F14  1  0.270639  0.491795  0.321399  1
  F  F15  1  0.754224  0.240669  0.418928  1
  F  F16  1  0.245776  0.759331  0.581072  1
  F  F17  1  0.729361  0.508205  0.678601  1
  F  F18  1  0.738199  0.010530  0.668439  1
  F  F19  1  0.276852  0.016066  0.821995  1
  F  F20  1  0.240273  0.486541  0.839645  1
  F  F21  1  0.831870  0.734799  0.917218  1
  F  F22  1  0.739953  0.290470  0.908131  1
