# generated using pymatgen
data_V3OF11
_symmetry_space_group_name_H-M   'P 1'
_cell_length_a   5.44221252
_cell_length_b   5.27528547
_cell_length_c   14.59581887
_cell_angle_alpha   90.00000000
_cell_angle_beta   100.45075900
_cell_angle_gamma   90.00000000
_symmetry_Int_Tables_number   1
_chemical_formula_structural   V3OF11
_chemical_formula_sum   'V6 O2 F22'
_cell_volume   412.08334411
_cell_formula_units_Z   2
loop_
 _symmetry_equiv_pos_site_id
 _symmetry_equiv_pos_as_xyz
  1  'x, y, z'
loop_
 _atom_site_type_symbol
 _atom_site_label
 _atom_site_symmetry_multiplicity
 _atom_site_fract_x
 _atom_site_fract_y
 _atom_site_fract_z
 _atom_site_occupancy
  V  V0  1  0.250036  0.000032  0.000012  1
  V  V1  1  0.415555  0.493174  0.327570  1
  V  V2  1  0.584445  0.993174  0.672430  1
  V  V3  1  0.749964  0.500032  0.999988  1
  V  V4  1  0.917436  0.998326  0.334194  1
  V  V5  1  0.082564  0.498326  0.665806  1
  O  O6  1  0.626621  0.917896  0.781706  1
  O  O7  1  0.373379  0.417896  0.218294  1
  F  F8  1  0.278187  0.799553  0.640847  1
  F  F9  1  0.441156  0.700418  0.974972  1
  F  F10  1  0.390387  0.295537  0.691208  1
  F  F11  1  0.293397  0.913759  0.118814  1
  F  F12  1  0.459695  0.586906  0.450875  1
  F  F13  1  0.540305  0.086906  0.549125  1
  F  F14  1  0.706603  0.413759  0.881186  1
  F  F15  1  0.609613  0.795537  0.308792  1
  F  F16  1  0.776414  0.706148  0.641016  1
  F  F17  1  0.941487  0.799466  0.975055  1
  F  F18  1  0.558844  0.200418  0.025028  1
  F  F19  1  0.721813  0.299553  0.359153  1
  F  F20  1  0.888255  0.201285  0.691507  1
  F  F21  1  0.793471  0.586498  0.118781  1
  F  F22  1  0.960640  0.915029  0.452463  1
  F  F23  1  0.126803  0.585974  0.784637  1
  F  F24  1  0.873197  0.085974  0.215363  1
  F  F25  1  0.039360  0.415029  0.547537  1
  F  F26  1  0.206529  0.086498  0.881219  1
  F  F27  1  0.111745  0.701285  0.308493  1
  F  F28  1  0.058513  0.299466  0.024945  1
  F  F29  1  0.223586  0.206148  0.358984  1
