# generated using pymatgen
data_LiTi3O6
_symmetry_space_group_name_H-M   'P 1'
_cell_length_a   7.27377175
_cell_length_b   7.27377175
_cell_length_c   5.00309968
_cell_angle_alpha   87.54819650
_cell_angle_beta   92.45180350
_cell_angle_gamma   156.49872181
_symmetry_Int_Tables_number   1
_chemical_formula_structural   LiTi3O6
_chemical_formula_sum   'Li1 Ti3 O6'
_cell_volume   105.45458746
_cell_formula_units_Z   1
loop_
 _symmetry_equiv_pos_site_id
 _symmetry_equiv_pos_as_xyz
  1  'x, y, z'
loop_
 _atom_site_type_symbol
 _atom_site_label
 _atom_site_symmetry_multiplicity
 _atom_site_fract_x
 _atom_site_fract_y
 _atom_site_fract_z
 _atom_site_occupancy
  Li  Li0  1  0.213805  0.786195  0.064896  1
  Ti  Ti1  1  0.652027  0.347973  0.530271  1
  Ti  Ti2  1  0.996365  0.003635  0.000125  1
  Ti  Ti3  1  0.346759  0.653241  0.479307  1
  O  O4  1  0.904362  0.095638  0.686299  1
  O  O5  1  0.768653  0.231347  0.290034  1
  O  O6  1  0.569621  0.430379  0.824484  1
  O  O7  1  0.432125  0.567875  0.183789  1
  O  O8  1  0.228586  0.771414  0.697025  1
  O  O9  1  0.099895  0.900105  0.304069  1
