# generated using pymatgen
data_LiSn2P4H3O16
_symmetry_space_group_name_H-M   'P 1'
_cell_length_a   4.97706797
_cell_length_b   7.63296451
_cell_length_c   8.15995560
_cell_angle_alpha   90.80012732
_cell_angle_beta   91.59346770
_cell_angle_gamma   102.62839866
_symmetry_Int_Tables_number   1
_chemical_formula_structural   LiSn2P4H3O16
_chemical_formula_sum   'Li1 Sn2 P4 H3 O16'
_cell_volume   302.31488292
_cell_formula_units_Z   1
loop_
 _symmetry_equiv_pos_site_id
 _symmetry_equiv_pos_as_xyz
  1  'x, y, z'
loop_
 _atom_site_type_symbol
 _atom_site_label
 _atom_site_symmetry_multiplicity
 _atom_site_fract_x
 _atom_site_fract_y
 _atom_site_fract_z
 _atom_site_occupancy
  Li  Li0  1  0.873734  0.333885  0.343761  1
  Sn  Sn1  1  0.001629  0.499956  0.996864  1
  Sn  Sn2  1  0.494891  0.994995  0.499705  1
  P  P3  1  0.119901  0.246925  0.664725  1
  P  P4  1  0.376167  0.233547  0.153105  1
  P  P5  1  0.617482  0.757229  0.840883  1
  P  P6  1  0.882970  0.753842  0.327371  1
  H  H7  1  0.441798  0.482302  0.641991  1
  H  H8  1  0.561053  0.554413  0.436053  1
  H  H9  1  0.953597  0.973759  0.983248  1
  O  O10  1  0.114085  0.846573  0.444516  1
  O  O11  1  0.023201  0.298145  0.829794  1
  O  O12  1  0.185444  0.375715  0.183063  1
  O  O13  1  0.276006  0.426360  0.576762  1
  O  O14  1  0.358725  0.665249  0.929598  1
  O  O15  1  0.544359  0.800867  0.661589  1
  O  O16  1  0.227354  0.069138  0.062294  1
  O  O17  1  0.320877  0.121177  0.682636  1
  O  O18  1  0.654250  0.860583  0.315977  1
  O  O19  1  0.756320  0.931785  0.932549  1
  O  O20  1  0.477783  0.195383  0.332512  1
  O  O21  1  0.641943  0.340918  0.075648  1
  O  O22  1  0.754167  0.564189  0.409101  1
  O  O23  1  0.802047  0.617113  0.819903  1
  O  O24  1  0.980400  0.705720  0.161207  1
  O  O25  1  0.880065  0.174981  0.540586  1
