# generated using pymatgen
data_LiFeF4
_symmetry_space_group_name_H-M   'P 1'
_cell_length_a   6.67619706
_cell_length_b   6.67619706
_cell_length_c   6.67619706
_cell_angle_alpha   136.59046308
_cell_angle_beta   136.59046308
_cell_angle_gamma   63.06877909
_symmetry_Int_Tables_number   1
_chemical_formula_structural   LiFeF4
_chemical_formula_sum   'Li2 Fe2 F8'
_cell_volume   138.75343843
_cell_formula_units_Z   2
loop_
 _symmetry_equiv_pos_site_id
 _symmetry_equiv_pos_as_xyz
  1  'x, y, z'
loop_
 _atom_site_type_symbol
 _atom_site_label
 _atom_site_symmetry_multiplicity
 _atom_site_fract_x
 _atom_site_fract_y
 _atom_site_fract_z
 _atom_site_occupancy
  Li  Li0  1  0.750000  0.250000  0.500000  1
  Li  Li1  1  0.000000  0.000000  0.000000  1
  Fe  Fe2  1  0.500000  0.500000  0.000000  1
  Fe  Fe3  1  0.250000  0.750000  0.500000  1
  F  F4  1  0.201237  0.691760  0.031680  1
  F  F5  1  0.441760  0.910080  0.990523  1
  F  F6  1  0.919557  0.451237  0.009477  1
  F  F7  1  0.660080  0.169557  0.968320  1
  F  F8  1  0.089920  0.080443  0.531680  1
  F  F9  1  0.830443  0.798763  0.490523  1
  F  F10  1  0.308240  0.339920  0.509477  1
  F  F11  1  0.548763  0.558240  0.468320  1
