# generated using pymatgen
data_Li3Fe(CoO2)4
_symmetry_space_group_name_H-M   'P 1'
_cell_length_a   5.85301612
_cell_length_b   5.89498176
_cell_length_c   5.95346026
_cell_angle_alpha   119.62303306
_cell_angle_beta   119.37664650
_cell_angle_gamma   90.00257877
_symmetry_Int_Tables_number   1
_chemical_formula_structural   Li3Fe(CoO2)4
_chemical_formula_sum   'Li3 Fe1 Co4 O8'
_cell_volume   147.41515128
_cell_formula_units_Z   1
loop_
 _symmetry_equiv_pos_site_id
 _symmetry_equiv_pos_as_xyz
  1  'x, y, z'
loop_
 _atom_site_type_symbol
 _atom_site_label
 _atom_site_symmetry_multiplicity
 _atom_site_fract_x
 _atom_site_fract_y
 _atom_site_fract_z
 _atom_site_occupancy
  Li  Li0  1  0.000000  0.000000  0.500000  1
  Li  Li1  1  0.000000  0.500000  0.000000  1
  Li  Li2  1  0.500000  0.000000  0.500000  1
  Fe  Fe3  1  0.500000  0.000000  0.000000  1
  Co  Co4  1  0.500000  0.500000  0.000000  1
  Co  Co5  1  0.000000  0.000000  0.000000  1
  Co  Co6  1  0.000000  0.500000  0.500000  1
  Co  Co7  1  0.500000  0.500000  0.500000  1
  O  O8  1  0.726127  0.261196  0.477787  1
  O  O9  1  0.753091  0.762891  0.014194  1
  O  O10  1  0.253084  0.754287  0.996607  1
  O  O11  1  0.265545  0.266968  0.502043  1
  O  O12  1  0.734455  0.733032  0.497957  1
  O  O13  1  0.746916  0.245713  0.003393  1
  O  O14  1  0.246909  0.237109  0.985806  1
  O  O15  1  0.273873  0.738804  0.522213  1
