# generated using pymatgen
data_Na3CuSiCO7
_symmetry_space_group_name_H-M   'P 1'
_cell_length_a   5.15325323
_cell_length_b   6.54588380
_cell_length_c   9.10060461
_cell_angle_alpha   90.00000000
_cell_angle_beta   91.01211665
_cell_angle_gamma   90.00000000
_symmetry_Int_Tables_number   1
_chemical_formula_structural   Na3CuSiCO7
_chemical_formula_sum   'Na6 Cu2 Si2 C2 O14'
_cell_volume   306.93913070
_cell_formula_units_Z   2
loop_
 _symmetry_equiv_pos_site_id
 _symmetry_equiv_pos_as_xyz
  1  'x, y, z'
loop_
 _atom_site_type_symbol
 _atom_site_label
 _atom_site_symmetry_multiplicity
 _atom_site_fract_x
 _atom_site_fract_y
 _atom_site_fract_z
 _atom_site_occupancy
  Na  Na0  1  0.235343  0.750000  0.589899  1
  Na  Na1  1  0.747833  0.991095  0.766996  1
  Na  Na2  1  0.747833  0.508905  0.766996  1
  Na  Na3  1  0.252167  0.491095  0.233004  1
  Na  Na4  1  0.252167  0.008905  0.233004  1
  Na  Na5  1  0.764657  0.250000  0.410101  1
  Cu  Cu6  1  0.210643  0.250000  0.849111  1
  Cu  Cu7  1  0.789357  0.750000  0.150889  1
  Si  Si8  1  0.292891  0.750000  0.923559  1
  Si  Si9  1  0.707109  0.250000  0.076441  1
  C  C10  1  0.271778  0.250000  0.559767  1
  C  C11  1  0.728222  0.750000  0.440233  1
  O  O12  1  0.715260  0.750000  0.581368  1
  O  O13  1  0.047697  0.250000  0.622969  1
  O  O14  1  0.480105  0.250000  0.641482  1
  O  O15  1  0.220098  0.945603  0.815310  1
  O  O16  1  0.220098  0.554397  0.815310  1
  O  O17  1  0.609748  0.750000  0.958277  1
  O  O18  1  0.850557  0.250000  0.917998  1
  O  O19  1  0.149443  0.750000  0.082002  1
  O  O20  1  0.390252  0.250000  0.041723  1
  O  O21  1  0.779902  0.445603  0.184690  1
  O  O22  1  0.779902  0.054397  0.184690  1
  O  O23  1  0.519895  0.750000  0.358518  1
  O  O24  1  0.952303  0.750000  0.377031  1
  O  O25  1  0.284740  0.250000  0.418632  1
