# generated using pymatgen
data_Na4Fe2C4SO16
_symmetry_space_group_name_H-M   'P 1'
_cell_length_a   9.96065694
_cell_length_b   9.93187770
_cell_length_c   9.73036079
_cell_angle_alpha   60.86342319
_cell_angle_beta   60.56781198
_cell_angle_gamma   58.56876483
_symmetry_Int_Tables_number   1
_chemical_formula_structural   Na4Fe2C4SO16
_chemical_formula_sum   'Na8 Fe4 C8 S2 O32'
_cell_volume   680.02724796
_cell_formula_units_Z   2
loop_
 _symmetry_equiv_pos_site_id
 _symmetry_equiv_pos_as_xyz
  1  'x, y, z'
loop_
 _atom_site_type_symbol
 _atom_site_label
 _atom_site_symmetry_multiplicity
 _atom_site_fract_x
 _atom_site_fract_y
 _atom_site_fract_z
 _atom_site_occupancy
  Na  Na0  1  0.541366  0.958634  0.541366  1
  Na  Na1  1  0.958986  0.541014  0.541014  1
  Na  Na2  1  0.708986  0.291014  0.291014  1
  Na  Na3  1  0.291366  0.708634  0.291366  1
  Na  Na4  1  0.958634  0.541366  0.958634  1
  Na  Na5  1  0.541014  0.958986  0.958986  1
  Na  Na6  1  0.291014  0.708986  0.708986  1
  Na  Na7  1  0.708634  0.291366  0.708634  1
  Fe  Fe8  1  0.125000  0.125000  0.625000  1
  Fe  Fe9  1  0.125000  0.125000  0.125000  1
  Fe  Fe10  1  0.625000  0.125000  0.125000  1
  Fe  Fe11  1  0.125000  0.625000  0.125000  1
  C  C12  1  0.913121  0.916045  0.267964  1
  C  C13  1  0.333955  0.336879  0.347130  1
  C  C14  1  0.267964  0.902870  0.913121  1
  C  C15  1  0.902870  0.267964  0.916045  1
  C  C16  1  0.347130  0.982036  0.333955  1
  C  C17  1  0.982036  0.347130  0.336879  1
  C  C18  1  0.916045  0.913121  0.902870  1
  C  C19  1  0.336879  0.333955  0.982036  1
  S  S20  1  0.500000  0.500000  0.500000  1
  S  S21  1  0.750000  0.750000  0.750000  1
  O  O22  1  0.768616  0.944042  0.272463  1
  O  O23  1  0.568362  0.314049  0.558565  1
  O  O24  1  0.940871  0.032792  0.262051  1
  O  O25  1  0.217208  0.309129  0.485714  1
  O  O26  1  0.262051  0.764286  0.940871  1
  O  O27  1  0.480973  0.220985  0.321314  1
  O  O28  1  0.558565  0.559023  0.568362  1
  O  O29  1  0.314049  0.568362  0.559023  1
  O  O30  1  0.976728  0.321314  0.220985  1
  O  O31  1  0.764286  0.262051  0.032792  1
  O  O32  1  0.305958  0.481384  0.235121  1
  O  O33  1  0.559023  0.558565  0.314049  1
  O  O34  1  0.272463  0.014879  0.768616  1
  O  O35  1  0.014879  0.272463  0.944042  1
  O  O36  1  0.029015  0.769027  0.273272  1
  O  O37  1  0.321314  0.976728  0.480973  1
  O  O38  1  0.928686  0.273272  0.769027  1
  O  O39  1  0.220985  0.480973  0.976728  1
  O  O40  1  0.235121  0.977537  0.305958  1
  O  O41  1  0.977537  0.235121  0.481384  1
  O  O42  1  0.690977  0.691435  0.935951  1
  O  O43  1  0.944042  0.768616  0.014879  1
  O  O44  1  0.485714  0.987949  0.217208  1
  O  O45  1  0.273272  0.928686  0.029015  1
  O  O46  1  0.935951  0.681638  0.690977  1
  O  O47  1  0.691435  0.690977  0.681638  1
  O  O48  1  0.769027  0.029015  0.928686  1
  O  O49  1  0.987949  0.485714  0.309129  1
  O  O50  1  0.032792  0.940871  0.764286  1
  O  O51  1  0.309129  0.217208  0.987949  1
  O  O52  1  0.681638  0.935951  0.691435  1
  O  O53  1  0.481384  0.305958  0.977537  1
