# generated using pymatgen
data_TiMn3O8
_symmetry_space_group_name_H-M   'P 1'
_cell_length_a   5.96921583
_cell_length_b   5.96921583
_cell_length_c   5.96921583
_cell_angle_alpha   59.13454397
_cell_angle_beta   59.13454397
_cell_angle_gamma   59.13454397
_symmetry_Int_Tables_number   1
_chemical_formula_structural   TiMn3O8
_chemical_formula_sum   'Ti1 Mn3 O8'
_cell_volume   147.42949840
_cell_formula_units_Z   1
loop_
 _symmetry_equiv_pos_site_id
 _symmetry_equiv_pos_as_xyz
  1  'x, y, z'
loop_
 _atom_site_type_symbol
 _atom_site_label
 _atom_site_symmetry_multiplicity
 _atom_site_fract_x
 _atom_site_fract_y
 _atom_site_fract_z
 _atom_site_occupancy
  Ti  Ti0  1  0.000000  1.000000  0.000000  1
  Mn  Mn1  1  0.500000  0.500000  0.000000  1
  Mn  Mn2  1  0.000000  0.500000  0.500000  1
  Mn  Mn3  1  0.500000  0.000000  0.500000  1
  O  O4  1  0.268119  0.268119  0.268119  1
  O  O5  1  0.765279  0.765279  0.273451  1
  O  O6  1  0.273451  0.765279  0.765279  1
  O  O7  1  0.731881  0.731881  0.731881  1
  O  O8  1  0.765279  0.273451  0.765279  1
  O  O9  1  0.234721  0.234721  0.726549  1
  O  O10  1  0.726549  0.234721  0.234721  1
  O  O11  1  0.234721  0.726549  0.234721  1
