# generated using pymatgen
data_FeOF
_symmetry_space_group_name_H-M   'P 1'
_cell_length_a   9.46062464
_cell_length_b   3.11190349
_cell_length_c   14.24690626
_cell_angle_alpha   90.00000000
_cell_angle_beta   90.05095362
_cell_angle_gamma   90.00000000
_symmetry_Int_Tables_number   1
_chemical_formula_structural   FeOF
_chemical_formula_sum   'Fe12 O12 F12'
_cell_volume   419.43660204
_cell_formula_units_Z   12
loop_
 _symmetry_equiv_pos_site_id
 _symmetry_equiv_pos_as_xyz
  1  'x, y, z'
loop_
 _atom_site_type_symbol
 _atom_site_label
 _atom_site_symmetry_multiplicity
 _atom_site_fract_x
 _atom_site_fract_y
 _atom_site_fract_z
 _atom_site_occupancy
  Fe  Fe0  1  0.981035  0.000000  0.001755  1
  Fe  Fe1  1  0.987388  0.000000  0.671406  1
  Fe  Fe2  1  0.981074  0.000000  0.338493  1
  Fe  Fe3  1  0.772497  0.500000  0.833124  1
  Fe  Fe4  1  0.771890  0.500000  0.506151  1
  Fe  Fe5  1  0.772859  0.500000  0.170361  1
  Fe  Fe6  1  0.480519  0.000000  0.670143  1
  Fe  Fe7  1  0.484642  0.000000  0.004351  1
  Fe  Fe8  1  0.483852  0.000000  0.337836  1
  Fe  Fe9  1  0.238047  0.500000  0.814495  1
  Fe  Fe10  1  0.270324  0.500000  0.503056  1
  Fe  Fe11  1  0.269362  0.500000  0.170835  1
  O  O12  1  0.899773  0.500000  0.729446  1
  O  O13  1  0.904340  0.500000  0.399694  1
  O  O14  1  0.902939  0.500000  0.064671  1
  O  O15  1  0.847563  0.000000  0.898152  1
  O  O16  1  0.848456  0.000000  0.232103  1
  O  O17  1  0.848787  0.000000  0.566501  1
  O  O18  1  0.404586  0.500000  0.733964  1
  O  O19  1  0.399845  0.500000  0.060902  1
  O  O20  1  0.404840  0.500000  0.398353  1
  O  O21  1  0.348713  0.000000  0.565059  1
  O  O22  1  0.350826  0.000000  0.230959  1
  O  O23  1  0.147150  0.000000  0.764409  1
  F  F24  1  0.652208  0.000000  0.767149  1
  F  F25  1  0.653082  0.000000  0.435318  1
  F  F26  1  0.650240  0.000000  0.099350  1
  F  F27  1  0.592028  0.500000  0.932471  1
  F  F28  1  0.598125  0.500000  0.602195  1
  F  F29  1  0.600442  0.500000  0.267415  1
  F  F30  1  0.344435  0.000000  0.896409  1
  F  F31  1  0.153006  0.000000  0.101716  1
  F  F32  1  0.154262  0.000000  0.432443  1
  F  F33  1  0.102861  0.500000  0.936692  1
  F  F34  1  0.098773  0.500000  0.595352  1
  F  F35  1  0.099235  0.500000  0.267271  1
