# generated using pymatgen
data_Li2Cr2O7
_symmetry_space_group_name_H-M   'P 1'
_cell_length_a   6.47582126
_cell_length_b   7.08585812
_cell_length_c   12.63282873
_cell_angle_alpha   94.81399658
_cell_angle_beta   96.58857421
_cell_angle_gamma   90.91571914
_symmetry_Int_Tables_number   1
_chemical_formula_structural   Li2Cr2O7
_chemical_formula_sum   'Li8 Cr8 O28'
_cell_volume   573.62760464
_cell_formula_units_Z   4
loop_
 _symmetry_equiv_pos_site_id
 _symmetry_equiv_pos_as_xyz
  1  'x, y, z'
loop_
 _atom_site_type_symbol
 _atom_site_label
 _atom_site_symmetry_multiplicity
 _atom_site_fract_x
 _atom_site_fract_y
 _atom_site_fract_z
 _atom_site_occupancy
  Li  Li0  1  0.652520  0.149499  0.890677  1
  Li  Li1  1  0.067576  0.860820  0.846944  1
  Li  Li2  1  0.300554  0.251306  0.650443  1
  Li  Li3  1  0.644580  0.606109  0.607071  1
  Li  Li4  1  0.355420  0.393891  0.392929  1
  Li  Li5  1  0.699446  0.748694  0.349557  1
  Li  Li6  1  0.932424  0.139180  0.153056  1
  Li  Li7  1  0.347480  0.850501  0.109323  1
  Cr  Cr8  1  0.148795  0.318738  0.904913  1
  Cr  Cr9  1  0.565417  0.701908  0.878926  1
  Cr  Cr10  1  0.777308  0.077946  0.617477  1
  Cr  Cr11  1  0.172662  0.690969  0.590030  1
  Cr  Cr12  1  0.827338  0.309031  0.409970  1
  Cr  Cr13  1  0.222692  0.922054  0.382523  1
  Cr  Cr14  1  0.434583  0.298092  0.121074  1
  Cr  Cr15  1  0.851205  0.681262  0.095087  1
  O  O16  1  0.706272  0.571317  0.976398  1
  O  O17  1  0.964483  0.180595  0.939083  1
  O  O18  1  0.363656  0.802300  0.928179  1
  O  O19  1  0.313571  0.193817  0.838206  1
  O  O20  1  0.049760  0.487464  0.838871  1
  O  O21  1  0.723051  0.868526  0.848449  1
  O  O22  1  0.498678  0.552131  0.776465  1
  O  O23  1  0.950604  0.038697  0.716332  1
  O  O24  1  0.594328  0.207486  0.663535  1
  O  O25  1  0.968709  0.619547  0.642046  1
  O  O26  1  0.301040  0.853641  0.669290  1
  O  O27  1  0.328250  0.510023  0.564671  1
  O  O28  1  0.916440  0.210830  0.532008  1
  O  O29  1  0.680050  0.878210  0.556222  1
  O  O30  1  0.319950  0.121790  0.443778  1
  O  O31  1  0.083560  0.789170  0.467992  1
  O  O32  1  0.671750  0.489977  0.435329  1
  O  O33  1  0.698960  0.146359  0.330710  1
  O  O34  1  0.031291  0.380453  0.357954  1
  O  O35  1  0.405672  0.792514  0.336465  1
  O  O36  1  0.049396  0.961303  0.283668  1
  O  O37  1  0.501322  0.447869  0.223535  1
  O  O38  1  0.276949  0.131474  0.151551  1
  O  O39  1  0.950240  0.512536  0.161129  1
  O  O40  1  0.686429  0.806183  0.161794  1
  O  O41  1  0.636344  0.197700  0.071821  1
  O  O42  1  0.035517  0.819405  0.060917  1
  O  O43  1  0.293728  0.428683  0.023602  1
