# generated using pymatgen
data_Ba2LaCl7
_symmetry_space_group_name_H-M   'P 1'
_cell_length_a   7.57331292
_cell_length_b   14.05944980
_cell_length_c   12.23817613
_cell_angle_alpha   90.00000000
_cell_angle_beta   92.87195593
_cell_angle_gamma   90.00000000
_symmetry_Int_Tables_number   1
_chemical_formula_structural   Ba2LaCl7
_chemical_formula_sum   'Ba8 La4 Cl28'
_cell_volume   1301.44287518
_cell_formula_units_Z   4
loop_
 _symmetry_equiv_pos_site_id
 _symmetry_equiv_pos_as_xyz
  1  'x, y, z'
loop_
 _atom_site_type_symbol
 _atom_site_label
 _atom_site_symmetry_multiplicity
 _atom_site_fract_x
 _atom_site_fract_y
 _atom_site_fract_z
 _atom_site_occupancy
  Ba  Ba0  1  0.318321  0.555698  0.798817  1
  Ba  Ba1  1  0.208435  0.866768  0.784026  1
  Ba  Ba2  1  0.791565  0.366768  0.715974  1
  Ba  Ba3  1  0.681679  0.055698  0.701183  1
  Ba  Ba4  1  0.318321  0.944302  0.298817  1
  Ba  Ba5  1  0.208435  0.633232  0.284026  1
  Ba  Ba6  1  0.791565  0.133232  0.215974  1
  Ba  Ba7  1  0.681679  0.444302  0.201183  1
  La  La8  1  0.203200  0.233603  0.973870  1
  La  La9  1  0.796800  0.733603  0.526130  1
  La  La10  1  0.203200  0.266397  0.473870  1
  La  La11  1  0.796800  0.766397  0.026130  1
  Cl  Cl12  1  0.852115  0.186519  0.900772  1
  Cl  Cl13  1  0.063210  0.411981  0.899510  1
  Cl  Cl14  1  0.514741  0.381885  0.904117  1
  Cl  Cl15  1  0.856589  0.925557  0.889370  1
  Cl  Cl16  1  0.352461  0.073155  0.856914  1
  Cl  Cl17  1  0.998103  0.689299  0.855673  1
  Cl  Cl18  1  0.531144  0.744108  0.855581  1
  Cl  Cl19  1  0.468856  0.244108  0.644419  1
  Cl  Cl20  1  0.001897  0.189299  0.644327  1
  Cl  Cl21  1  0.647539  0.573155  0.643086  1
  Cl  Cl22  1  0.143411  0.425557  0.610630  1
  Cl  Cl23  1  0.485259  0.881885  0.595883  1
  Cl  Cl24  1  0.936790  0.911981  0.600490  1
  Cl  Cl25  1  0.147885  0.686519  0.599228  1
  Cl  Cl26  1  0.852115  0.313481  0.400772  1
  Cl  Cl27  1  0.063210  0.088019  0.399510  1
  Cl  Cl28  1  0.514741  0.118115  0.404117  1
  Cl  Cl29  1  0.856589  0.574443  0.389370  1
  Cl  Cl30  1  0.352461  0.426845  0.356914  1
  Cl  Cl31  1  0.998103  0.810701  0.355673  1
  Cl  Cl32  1  0.531144  0.755892  0.355581  1
  Cl  Cl33  1  0.468856  0.255892  0.144419  1
  Cl  Cl34  1  0.001897  0.310701  0.144327  1
  Cl  Cl35  1  0.647539  0.926845  0.143086  1
  Cl  Cl36  1  0.143411  0.074443  0.110630  1
  Cl  Cl37  1  0.485259  0.618115  0.095883  1
  Cl  Cl38  1  0.936790  0.588019  0.100490  1
  Cl  Cl39  1  0.147885  0.813481  0.099228  1
