# generated using pymatgen
data_VO2
_symmetry_space_group_name_H-M   'P 1'
_cell_length_a   2.93799323
_cell_length_b   4.94963118
_cell_length_c   9.35738283
_cell_angle_alpha   90.03499559
_cell_angle_beta   92.41619598
_cell_angle_gamma   90.37544597
_symmetry_Int_Tables_number   1
_chemical_formula_structural   VO2
_chemical_formula_sum   'V4 O8'
_cell_volume   135.95095174
_cell_formula_units_Z   4
loop_
 _symmetry_equiv_pos_site_id
 _symmetry_equiv_pos_as_xyz
  1  'x, y, z'
loop_
 _atom_site_type_symbol
 _atom_site_label
 _atom_site_symmetry_multiplicity
 _atom_site_fract_x
 _atom_site_fract_y
 _atom_site_fract_z
 _atom_site_occupancy
  V  V0  1  0.239073  0.577110  0.361882  1
  V  V1  1  0.243825  0.918722  0.859885  1
  V  V2  1  0.751929  0.418190  0.636430  1
  V  V3  1  0.762559  0.071401  0.133170  1
  O  O4  1  0.741076  0.704709  0.477086  1
  O  O5  1  0.266073  0.205254  0.021810  1
  O  O6  1  0.756543  0.794982  0.977674  1
  O  O7  1  0.256781  0.289096  0.526334  1
  O  O8  1  0.735098  0.117769  0.766353  1
  O  O9  1  0.774049  0.392797  0.261868  1
  O  O10  1  0.234701  0.894904  0.239301  1
  O  O11  1  0.238292  0.615066  0.738208  1
