# generated using pymatgen
data_LiCoSiO4
_symmetry_space_group_name_H-M   'P 1'
_cell_length_a   10.67555016
_cell_length_b   10.67555016
_cell_length_c   12.00870591
_cell_angle_alpha   90.00000000
_cell_angle_beta   90.00000000
_cell_angle_gamma   120.00000000
_symmetry_Int_Tables_number   1
_chemical_formula_structural   LiCoSiO4
_chemical_formula_sum   'Li12 Co12 Si12 O48'
_cell_volume   1185.24292486
_cell_formula_units_Z   12
loop_
 _symmetry_equiv_pos_site_id
 _symmetry_equiv_pos_as_xyz
  1  'x, y, z'
loop_
 _atom_site_type_symbol
 _atom_site_label
 _atom_site_symmetry_multiplicity
 _atom_site_fract_x
 _atom_site_fract_y
 _atom_site_fract_z
 _atom_site_occupancy
  Li  Li0  1  0.000000  0.500000  0.008945  1
  Li  Li1  1  0.000000  0.500000  0.657722  1
  Li  Li2  1  0.000000  0.500000  0.333333  1
  Li  Li3  1  0.000000  0.000000  0.166667  1
  Li  Li4  1  0.000000  0.000000  0.500000  1
  Li  Li5  1  0.000000  0.000000  0.833333  1
  Li  Li6  1  0.500000  0.500000  0.342278  1
  Li  Li7  1  0.500000  0.500000  0.666667  1
  Li  Li8  1  0.500000  0.500000  0.991055  1
  Li  Li9  1  0.500000  0.000000  0.324388  1
  Li  Li10  1  0.500000  0.000000  0.000000  1
  Li  Li11  1  0.500000  0.000000  0.675612  1
  Co  Co12  1  0.000000  0.747419  0.833333  1
  Co  Co13  1  0.000000  0.252581  0.833333  1
  Co  Co14  1  0.250323  0.749677  0.166667  1
  Co  Co15  1  0.250323  0.500647  0.500000  1
  Co  Co16  1  0.499353  0.749677  0.833333  1
  Co  Co17  1  0.252581  0.252581  0.166667  1
  Co  Co18  1  0.252581  0.000000  0.500000  1
  Co  Co19  1  0.747419  0.747419  0.166667  1
  Co  Co20  1  0.500647  0.250323  0.833333  1
  Co  Co21  1  0.749677  0.499353  0.500000  1
  Co  Co22  1  0.749677  0.250323  0.166667  1
  Co  Co23  1  0.747419  0.000000  0.500000  1
  Si  Si24  1  0.000000  0.754319  0.333333  1
  Si  Si25  1  0.247985  0.752015  0.666667  1
  Si  Si26  1  0.000000  0.245681  0.333333  1
  Si  Si27  1  0.247985  0.495971  0.000000  1
  Si  Si28  1  0.245681  0.245681  0.666667  1
  Si  Si29  1  0.504029  0.752015  0.333333  1
  Si  Si30  1  0.245681  0.000000  0.000000  1
  Si  Si31  1  0.495971  0.247985  0.333333  1
  Si  Si32  1  0.754319  0.754319  0.666667  1
  Si  Si33  1  0.752015  0.504029  0.000000  1
  Si  Si34  1  0.752015  0.247985  0.666667  1
  Si  Si35  1  0.754319  0.000000  0.000000  1
  O  O36  1  0.079154  0.887237  0.423004  1
  O  O37  1  0.112763  0.920846  0.910329  1
  O  O38  1  0.095130  0.694308  0.734580  1
  O  O39  1  0.105514  0.705347  0.268940  1
  O  O40  1  0.294653  0.894486  0.064393  1
  O  O41  1  0.305692  0.904870  0.598754  1
  O  O42  1  0.197154  0.610403  0.586419  1
  O  O43  1  0.095130  0.400822  0.932087  1
  O  O44  1  0.197154  0.586751  0.080248  1
  O  O45  1  0.105514  0.400167  0.397727  1
  O  O46  1  0.079154  0.191918  0.243663  1
  O  O47  1  0.389597  0.802846  0.746915  1
  O  O48  1  0.413249  0.802846  0.253085  1
  O  O49  1  0.112763  0.191918  0.756337  1
  O  O50  1  0.294653  0.400167  0.602273  1
  O  O51  1  0.389597  0.586751  0.919752  1
  O  O52  1  0.305692  0.400822  0.067913  1
  O  O53  1  0.413249  0.610403  0.413581  1
  O  O54  1  0.191918  0.112763  0.576996  1
  O  O55  1  0.191918  0.079154  0.089671  1
  O  O56  1  0.599178  0.904870  0.401246  1
  O  O57  1  0.599833  0.894486  0.935607  1
  O  O58  1  0.599833  0.705347  0.731060  1
  O  O59  1  0.400822  0.305692  0.265420  1
  O  O60  1  0.599178  0.694308  0.265420  1
  O  O61  1  0.400167  0.294653  0.731060  1
  O  O62  1  0.400167  0.105514  0.935607  1
  O  O63  1  0.400822  0.095130  0.401246  1
  O  O64  1  0.808082  0.920846  0.089671  1
  O  O65  1  0.808082  0.887237  0.576996  1
  O  O66  1  0.586751  0.389597  0.413581  1
  O  O67  1  0.694308  0.599178  0.067913  1
  O  O68  1  0.610403  0.413249  0.919752  1
  O  O69  1  0.705347  0.599833  0.602273  1
  O  O70  1  0.887237  0.808082  0.756337  1
  O  O71  1  0.586751  0.197154  0.253085  1
  O  O72  1  0.610403  0.197154  0.746915  1
  O  O73  1  0.920846  0.808082  0.243663  1
  O  O74  1  0.894486  0.599833  0.397727  1
  O  O75  1  0.802846  0.413249  0.080248  1
  O  O76  1  0.904870  0.599178  0.932087  1
  O  O77  1  0.802846  0.389597  0.586419  1
  O  O78  1  0.694308  0.095130  0.598754  1
  O  O79  1  0.705347  0.105514  0.064393  1
  O  O80  1  0.894486  0.294653  0.268940  1
  O  O81  1  0.904870  0.305692  0.734580  1
  O  O82  1  0.887237  0.079154  0.910329  1
  O  O83  1  0.920846  0.112763  0.423004  1
