# generated using pymatgen
data_Li3V2O6
_symmetry_space_group_name_H-M   'P 1'
_cell_length_a   4.98571509
_cell_length_b   5.09131040
_cell_length_c   5.16367741
_cell_angle_alpha   100.25780661
_cell_angle_beta   101.62565915
_cell_angle_gamma   118.43429337
_symmetry_Int_Tables_number   1
_chemical_formula_structural   Li3V2O6
_chemical_formula_sum   'Li3 V2 O6'
_cell_volume   107.03095681
_cell_formula_units_Z   1
loop_
 _symmetry_equiv_pos_site_id
 _symmetry_equiv_pos_as_xyz
  1  'x, y, z'
loop_
 _atom_site_type_symbol
 _atom_site_label
 _atom_site_symmetry_multiplicity
 _atom_site_fract_x
 _atom_site_fract_y
 _atom_site_fract_z
 _atom_site_occupancy
  Li  Li0  1  0.004186  0.495228  0.997654  1
  Li  Li1  1  0.652028  0.849417  0.997557  1
  Li  Li2  1  0.354655  0.152154  0.005610  1
  V  V3  1  0.833106  0.670390  0.489341  1
  V  V4  1  0.167487  0.318501  0.510341  1
  O  O5  1  0.808597  0.293508  0.259824  1
  O  O6  1  0.202338  0.699226  0.733941  1
  O  O7  1  0.965163  0.094118  0.726495  1
  O  O8  1  0.426789  0.543600  0.272649  1
  O  O9  1  0.574949  0.454319  0.730158  1
  O  O10  1  0.058454  0.933667  0.273633  1
