# generated using pymatgen
data_LiCoOF2
_symmetry_space_group_name_H-M   'P 1'
_cell_length_a   8.89102541
_cell_length_b   5.09979905
_cell_length_c   12.61631724
_cell_angle_alpha   90.00000000
_cell_angle_beta   131.62503297
_cell_angle_gamma   90.00000000
_symmetry_Int_Tables_number   1
_chemical_formula_structural   LiCoOF2
_chemical_formula_sum   'Li8 Co8 O8 F16'
_cell_volume   427.61539136
_cell_formula_units_Z   8
loop_
 _symmetry_equiv_pos_site_id
 _symmetry_equiv_pos_as_xyz
  1  'x, y, z'
loop_
 _atom_site_type_symbol
 _atom_site_label
 _atom_site_symmetry_multiplicity
 _atom_site_fract_x
 _atom_site_fract_y
 _atom_site_fract_z
 _atom_site_occupancy
  Li  Li0  1  0.831085  0.069702  0.996664  1
  Li  Li1  1  0.968079  0.089640  0.797605  1
  Li  Li2  1  0.968079  0.910360  0.297605  1
  Li  Li3  1  0.831085  0.930298  0.496664  1
  Li  Li4  1  0.635617  0.575493  0.992069  1
  Li  Li5  1  0.133705  0.585028  0.795081  1
  Li  Li6  1  0.133705  0.414972  0.295081  1
  Li  Li7  1  0.635617  0.424507  0.492069  1
  Co  Co8  1  0.330880  0.050655  0.800379  1
  Co  Co9  1  0.454494  0.022428  0.587750  1
  Co  Co10  1  0.454494  0.977572  0.087750  1
  Co  Co11  1  0.330880  0.949345  0.300379  1
  Co  Co12  1  0.784471  0.594937  0.800561  1
  Co  Co13  1  0.229194  0.595883  0.566497  1
  Co  Co14  1  0.229194  0.404117  0.066497  1
  Co  Co15  1  0.784471  0.405063  0.300561  1
  O  O16  1  0.411059  0.184849  0.434009  1
  O  O17  1  0.260609  0.244995  0.953721  1
  O  O18  1  0.345778  0.093476  0.171568  1
  O  O19  1  0.701945  0.111812  0.203738  1
  O  O20  1  0.701945  0.888188  0.703738  1
  O  O21  1  0.345778  0.906524  0.671568  1
  O  O22  1  0.260609  0.755005  0.453721  1
  O  O23  1  0.411059  0.815151  0.934009  1
  F  F24  1  0.590748  0.233110  0.924660  1
  F  F25  1  0.039633  0.069121  0.194793  1
  F  F26  1  0.039633  0.930879  0.694793  1
  F  F27  1  0.590748  0.766890  0.424660  1
  F  F28  1  0.767801  0.721820  0.937581  1
  F  F29  1  0.927293  0.721453  0.427330  1
  F  F30  1  0.089878  0.707402  0.932513  1
  F  F31  1  0.518970  0.603911  0.179617  1
  F  F32  1  0.852686  0.580794  0.194417  1
  F  F33  1  0.214857  0.588412  0.198225  1
  F  F34  1  0.214857  0.411588  0.698225  1
  F  F35  1  0.852686  0.419206  0.694417  1
  F  F36  1  0.518970  0.396089  0.679617  1
  F  F37  1  0.089878  0.292598  0.432513  1
  F  F38  1  0.927293  0.278547  0.927330  1
  F  F39  1  0.767801  0.278180  0.437581  1
