# generated using pymatgen
data_Mg3Mn3(BO5)2
_symmetry_space_group_name_H-M   'P 1'
_cell_length_a   5.50822434
_cell_length_b   6.08870273
_cell_length_c   10.94727569
_cell_angle_alpha   90.00000000
_cell_angle_beta   96.18306470
_cell_angle_gamma   90.00000000
_symmetry_Int_Tables_number   1
_chemical_formula_structural   Mg3Mn3(BO5)2
_chemical_formula_sum   'Mg6 Mn6 B4 O20'
_cell_volume   365.01331746
_cell_formula_units_Z   2
loop_
 _symmetry_equiv_pos_site_id
 _symmetry_equiv_pos_as_xyz
  1  'x, y, z'
loop_
 _atom_site_type_symbol
 _atom_site_label
 _atom_site_symmetry_multiplicity
 _atom_site_fract_x
 _atom_site_fract_y
 _atom_site_fract_z
 _atom_site_occupancy
  Mg  Mg0  1  0.000000  0.000000  0.000000  1
  Mg  Mg1  1  0.794802  0.250000  0.225879  1
  Mg  Mg2  1  0.205198  0.750000  0.774121  1
  Mg  Mg3  1  0.000000  0.500000  0.000000  1
  Mg  Mg4  1  0.503627  0.250000  0.499387  1
  Mg  Mg5  1  0.496373  0.750000  0.500613  1
  Mn  Mn6  1  0.797127  0.750000  0.228359  1
  Mn  Mn7  1  0.202873  0.250000  0.771641  1
  Mn  Mn8  1  0.500000  0.500000  0.000000  1
  Mn  Mn9  1  0.000000  0.500000  0.500000  1
  Mn  Mn10  1  0.000000  0.000000  0.500000  1
  Mn  Mn11  1  0.500000  0.000000  0.000000  1
  B  B12  1  0.301856  0.003958  0.263872  1
  B  B13  1  0.698144  0.996042  0.736128  1
  B  B14  1  0.698144  0.503958  0.736128  1
  B  B15  1  0.301856  0.496042  0.263872  1
  O  O16  1  0.178956  0.250000  0.587905  1
  O  O17  1  0.488361  0.506569  0.797360  1
  O  O18  1  0.069778  0.493726  0.197599  1
  O  O19  1  0.511639  0.006569  0.202640  1
  O  O20  1  0.749755  0.750000  0.032765  1
  O  O21  1  0.749446  0.250000  0.028359  1
  O  O22  1  0.673027  0.999754  0.609048  1
  O  O23  1  0.326973  0.000246  0.390952  1
  O  O24  1  0.069778  0.006274  0.197599  1
  O  O25  1  0.173634  0.750000  0.588003  1
  O  O26  1  0.250245  0.250000  0.967235  1
  O  O27  1  0.488361  0.993431  0.797360  1
  O  O28  1  0.326973  0.499754  0.390952  1
  O  O29  1  0.673027  0.500246  0.609048  1
  O  O30  1  0.250554  0.750000  0.971641  1
  O  O31  1  0.826366  0.250000  0.411997  1
  O  O32  1  0.930222  0.993726  0.802401  1
  O  O33  1  0.930222  0.506274  0.802401  1
  O  O34  1  0.821044  0.750000  0.412095  1
  O  O35  1  0.511639  0.493431  0.202640  1
