# generated using pymatgen
data_Li2MnVO4
_symmetry_space_group_name_H-M   'P 1'
_cell_length_a   5.86937550
_cell_length_b   5.86937550
_cell_length_c   6.05758350
_cell_angle_alpha   61.45328628
_cell_angle_beta   118.54671372
_cell_angle_gamma   89.31938180
_symmetry_Int_Tables_number   1
_chemical_formula_structural   Li2MnVO4
_chemical_formula_sum   'Li4 Mn2 V2 O8'
_cell_volume   153.02237814
_cell_formula_units_Z   2
loop_
 _symmetry_equiv_pos_site_id
 _symmetry_equiv_pos_as_xyz
  1  'x, y, z'
loop_
 _atom_site_type_symbol
 _atom_site_label
 _atom_site_symmetry_multiplicity
 _atom_site_fract_x
 _atom_site_fract_y
 _atom_site_fract_z
 _atom_site_occupancy
  Li  Li0  1  0.000000  0.500000  0.500000  1
  Li  Li1  1  0.500000  0.500000  0.000000  1
  Li  Li2  1  0.500000  0.000000  0.000000  1
  Li  Li3  1  0.500000  0.500000  0.500000  1
  Mn  Mn4  1  0.000000  0.500000  0.000000  1
  Mn  Mn5  1  0.500000  0.000000  0.500000  1
  V  V6  1  0.000000  0.000000  0.000000  1
  V  V7  1  0.000000  0.000000  0.500000  1
  O  O8  1  0.739820  0.774693  0.489470  1
  O  O9  1  0.755404  0.221142  0.524372  1
  O  O10  1  0.774693  0.739820  0.010530  1
  O  O11  1  0.221142  0.755404  0.975628  1
  O  O12  1  0.778858  0.244596  0.024372  1
  O  O13  1  0.225307  0.260180  0.989470  1
  O  O14  1  0.244596  0.778858  0.475628  1
  O  O15  1  0.260180  0.225307  0.510530  1
