# generated using pymatgen
data_Mn3FeNi2(PO4)6
_symmetry_space_group_name_H-M   'P 1'
_cell_length_a   8.43798560
_cell_length_b   8.43798560
_cell_length_c   8.43798560
_cell_angle_alpha   60.98977902
_cell_angle_beta   60.98977902
_cell_angle_gamma   60.98977902
_symmetry_Int_Tables_number   1
_chemical_formula_structural   Mn3FeNi2(PO4)6
_chemical_formula_sum   'Mn3 Fe1 Ni2 P6 O24'
_cell_volume   434.28825438
_cell_formula_units_Z   1
loop_
 _symmetry_equiv_pos_site_id
 _symmetry_equiv_pos_as_xyz
  1  'x, y, z'
loop_
 _atom_site_type_symbol
 _atom_site_label
 _atom_site_symmetry_multiplicity
 _atom_site_fract_x
 _atom_site_fract_y
 _atom_site_fract_z
 _atom_site_occupancy
  Mn  Mn0  1  0.857962  0.857962  0.857962  1
  Mn  Mn1  1  0.641333  0.641333  0.641333  1
  Mn  Mn2  1  0.357859  0.357859  0.357859  1
  Fe  Fe3  1  0.142844  0.142844  0.142844  1
  Ni  Ni4  1  0.000749  0.000749  0.000749  1
  Ni  Ni5  1  0.499210  0.499210  0.499210  1
  P  P6  1  0.955819  0.250646  0.545829  1
  P  P7  1  0.545829  0.955819  0.250646  1
  P  P8  1  0.250646  0.545829  0.955819  1
  P  P9  1  0.749572  0.457624  0.039736  1
  P  P10  1  0.457624  0.039736  0.749572  1
  P  P11  1  0.039736  0.749572  0.457624  1
  O  O12  1  0.879575  0.683265  0.497124  1
  O  O13  1  0.683265  0.497124  0.879575  1
  O  O14  1  0.937974  0.091166  0.747144  1
  O  O15  1  0.497124  0.879575  0.683265  1
  O  O16  1  0.990103  0.187163  0.388390  1
  O  O17  1  0.754524  0.415334  0.559222  1
  O  O18  1  0.747144  0.937974  0.091166  1
  O  O19  1  0.559222  0.754524  0.415334  1
  O  O20  1  0.813791  0.614981  0.007352  1
  O  O21  1  0.415334  0.559222  0.754524  1
  O  O22  1  0.907590  0.257775  0.055763  1
  O  O23  1  0.614981  0.007352  0.813791  1
  O  O24  1  0.388390  0.990103  0.187163  1
  O  O25  1  0.091166  0.747144  0.937974  1
  O  O26  1  0.585879  0.446829  0.239575  1
  O  O27  1  0.187163  0.388390  0.990103  1
  O  O28  1  0.446829  0.239575  0.585879  1
  O  O29  1  0.257775  0.055763  0.907590  1
  O  O30  1  0.239575  0.585879  0.446829  1
  O  O31  1  0.007352  0.813791  0.614981  1
  O  O32  1  0.512441  0.114238  0.313621  1
  O  O33  1  0.055763  0.907590  0.257775  1
  O  O34  1  0.313621  0.512441  0.114238  1
  O  O35  1  0.114238  0.313621  0.512441  1
