# generated using pymatgen
data_FeOF
_symmetry_space_group_name_H-M   'P 1'
_cell_length_a   4.79254245
_cell_length_b   3.07269222
_cell_length_c   9.58299290
_cell_angle_alpha   90.00000000
_cell_angle_beta   91.36441291
_cell_angle_gamma   90.00000000
_symmetry_Int_Tables_number   1
_chemical_formula_structural   FeOF
_chemical_formula_sum   'Fe4 O4 F4'
_cell_volume   141.07921799
_cell_formula_units_Z   4
loop_
 _symmetry_equiv_pos_site_id
 _symmetry_equiv_pos_as_xyz
  1  'x, y, z'
loop_
 _atom_site_type_symbol
 _atom_site_label
 _atom_site_symmetry_multiplicity
 _atom_site_fract_x
 _atom_site_fract_y
 _atom_site_fract_z
 _atom_site_occupancy
  Fe  Fe0  1  0.000000  0.000000  0.000000  1
  Fe  Fe1  1  0.000000  0.000000  0.500000  1
  Fe  Fe2  1  0.426926  0.500000  0.752041  1
  Fe  Fe3  1  0.573074  0.500000  0.247959  1
  O  O4  1  0.817941  0.500000  0.095253  1
  O  O5  1  0.712418  0.000000  0.355047  1
  O  O6  1  0.287582  0.000000  0.644953  1
  O  O7  1  0.182059  0.500000  0.904747  1
  F  F8  1  0.801513  0.500000  0.597261  1
  F  F9  1  0.676478  0.000000  0.838407  1
  F  F10  1  0.323522  0.000000  0.161593  1
  F  F11  1  0.198487  0.500000  0.402739  1
