# generated using pymatgen
data_LiMn2(CoO4)2
_symmetry_space_group_name_H-M   'P 1'
_cell_length_a   5.68365795
_cell_length_b   5.68365795
_cell_length_c   5.63893631
_cell_angle_alpha   61.27548662
_cell_angle_beta   118.72451338
_cell_angle_gamma   118.34138170
_symmetry_Int_Tables_number   1
_chemical_formula_structural   LiMn2(CoO4)2
_chemical_formula_sum   'Li1 Mn2 Co2 O8'
_cell_volume   132.86269160
_cell_formula_units_Z   1
loop_
 _symmetry_equiv_pos_site_id
 _symmetry_equiv_pos_as_xyz
  1  'x, y, z'
loop_
 _atom_site_type_symbol
 _atom_site_label
 _atom_site_symmetry_multiplicity
 _atom_site_fract_x
 _atom_site_fract_y
 _atom_site_fract_z
 _atom_site_occupancy
  Li  Li0  1  0.500000  0.500000  0.000000  1
  Mn  Mn1  1  0.000000  0.500000  0.500000  1
  Mn  Mn2  1  0.500000  1.000000  0.500000  1
  Co  Co3  1  0.000000  0.000000  0.000000  1
  Co  Co4  1  0.000000  1.000000  0.500000  1
  O  O5  1  0.764140  0.790888  0.742080  1
  O  O6  1  0.233840  0.766160  0.255968  1
  O  O7  1  0.209112  0.235860  0.742080  1
  O  O8  1  0.240052  0.759948  0.712785  1
  O  O9  1  0.759948  0.240052  0.287215  1
  O  O10  1  0.790888  0.764140  0.257920  1
  O  O11  1  0.766160  0.233840  0.744032  1
  O  O12  1  0.235860  0.209112  0.257920  1
