# generated using pymatgen
data_LiMn2(BO3)2
_symmetry_space_group_name_H-M   'P 1'
_cell_length_a   5.33812605
_cell_length_b   5.33812605
_cell_length_c   10.03879247
_cell_angle_alpha   89.10632507
_cell_angle_beta   90.89367493
_cell_angle_gamma   60.68005912
_symmetry_Int_Tables_number   1
_chemical_formula_structural   LiMn2(BO3)2
_chemical_formula_sum   'Li2 Mn4 B4 O12'
_cell_volume   249.29761777
_cell_formula_units_Z   2
loop_
 _symmetry_equiv_pos_site_id
 _symmetry_equiv_pos_as_xyz
  1  'x, y, z'
loop_
 _atom_site_type_symbol
 _atom_site_label
 _atom_site_symmetry_multiplicity
 _atom_site_fract_x
 _atom_site_fract_y
 _atom_site_fract_z
 _atom_site_occupancy
  Li  Li0  1  0.867807  0.165746  0.334106  1
  Li  Li1  1  0.834254  0.132193  0.834106  1
  Mn  Mn2  1  0.830297  0.519190  0.622031  1
  Mn  Mn3  1  0.486614  0.814921  0.872321  1
  Mn  Mn4  1  0.480810  0.169703  0.122031  1
  Mn  Mn5  1  0.185079  0.513386  0.372321  1
  B  B6  1  0.838919  0.506243  0.126914  1
  B  B7  1  0.506942  0.842310  0.371470  1
  B  B8  1  0.493757  0.161081  0.626914  1
  B  B9  1  0.157690  0.493058  0.871470  1
  O  O10  1  0.932720  0.450284  0.819440  1
  O  O11  1  0.755054  0.595763  0.425001  1
  O  O12  1  0.796549  0.278452  0.143947  1
  O  O13  1  0.627255  0.764808  0.070077  1
  O  O14  1  0.506395  0.902566  0.668304  1
  O  O15  1  0.721548  0.203451  0.643947  1
  O  O16  1  0.247453  0.860248  0.367910  1
  O  O17  1  0.549716  0.067280  0.319440  1
  O  O18  1  0.404237  0.244946  0.925001  1
  O  O19  1  0.139752  0.752547  0.867910  1
  O  O20  1  0.235192  0.372745  0.570077  1
  O  O21  1  0.097434  0.493605  0.168304  1
