# generated using pymatgen
data_ZnTe2O5
_symmetry_space_group_name_H-M   'P 1'
_cell_length_a   8.65333934
_cell_length_b   9.11250564
_cell_length_c   12.35937753
_cell_angle_alpha   90.00000000
_cell_angle_beta   90.00000000
_cell_angle_gamma   90.00000000
_symmetry_Int_Tables_number   1
_chemical_formula_structural   ZnTe2O5
_chemical_formula_sum   'Zn8 Te16 O40'
_cell_volume   974.58145576
_cell_formula_units_Z   8
loop_
 _symmetry_equiv_pos_site_id
 _symmetry_equiv_pos_as_xyz
  1  'x, y, z'
loop_
 _atom_site_type_symbol
 _atom_site_label
 _atom_site_symmetry_multiplicity
 _atom_site_fract_x
 _atom_site_fract_y
 _atom_site_fract_z
 _atom_site_occupancy
  Zn  Zn0  1  0.518365  0.014786  0.123010  1
  Zn  Zn1  1  0.518365  0.014786  0.376990  1
  Zn  Zn2  1  0.018365  0.485214  0.623010  1
  Zn  Zn3  1  0.018365  0.485214  0.876990  1
  Zn  Zn4  1  0.981635  0.514786  0.123010  1
  Zn  Zn5  1  0.981635  0.514786  0.376990  1
  Zn  Zn6  1  0.481635  0.985214  0.876990  1
  Zn  Zn7  1  0.481635  0.985214  0.623010  1
  Te  Te8  1  0.198569  0.104756  0.250000  1
  Te  Te9  1  0.838554  0.149468  0.514648  1
  Te  Te10  1  0.838554  0.149468  0.985352  1
  Te  Te11  1  0.182222  0.166684  0.750000  1
  Te  Te12  1  0.682222  0.333316  0.250000  1
  Te  Te13  1  0.338554  0.350532  0.014648  1
  Te  Te14  1  0.338554  0.350532  0.485352  1
  Te  Te15  1  0.698569  0.395244  0.750000  1
  Te  Te16  1  0.301431  0.604756  0.250000  1
  Te  Te17  1  0.661446  0.649468  0.514648  1
  Te  Te18  1  0.661446  0.649468  0.985352  1
  Te  Te19  1  0.317778  0.666684  0.750000  1
  Te  Te20  1  0.817778  0.833316  0.250000  1
  Te  Te21  1  0.161446  0.850532  0.014648  1
  Te  Te22  1  0.161446  0.850532  0.485352  1
  Te  Te23  1  0.801431  0.895244  0.750000  1
  O  O24  1  0.906676  0.008327  0.627733  1
  O  O25  1  0.906676  0.008327  0.872267  1
  O  O26  1  0.633481  0.031483  0.750000  1
  O  O27  1  0.620407  0.118038  0.512231  1
  O  O28  1  0.620407  0.118038  0.987769  1
  O  O29  1  0.657984  0.123661  0.250000  1
  O  O30  1  0.322291  0.156138  0.630548  1
  O  O31  1  0.322291  0.156138  0.869452  1
  O  O32  1  0.349709  0.191461  0.114182  1
  O  O33  1  0.349709  0.191461  0.385818  1
  O  O34  1  0.849709  0.308539  0.614182  1
  O  O35  1  0.849709  0.308539  0.885818  1
  O  O36  1  0.822291  0.343862  0.130548  1
  O  O37  1  0.822291  0.343862  0.369452  1
  O  O38  1  0.157984  0.376339  0.750000  1
  O  O39  1  0.120407  0.381962  0.012231  1
  O  O40  1  0.120407  0.381962  0.487769  1
  O  O41  1  0.133481  0.468517  0.250000  1
  O  O42  1  0.406676  0.491673  0.372267  1
  O  O43  1  0.406676  0.491673  0.127733  1
  O  O44  1  0.593324  0.508327  0.872267  1
  O  O45  1  0.593324  0.508327  0.627733  1
  O  O46  1  0.866519  0.531483  0.750000  1
  O  O47  1  0.879593  0.618038  0.512231  1
  O  O48  1  0.879593  0.618038  0.987769  1
  O  O49  1  0.842016  0.623661  0.250000  1
  O  O50  1  0.177709  0.656138  0.869452  1
  O  O51  1  0.177709  0.656138  0.630548  1
  O  O52  1  0.150291  0.691461  0.114182  1
  O  O53  1  0.150291  0.691461  0.385818  1
  O  O54  1  0.650291  0.808539  0.885818  1
  O  O55  1  0.650291  0.808539  0.614182  1
  O  O56  1  0.677709  0.843862  0.130548  1
  O  O57  1  0.677709  0.843862  0.369452  1
  O  O58  1  0.342016  0.876339  0.750000  1
  O  O59  1  0.379593  0.881962  0.012231  1
  O  O60  1  0.379593  0.881962  0.487769  1
  O  O61  1  0.366519  0.968517  0.250000  1
  O  O62  1  0.093324  0.991673  0.127733  1
  O  O63  1  0.093324  0.991673  0.372267  1
