# generated using pymatgen
data_Ge2N2O
_symmetry_space_group_name_H-M   'P 1'
_cell_length_a   13.14723485
_cell_length_b   13.14723485
_cell_length_c   13.14723485
_cell_angle_alpha   154.23159994
_cell_angle_beta   154.23159994
_cell_angle_gamma   36.76306583
_symmetry_Int_Tables_number   1
_chemical_formula_structural   Ge2N2O
_chemical_formula_sum   'Ge16 N16 O8'
_cell_volume   428.90012176
_cell_formula_units_Z   8
loop_
 _symmetry_equiv_pos_site_id
 _symmetry_equiv_pos_as_xyz
  1  'x, y, z'
loop_
 _atom_site_type_symbol
 _atom_site_label
 _atom_site_symmetry_multiplicity
 _atom_site_fract_x
 _atom_site_fract_y
 _atom_site_fract_z
 _atom_site_occupancy
  Ge  Ge0  1  0.875000  0.125000  0.250000  1
  Ge  Ge1  1  0.875000  0.625000  0.750000  1
  Ge  Ge2  1  0.875000  0.125000  0.750000  1
  Ge  Ge3  1  0.044503  0.793249  0.251254  1
  Ge  Ge4  1  0.080907  0.580907  0.500000  1
  Ge  Ge5  1  0.206751  0.955497  0.748746  1
  Ge  Ge6  1  0.330907  0.330907  0.000000  1
  Ge  Ge7  1  0.206751  0.458004  0.251254  1
  Ge  Ge8  1  0.541996  0.793249  0.748746  1
  Ge  Ge9  1  0.375000  0.125000  0.250000  1
  Ge  Ge10  1  0.208004  0.456751  0.751254  1
  Ge  Ge11  1  0.419093  0.919093  0.500000  1
  Ge  Ge12  1  0.669093  0.669093  0.000000  1
  Ge  Ge13  1  0.543249  0.294503  0.751254  1
  Ge  Ge14  1  0.543249  0.791996  0.248746  1
  Ge  Ge15  1  0.705497  0.456751  0.248746  1
  N  N16  1  0.109918  0.874196  0.235722  1
  N  N17  1  0.977448  0.712616  0.264832  1
  N  N18  1  0.287384  0.552216  0.264832  1
  N  N19  1  0.287384  0.022552  0.735168  1
  N  N20  1  0.125804  0.890082  0.764278  1
  N  N21  1  0.125804  0.361526  0.235722  1
  N  N22  1  0.447784  0.712616  0.735168  1
  N  N23  1  0.111526  0.375804  0.735722  1
  N  N24  1  0.638474  0.874196  0.764278  1
  N  N25  1  0.302216  0.537384  0.764832  1
  N  N26  1  0.624196  0.359918  0.735722  1
  N  N27  1  0.462616  0.227448  0.764832  1
  N  N28  1  0.462616  0.697784  0.235168  1
  N  N29  1  0.624196  0.888474  0.264278  1
  N  N30  1  0.772552  0.537384  0.235168  1
  N  N31  1  0.640082  0.375804  0.264278  1
  O  O32  1  0.985756  0.201707  0.784049  1
  O  O33  1  0.951707  0.235756  0.284049  1
  O  O34  1  0.951707  0.667658  0.715951  1
  O  O35  1  0.417658  0.201707  0.215951  1
  O  O36  1  0.332342  0.048293  0.284049  1
  O  O37  1  0.798293  0.582342  0.784049  1
  O  O38  1  0.798293  0.014244  0.215951  1
  O  O39  1  0.764244  0.048293  0.715951  1
