# generated using pymatgen
data_LiNi2(PO4)2
_symmetry_space_group_name_H-M   'P 1'
_cell_length_a   4.76923187
_cell_length_b   10.06918827
_cell_length_c   5.80762739
_cell_angle_alpha   90.00000000
_cell_angle_beta   91.59373624
_cell_angle_gamma   90.00000000
_symmetry_Int_Tables_number   1
_chemical_formula_structural   LiNi2(PO4)2
_chemical_formula_sum   'Li2 Ni4 P4 O16'
_cell_volume   278.78770026
_cell_formula_units_Z   2
loop_
 _symmetry_equiv_pos_site_id
 _symmetry_equiv_pos_as_xyz
  1  'x, y, z'
loop_
 _atom_site_type_symbol
 _atom_site_label
 _atom_site_symmetry_multiplicity
 _atom_site_fract_x
 _atom_site_fract_y
 _atom_site_fract_z
 _atom_site_occupancy
  Li  Li0  1  0.739584  0.732928  0.268465  1
  Li  Li1  1  0.260416  0.232928  0.731535  1
  Ni  Ni2  1  0.275105  0.971226  0.000722  1
  Ni  Ni3  1  0.227098  0.517184  0.501101  1
  Ni  Ni4  1  0.724895  0.471226  0.999278  1
  Ni  Ni5  1  0.772902  0.017184  0.498899  1
  P  P6  1  0.327187  0.839764  0.501087  1
  P  P7  1  0.166781  0.649927  0.997063  1
  P  P8  1  0.672813  0.339764  0.498913  1
  P  P9  1  0.833219  0.149927  0.002937  1
  O  O10  1  0.469688  0.920254  0.702602  1
  O  O11  1  0.480478  0.907886  0.290594  1
  O  O12  1  0.008272  0.848989  0.487723  1
  O  O13  1  0.071608  0.795673  0.996153  1
  O  O14  1  0.427054  0.694365  0.502950  1
  O  O15  1  0.485668  0.638299  0.012267  1
  O  O16  1  0.025308  0.571512  0.792462  1
  O  O17  1  0.014936  0.580553  0.207148  1
  O  O18  1  0.530312  0.420254  0.297398  1
  O  O19  1  0.519522  0.407886  0.709406  1
  O  O20  1  0.991728  0.348989  0.512277  1
  O  O21  1  0.928392  0.295673  0.003847  1
  O  O22  1  0.572946  0.194365  0.497050  1
  O  O23  1  0.514332  0.138299  0.987733  1
  O  O24  1  0.974692  0.071512  0.207538  1
  O  O25  1  0.985064  0.080553  0.792852  1
