# generated using pymatgen
data_NaLi2FePCO7
_symmetry_space_group_name_H-M   'P 1'
_cell_length_a   6.59100228
_cell_length_b   8.62895679
_cell_length_c   10.13978377
_cell_angle_alpha   92.42095996
_cell_angle_beta   90.01850356
_cell_angle_gamma   90.70304019
_symmetry_Int_Tables_number   1
_chemical_formula_structural   NaLi2FePCO7
_chemical_formula_sum   'Na4 Li8 Fe4 P4 C4 O28'
_cell_volume   576.12642558
_cell_formula_units_Z   4
loop_
 _symmetry_equiv_pos_site_id
 _symmetry_equiv_pos_as_xyz
  1  'x, y, z'
loop_
 _atom_site_type_symbol
 _atom_site_label
 _atom_site_symmetry_multiplicity
 _atom_site_fract_x
 _atom_site_fract_y
 _atom_site_fract_z
 _atom_site_occupancy
  Na  Na0  1  0.256083  0.083619  0.620956  1
  Na  Na1  1  0.999722  0.255761  0.373188  1
  Na  Na2  1  0.999793  0.258213  0.875401  1
  Na  Na3  1  0.502850  0.743599  0.626704  1
  Li  Li4  1  0.263876  0.078679  0.124929  1
  Li  Li5  1  0.480829  0.274028  0.378249  1
  Li  Li6  1  0.481096  0.274961  0.881646  1
  Li  Li7  1  0.511376  0.733093  0.121121  1
  Li  Li8  1  0.983519  0.731758  0.119612  1
  Li  Li9  1  0.981921  0.726578  0.621090  1
  Li  Li10  1  0.743556  0.912799  0.371923  1
  Li  Li11  1  0.749276  0.910077  0.878748  1
  Fe  Fe12  1  0.746342  0.345238  0.109215  1
  Fe  Fe13  1  0.743440  0.351042  0.607334  1
  Fe  Fe14  1  0.246050  0.651897  0.388488  1
  Fe  Fe15  1  0.250712  0.655773  0.895767  1
  P  P16  1  0.254798  0.409803  0.147964  1
  P  P17  1  0.246648  0.417372  0.647481  1
  P  P18  1  0.745108  0.592054  0.349779  1
  P  P19  1  0.750223  0.591928  0.857127  1
  C  C20  1  0.747039  0.038757  0.137259  1
  C  C21  1  0.756137  0.045491  0.639489  1
  C  C22  1  0.258125  0.948582  0.352690  1
  C  C23  1  0.258376  0.955605  0.867798  1
  O  O24  1  0.276546  0.097052  0.337804  1
  O  O25  1  0.277124  0.102795  0.850786  1
  O  O26  1  0.752743  0.086090  0.016788  1
  O  O27  1  0.751182  0.086941  0.517113  1
  O  O28  1  0.739638  0.141012  0.235841  1
  O  O29  1  0.732770  0.150766  0.734687  1
  O  O30  1  0.059639  0.313520  0.111470  1
  O  O31  1  0.432508  0.308514  0.092206  1
  O  O32  1  0.056115  0.313950  0.613196  1
  O  O33  1  0.430334  0.325443  0.587534  1
  O  O34  1  0.273379  0.427337  0.301550  1
  O  O35  1  0.731686  0.429226  0.408089  1
  O  O36  1  0.271871  0.433450  0.800353  1
  O  O37  1  0.729626  0.428462  0.913212  1
  O  O38  1  0.254672  0.574167  0.091901  1
  O  O39  1  0.754919  0.573686  0.195755  1
  O  O40  1  0.228829  0.579310  0.589963  1
  O  O41  1  0.768314  0.574366  0.703636  1
  O  O42  1  0.561028  0.695819  0.389922  1
  O  O43  1  0.932384  0.687169  0.403230  1
  O  O44  1  0.566388  0.697978  0.895010  1
  O  O45  1  0.936813  0.684868  0.914460  1
  O  O46  1  0.242299  0.854648  0.249146  1
  O  O47  1  0.244075  0.857942  0.765899  1
  O  O48  1  0.254459  0.891462  0.469414  1
  O  O49  1  0.253139  0.902671  0.986224  1
  O  O50  1  0.747949  0.892184  0.161653  1
  O  O51  1  0.782673  0.902462  0.669202  1
