# generated using pymatgen
data_Sr4Sb2O
_symmetry_space_group_name_H-M   'P 1'
_cell_length_a   9.40097582
_cell_length_b   9.40097582
_cell_length_c   9.40097582
_cell_angle_alpha   149.09313801
_cell_angle_beta   149.09313801
_cell_angle_gamma   44.27422976
_symmetry_Int_Tables_number   1
_chemical_formula_structural   Sr4Sb2O
_chemical_formula_sum   'Sr4 Sb2 O1'
_cell_volume   218.56029355
_cell_formula_units_Z   1
loop_
 _symmetry_equiv_pos_site_id
 _symmetry_equiv_pos_as_xyz
  1  'x, y, z'
loop_
 _atom_site_type_symbol
 _atom_site_label
 _atom_site_symmetry_multiplicity
 _atom_site_fract_x
 _atom_site_fract_y
 _atom_site_fract_z
 _atom_site_occupancy
  Sr  Sr0  1  0.169442  0.169442  0.000000  1
  Sr  Sr1  1  0.500000  1.000000  0.500000  1
  Sr  Sr2  1  0.000000  0.500000  0.500000  1
  Sr  Sr3  1  0.830558  0.830558  0.000000  1
  Sb  Sb4  1  0.638782  0.638782  0.000000  1
  Sb  Sb5  1  0.361218  0.361218  0.000000  1
  O  O6  1  0.000000  0.000000  0.000000  1
