# generated using pymatgen
data_Li2Ni3BiO8
_symmetry_space_group_name_H-M   'P 1'
_cell_length_a   8.44077949
_cell_length_b   8.44077949
_cell_length_c   8.44077949
_cell_angle_alpha   90.00000000
_cell_angle_beta   90.00000000
_cell_angle_gamma   90.00000000
_symmetry_Int_Tables_number   1
_chemical_formula_structural   Li2Ni3BiO8
_chemical_formula_sum   'Li8 Ni12 Bi4 O32'
_cell_volume   601.37817662
_cell_formula_units_Z   4
loop_
 _symmetry_equiv_pos_site_id
 _symmetry_equiv_pos_as_xyz
  1  'x, y, z'
loop_
 _atom_site_type_symbol
 _atom_site_label
 _atom_site_symmetry_multiplicity
 _atom_site_fract_x
 _atom_site_fract_y
 _atom_site_fract_z
 _atom_site_occupancy
  Li  Li0  1  0.999745  0.999745  0.999745  1
  Li  Li1  1  0.250255  0.250255  0.250255  1
  Li  Li2  1  0.249745  0.749745  0.750255  1
  Li  Li3  1  0.500255  0.000255  0.499745  1
  Li  Li4  1  0.499745  0.500255  0.000255  1
  Li  Li5  1  0.750255  0.249745  0.749745  1
  Li  Li6  1  0.749745  0.750255  0.249745  1
  Li  Li7  1  0.000255  0.499745  0.500255  1
  Ni  Ni8  1  0.115378  0.134622  0.625000  1
  Ni  Ni9  1  0.125000  0.384622  0.865378  1
  Ni  Ni10  1  0.134622  0.625000  0.115378  1
  Ni  Ni11  1  0.365378  0.375000  0.615378  1
  Ni  Ni12  1  0.375000  0.615378  0.365378  1
  Ni  Ni13  1  0.384622  0.865378  0.125000  1
  Ni  Ni14  1  0.615378  0.365378  0.375000  1
  Ni  Ni15  1  0.625000  0.115378  0.134622  1
  Ni  Ni16  1  0.634622  0.875000  0.884622  1
  Ni  Ni17  1  0.865378  0.125000  0.384622  1
  Ni  Ni18  1  0.875000  0.884622  0.634622  1
  Ni  Ni19  1  0.884622  0.634622  0.875000  1
  Bi  Bi20  1  0.125000  0.875000  0.375000  1
  Bi  Bi21  1  0.375000  0.125000  0.875000  1
  Bi  Bi22  1  0.625000  0.625000  0.625000  1
  Bi  Bi23  1  0.875000  0.375000  0.125000  1
  O  O24  1  0.094768  0.127319  0.382669  1
  O  O25  1  0.117331  0.905232  0.627319  1
  O  O26  1  0.114877  0.614877  0.885123  1
  O  O27  1  0.122681  0.155232  0.867331  1
  O  O28  1  0.127319  0.382669  0.094768  1
  O  O29  1  0.135123  0.364877  0.635123  1
  O  O30  1  0.132669  0.622681  0.344768  1
  O  O31  1  0.155232  0.867331  0.122681  1
  O  O32  1  0.344768  0.132669  0.622681  1
  O  O33  1  0.367331  0.377319  0.844768  1
  O  O34  1  0.364877  0.635123  0.135123  1
  O  O35  1  0.372681  0.617331  0.594768  1
  O  O36  1  0.377319  0.844768  0.367331  1
  O  O37  1  0.385123  0.385123  0.385123  1
  O  O38  1  0.382669  0.094768  0.127319  1
  O  O39  1  0.405232  0.872681  0.882669  1
  O  O40  1  0.594768  0.372681  0.617331  1
  O  O41  1  0.617331  0.594768  0.372681  1
  O  O42  1  0.614877  0.885123  0.114877  1
  O  O43  1  0.622681  0.344768  0.132669  1
  O  O44  1  0.627319  0.117331  0.905232  1
  O  O45  1  0.635123  0.135123  0.364877  1
  O  O46  1  0.632669  0.877319  0.655232  1
  O  O47  1  0.655232  0.632669  0.877319  1
  O  O48  1  0.844768  0.367331  0.377319  1
  O  O49  1  0.867331  0.122681  0.155232  1
  O  O50  1  0.864877  0.864877  0.864877  1
  O  O51  1  0.872681  0.882669  0.405232  1
  O  O52  1  0.877319  0.655232  0.632669  1
  O  O53  1  0.885123  0.114877  0.614877  1
  O  O54  1  0.882669  0.405232  0.872681  1
  O  O55  1  0.905232  0.627319  0.117331  1
