# generated using pymatgen
data_CsPH4(NO)2
_symmetry_space_group_name_H-M   'P 1'
_cell_length_a   5.65632992
_cell_length_b   5.65632992
_cell_length_c   15.72183163
_cell_angle_alpha   90.00000000
_cell_angle_beta   90.00000000
_cell_angle_gamma   90.00000000
_symmetry_Int_Tables_number   1
_chemical_formula_structural   CsPH4(NO)2
_chemical_formula_sum   'Cs4 P4 H16 N8 O8'
_cell_volume   503.00535283
_cell_formula_units_Z   4
loop_
 _symmetry_equiv_pos_site_id
 _symmetry_equiv_pos_as_xyz
  1  'x, y, z'
loop_
 _atom_site_type_symbol
 _atom_site_label
 _atom_site_symmetry_multiplicity
 _atom_site_fract_x
 _atom_site_fract_y
 _atom_site_fract_z
 _atom_site_occupancy
  Cs  Cs0  1  0.150342  0.849658  0.250000  1
  Cs  Cs1  1  0.349658  0.349658  0.500000  1
  Cs  Cs2  1  0.650342  0.650342  0.000000  1
  Cs  Cs3  1  0.849658  0.150342  0.750000  1
  P  P4  1  0.110731  0.110731  0.000000  1
  P  P5  1  0.389269  0.610731  0.750000  1
  P  P6  1  0.610731  0.389269  0.250000  1
  P  P7  1  0.889269  0.889269  0.500000  1
  H  H8  1  0.990901  0.367067  0.310932  1
  H  H9  1  0.132933  0.490901  0.060932  1
  H  H10  1  0.212557  0.791341  0.864078  1
  H  H11  1  0.208659  0.787443  0.635922  1
  H  H12  1  0.291341  0.287443  0.114078  1
  H  H13  1  0.287443  0.291341  0.885922  1
  H  H14  1  0.367067  0.990901  0.689068  1
  H  H15  1  0.509099  0.867067  0.439068  1
  H  H16  1  0.490901  0.132933  0.939068  1
  H  H17  1  0.632933  0.009099  0.189068  1
  H  H18  1  0.712557  0.708659  0.385922  1
  H  H19  1  0.708659  0.712557  0.614078  1
  H  H20  1  0.791341  0.212557  0.135922  1
  H  H21  1  0.787443  0.208659  0.364078  1
  H  H22  1  0.867067  0.509099  0.560932  1
  H  H23  1  0.009099  0.632933  0.810932  1
  N  N24  1  0.142007  0.316387  0.078021  1
  N  N25  1  0.183613  0.642007  0.828021  1
  N  N26  1  0.316387  0.142007  0.921979  1
  N  N27  1  0.357993  0.816387  0.671979  1
  N  N28  1  0.642007  0.183613  0.171979  1
  N  N29  1  0.683613  0.857993  0.421979  1
  N  N30  1  0.816387  0.357993  0.328021  1
  N  N31  1  0.857993  0.683613  0.578021  1
  O  O32  1  0.125093  0.845150  0.456616  1
  O  O33  1  0.154850  0.874907  0.043384  1
  O  O34  1  0.345150  0.374907  0.706616  1
  O  O35  1  0.374907  0.345150  0.293384  1
  O  O36  1  0.625093  0.654850  0.793384  1
  O  O37  1  0.654850  0.625093  0.206616  1
  O  O38  1  0.845150  0.125093  0.543384  1
  O  O39  1  0.874907  0.154850  0.956616  1
