# generated using pymatgen
data_Zr5Ti7O24
_symmetry_space_group_name_H-M   'P 1'
_cell_length_a   5.41220965
_cell_length_b   14.54742263
_cell_length_c   11.49749993
_cell_angle_alpha   90.00000000
_cell_angle_beta   118.16106413
_cell_angle_gamma   90.00000000
_symmetry_Int_Tables_number   1
_chemical_formula_structural   Zr5Ti7O24
_chemical_formula_sum   'Zr10 Ti14 O48'
_cell_volume   798.08228699
_cell_formula_units_Z   2
loop_
 _symmetry_equiv_pos_site_id
 _symmetry_equiv_pos_as_xyz
  1  'x, y, z'
loop_
 _atom_site_type_symbol
 _atom_site_label
 _atom_site_symmetry_multiplicity
 _atom_site_fract_x
 _atom_site_fract_y
 _atom_site_fract_z
 _atom_site_occupancy
  Zr  Zr0  1  0.862474  0.251622  0.125368  1
  Zr  Zr1  1  0.355793  0.254270  0.621967  1
  Zr  Zr2  1  0.639707  0.255509  0.371723  1
  Zr  Zr3  1  0.140551  0.252682  0.875762  1
  Zr  Zr4  1  0.790513  0.080388  0.592388  1
  Zr  Zr5  1  0.790513  0.919612  0.092388  1
  Zr  Zr6  1  0.140551  0.747318  0.375762  1
  Zr  Zr7  1  0.355793  0.745730  0.121967  1
  Zr  Zr8  1  0.862474  0.748378  0.625368  1
  Zr  Zr9  1  0.639707  0.744491  0.871723  1
  Ti  Ti10  1  0.151862  0.084349  0.344446  1
  Ti  Ti11  1  0.650398  0.084029  0.842091  1
  Ti  Ti12  1  0.280668  0.084253  0.094485  1
  Ti  Ti13  1  0.280668  0.915747  0.594485  1
  Ti  Ti14  1  0.650398  0.915971  0.342091  1
  Ti  Ti15  1  0.151862  0.915651  0.844446  1
  Ti  Ti16  1  0.844131  0.580410  0.159256  1
  Ti  Ti17  1  0.342307  0.579706  0.658561  1
  Ti  Ti18  1  0.227167  0.578545  0.908639  1
  Ti  Ti19  1  0.725070  0.580772  0.409228  1
  Ti  Ti20  1  0.227167  0.421455  0.408639  1
  Ti  Ti21  1  0.725070  0.419228  0.909228  1
  Ti  Ti22  1  0.342307  0.420294  0.158561  1
  Ti  Ti23  1  0.844131  0.419590  0.659256  1
  O  O24  1  0.443399  0.171012  0.031930  1
  O  O25  1  0.954768  0.179650  0.527267  1
  O  O26  1  0.866785  0.171982  0.280602  1
  O  O27  1  0.357011  0.168404  0.778456  1
  O  O28  1  0.412986  0.166488  0.483060  1
  O  O29  1  0.310277  0.168549  0.235572  1
  O  O30  1  0.801189  0.167528  0.739938  1
  O  O31  1  0.912966  0.162771  0.986874  1
  O  O32  1  0.063803  0.022485  0.182009  1
  O  O33  1  0.549694  0.009330  0.679661  1
  O  O34  1  0.534624  0.007392  0.419404  1
  O  O35  1  0.049887  0.007392  0.931547  1
  O  O36  1  0.549694  0.990670  0.179661  1
  O  O37  1  0.063803  0.977515  0.682009  1
  O  O38  1  0.534624  0.992608  0.919404  1
  O  O39  1  0.049887  0.992608  0.431547  1
  O  O40  1  0.801189  0.832472  0.239938  1
  O  O41  1  0.912966  0.837229  0.486874  1
  O  O42  1  0.310277  0.831451  0.735572  1
  O  O43  1  0.412986  0.833512  0.983060  1
  O  O44  1  0.954768  0.820350  0.027267  1
  O  O45  1  0.443399  0.828988  0.531930  1
  O  O46  1  0.357011  0.831596  0.278456  1
  O  O47  1  0.866785  0.828018  0.780602  1
  O  O48  1  0.129344  0.667641  0.216813  1
  O  O49  1  0.629686  0.666251  0.713795  1
  O  O50  1  0.554673  0.668697  0.465213  1
  O  O51  1  0.053399  0.663104  0.965246  1
  O  O52  1  0.585312  0.661241  0.015406  1
  O  O53  1  0.085700  0.662220  0.514793  1
  O  O54  1  0.692087  0.660143  0.264291  1
  O  O55  1  0.195390  0.660457  0.764603  1
  O  O56  1  0.955019  0.511909  0.325165  1
  O  O57  1  0.455430  0.510562  0.824481  1
  O  O58  1  0.448462  0.510044  0.074695  1
  O  O59  1  0.947466  0.511194  0.575265  1
  O  O60  1  0.947466  0.488806  0.075265  1
  O  O61  1  0.448462  0.489956  0.574695  1
  O  O62  1  0.455430  0.489438  0.324481  1
  O  O63  1  0.955019  0.488091  0.825165  1
  O  O64  1  0.195390  0.339543  0.264603  1
  O  O65  1  0.692087  0.339857  0.764291  1
  O  O66  1  0.085700  0.337780  0.014793  1
  O  O67  1  0.585312  0.338759  0.515406  1
  O  O68  1  0.554673  0.331303  0.965213  1
  O  O69  1  0.053399  0.336896  0.465246  1
  O  O70  1  0.629686  0.333749  0.213795  1
  O  O71  1  0.129344  0.332359  0.716813  1
