# generated using pymatgen
data_CoH19S3N5O11
_symmetry_space_group_name_H-M   'P 1'
_cell_length_a   6.72609648
_cell_length_b   16.01849661
_cell_length_c   13.56098778
_cell_angle_alpha   90.00000000
_cell_angle_beta   95.74925845
_cell_angle_gamma   90.00000000
_symmetry_Int_Tables_number   1
_chemical_formula_structural   CoH19S3N5O11
_chemical_formula_sum   'Co4 H76 S12 N20 O44'
_cell_volume   1453.73777766
_cell_formula_units_Z   4
loop_
 _symmetry_equiv_pos_site_id
 _symmetry_equiv_pos_as_xyz
  1  'x, y, z'
loop_
 _atom_site_type_symbol
 _atom_site_label
 _atom_site_symmetry_multiplicity
 _atom_site_fract_x
 _atom_site_fract_y
 _atom_site_fract_z
 _atom_site_occupancy
  Co  Co0  1  0.480679  0.390469  0.752507  1
  Co  Co1  1  0.519321  0.890469  0.747493  1
  Co  Co2  1  0.519321  0.609531  0.247493  1
  Co  Co3  1  0.480679  0.109531  0.252507  1
  H  H4  1  0.848850  0.241580  0.081702  1
  H  H5  1  0.151150  0.741580  0.418298  1
  H  H6  1  0.151150  0.758420  0.918298  1
  H  H7  1  0.848850  0.258420  0.581702  1
  H  H8  1  0.914623  0.307109  0.166406  1
  H  H9  1  0.085377  0.807109  0.333594  1
  H  H10  1  0.085377  0.692891  0.833594  1
  H  H11  1  0.914623  0.192891  0.666406  1
  H  H12  1  0.823968  0.308974  0.741278  1
  H  H13  1  0.176032  0.808974  0.758722  1
  H  H14  1  0.176032  0.691026  0.258722  1
  H  H15  1  0.823968  0.191026  0.241278  1
  H  H16  1  0.835381  0.352683  0.852624  1
  H  H17  1  0.164619  0.852683  0.647376  1
  H  H18  1  0.164619  0.647317  0.147376  1
  H  H19  1  0.835381  0.147317  0.352624  1
  H  H20  1  0.514516  0.301236  0.907687  1
  H  H21  1  0.485484  0.801236  0.592313  1
  H  H22  1  0.485484  0.698764  0.092313  1
  H  H23  1  0.514516  0.198764  0.407687  1
  H  H24  1  0.286033  0.339208  0.896061  1
  H  H25  1  0.713967  0.839208  0.603939  1
  H  H26  1  0.713967  0.660792  0.103939  1
  H  H27  1  0.286033  0.160792  0.396061  1
  H  H28  1  0.477011  0.399335  0.940107  1
  H  H29  1  0.522989  0.899335  0.559893  1
  H  H30  1  0.522989  0.600665  0.059893  1
  H  H31  1  0.477011  0.100665  0.440107  1
  H  H32  1  0.474180  0.552237  0.757784  1
  H  H33  1  0.525820  0.052237  0.742216  1
  H  H34  1  0.525820  0.447763  0.242216  1
  H  H35  1  0.474180  0.947763  0.257784  1
  H  H36  1  0.524136  0.516335  0.871840  1
  H  H37  1  0.475864  0.016335  0.628160  1
  H  H38  1  0.475864  0.483665  0.128160  1
  H  H39  1  0.524136  0.983665  0.371840  1
  H  H40  1  0.703654  0.519850  0.796260  1
  H  H41  1  0.296346  0.019850  0.703740  1
  H  H42  1  0.296346  0.480150  0.203740  1
  H  H43  1  0.703654  0.980150  0.296260  1
  H  H44  1  0.518530  0.232613  0.713859  1
  H  H45  1  0.481470  0.732613  0.786141  1
  H  H46  1  0.481470  0.767387  0.286141  1
  H  H47  1  0.518530  0.267387  0.213859  1
  H  H48  1  0.284805  0.250978  0.735475  1
  H  H49  1  0.715195  0.750978  0.764525  1
  H  H50  1  0.715195  0.749022  0.264525  1
  H  H51  1  0.284805  0.249022  0.235475  1
  H  H52  1  0.356067  0.275162  0.625141  1
  H  H53  1  0.643933  0.775162  0.874859  1
  H  H54  1  0.643933  0.724838  0.374859  1
  H  H55  1  0.356067  0.224838  0.125141  1
  H  H56  1  0.556499  0.487671  0.612429  1
  H  H57  1  0.443501  0.987671  0.887571  1
  H  H58  1  0.443501  0.512329  0.387571  1
  H  H59  1  0.556499  0.012329  0.112429  1
  H  H60  1  0.677075  0.400879  0.602110  1
  H  H61  1  0.322925  0.900879  0.897890  1
  H  H62  1  0.322925  0.599121  0.397890  1
  H  H63  1  0.677075  0.099121  0.102110  1
  H  H64  1  0.435334  0.404927  0.564992  1
  H  H65  1  0.564666  0.904927  0.935008  1
  H  H66  1  0.564666  0.595073  0.435008  1
  H  H67  1  0.435334  0.095073  0.064992  1
  H  H68  1  0.169775  0.492445  0.719429  1
  H  H69  1  0.830225  0.992445  0.780571  1
  H  H70  1  0.830225  0.507555  0.280571  1
  H  H71  1  0.169775  0.007555  0.219429  1
  H  H72  1  0.087512  0.407271  0.767243  1
  H  H73  1  0.912488  0.907271  0.732757  1
  H  H74  1  0.912488  0.592729  0.232757  1
  H  H75  1  0.087512  0.092729  0.267243  1
  H  H76  1  0.130493  0.409213  0.649691  1
  H  H77  1  0.869507  0.909213  0.850309  1
  H  H78  1  0.869507  0.590787  0.350309  1
  H  H79  1  0.130493  0.090787  0.149691  1
  S  S80  1  0.112066  0.149285  0.903597  1
  S  S81  1  0.887934  0.649285  0.596403  1
  S  S82  1  0.887934  0.850715  0.096403  1
  S  S83  1  0.112066  0.350715  0.403597  1
  S  S84  1  0.781432  0.136879  0.899878  1
  S  S85  1  0.218568  0.636879  0.600122  1
  S  S86  1  0.218568  0.863121  0.100122  1
  S  S87  1  0.781432  0.363121  0.399878  1
  S  S88  1  0.919865  0.446807  0.029911  1
  S  S89  1  0.080135  0.946807  0.470089  1
  S  S90  1  0.080135  0.553193  0.970089  1
  S  S91  1  0.919865  0.053193  0.529911  1
  N  N92  1  0.432062  0.354192  0.888752  1
  N  N93  1  0.567938  0.854192  0.611248  1
  N  N94  1  0.567938  0.645808  0.111248  1
  N  N95  1  0.432062  0.145808  0.388752  1
  N  N96  1  0.183482  0.428915  0.719297  1
  N  N97  1  0.816518  0.928915  0.780703  1
  N  N98  1  0.816518  0.571085  0.280703  1
  N  N99  1  0.183482  0.071085  0.219297  1
  N  N100  1  0.543260  0.424252  0.619384  1
  N  N101  1  0.456740  0.924252  0.880616  1
  N  N102  1  0.456740  0.575748  0.380616  1
  N  N103  1  0.543260  0.075748  0.119384  1
  N  N104  1  0.554544  0.507810  0.799905  1
  N  N105  1  0.445456  0.007810  0.700095  1
  N  N106  1  0.445456  0.492190  0.200095  1
  N  N107  1  0.554544  0.992190  0.299905  1
  N  N108  1  0.401798  0.273731  0.699750  1
  N  N109  1  0.598202  0.773731  0.800250  1
  N  N110  1  0.598202  0.726269  0.300250  1
  N  N111  1  0.401798  0.226269  0.199750  1
  O  O112  1  0.776180  0.356087  0.782513  1
  O  O113  1  0.223820  0.856087  0.717487  1
  O  O114  1  0.223820  0.643913  0.217487  1
  O  O115  1  0.776180  0.143913  0.282513  1
  O  O116  1  0.135098  0.225922  0.845406  1
  O  O117  1  0.864902  0.725922  0.654594  1
  O  O118  1  0.864902  0.774078  0.154594  1
  O  O119  1  0.135098  0.274078  0.345406  1
  O  O120  1  0.184179  0.158279  0.009265  1
  O  O121  1  0.815821  0.658279  0.490735  1
  O  O122  1  0.815821  0.841721  0.990735  1
  O  O123  1  0.184179  0.341721  0.509265  1
  O  O124  1  0.178837  0.072973  0.857779  1
  O  O125  1  0.821163  0.572973  0.642221  1
  O  O126  1  0.821163  0.927027  0.142221  1
  O  O127  1  0.178837  0.427027  0.357779  1
  O  O128  1  0.705241  0.141814  0.793812  1
  O  O129  1  0.294759  0.641814  0.706188  1
  O  O130  1  0.294759  0.858186  0.206188  1
  O  O131  1  0.705241  0.358186  0.293812  1
  O  O132  1  0.750024  0.054362  0.943362  1
  O  O133  1  0.249976  0.554362  0.556638  1
  O  O134  1  0.249976  0.945638  0.056638  1
  O  O135  1  0.750024  0.445638  0.443362  1
  O  O136  1  0.714004  0.207202  0.958778  1
  O  O137  1  0.285996  0.707202  0.541222  1
  O  O138  1  0.285996  0.792798  0.041222  1
  O  O139  1  0.714004  0.292798  0.458778  1
  O  O140  1  0.006983  0.436715  0.132498  1
  O  O141  1  0.993017  0.936715  0.367502  1
  O  O142  1  0.993017  0.563285  0.867502  1
  O  O143  1  0.006983  0.063285  0.632498  1
  O  O144  1  0.960706  0.375671  0.965220  1
  O  O145  1  0.039294  0.875671  0.534780  1
  O  O146  1  0.039294  0.624329  0.034780  1
  O  O147  1  0.960706  0.124329  0.465220  1
  O  O148  1  0.708007  0.472428  0.020118  1
  O  O149  1  0.291993  0.972428  0.479882  1
  O  O150  1  0.291993  0.527572  0.979882  1
  O  O151  1  0.708007  0.027572  0.520118  1
  O  O152  1  0.892648  0.247391  0.152681  1
  O  O153  1  0.107352  0.747391  0.347319  1
  O  O154  1  0.107352  0.752609  0.847319  1
  O  O155  1  0.892648  0.252609  0.652681  1
