# generated using pymatgen
data_Li5AlO4
_symmetry_space_group_name_H-M   'P 1'
_cell_length_a   4.66955213
_cell_length_b   6.36617935
_cell_length_c   6.48306170
_cell_angle_alpha   90.00000000
_cell_angle_beta   90.00000000
_cell_angle_gamma   90.00000000
_symmetry_Int_Tables_number   1
_chemical_formula_structural   Li5AlO4
_chemical_formula_sum   'Li10 Al2 O8'
_cell_volume   192.72331290
_cell_formula_units_Z   2
loop_
 _symmetry_equiv_pos_site_id
 _symmetry_equiv_pos_as_xyz
  1  'x, y, z'
loop_
 _atom_site_type_symbol
 _atom_site_label
 _atom_site_symmetry_multiplicity
 _atom_site_fract_x
 _atom_site_fract_y
 _atom_site_fract_z
 _atom_site_occupancy
  Li  Li0  1  0.745348  0.238810  0.197547  1
  Li  Li1  1  0.745348  0.761190  0.802453  1
  Li  Li2  1  0.254652  0.738810  0.302453  1
  Li  Li3  1  0.254652  0.261190  0.697547  1
  Li  Li4  1  0.254652  0.261190  0.302453  1
  Li  Li5  1  0.254652  0.738810  0.697547  1
  Li  Li6  1  0.745348  0.761190  0.197547  1
  Li  Li7  1  0.745348  0.238810  0.802453  1
  Li  Li8  1  0.796032  0.000000  0.500000  1
  Li  Li9  1  0.203968  0.500000  0.000000  1
  Al  Al10  1  0.224488  0.000000  0.000000  1
  Al  Al11  1  0.775512  0.500000  0.500000  1
  O  O12  1  0.016580  0.000000  0.231873  1
  O  O13  1  0.016580  0.000000  0.768127  1
  O  O14  1  0.570818  0.735810  0.500000  1
  O  O15  1  0.570818  0.264190  0.500000  1
  O  O16  1  0.429182  0.235810  0.000000  1
  O  O17  1  0.429182  0.764190  0.000000  1
  O  O18  1  0.983420  0.500000  0.731873  1
  O  O19  1  0.983420  0.500000  0.268127  1
