# generated using pymatgen
data_Hf2N2O
_symmetry_space_group_name_H-M   'P 1'
_cell_length_a   8.71738731
_cell_length_b   8.72681671
_cell_length_c   8.73169312
_cell_angle_alpha   109.37308544
_cell_angle_beta   109.31684636
_cell_angle_gamma   109.41618975
_symmetry_Int_Tables_number   1
_chemical_formula_structural   Hf2N2O
_chemical_formula_sum   'Hf16 N16 O8'
_cell_volume   513.28194560
_cell_formula_units_Z   8
loop_
 _symmetry_equiv_pos_site_id
 _symmetry_equiv_pos_as_xyz
  1  'x, y, z'
loop_
 _atom_site_type_symbol
 _atom_site_label
 _atom_site_symmetry_multiplicity
 _atom_site_fract_x
 _atom_site_fract_y
 _atom_site_fract_z
 _atom_site_occupancy
  Hf  Hf0  1  0.744183  0.782154  0.031847  1
  Hf  Hf1  1  0.509332  0.004298  0.999480  1
  Hf  Hf2  1  0.029314  0.248589  0.274097  1
  Hf  Hf3  1  0.469137  0.758291  0.218991  1
  Hf  Hf4  1  0.710351  0.966729  0.746034  1
  Hf  Hf5  1  0.220386  0.471953  0.757467  1
  Hf  Hf6  1  0.010936  0.004318  0.520205  1
  Hf  Hf7  1  0.981858  0.489971  0.987168  1
  Hf  Hf8  1  0.743948  0.284908  0.534813  1
  Hf  Hf9  1  0.500511  0.493664  0.488833  1
  Hf  Hf10  1  0.253253  0.715571  0.465510  1
  Hf  Hf11  1  0.789467  0.530889  0.246882  1
  Hf  Hf12  1  0.294187  0.045443  0.259718  1
  Hf  Hf13  1  0.962186  0.742031  0.703106  1
  Hf  Hf14  1  0.532250  0.249017  0.788103  1
  Hf  Hf15  1  0.250777  0.213266  0.965896  1
  N  N16  1  0.467637  0.722141  0.954199  1
  N  N17  1  0.509210  0.735251  0.461656  1
  N  N18  1  0.017582  0.548449  0.775684  1
  N  N19  1  0.450520  0.962666  0.727548  1
  N  N20  1  0.258202  0.271275  0.226983  1
  N  N21  1  0.764422  0.538898  0.991375  1
  N  N22  1  0.543919  0.031843  0.273952  1
  N  N23  1  0.045609  0.775049  0.508804  1
  N  N24  1  0.966086  0.006947  0.739631  1
  N  N25  1  0.773945  0.227569  0.762093  1
  N  N26  1  0.485695  0.261603  0.533479  1
  N  N27  1  0.993008  0.455899  0.228576  1
  N  N28  1  0.268627  0.241767  0.727792  1
  N  N29  1  0.775160  0.041934  0.033605  1
  N  N30  1  0.726859  0.492565  0.457199  1
  N  N31  1  0.533121  0.271966  0.049090  1
  O  O32  1  0.270878  0.512766  0.548761  1
  O  O33  1  0.226651  0.955060  0.967841  1
  O  O34  1  0.730430  0.770405  0.274174  1
  O  O35  1  0.227056  0.773905  0.237428  1
  O  O36  1  0.035180  0.983411  0.263235  1
  O  O37  1  0.733678  0.723165  0.771895  1
  O  O38  1  0.953940  0.226058  0.480421  1
  O  O39  1  0.240507  0.468316  0.016430  1
