# generated using pymatgen
data_Li2SbSO4F3
_symmetry_space_group_name_H-M   'P 1'
_cell_length_a   5.13408293
_cell_length_b   8.73965172
_cell_length_c   13.01814713
_cell_angle_alpha   90.00000000
_cell_angle_beta   90.00000000
_cell_angle_gamma   90.00000000
_symmetry_Int_Tables_number   1
_chemical_formula_structural   Li2SbSO4F3
_chemical_formula_sum   'Li8 Sb4 S4 O16 F12'
_cell_volume   584.12552071
_cell_formula_units_Z   4
loop_
 _symmetry_equiv_pos_site_id
 _symmetry_equiv_pos_as_xyz
  1  'x, y, z'
loop_
 _atom_site_type_symbol
 _atom_site_label
 _atom_site_symmetry_multiplicity
 _atom_site_fract_x
 _atom_site_fract_y
 _atom_site_fract_z
 _atom_site_occupancy
  Li  Li0  1  0.958563  0.492635  0.221096  1
  Li  Li1  1  0.004100  0.289433  0.946062  1
  Li  Li2  1  0.495900  0.710567  0.446062  1
  Li  Li3  1  0.541437  0.507365  0.721096  1
  Li  Li4  1  0.458563  0.007365  0.778904  1
  Li  Li5  1  0.504100  0.210567  0.053938  1
  Li  Li6  1  0.995900  0.789433  0.553938  1
  Li  Li7  1  0.041437  0.992635  0.278904  1
  Sb  Sb8  1  0.056808  0.942223  0.026099  1
  Sb  Sb9  1  0.443192  0.057777  0.526099  1
  Sb  Sb10  1  0.556808  0.557777  0.973901  1
  Sb  Sb11  1  0.943192  0.442223  0.473901  1
  S  S12  1  0.972848  0.203698  0.677803  1
  S  S13  1  0.527152  0.796302  0.177803  1
  S  S14  1  0.472848  0.296302  0.322197  1
  S  S15  1  0.027152  0.703698  0.822197  1
  O  O16  1  0.023504  0.118752  0.576045  1
  O  O17  1  0.155738  0.852897  0.853631  1
  O  O18  1  0.207134  0.613356  0.759446  1
  O  O19  1  0.225021  0.230350  0.729091  1
  O  O20  1  0.274979  0.769650  0.229091  1
  O  O21  1  0.292866  0.386644  0.259446  1
  O  O22  1  0.344262  0.147103  0.353631  1
  O  O23  1  0.476496  0.881248  0.076045  1
  O  O24  1  0.523504  0.381248  0.423955  1
  O  O25  1  0.655738  0.647103  0.146369  1
  O  O26  1  0.707134  0.886644  0.240554  1
  O  O27  1  0.725021  0.269650  0.270909  1
  O  O28  1  0.774979  0.730350  0.770909  1
  O  O29  1  0.792866  0.113356  0.740554  1
  O  O30  1  0.844262  0.352897  0.646369  1
  O  O31  1  0.976496  0.618752  0.923955  1
  F  F32  1  0.110140  0.086751  0.146392  1
  F  F33  1  0.208033  0.611418  0.519531  1
  F  F34  1  0.275321  0.101921  0.955135  1
  F  F35  1  0.224679  0.898079  0.455135  1
  F  F36  1  0.291967  0.388582  0.019531  1
  F  F37  1  0.389860  0.913249  0.646392  1
  F  F38  1  0.610140  0.413249  0.853608  1
  F  F39  1  0.708033  0.888582  0.480469  1
  F  F40  1  0.775321  0.398079  0.044865  1
  F  F41  1  0.724679  0.601921  0.544865  1
  F  F42  1  0.791967  0.111418  0.980469  1
  F  F43  1  0.889860  0.586751  0.353608  1
