# generated using pymatgen
data_H20C3(N2O5)2
_symmetry_space_group_name_H-M   'P 1'
_cell_length_a   9.58831960
_cell_length_b   8.78777541
_cell_length_c   6.40073043
_cell_angle_alpha   76.50171827
_cell_angle_beta   63.02336819
_cell_angle_gamma   40.47491355
_symmetry_Int_Tables_number   1
_chemical_formula_structural   H20C3(N2O5)2
_chemical_formula_sum   'H20 C3 N4 O10'
_cell_volume   306.12576713
_cell_formula_units_Z   1
loop_
 _symmetry_equiv_pos_site_id
 _symmetry_equiv_pos_as_xyz
  1  'x, y, z'
loop_
 _atom_site_type_symbol
 _atom_site_label
 _atom_site_symmetry_multiplicity
 _atom_site_fract_x
 _atom_site_fract_y
 _atom_site_fract_z
 _atom_site_occupancy
  H  H0  1  0.369792  0.920045  0.418175  1
  H  H1  1  0.655133  0.442004  0.557996  1
  H  H2  1  0.899847  0.784014  0.215986  1
  H  H3  1  0.111352  0.222771  0.462875  1
  H  H4  1  0.777229  0.888648  0.796998  1
  H  H5  1  0.101513  0.046543  0.626735  1
  H  H6  1  0.953457  0.898487  0.774792  1
  H  H7  1  0.708012  0.581825  0.079955  1
  H  H8  1  0.321607  0.479540  0.175745  1
  H  H9  1  0.520460  0.678393  0.976891  1
  H  H10  1  0.175745  0.023109  0.321607  1
  H  H11  1  0.976891  0.824255  0.520460  1
  H  H12  1  0.079955  0.630208  0.708012  1
  H  H13  1  0.626735  0.225208  0.101513  1
  H  H14  1  0.774792  0.373265  0.953457  1
  H  H15  1  0.796998  0.537125  0.777229  1
  H  H16  1  0.462875  0.203002  0.111352  1
  H  H17  1  0.215986  0.100153  0.899847  1
  H  H18  1  0.557996  0.344867  0.655133  1
  H  H19  1  0.418175  0.291988  0.369792  1
  C  C20  1  0.070171  0.929829  0.070171  1
  C  C21  1  0.804413  0.637705  0.362295  1
  C  C22  1  0.362295  0.195587  0.804413  1
  N  N23  1  0.189416  0.052196  0.458781  1
  N  N24  1  0.947804  0.810584  0.700393  1
  N  N25  1  0.458781  0.299607  0.189416  1
  N  N26  1  0.700393  0.541219  0.947804  1
  O  O27  1  0.946484  0.053516  0.946484  1
  O  O28  1  0.936023  0.530327  0.469673  1
  O  O29  1  0.661140  0.338860  0.661140  1
  O  O30  1  0.677261  0.623570  0.376430  1
  O  O31  1  0.794083  0.782326  0.217674  1
  O  O32  1  0.201220  0.941161  0.058839  1
  O  O33  1  0.469673  0.063977  0.936023  1
  O  O34  1  0.217674  0.205917  0.794083  1
  O  O35  1  0.376430  0.322739  0.677261  1
  O  O36  1  0.058839  0.798780  0.201220  1
