# generated using pymatgen
data_Cr4OF11
_symmetry_space_group_name_H-M   'P 1'
_cell_length_a   5.09968683
_cell_length_b   5.32715472
_cell_length_c   16.89029526
_cell_angle_alpha   84.15239713
_cell_angle_beta   81.33450854
_cell_angle_gamma   61.42667422
_symmetry_Int_Tables_number   1
_chemical_formula_structural   Cr4OF11
_chemical_formula_sum   'Cr8 O2 F22'
_cell_volume   398.13457310
_cell_formula_units_Z   2
loop_
 _symmetry_equiv_pos_site_id
 _symmetry_equiv_pos_as_xyz
  1  'x, y, z'
loop_
 _atom_site_type_symbol
 _atom_site_label
 _atom_site_symmetry_multiplicity
 _atom_site_fract_x
 _atom_site_fract_y
 _atom_site_fract_z
 _atom_site_occupancy
  Cr  Cr0  1  0.112947  0.141432  0.628468  1
  Cr  Cr1  1  0.621413  0.629546  0.125783  1
  Cr  Cr2  1  0.000000  0.000000  0.000000  1
  Cr  Cr3  1  0.500000  0.500000  0.500000  1
  Cr  Cr4  1  0.887053  0.858568  0.371532  1
  Cr  Cr5  1  0.378587  0.370454  0.874217  1
  Cr  Cr6  1  0.241376  0.268032  0.253726  1
  Cr  Cr7  1  0.758624  0.731968  0.746274  1
  O  O8  1  0.814834  0.437080  0.687466  1
  O  O9  1  0.185166  0.562920  0.312534  1
  F  F10  1  0.350117  0.967939  0.717336  1
  F  F11  1  0.424250  0.817413  0.563798  1
  F  F12  1  0.316123  0.944594  0.189254  1
  F  F13  1  0.402594  0.781742  0.032457  1
  F  F14  1  0.090172  0.092857  0.342342  1
  F  F15  1  0.903117  0.282896  0.533242  1
  F  F16  1  0.157668  0.156175  0.907050  1
  F  F17  1  0.656214  0.657253  0.406836  1
  F  F18  1  0.844702  0.468527  0.218447  1
  F  F19  1  0.909828  0.907143  0.657658  1
  F  F20  1  0.934346  0.314563  0.062784  1
  F  F21  1  0.575750  0.182587  0.436202  1
  F  F22  1  0.594066  0.591935  0.841633  1
  F  F23  1  0.842332  0.843825  0.092950  1
  F  F24  1  0.343786  0.342747  0.593164  1
  F  F25  1  0.649883  0.032061  0.282664  1
  F  F26  1  0.597406  0.218258  0.967543  1
  F  F27  1  0.405934  0.408065  0.158367  1
  F  F28  1  0.096883  0.717104  0.466758  1
  F  F29  1  0.683877  0.055406  0.810746  1
  F  F30  1  0.065654  0.685437  0.937216  1
  F  F31  1  0.155298  0.531473  0.781553  1
