# generated using pymatgen
data_CrP4O11
_symmetry_space_group_name_H-M   'P 1'
_cell_length_a   5.41781637
_cell_length_b   22.58777255
_cell_length_c   7.72662677
_cell_angle_alpha   90.00000000
_cell_angle_beta   108.10935065
_cell_angle_gamma   90.00000000
_symmetry_Int_Tables_number   1
_chemical_formula_structural   CrP4O11
_chemical_formula_sum   'Cr4 P16 O44'
_cell_volume   898.71865853
_cell_formula_units_Z   4
loop_
 _symmetry_equiv_pos_site_id
 _symmetry_equiv_pos_as_xyz
  1  'x, y, z'
loop_
 _atom_site_type_symbol
 _atom_site_label
 _atom_site_symmetry_multiplicity
 _atom_site_fract_x
 _atom_site_fract_y
 _atom_site_fract_z
 _atom_site_occupancy
  Cr  Cr0  1  0.004706  0.887180  0.374188  1
  Cr  Cr1  1  0.004706  0.612820  0.874188  1
  Cr  Cr2  1  0.995294  0.387180  0.125812  1
  Cr  Cr3  1  0.995294  0.112820  0.625812  1
  P  P4  1  0.310870  0.571969  0.322592  1
  P  P5  1  0.403834  0.195107  0.465618  1
  P  P6  1  0.331226  0.179580  0.060387  1
  P  P7  1  0.405913  0.965370  0.207942  1
  P  P8  1  0.310870  0.928031  0.822592  1
  P  P9  1  0.403834  0.304893  0.965618  1
  P  P10  1  0.594087  0.465370  0.292058  1
  P  P11  1  0.668774  0.679580  0.439613  1
  P  P12  1  0.331226  0.320420  0.560387  1
  P  P13  1  0.405913  0.534630  0.707942  1
  P  P14  1  0.596166  0.695107  0.034382  1
  P  P15  1  0.689130  0.071969  0.177408  1
  P  P16  1  0.594087  0.034630  0.792058  1
  P  P17  1  0.668774  0.820420  0.939613  1
  P  P18  1  0.596166  0.804893  0.534382  1
  P  P19  1  0.689130  0.428031  0.677408  1
  O  O20  1  0.097940  0.342555  0.421726  1
  O  O21  1  0.079977  0.573501  0.162163  1
  O  O22  1  0.243812  0.545968  0.492469  1
  O  O23  1  0.221462  0.955398  0.312008  1
  O  O24  1  0.347368  0.837430  0.485515  1
  O  O25  1  0.097940  0.157445  0.921726  1
  O  O26  1  0.273775  0.195446  0.243438  1
  O  O27  1  0.193802  0.319108  0.045064  1
  O  O28  1  0.336921  0.436092  0.247780  1
  O  O29  1  0.471585  0.265378  0.503621  1
  O  O30  1  0.423517  0.636425  0.385982  1
  O  O31  1  0.079977  0.926499  0.662163  1
  O  O32  1  0.243812  0.954032  0.992469  1
  O  O33  1  0.221462  0.544602  0.812008  1
  O  O34  1  0.443232  0.037523  0.198572  1
  O  O35  1  0.347368  0.662570  0.985515  1
  O  O36  1  0.273775  0.304554  0.743438  1
  O  O37  1  0.193802  0.180892  0.545064  1
  O  O38  1  0.556768  0.537523  0.301428  1
  O  O39  1  0.336921  0.063908  0.747780  1
  O  O40  1  0.471585  0.234622  0.003621  1
  O  O41  1  0.423517  0.863575  0.885982  1
  O  O42  1  0.576483  0.136425  0.114018  1
  O  O43  1  0.528415  0.765378  0.996379  1
  O  O44  1  0.663079  0.936092  0.252220  1
  O  O45  1  0.443232  0.462477  0.698572  1
  O  O46  1  0.806198  0.819108  0.454936  1
  O  O47  1  0.726225  0.695446  0.256562  1
  O  O48  1  0.652632  0.337430  0.014485  1
  O  O49  1  0.556768  0.962477  0.801428  1
  O  O50  1  0.778538  0.455398  0.187992  1
  O  O51  1  0.756188  0.045968  0.007531  1
  O  O52  1  0.920023  0.073501  0.337837  1
  O  O53  1  0.576483  0.363575  0.614018  1
  O  O54  1  0.528415  0.734622  0.496379  1
  O  O55  1  0.663079  0.563908  0.752220  1
  O  O56  1  0.806198  0.680892  0.954936  1
  O  O57  1  0.726225  0.804554  0.756562  1
  O  O58  1  0.902060  0.842555  0.078274  1
  O  O59  1  0.652632  0.162570  0.514485  1
  O  O60  1  0.778538  0.044602  0.687992  1
  O  O61  1  0.756188  0.454032  0.507531  1
  O  O62  1  0.920023  0.426499  0.837837  1
  O  O63  1  0.902060  0.657445  0.578274  1
