# generated using pymatgen
data_B(HO)3
_symmetry_space_group_name_H-M   'P 1'
_cell_length_a   7.01544365
_cell_length_b   7.01544365
_cell_length_c   9.61715072
_cell_angle_alpha   90.00000000
_cell_angle_beta   90.00000000
_cell_angle_gamma   120.00000000
_symmetry_Int_Tables_number   1
_chemical_formula_structural   B(HO)3
_chemical_formula_sum   'B6 H18 O18'
_cell_volume   409.90888785
_cell_formula_units_Z   6
loop_
 _symmetry_equiv_pos_site_id
 _symmetry_equiv_pos_as_xyz
  1  'x, y, z'
loop_
 _atom_site_type_symbol
 _atom_site_label
 _atom_site_symmetry_multiplicity
 _atom_site_fract_x
 _atom_site_fract_y
 _atom_site_fract_z
 _atom_site_occupancy
  B  B0  1  0.185864  0.643861  0.296155  1
  B  B1  1  0.457997  0.814136  0.629489  1
  B  B2  1  0.356139  0.542003  0.962822  1
  B  B3  1  0.518375  0.311379  0.309412  1
  B  B4  1  0.793004  0.481625  0.642745  1
  B  B5  1  0.688621  0.206996  0.976079  1
  H  H6  1  0.053153  0.786083  0.638466  1
  H  H7  1  0.142861  0.905052  0.300179  1
  H  H8  1  0.312829  0.803968  0.965432  1
  H  H9  1  0.196032  0.508861  0.632099  1
  H  H10  1  0.094948  0.237809  0.966845  1
  H  H11  1  0.213917  0.267069  0.305133  1
  H  H12  1  0.491139  0.687171  0.298766  1
  H  H13  1  0.732931  0.946847  0.971800  1
  H  H14  1  0.487734  0.437115  0.641333  1
  H  H15  1  0.762191  0.857139  0.633512  1
  H  H16  1  0.384220  0.164090  0.963561  1
  H  H17  1  0.661550  0.586702  0.963318  1
  H  H18  1  0.413298  0.074848  0.629985  1
  H  H19  1  0.779870  0.615780  0.296894  1
  H  H20  1  0.562885  0.050619  0.307999  1
  H  H21  1  0.949381  0.512266  0.974666  1
  H  H22  1  0.835910  0.220130  0.630227  1
  H  H23  1  0.925152  0.338450  0.296651  1
  O  O24  1  0.056439  0.739934  0.295836  1
  O  O25  1  0.327871  0.910922  0.627787  1
  O  O26  1  0.089078  0.416949  0.294454  1
  O  O27  1  0.226911  0.639310  0.965944  1
  O  O28  1  0.412399  0.773089  0.299277  1
  O  O29  1  0.360690  0.587601  0.632610  1
  O  O30  1  0.260066  0.316505  0.962503  1
  O  O31  1  0.292932  0.181444  0.313283  1
  O  O32  1  0.683495  0.943561  0.629170  1
  O  O33  1  0.583051  0.672129  0.961121  1
  O  O34  1  0.615038  0.537245  0.303321  1
  O  O35  1  0.566365  0.350885  0.643660  1
  O  O36  1  0.462755  0.077793  0.969988  1
  O  O37  1  0.888512  0.707068  0.646616  1
  O  O38  1  0.649115  0.215479  0.310327  1
  O  O39  1  0.784521  0.433635  0.976993  1
  O  O40  1  0.922207  0.384962  0.636655  1
  O  O41  1  0.818556  0.111488  0.979949  1
