# generated using pymatgen
data_LiLa4CoO8
_symmetry_space_group_name_H-M   'P 1'
_cell_length_a   13.49705347
_cell_length_b   13.49705347
_cell_length_c   13.49705347
_cell_angle_alpha   157.17190479
_cell_angle_beta   157.17190479
_cell_angle_gamma   32.50484140
_symmetry_Int_Tables_number   1
_chemical_formula_structural   LiLa4CoO8
_chemical_formula_sum   'Li2 La8 Co2 O16'
_cell_volume   369.78280750
_cell_formula_units_Z   2
loop_
 _symmetry_equiv_pos_site_id
 _symmetry_equiv_pos_as_xyz
  1  'x, y, z'
loop_
 _atom_site_type_symbol
 _atom_site_label
 _atom_site_symmetry_multiplicity
 _atom_site_fract_x
 _atom_site_fract_y
 _atom_site_fract_z
 _atom_site_occupancy
  Li  Li0  1  0.750000  0.250000  0.500000  1
  Li  Li1  1  1.000000  0.000000  0.000000  1
  La  La2  1  0.068412  0.568412  0.500000  1
  La  La3  1  0.930588  0.430588  0.500000  1
  La  La4  1  0.681588  0.681588  0.000000  1
  La  La5  1  0.318412  0.318412  0.000000  1
  La  La6  1  0.819412  0.819412  0.000000  1
  La  La7  1  0.180588  0.180588  0.000000  1
  La  La8  1  0.569412  0.069412  0.500000  1
  La  La9  1  0.431588  0.931588  0.500000  1
  Co  Co10  1  0.250000  0.750000  0.500000  1
  Co  Co11  1  0.500000  0.500000  0.000000  1
  O  O12  1  0.744830  0.255170  0.000000  1
  O  O13  1  0.005170  0.505170  0.010339  1
  O  O14  1  0.005170  0.994830  0.500000  1
  O  O15  1  0.840404  0.340404  0.500000  1
  O  O16  1  0.159991  0.659991  0.500000  1
  O  O17  1  0.255170  0.255170  0.510339  1
  O  O18  1  0.494830  0.505170  0.500000  1
  O  O19  1  0.744830  0.744830  0.489661  1
  O  O20  1  0.090404  0.090404  0.000000  1
  O  O21  1  0.494830  0.994830  0.989661  1
  O  O22  1  0.590009  0.590009  0.000000  1
  O  O23  1  0.255170  0.744830  0.000000  1
  O  O24  1  0.909596  0.909596  0.000000  1
  O  O25  1  0.409991  0.409991  0.000000  1
  O  O26  1  0.340009  0.840009  0.500000  1
  O  O27  1  0.659596  0.159596  0.500000  1
