# generated using pymatgen
data_Rb19O3
_symmetry_space_group_name_H-M   'P 1'
_cell_length_a   16.35833015
_cell_length_b   16.35833015
_cell_length_c   16.35833015
_cell_angle_alpha   60.00000000
_cell_angle_beta   60.00000000
_cell_angle_gamma   60.00000000
_symmetry_Int_Tables_number   1
_chemical_formula_structural   Rb19O3
_chemical_formula_sum   'Rb38 O6'
_cell_volume   3095.29402601
_cell_formula_units_Z   2
loop_
 _symmetry_equiv_pos_site_id
 _symmetry_equiv_pos_as_xyz
  1  'x, y, z'
loop_
 _atom_site_type_symbol
 _atom_site_label
 _atom_site_symmetry_multiplicity
 _atom_site_fract_x
 _atom_site_fract_y
 _atom_site_fract_z
 _atom_site_occupancy
  Rb  Rb0  1  0.000000  0.000000  0.000000  1
  Rb  Rb1  1  0.886384  0.613616  0.613616  1
  Rb  Rb2  1  0.948962  0.051038  0.327300  1
  Rb  Rb3  1  0.672700  0.327300  0.051038  1
  Rb  Rb4  1  0.613616  0.613616  0.886384  1
  Rb  Rb5  1  0.886384  0.613616  0.886384  1
  Rb  Rb6  1  0.886384  0.886384  0.613616  1
  Rb  Rb7  1  0.613616  0.886384  0.613616  1
  Rb  Rb8  1  0.551038  0.172700  0.448962  1
  Rb  Rb9  1  0.827300  0.448962  0.172700  1
  Rb  Rb10  1  0.613616  0.886384  0.886384  1
  Rb  Rb11  1  0.327300  0.051038  0.672700  1
  Rb  Rb12  1  0.827300  0.172700  0.551038  1
  Rb  Rb13  1  0.448962  0.551038  0.172700  1
  Rb  Rb14  1  0.948962  0.672700  0.051038  1
  Rb  Rb15  1  0.172700  0.448962  0.551038  1
  Rb  Rb16  1  0.448962  0.172700  0.827300  1
  Rb  Rb17  1  0.672700  0.051038  0.948962  1
  Rb  Rb18  1  0.500000  0.500000  0.500000  1
  Rb  Rb19  1  0.948962  0.327300  0.672700  1
  Rb  Rb20  1  0.051038  0.672700  0.327300  1
  Rb  Rb21  1  0.327300  0.948962  0.051038  1
  Rb  Rb22  1  0.827300  0.551038  0.448962  1
  Rb  Rb23  1  0.551038  0.827300  0.172700  1
  Rb  Rb24  1  0.051038  0.327300  0.948962  1
  Rb  Rb25  1  0.551038  0.448962  0.827300  1
  Rb  Rb26  1  0.172700  0.827300  0.448962  1
  Rb  Rb27  1  0.672700  0.948962  0.327300  1
  Rb  Rb28  1  0.386384  0.113616  0.113616  1
  Rb  Rb29  1  0.172700  0.551038  0.827300  1
  Rb  Rb30  1  0.448962  0.827300  0.551038  1
  Rb  Rb31  1  0.113616  0.113616  0.386384  1
  Rb  Rb32  1  0.386384  0.113616  0.386384  1
  Rb  Rb33  1  0.113616  0.386384  0.113616  1
  Rb  Rb34  1  0.386384  0.386384  0.113616  1
  Rb  Rb35  1  0.051038  0.948962  0.672700  1
  Rb  Rb36  1  0.327300  0.672700  0.948962  1
  Rb  Rb37  1  0.113616  0.386384  0.386384  1
  O  O38  1  0.000000  0.500000  0.500000  1
  O  O39  1  0.500000  0.500000  1.000000  1
  O  O40  1  1.000000  0.500000  1.000000  1
  O  O41  1  0.500000  0.000000  0.500000  1
  O  O42  1  1.000000  1.000000  0.500000  1
  O  O43  1  0.500000  0.000000  1.000000  1
