# generated using pymatgen
data_Nb2P2O9
_symmetry_space_group_name_H-M   'P 1'
_cell_length_a   5.47605060
_cell_length_b   5.47605060
_cell_length_c   11.83299889
_cell_angle_alpha   90.00000000
_cell_angle_beta   90.00000000
_cell_angle_gamma   105.08639159
_symmetry_Int_Tables_number   1
_chemical_formula_structural   Nb2P2O9
_chemical_formula_sum   'Nb4 P4 O18'
_cell_volume   342.60801221
_cell_formula_units_Z   2
loop_
 _symmetry_equiv_pos_site_id
 _symmetry_equiv_pos_as_xyz
  1  'x, y, z'
loop_
 _atom_site_type_symbol
 _atom_site_label
 _atom_site_symmetry_multiplicity
 _atom_site_fract_x
 _atom_site_fract_y
 _atom_site_fract_z
 _atom_site_occupancy
  Nb  Nb0  1  0.203736  0.796264  0.559982  1
  Nb  Nb1  1  0.796264  0.203736  0.440018  1
  Nb  Nb2  1  0.296264  0.703736  0.059982  1
  Nb  Nb3  1  0.703736  0.296264  0.940018  1
  P  P4  1  0.105473  0.894527  0.852705  1
  P  P5  1  0.894527  0.105473  0.147295  1
  P  P6  1  0.394527  0.605473  0.352705  1
  P  P7  1  0.605473  0.394527  0.647295  1
  O  O8  1  0.632275  0.017820  0.083538  1
  O  O9  1  0.017820  0.632275  0.916462  1
  O  O10  1  0.132275  0.517820  0.416462  1
  O  O11  1  0.517820  0.132275  0.583538  1
  O  O12  1  0.500000  0.500000  0.000000  1
  O  O13  1  0.858497  0.141503  0.273028  1
  O  O14  1  0.641503  0.358497  0.773028  1
  O  O15  1  0.000000  0.000000  0.500000  1
  O  O16  1  0.564660  0.435340  0.374608  1
  O  O17  1  0.935340  0.064660  0.874608  1
  O  O18  1  0.064660  0.935340  0.125392  1
  O  O19  1  0.141503  0.858497  0.726972  1
  O  O20  1  0.358497  0.641503  0.226972  1
  O  O21  1  0.435340  0.564660  0.625392  1
  O  O22  1  0.482180  0.867725  0.416462  1
  O  O23  1  0.367725  0.982180  0.916462  1
  O  O24  1  0.867725  0.482180  0.583538  1
  O  O25  1  0.982180  0.367725  0.083538  1
