# generated using pymatgen
data_Na5Cr2P(CO4)4
_symmetry_space_group_name_H-M   'P 1'
_cell_length_a   9.88716385
_cell_length_b   9.87910679
_cell_length_c   9.80412942
_cell_angle_alpha   60.30498323
_cell_angle_beta   60.22321207
_cell_angle_gamma   59.47180470
_symmetry_Int_Tables_number   1
_chemical_formula_structural   Na5Cr2P(CO4)4
_chemical_formula_sum   'Na10 Cr4 P2 C8 O32'
_cell_volume   677.06119864
_cell_formula_units_Z   2
loop_
 _symmetry_equiv_pos_site_id
 _symmetry_equiv_pos_as_xyz
  1  'x, y, z'
loop_
 _atom_site_type_symbol
 _atom_site_label
 _atom_site_symmetry_multiplicity
 _atom_site_fract_x
 _atom_site_fract_y
 _atom_site_fract_z
 _atom_site_occupancy
  Na  Na0  1  0.833371  0.410742  0.572619  1
  Na  Na1  1  0.067269  0.678478  0.415825  1
  Na  Na2  1  0.678478  0.067269  0.838427  1
  Na  Na3  1  0.066733  0.677381  0.839258  1
  Na  Na4  1  0.834175  0.411573  0.182731  1
  Na  Na5  1  0.410742  0.833371  0.183267  1
  Na  Na6  1  0.411573  0.834175  0.571522  1
  Na  Na7  1  0.671754  0.671754  0.828246  1
  Na  Na8  1  0.677381  0.066733  0.416629  1
  Na  Na9  1  0.421754  0.421754  0.578246  1
  Cr  Cr10  1  0.752501  0.247270  0.000683  1
  Cr  Cr11  1  0.249317  0.250454  0.497499  1
  Cr  Cr12  1  0.247270  0.752501  0.999546  1
  Cr  Cr13  1  0.250454  0.249317  0.002730  1
  P  P14  1  0.873441  0.873441  0.626559  1
  P  P15  1  0.623441  0.623441  0.376559  1
  C  C16  1  0.466105  0.112773  0.209542  1
  C  C17  1  0.112773  0.466105  0.211580  1
  C  C18  1  0.463026  0.462927  0.214003  1
  C  C19  1  0.462927  0.463026  0.860043  1
  C  C20  1  0.040458  0.038420  0.783895  1
  C  C21  1  0.038420  0.040458  0.137227  1
  C  C22  1  0.389957  0.035997  0.787073  1
  C  C23  1  0.035997  0.389957  0.786974  1
  O  O24  1  0.894871  0.155107  0.808440  1
  O  O25  1  0.106732  0.351985  0.355679  1
  O  O26  1  0.351985  0.106732  0.185603  1
  O  O27  1  0.060242  0.393873  0.642339  1
  O  O28  1  0.108418  0.441560  0.094893  1
  O  O29  1  0.807369  0.807118  0.563521  1
  O  O30  1  0.807118  0.807369  0.821992  1
  O  O31  1  0.117081  0.605357  0.185680  1
  O  O32  1  0.605357  0.117081  0.091882  1
  O  O33  1  0.346936  0.437958  0.356817  1
  O  O34  1  0.437958  0.346936  0.858290  1
  O  O35  1  0.799710  0.065791  0.567058  1
  O  O36  1  0.065791  0.799710  0.567441  1
  O  O37  1  0.064397  0.894321  0.898015  1
  O  O38  1  0.894321  0.064397  0.143268  1
  O  O39  1  0.346454  0.607661  0.856127  1
  O  O40  1  0.155107  0.894871  0.141582  1
  O  O41  1  0.606064  0.437377  0.858320  1
  O  O42  1  0.437377  0.606064  0.098239  1
  O  O43  1  0.686479  0.428008  0.442631  1
  O  O44  1  0.428008  0.686479  0.442882  1
  O  O45  1  0.064320  0.158118  0.132919  1
  O  O46  1  0.158118  0.064320  0.644643  1
  O  O47  1  0.893183  0.391710  0.903064  1
  O  O48  1  0.391710  0.893183  0.812042  1
  O  O49  1  0.682559  0.682942  0.184209  1
  O  O50  1  0.682942  0.682559  0.450290  1
  O  O51  1  0.393873  0.060242  0.903546  1
  O  O52  1  0.441560  0.108418  0.355129  1
  O  O53  1  0.391680  0.151761  0.643936  1
  O  O54  1  0.151761  0.391680  0.812623  1
  O  O55  1  0.607661  0.346454  0.189758  1
