# generated using pymatgen
data_VO2F
_symmetry_space_group_name_H-M   'P 1'
_cell_length_a   5.61450761
_cell_length_b   5.61450761
_cell_length_c   4.24115856
_cell_angle_alpha   70.49919364
_cell_angle_beta   109.50080636
_cell_angle_gamma   147.00771064
_symmetry_Int_Tables_number   1
_chemical_formula_structural   VO2F
_chemical_formula_sum   'V1 O2 F1'
_cell_volume   68.24478753
_cell_formula_units_Z   1
loop_
 _symmetry_equiv_pos_site_id
 _symmetry_equiv_pos_as_xyz
  1  'x, y, z'
loop_
 _atom_site_type_symbol
 _atom_site_label
 _atom_site_symmetry_multiplicity
 _atom_site_fract_x
 _atom_site_fract_y
 _atom_site_fract_z
 _atom_site_occupancy
  V  V0  1  0.013001  0.986999  0.030661  1
  O  O1  1  0.011883  0.988117  0.411973  1
  O  O2  1  0.585716  0.414284  0.988950  1
  F  F3  1  0.842663  0.157337  0.786225  1
