# generated using pymatgen
data_Mg7Co17O32
_symmetry_space_group_name_H-M   'P 1'
_cell_length_a   5.79072344
_cell_length_b   5.79072344
_cell_length_c   19.26571704
_cell_angle_alpha   80.84935824
_cell_angle_beta   99.15064176
_cell_angle_gamma   119.96249021
_symmetry_Int_Tables_number   1
_chemical_formula_structural   Mg7Co17O32
_chemical_formula_sum   'Mg7 Co17 O32'
_cell_volume   550.16616795
_cell_formula_units_Z   1
loop_
 _symmetry_equiv_pos_site_id
 _symmetry_equiv_pos_as_xyz
  1  'x, y, z'
loop_
 _atom_site_type_symbol
 _atom_site_label
 _atom_site_symmetry_multiplicity
 _atom_site_fract_x
 _atom_site_fract_y
 _atom_site_fract_z
 _atom_site_occupancy
  Mg  Mg0  1  0.625216  0.374784  0.374865  1
  Mg  Mg1  1  0.750234  0.249766  0.248979  1
  Mg  Mg2  1  0.374784  0.625216  0.625135  1
  Mg  Mg3  1  0.249766  0.750234  0.751021  1
  Mg  Mg4  1  0.500000  0.500000  0.500000  1
  Mg  Mg5  1  0.876430  0.123570  0.123973  1
  Mg  Mg6  1  0.123570  0.876430  0.876027  1
  Co  Co7  1  0.100645  0.899355  0.283166  1
  Co  Co8  1  0.149342  0.850658  0.466365  1
  Co  Co9  1  0.400922  0.599078  0.216649  1
  Co  Co10  1  0.625090  0.875203  0.374833  1
  Co  Co11  1  0.124797  0.374910  0.374833  1
  Co  Co12  1  0.374910  0.124797  0.625167  1
  Co  Co13  1  0.875203  0.625090  0.625167  1
  Co  Co14  1  0.850658  0.149342  0.533635  1
  Co  Co15  1  0.899355  0.100645  0.716834  1
  Co  Co16  1  0.122578  0.373492  0.876033  1
  Co  Co17  1  0.626508  0.877422  0.876033  1
  Co  Co18  1  0.599078  0.400922  0.783351  1
  Co  Co19  1  0.349047  0.650953  0.030818  1
  Co  Co20  1  0.000000  0.000000  0.000000  1
  Co  Co21  1  0.650953  0.349047  0.969182  1
  Co  Co22  1  0.877422  0.626508  0.123967  1
  Co  Co23  1  0.373492  0.122578  0.123967  1
  O  O24  1  0.309569  0.207946  0.433513  1
  O  O25  1  0.792054  0.690431  0.433513  1
  O  O26  1  0.940089  0.541717  0.315899  1
  O  O27  1  0.458283  0.059911  0.315899  1
  O  O28  1  0.932529  0.067471  0.318912  1
  O  O29  1  0.820205  0.179795  0.431632  1
  O  O30  1  0.682750  0.317250  0.569323  1
  O  O31  1  0.429776  0.570224  0.318132  1
  O  O32  1  0.317250  0.682750  0.430677  1
  O  O33  1  0.179795  0.820205  0.568368  1
  O  O34  1  0.059911  0.458283  0.684101  1
  O  O35  1  0.541717  0.940089  0.684101  1
  O  O36  1  0.690431  0.792054  0.566487  1
  O  O37  1  0.207946  0.309569  0.566487  1
  O  O38  1  0.570224  0.429776  0.681868  1
  O  O39  1  0.433662  0.566338  0.820409  1
  O  O40  1  0.319759  0.680241  0.929572  1
  O  O41  1  0.067471  0.932529  0.681088  1
  O  O42  1  0.826809  0.173191  0.934747  1
  O  O43  1  0.929781  0.070219  0.818851  1
  O  O44  1  0.818710  0.723649  0.937875  1
  O  O45  1  0.276351  0.181290  0.937875  1
  O  O46  1  0.955428  0.558552  0.817722  1
  O  O47  1  0.441448  0.044572  0.817722  1
  O  O48  1  0.181290  0.276351  0.062125  1
  O  O49  1  0.723649  0.818710  0.062125  1
  O  O50  1  0.173191  0.826809  0.065253  1
  O  O51  1  0.070219  0.929781  0.181149  1
  O  O52  1  0.566338  0.433662  0.179591  1
  O  O53  1  0.680241  0.319759  0.070428  1
  O  O54  1  0.558552  0.955428  0.182278  1
  O  O55  1  0.044572  0.441448  0.182278  1
