# generated using pymatgen
data_Li2V5(PO4)4
_symmetry_space_group_name_H-M   'P 1'
_cell_length_a   5.29147084
_cell_length_b   8.18965652
_cell_length_c   8.30205397
_cell_angle_alpha   110.87704190
_cell_angle_beta   92.09123476
_cell_angle_gamma   101.33724576
_symmetry_Int_Tables_number   1
_chemical_formula_structural   Li2V5(PO4)4
_chemical_formula_sum   'Li2 V5 P4 O16'
_cell_volume   327.35626920
_cell_formula_units_Z   1
loop_
 _symmetry_equiv_pos_site_id
 _symmetry_equiv_pos_as_xyz
  1  'x, y, z'
loop_
 _atom_site_type_symbol
 _atom_site_label
 _atom_site_symmetry_multiplicity
 _atom_site_fract_x
 _atom_site_fract_y
 _atom_site_fract_z
 _atom_site_occupancy
  Li  Li0  1  0.607946  0.059042  0.294718  1
  Li  Li1  1  0.392054  0.940958  0.705282  1
  V  V2  1  0.092190  0.250089  0.772999  1
  V  V3  1  0.000000  0.000000  0.000000  1
  V  V4  1  0.646936  0.412823  0.678442  1
  V  V5  1  0.353064  0.587177  0.321558  1
  V  V6  1  0.907810  0.749911  0.227001  1
  P  P7  1  0.142789  0.206448  0.429827  1
  P  P8  1  0.612549  0.293865  0.034863  1
  P  P9  1  0.387451  0.706135  0.965137  1
  P  P10  1  0.857211  0.793552  0.570173  1
  O  O11  1  0.316141  0.210961  0.971723  1
  O  O12  1  0.744836  0.308468  0.873306  1
  O  O13  1  0.083389  0.028209  0.267556  1
  O  O14  1  0.890451  0.232950  0.518970  1
  O  O15  1  0.336668  0.179149  0.563673  1
  O  O16  1  0.729110  0.171152  0.105606  1
  O  O17  1  0.348268  0.513818  0.825705  1
  O  O18  1  0.269668  0.361427  0.381560  1
  O  O19  1  0.730332  0.638573  0.618440  1
  O  O20  1  0.651732  0.486182  0.174295  1
  O  O21  1  0.270890  0.828848  0.894394  1
  O  O22  1  0.663332  0.820851  0.436327  1
  O  O23  1  0.109549  0.767050  0.481030  1
  O  O24  1  0.916611  0.971791  0.732444  1
  O  O25  1  0.255164  0.691532  0.126694  1
  O  O26  1  0.683859  0.789039  0.028277  1
