# generated using pymatgen
data_Li4TiV3O8
_symmetry_space_group_name_H-M   'P 1'
_cell_length_a   5.96587599
_cell_length_b   5.96587599
_cell_length_c   6.00488855
_cell_angle_alpha   60.17103372
_cell_angle_beta   119.82896628
_cell_angle_gamma   119.53017223
_symmetry_Int_Tables_number   1
_chemical_formula_structural   Li4TiV3O8
_chemical_formula_sum   'Li4 Ti1 V3 O8'
_cell_volume   152.04868155
_cell_formula_units_Z   1
loop_
 _symmetry_equiv_pos_site_id
 _symmetry_equiv_pos_as_xyz
  1  'x, y, z'
loop_
 _atom_site_type_symbol
 _atom_site_label
 _atom_site_symmetry_multiplicity
 _atom_site_fract_x
 _atom_site_fract_y
 _atom_site_fract_z
 _atom_site_occupancy
  Li  Li0  1  0.500000  0.000000  0.500000  1
  Li  Li1  1  1.000000  0.500000  0.500000  1
  Li  Li2  1  1.000000  1.000000  0.500000  1
  Li  Li3  1  0.500000  0.500000  0.500000  1
  Ti  Ti4  1  1.000000  1.000000  0.000000  1
  V  V5  1  1.000000  0.500000  0.000000  1
  V  V6  1  0.500000  1.000000  0.000000  1
  V  V7  1  0.500000  0.500000  0.000000  1
  O  O8  1  0.244674  0.230227  0.770201  1
  O  O9  1  0.769773  0.755326  0.770201  1
  O  O10  1  0.763216  0.236784  0.767481  1
  O  O11  1  0.749735  0.250265  0.228823  1
  O  O12  1  0.250265  0.749735  0.771177  1
  O  O13  1  0.236784  0.763216  0.232519  1
  O  O14  1  0.230227  0.244674  0.229799  1
  O  O15  1  0.755326  0.769773  0.229799  1
