# generated using pymatgen
data_KMnPCO7
_symmetry_space_group_name_H-M   'P 1'
_cell_length_a   5.40305676
_cell_length_b   6.21137712
_cell_length_c   10.00912786
_cell_angle_alpha   90.00000000
_cell_angle_beta   91.29347470
_cell_angle_gamma   90.00000000
_symmetry_Int_Tables_number   1
_chemical_formula_structural   KMnPCO7
_chemical_formula_sum   'K2 Mn2 P2 C2 O14'
_cell_volume   335.82497162
_cell_formula_units_Z   2
loop_
 _symmetry_equiv_pos_site_id
 _symmetry_equiv_pos_as_xyz
  1  'x, y, z'
loop_
 _atom_site_type_symbol
 _atom_site_label
 _atom_site_symmetry_multiplicity
 _atom_site_fract_x
 _atom_site_fract_y
 _atom_site_fract_z
 _atom_site_occupancy
  K  K0  1  0.755100  0.592241  0.234983  1
  K  K1  1  0.244900  0.092241  0.765017  1
  Mn  Mn2  1  0.226460  0.228837  0.354176  1
  Mn  Mn3  1  0.773540  0.728837  0.645824  1
  P  P4  1  0.274499  0.733635  0.442661  1
  P  P5  1  0.725501  0.233635  0.557339  1
  C  C6  1  0.280508  0.253973  0.112418  1
  C  C7  1  0.719492  0.753973  0.887582  1
  O  O8  1  0.687857  0.779886  0.008611  1
  O  O9  1  0.064545  0.243651  0.170341  1
  O  O10  1  0.462445  0.237210  0.202975  1
  O  O11  1  0.220505  0.923319  0.344401  1
  O  O12  1  0.224318  0.539339  0.347140  1
  O  O13  1  0.892834  0.237564  0.436159  1
  O  O14  1  0.552057  0.732497  0.486381  1
  O  O15  1  0.447943  0.232497  0.513619  1
  O  O16  1  0.107166  0.737564  0.563841  1
  O  O17  1  0.775682  0.039339  0.652860  1
  O  O18  1  0.779495  0.423319  0.655599  1
  O  O19  1  0.537555  0.737210  0.797025  1
  O  O20  1  0.935455  0.743651  0.829659  1
  O  O21  1  0.312143  0.279886  0.991389  1
