# generated using pymatgen
data_Li3ZnPCO7
_symmetry_space_group_name_H-M   'P 1'
_cell_length_a   5.11829627
_cell_length_b   6.49925649
_cell_length_c   8.38279524
_cell_angle_alpha   90.00000000
_cell_angle_beta   91.76197906
_cell_angle_gamma   90.00000000
_symmetry_Int_Tables_number   1
_chemical_formula_structural   Li3ZnPCO7
_chemical_formula_sum   'Li6 Zn2 P2 C2 O14'
_cell_volume   278.72284467
_cell_formula_units_Z   2
loop_
 _symmetry_equiv_pos_site_id
 _symmetry_equiv_pos_as_xyz
  1  'x, y, z'
loop_
 _atom_site_type_symbol
 _atom_site_label
 _atom_site_symmetry_multiplicity
 _atom_site_fract_x
 _atom_site_fract_y
 _atom_site_fract_z
 _atom_site_occupancy
  Li  Li0  1  0.040273  0.513367  0.004174  1
  Li  Li1  1  0.438610  0.191429  0.820472  1
  Li  Li2  1  0.443437  0.423017  0.486981  1
  Li  Li3  1  0.556563  0.923017  0.513019  1
  Li  Li4  1  0.561390  0.691429  0.179528  1
  Li  Li5  1  0.959727  0.013367  0.995826  1
  Zn  Zn6  1  0.035566  0.745633  0.711885  1
  Zn  Zn7  1  0.964434  0.245633  0.288115  1
  P  P8  1  0.961295  0.248917  0.669156  1
  P  P9  1  0.038705  0.748917  0.330844  1
  C  C10  1  0.521422  0.737900  0.863576  1
  C  C11  1  0.478578  0.237900  0.136424  1
  O  O12  1  0.357754  0.713329  0.976758  1
  O  O13  1  0.769530  0.762465  0.900351  1
  O  O14  1  0.086544  0.065136  0.764814  1
  O  O15  1  0.023100  0.439917  0.773718  1
  O  O16  1  0.442449  0.742145  0.714316  1
  O  O17  1  0.664723  0.214096  0.635766  1
  O  O18  1  0.104871  0.277252  0.508748  1
  O  O19  1  0.895129  0.777252  0.491252  1
  O  O20  1  0.335277  0.714096  0.364234  1
  O  O21  1  0.557551  0.242145  0.285684  1
  O  O22  1  0.976900  0.939917  0.226282  1
  O  O23  1  0.913456  0.565136  0.235186  1
  O  O24  1  0.230470  0.262465  0.099649  1
  O  O25  1  0.642246  0.213329  0.023242  1
