# generated using pymatgen
data_Li2NiOF2
_symmetry_space_group_name_H-M   'P 1'
_cell_length_a   2.93098949
_cell_length_b   2.93098949
_cell_length_c   12.45607785
_cell_angle_alpha   90.00000000
_cell_angle_beta   90.00000000
_cell_angle_gamma   90.00000000
_symmetry_Int_Tables_number   1
_chemical_formula_structural   Li2NiOF2
_chemical_formula_sum   'Li4 Ni2 O2 F4'
_cell_volume   107.00642024
_cell_formula_units_Z   2
loop_
 _symmetry_equiv_pos_site_id
 _symmetry_equiv_pos_as_xyz
  1  'x, y, z'
loop_
 _atom_site_type_symbol
 _atom_site_label
 _atom_site_symmetry_multiplicity
 _atom_site_fract_x
 _atom_site_fract_y
 _atom_site_fract_z
 _atom_site_occupancy
  Li  Li0  1  0.000000  0.500000  0.253994  1
  Li  Li1  1  0.500000  0.000000  0.419961  1
  Li  Li2  1  0.000000  0.500000  0.580039  1
  Li  Li3  1  0.500000  0.000000  0.746006  1
  Ni  Ni4  1  0.000000  0.500000  0.916952  1
  Ni  Ni5  1  0.500000  0.000000  0.083048  1
  O  O6  1  0.500000  0.000000  0.913698  1
  O  O7  1  0.000000  0.500000  0.086302  1
  F  F8  1  0.500000  0.000000  0.258489  1
  F  F9  1  0.000000  0.500000  0.418958  1
  F  F10  1  0.500000  0.000000  0.581042  1
  F  F11  1  0.000000  0.500000  0.741511  1
