# generated using pymatgen
data_VO2F
_symmetry_space_group_name_H-M   'P 1'
_cell_length_a   5.27332180
_cell_length_b   5.27332180
_cell_length_c   13.08492717
_cell_angle_alpha   88.45360628
_cell_angle_beta   91.54639372
_cell_angle_gamma   121.37326375
_symmetry_Int_Tables_number   1
_chemical_formula_structural   VO2F
_chemical_formula_sum   'V6 O12 F6'
_cell_volume   310.51656470
_cell_formula_units_Z   6
loop_
 _symmetry_equiv_pos_site_id
 _symmetry_equiv_pos_as_xyz
  1  'x, y, z'
loop_
 _atom_site_type_symbol
 _atom_site_label
 _atom_site_symmetry_multiplicity
 _atom_site_fract_x
 _atom_site_fract_y
 _atom_site_fract_z
 _atom_site_occupancy
  V  V0  1  0.069716  0.013912  0.494935  1
  V  V1  1  0.986088  0.930284  0.994935  1
  V  V2  1  0.341259  0.629090  0.830050  1
  V  V3  1  0.727850  0.352536  0.661520  1
  V  V4  1  0.370910  0.658741  0.330050  1
  V  V5  1  0.647464  0.272150  0.161520  1
  O  O6  1  0.990488  0.575574  0.751445  1
  O  O7  1  0.889622  0.657441  0.083932  1
  O  O8  1  0.642113  0.752424  0.917363  1
  O  O9  1  0.424425  0.009512  0.251445  1
  O  O10  1  0.216805  0.902578  0.918708  1
  O  O11  1  0.913935  0.261970  0.587303  1
  O  O12  1  0.572034  0.593496  0.253567  1
  O  O13  1  0.406504  0.427966  0.753567  1
  O  O14  1  0.097422  0.783195  0.418708  1
  O  O15  1  0.738030  0.086065  0.087303  1
  O  O16  1  0.247576  0.357887  0.417363  1
  O  O17  1  0.342559  0.110378  0.583932  1
  F  F18  1  0.566714  0.003801  0.751140  1
  F  F19  1  0.674390  0.935071  0.417216  1
  F  F20  1  0.753938  0.680970  0.582821  1
  F  F21  1  0.996199  0.433286  0.251140  1
  F  F22  1  0.319030  0.246062  0.082821  1
  F  F23  1  0.064929  0.325610  0.917216  1
