# generated using pymatgen
data_Na4Ni2P(CO4)4
_symmetry_space_group_name_H-M   'P 1'
_cell_length_a   9.96982451
_cell_length_b   9.94947026
_cell_length_c   9.76889828
_cell_angle_alpha   60.73564392
_cell_angle_beta   60.52756786
_cell_angle_gamma   58.73678822
_symmetry_Int_Tables_number   1
_chemical_formula_structural   Na4Ni2P(CO4)4
_chemical_formula_sum   'Na8 Ni4 P2 C8 O32'
_cell_volume   684.70307160
_cell_formula_units_Z   2
loop_
 _symmetry_equiv_pos_site_id
 _symmetry_equiv_pos_as_xyz
  1  'x, y, z'
loop_
 _atom_site_type_symbol
 _atom_site_label
 _atom_site_symmetry_multiplicity
 _atom_site_fract_x
 _atom_site_fract_y
 _atom_site_fract_z
 _atom_site_occupancy
  Na  Na0  1  0.036867  0.463133  0.036867  1
  Na  Na1  1  0.462284  0.037716  0.037716  1
  Na  Na2  1  0.212284  0.787716  0.787716  1
  Na  Na3  1  0.786867  0.213133  0.786867  1
  Na  Na4  1  0.463133  0.036867  0.463133  1
  Na  Na5  1  0.037716  0.462284  0.462284  1
  Na  Na6  1  0.787716  0.212284  0.212284  1
  Na  Na7  1  0.213133  0.786867  0.213133  1
  Ni  Ni8  1  0.625000  0.625000  0.125000  1
  Ni  Ni9  1  0.625000  0.625000  0.625000  1
  Ni  Ni10  1  0.125000  0.625000  0.625000  1
  Ni  Ni11  1  0.625000  0.125000  0.625000  1
  P  P12  1  0.000000  0.000000  1.000000  1
  P  P13  1  0.250000  0.250000  0.250000  1
  C  C14  1  0.411845  0.413622  0.771062  1
  C  C15  1  0.836378  0.838155  0.846530  1
  C  C16  1  0.771062  0.403470  0.411845  1
  C  C17  1  0.403470  0.771062  0.413622  1
  C  C18  1  0.846530  0.478938  0.836378  1
  C  C19  1  0.478938  0.846530  0.838155  1
  C  C20  1  0.413622  0.411845  0.403470  1
  C  C21  1  0.838155  0.836378  0.478938  1
  O  O22  1  0.268220  0.438792  0.778013  1
  O  O23  1  0.068381  0.808628  0.062398  1
  O  O24  1  0.435407  0.533044  0.763315  1
  O  O25  1  0.716956  0.814593  0.981765  1
  O  O26  1  0.763315  0.268235  0.435407  1
  O  O27  1  0.981247  0.722083  0.825217  1
  O  O28  1  0.062398  0.060594  0.068381  1
  O  O29  1  0.808628  0.068381  0.060594  1
  O  O30  1  0.471453  0.825217  0.722083  1
  O  O31  1  0.268235  0.763315  0.533044  1
  O  O32  1  0.811208  0.981780  0.735025  1
  O  O33  1  0.060594  0.062398  0.808628  1
  O  O34  1  0.778013  0.514975  0.268220  1
  O  O35  1  0.514975  0.778013  0.438792  1
  O  O36  1  0.527917  0.268753  0.778547  1
  O  O37  1  0.825217  0.471453  0.981247  1
  O  O38  1  0.424783  0.778547  0.268753  1
  O  O39  1  0.722083  0.981247  0.471453  1
  O  O40  1  0.735025  0.471987  0.811208  1
  O  O41  1  0.471987  0.735025  0.981780  1
  O  O42  1  0.189406  0.187602  0.441372  1
  O  O43  1  0.438792  0.268220  0.514975  1
  O  O44  1  0.981765  0.486685  0.716956  1
  O  O45  1  0.778547  0.424783  0.527917  1
  O  O46  1  0.441372  0.181619  0.189406  1
  O  O47  1  0.187602  0.189406  0.181619  1
  O  O48  1  0.268753  0.527917  0.424783  1
  O  O49  1  0.486685  0.981765  0.814593  1
  O  O50  1  0.533044  0.435407  0.268235  1
  O  O51  1  0.814593  0.716956  0.486685  1
  O  O52  1  0.181619  0.441372  0.187602  1
  O  O53  1  0.981780  0.811208  0.471987  1
