# generated using pymatgen
data_LiV2F9
_symmetry_space_group_name_H-M   'P 1'
_cell_length_a   5.09533149
_cell_length_b   5.09533149
_cell_length_c   14.43927461
_cell_angle_alpha   89.92491616
_cell_angle_beta   90.07508384
_cell_angle_gamma   119.58248456
_symmetry_Int_Tables_number   1
_chemical_formula_structural   LiV2F9
_chemical_formula_sum   'Li2 V4 F18'
_cell_volume   326.01096746
_cell_formula_units_Z   2
loop_
 _symmetry_equiv_pos_site_id
 _symmetry_equiv_pos_as_xyz
  1  'x, y, z'
loop_
 _atom_site_type_symbol
 _atom_site_label
 _atom_site_symmetry_multiplicity
 _atom_site_fract_x
 _atom_site_fract_y
 _atom_site_fract_z
 _atom_site_occupancy
  Li  Li0  1  0.669997  0.335870  0.497565  1
  Li  Li1  1  0.664130  0.330003  0.997565  1
  V  V2  1  0.998105  0.001231  0.347648  1
  V  V3  1  0.000062  0.994948  0.149155  1
  V  V4  1  0.005052  0.999938  0.649155  1
  V  V5  1  0.998769  0.001895  0.847648  1
  F  F6  1  0.321878  0.285116  0.587285  1
  F  F7  1  0.315384  0.024051  0.082987  1
  F  F8  1  0.714884  0.678122  0.087285  1
  F  F9  1  0.975949  0.684616  0.582987  1
  F  F10  1  0.014394  0.733773  0.250203  1
  F  F11  1  0.701302  0.020057  0.587271  1
  F  F12  1  0.968212  0.679052  0.909469  1
  F  F13  1  0.979943  0.298698  0.087271  1
  F  F14  1  0.266227  0.985606  0.750203  1
  F  F15  1  0.320948  0.031788  0.409469  1
  F  F16  1  0.011292  0.278660  0.746825  1
  F  F17  1  0.971009  0.288532  0.415234  1
  F  F18  1  0.315221  0.298649  0.910643  1
  F  F19  1  0.263862  0.275479  0.248702  1
  F  F20  1  0.711468  0.028991  0.915234  1
  F  F21  1  0.721340  0.988708  0.246825  1
  F  F22  1  0.701351  0.684779  0.410643  1
  F  F23  1  0.724521  0.736138  0.748702  1
