# generated using pymatgen
data_Li5CoO4
_symmetry_space_group_name_H-M   'P 1'
_cell_length_a   9.19176294
_cell_length_b   9.20438893
_cell_length_c   9.20471432
_cell_angle_alpha   90.00000000
_cell_angle_beta   90.00000000
_cell_angle_gamma   90.00000000
_symmetry_Int_Tables_number   1
_chemical_formula_structural   Li5CoO4
_chemical_formula_sum   'Li40 Co8 O32'
_cell_volume   778.76081465
_cell_formula_units_Z   8
loop_
 _symmetry_equiv_pos_site_id
 _symmetry_equiv_pos_as_xyz
  1  'x, y, z'
loop_
 _atom_site_type_symbol
 _atom_site_label
 _atom_site_symmetry_multiplicity
 _atom_site_fract_x
 _atom_site_fract_y
 _atom_site_fract_z
 _atom_site_occupancy
  Li  Li0  1  0.388503  0.142888  0.889873  1
  Li  Li1  1  0.111497  0.642888  0.889873  1
  Li  Li2  1  0.890685  0.839647  0.881513  1
  Li  Li3  1  0.609315  0.339647  0.881513  1
  Li  Li4  1  0.148310  0.374568  0.880477  1
  Li  Li5  1  0.351690  0.874568  0.880477  1
  Li  Li6  1  0.123705  0.105534  0.851644  1
  Li  Li7  1  0.376295  0.605534  0.851644  1
  Li  Li8  1  0.881841  0.394406  0.842517  1
  Li  Li9  1  0.618159  0.894406  0.842517  1
  Li  Li10  1  0.118159  0.894406  0.657483  1
  Li  Li11  1  0.381841  0.394406  0.657483  1
  Li  Li12  1  0.623705  0.105534  0.648356  1
  Li  Li13  1  0.876295  0.605534  0.648356  1
  Li  Li14  1  0.851690  0.874568  0.619523  1
  Li  Li15  1  0.648310  0.374568  0.619523  1
  Li  Li16  1  0.109315  0.339647  0.618487  1
  Li  Li17  1  0.390685  0.839647  0.618487  1
  Li  Li18  1  0.888503  0.142888  0.610127  1
  Li  Li19  1  0.611497  0.642888  0.610127  1
  Li  Li20  1  0.388503  0.357112  0.389873  1
  Li  Li21  1  0.111497  0.857112  0.389873  1
  Li  Li22  1  0.890685  0.660353  0.381513  1
  Li  Li23  1  0.609315  0.160353  0.381513  1
  Li  Li24  1  0.351690  0.625432  0.380477  1
  Li  Li25  1  0.148310  0.125432  0.380477  1
  Li  Li26  1  0.376295  0.894466  0.351644  1
  Li  Li27  1  0.123705  0.394466  0.351644  1
  Li  Li28  1  0.881841  0.105594  0.342517  1
  Li  Li29  1  0.618159  0.605594  0.342517  1
  Li  Li30  1  0.381841  0.105594  0.157483  1
  Li  Li31  1  0.118159  0.605594  0.157483  1
  Li  Li32  1  0.623705  0.394466  0.148356  1
  Li  Li33  1  0.876295  0.894466  0.148356  1
  Li  Li34  1  0.851690  0.625432  0.119523  1
  Li  Li35  1  0.648310  0.125432  0.119523  1
  Li  Li36  1  0.390685  0.660353  0.118487  1
  Li  Li37  1  0.109315  0.160353  0.118487  1
  Li  Li38  1  0.888503  0.357112  0.110127  1
  Li  Li39  1  0.611497  0.857112  0.110127  1
  Co  Co40  1  0.852248  0.118213  0.886400  1
  Co  Co41  1  0.647752  0.618213  0.886400  1
  Co  Co42  1  0.352248  0.118213  0.613600  1
  Co  Co43  1  0.147752  0.618213  0.613600  1
  Co  Co44  1  0.852248  0.381787  0.386400  1
  Co  Co45  1  0.647752  0.881787  0.386400  1
  Co  Co46  1  0.352248  0.381787  0.113600  1
  Co  Co47  1  0.147752  0.881787  0.113600  1
  O  O48  1  0.748520  0.483790  0.993364  1
  O  O49  1  0.751480  0.983790  0.993364  1
  O  O50  1  0.993119  0.245962  0.964084  1
  O  O51  1  0.506881  0.745962  0.964084  1
  O  O52  1  0.966227  0.999959  0.755454  1
  O  O53  1  0.533773  0.499959  0.755454  1
  O  O54  1  0.753224  0.240599  0.754149  1
  O  O55  1  0.746776  0.740599  0.754149  1
  O  O56  1  0.253224  0.240599  0.745851  1
  O  O57  1  0.246776  0.740599  0.745851  1
  O  O58  1  0.466227  0.999959  0.744546  1
  O  O59  1  0.033773  0.499959  0.744546  1
  O  O60  1  0.493119  0.245962  0.535916  1
  O  O61  1  0.006881  0.745962  0.535916  1
  O  O62  1  0.248520  0.483790  0.506636  1
  O  O63  1  0.251480  0.983790  0.506636  1
  O  O64  1  0.748520  0.016210  0.493364  1
  O  O65  1  0.751480  0.516210  0.493364  1
  O  O66  1  0.993119  0.254038  0.464084  1
  O  O67  1  0.506881  0.754038  0.464084  1
  O  O68  1  0.966227  0.500041  0.255454  1
  O  O69  1  0.533773  0.000041  0.255454  1
  O  O70  1  0.753224  0.259401  0.254149  1
  O  O71  1  0.746776  0.759401  0.254149  1
  O  O72  1  0.253224  0.259401  0.245851  1
  O  O73  1  0.246776  0.759401  0.245851  1
  O  O74  1  0.466227  0.500041  0.244546  1
  O  O75  1  0.033773  0.000041  0.244546  1
  O  O76  1  0.493119  0.254038  0.035916  1
  O  O77  1  0.006881  0.754038  0.035916  1
  O  O78  1  0.248520  0.016210  0.006636  1
  O  O79  1  0.251480  0.516210  0.006636  1
