# generated using pymatgen
data_Co3OF5
_symmetry_space_group_name_H-M   'P 1'
_cell_length_a   6.67698177
_cell_length_b   3.12716304
_cell_length_c   10.54006986
_cell_angle_alpha   90.00000000
_cell_angle_beta   108.41313283
_cell_angle_gamma   90.00000000
_symmetry_Int_Tables_number   1
_chemical_formula_structural   Co3OF5
_chemical_formula_sum   'Co6 O2 F10'
_cell_volume   208.80964022
_cell_formula_units_Z   2
loop_
 _symmetry_equiv_pos_site_id
 _symmetry_equiv_pos_as_xyz
  1  'x, y, z'
loop_
 _atom_site_type_symbol
 _atom_site_label
 _atom_site_symmetry_multiplicity
 _atom_site_fract_x
 _atom_site_fract_y
 _atom_site_fract_z
 _atom_site_occupancy
  Co  Co0  1  0.023670  0.000000  0.007014  1
  Co  Co1  1  0.477543  0.500000  0.993905  1
  Co  Co2  1  0.326005  0.000000  0.650405  1
  Co  Co3  1  0.172771  0.500000  0.346861  1
  Co  Co4  1  0.834073  0.500000  0.668332  1
  Co  Co5  1  0.666035  0.000000  0.331375  1
  O  O6  1  0.295197  0.000000  0.996908  1
  O  O7  1  0.266810  0.500000  0.533256  1
  F  F8  1  0.704440  0.000000  0.999309  1
  F  F9  1  0.031935  0.000000  0.672582  1
  F  F10  1  0.394909  0.500000  0.783821  1
  F  F11  1  0.933079  0.500000  0.875857  1
  F  F12  1  0.640197  0.000000  0.669452  1
  F  F13  1  0.362195  0.000000  0.332345  1
  F  F14  1  0.065953  0.500000  0.140369  1
  F  F15  1  0.731890  0.500000  0.463915  1
  F  F16  1  0.601751  0.500000  0.199063  1
  F  F17  1  0.971550  0.000000  0.335232  1
