# generated using pymatgen
data_TiP2H4O9
_symmetry_space_group_name_H-M   'P 1'
_cell_length_a   8.75582435
_cell_length_b   5.05859151
_cell_length_c   16.43686618
_cell_angle_alpha   90.00000000
_cell_angle_beta   109.83403393
_cell_angle_gamma   90.00000000
_symmetry_Int_Tables_number   1
_chemical_formula_structural   TiP2H4O9
_chemical_formula_sum   'Ti4 P8 H16 O36'
_cell_volume   684.83713245
_cell_formula_units_Z   4
loop_
 _symmetry_equiv_pos_site_id
 _symmetry_equiv_pos_as_xyz
  1  'x, y, z'
loop_
 _atom_site_type_symbol
 _atom_site_label
 _atom_site_symmetry_multiplicity
 _atom_site_fract_x
 _atom_site_fract_y
 _atom_site_fract_z
 _atom_site_occupancy
  Ti  Ti0  1  0.741365  0.752138  0.988692  1
  Ti  Ti1  1  0.741365  0.747862  0.488692  1
  Ti  Ti2  1  0.258635  0.247862  0.011308  1
  Ti  Ti3  1  0.258635  0.252138  0.511308  1
  P  P4  1  0.504495  0.252460  0.892498  1
  P  P5  1  0.504495  0.247540  0.392498  1
  P  P6  1  0.495505  0.747540  0.107502  1
  P  P7  1  0.495505  0.752460  0.607502  1
  P  P8  1  0.032041  0.744329  0.901402  1
  P  P9  1  0.032041  0.755671  0.401402  1
  P  P10  1  0.967959  0.255671  0.098598  1
  P  P11  1  0.967959  0.244329  0.598598  1
  H  H12  1  0.348083  0.424418  0.770247  1
  H  H13  1  0.348083  0.075582  0.270247  1
  H  H14  1  0.651917  0.575582  0.229753  1
  H  H15  1  0.651917  0.924418  0.729753  1
  H  H16  1  0.079035  0.734403  0.777363  1
  H  H17  1  0.079035  0.765597  0.277363  1
  H  H18  1  0.920965  0.265597  0.222637  1
  H  H19  1  0.920965  0.234403  0.722637  1
  H  H20  1  0.696660  0.381270  0.749777  1
  H  H21  1  0.696660  0.118730  0.249777  1
  H  H22  1  0.303340  0.618730  0.250223  1
  H  H23  1  0.303340  0.881270  0.750223  1
  H  H24  1  0.800660  0.195493  0.824759  1
  H  H25  1  0.800660  0.304507  0.324759  1
  H  H26  1  0.199340  0.804507  0.175241  1
  H  H27  1  0.199340  0.695493  0.675241  1
  O  O28  1  0.386019  0.331638  0.939022  1
  O  O29  1  0.386019  0.168362  0.439022  1
  O  O30  1  0.613981  0.668362  0.060978  1
  O  O31  1  0.613981  0.831638  0.560978  1
  O  O32  1  0.564074  0.966732  0.911009  1
  O  O33  1  0.564074  0.533268  0.411009  1
  O  O34  1  0.435926  0.033268  0.088991  1
  O  O35  1  0.435926  0.466732  0.588991  1
  O  O36  1  0.647824  0.447527  0.913462  1
  O  O37  1  0.647824  0.052473  0.413462  1
  O  O38  1  0.352176  0.552473  0.086538  1
  O  O39  1  0.352176  0.947527  0.586538  1
  O  O40  1  0.408837  0.254621  0.791437  1
  O  O41  1  0.408837  0.245379  0.291437  1
  O  O42  1  0.591163  0.745379  0.208563  1
  O  O43  1  0.591163  0.754621  0.708563  1
  O  O44  1  0.173323  0.937540  0.941333  1
  O  O45  1  0.173323  0.562460  0.441333  1
  O  O46  1  0.826677  0.062460  0.058667  1
  O  O47  1  0.826677  0.437540  0.558667  1
  O  O48  1  0.080008  0.462646  0.936361  1
  O  O49  1  0.080008  0.037354  0.436361  1
  O  O50  1  0.919992  0.537354  0.063639  1
  O  O51  1  0.919992  0.962646  0.563639  1
  O  O52  1  0.875337  0.835423  0.915691  1
  O  O53  1  0.875337  0.664577  0.415691  1
  O  O54  1  0.124663  0.164577  0.084309  1
  O  O55  1  0.124663  0.335423  0.584309  1
  O  O56  1  0.986463  0.746294  0.800169  1
  O  O57  1  0.986463  0.753706  0.300169  1
  O  O58  1  0.013537  0.253706  0.199831  1
  O  O59  1  0.013537  0.246294  0.699831  1
  O  O60  1  0.758659  0.215054  0.761519  1
  O  O61  1  0.758659  0.284946  0.261519  1
  O  O62  1  0.241341  0.784946  0.238481  1
  O  O63  1  0.241341  0.715054  0.738481  1
