# generated using pymatgen
data_Li3V3(BO5)2
_symmetry_space_group_name_H-M   'P 1'
_cell_length_a   3.01378862
_cell_length_b   9.33821182
_cell_length_c   12.16492921
_cell_angle_alpha   88.53325947
_cell_angle_beta   89.75806807
_cell_angle_gamma   89.26238021
_symmetry_Int_Tables_number   1
_chemical_formula_structural   Li3V3(BO5)2
_chemical_formula_sum   'Li6 V6 B4 O20'
_cell_volume   342.21929479
_cell_formula_units_Z   2
loop_
 _symmetry_equiv_pos_site_id
 _symmetry_equiv_pos_as_xyz
  1  'x, y, z'
loop_
 _atom_site_type_symbol
 _atom_site_label
 _atom_site_symmetry_multiplicity
 _atom_site_fract_x
 _atom_site_fract_y
 _atom_site_fract_z
 _atom_site_occupancy
  Li  Li0  1  0.999027  0.002177  0.999541  1
  Li  Li1  1  0.003285  0.017747  0.722650  1
  Li  Li2  1  0.998124  0.484439  0.496368  1
  Li  Li3  1  0.500800  0.499685  0.000823  1
  Li  Li4  1  0.503167  0.271207  0.615871  1
  Li  Li5  1  0.998315  0.998454  0.281289  1
  V  V6  1  0.483999  0.005326  0.502511  1
  V  V7  1  0.481703  0.765128  0.891037  1
  V  V8  1  0.497332  0.738245  0.387576  1
  V  V9  1  0.003014  0.496735  0.218053  1
  V  V10  1  0.999628  0.495953  0.779286  1
  V  V11  1  0.518926  0.234055  0.109733  1
  B  B12  1  0.501965  0.769485  0.141757  1
  B  B13  1  0.501095  0.728474  0.632169  1
  B  B14  1  0.500441  0.271805  0.370005  1
  B  B15  1  0.498328  0.225540  0.856198  1
  O  O16  1  0.018269  0.878609  0.855169  1
  O  O17  1  0.994188  0.884741  0.431479  1
  O  O18  1  0.510043  0.873610  0.637141  1
  O  O19  1  0.497497  0.842748  0.237273  1
  O  O20  1  0.512547  0.840754  0.040074  1
  O  O21  1  0.499073  0.649874  0.540029  1
  O  O22  1  0.496081  0.649395  0.738943  1
  O  O23  1  0.502263  0.617279  0.143996  1
  O  O24  1  0.985824  0.620630  0.918928  1
  O  O25  1  0.001718  0.611734  0.346033  1
  O  O26  1  0.001057  0.411970  0.659362  1
  O  O27  1  0.012903  0.377325  0.079072  1
  O  O28  1  0.502529  0.384148  0.852890  1
  O  O29  1  0.502801  0.345654  0.260641  1
  O  O30  1  0.501708  0.350170  0.458999  1
  O  O31  1  0.482001  0.161331  0.960986  1
  O  O32  1  0.502671  0.154137  0.763589  1
  O  O33  1  0.495201  0.123396  0.364511  1
  O  O34  1  0.010410  0.098767  0.560630  1
  O  O35  1  0.982068  0.119275  0.145389  1
