# generated using pymatgen
data_Li2NiP2O7
_symmetry_space_group_name_H-M   'P 1'
_cell_length_a   4.99221799
_cell_length_b   8.25068600
_cell_length_c   7.07314658
_cell_angle_alpha   90.00000000
_cell_angle_beta   109.05955882
_cell_angle_gamma   90.00000000
_symmetry_Int_Tables_number   1
_chemical_formula_structural   Li2NiP2O7
_chemical_formula_sum   'Li4 Ni2 P4 O14'
_cell_volume   275.36618994
_cell_formula_units_Z   2
loop_
 _symmetry_equiv_pos_site_id
 _symmetry_equiv_pos_as_xyz
  1  'x, y, z'
loop_
 _atom_site_type_symbol
 _atom_site_label
 _atom_site_symmetry_multiplicity
 _atom_site_fract_x
 _atom_site_fract_y
 _atom_site_fract_z
 _atom_site_occupancy
  Li  Li0  1  0.834743  0.853868  0.349195  1
  Li  Li1  1  0.345103  0.678416  0.078610  1
  Li  Li2  1  0.654897  0.178416  0.921390  1
  Li  Li3  1  0.165257  0.353868  0.650805  1
  Ni  Ni4  1  0.794386  0.496229  0.278945  1
  Ni  Ni5  1  0.205614  0.996229  0.721055  1
  P  P6  1  0.610289  0.185611  0.483963  1
  P  P7  1  0.788775  0.792065  0.913770  1
  P  P8  1  0.211225  0.292065  0.086230  1
  P  P9  1  0.389711  0.685611  0.516037  1
  O  O10  1  0.925758  0.319769  0.117545  1
  O  O11  1  0.829727  0.699717  0.109460  1
  O  O12  1  0.804158  0.038154  0.514691  1
  O  O13  1  0.767548  0.345895  0.497594  1
  O  O14  1  0.570465  0.687617  0.376800  1
  O  O15  1  0.382371  0.446531  0.090697  1
  O  O16  1  0.397394  0.166959  0.255458  1
  O  O17  1  0.602606  0.666959  0.744542  1
  O  O18  1  0.617629  0.946531  0.909303  1
  O  O19  1  0.429535  0.187617  0.623200  1
  O  O20  1  0.232452  0.845895  0.502406  1
  O  O21  1  0.195842  0.538154  0.485309  1
  O  O22  1  0.170273  0.199717  0.890540  1
  O  O23  1  0.074242  0.819769  0.882455  1
