# generated using pymatgen
data_Na2Ti3Cr(PO4)6
_symmetry_space_group_name_H-M   'P 1'
_cell_length_a   8.91152988
_cell_length_b   8.91152988
_cell_length_c   8.91152988
_cell_angle_alpha   57.09796619
_cell_angle_beta   57.09796619
_cell_angle_gamma   57.09796619
_symmetry_Int_Tables_number   1
_chemical_formula_structural   Na2Ti3Cr(PO4)6
_chemical_formula_sum   'Na2 Ti3 Cr1 P6 O24'
_cell_volume   466.95875979
_cell_formula_units_Z   1
loop_
 _symmetry_equiv_pos_site_id
 _symmetry_equiv_pos_as_xyz
  1  'x, y, z'
loop_
 _atom_site_type_symbol
 _atom_site_label
 _atom_site_symmetry_multiplicity
 _atom_site_fract_x
 _atom_site_fract_y
 _atom_site_fract_z
 _atom_site_occupancy
  Na  Na0  1  0.998736  0.998736  0.998736  1
  Na  Na1  1  0.499830  0.499830  0.499830  1
  Ti  Ti2  1  0.647130  0.647130  0.647130  1
  Ti  Ti3  1  0.352997  0.352997  0.352997  1
  Ti  Ti4  1  0.143984  0.143984  0.143984  1
  Cr  Cr5  1  0.855743  0.855743  0.855743  1
  P  P6  1  0.246231  0.538206  0.965385  1
  P  P7  1  0.035360  0.751022  0.463253  1
  P  P8  1  0.463253  0.035360  0.751022  1
  P  P9  1  0.538206  0.965385  0.246231  1
  P  P10  1  0.965385  0.246231  0.538206  1
  P  P11  1  0.751022  0.463253  0.035360  1
  O  O12  1  0.198365  0.377260  0.000407  1
  O  O13  1  0.094977  0.736483  0.909161  1
  O  O14  1  0.266242  0.093171  0.904117  1
  O  O15  1  0.149289  0.251755  0.511409  1
  O  O16  1  0.440244  0.536418  0.798835  1
  O  O17  1  0.199522  0.554845  0.466920  1
  O  O18  1  0.488463  0.851412  0.746160  1
  O  O19  1  0.797876  0.620300  0.008491  1
  O  O20  1  0.620300  0.008491  0.797876  1
  O  O21  1  0.093171  0.904117  0.266242  1
  O  O22  1  0.746160  0.488463  0.851412  1
  O  O23  1  0.466920  0.199522  0.554845  1
  O  O24  1  0.536418  0.798835  0.440244  1
  O  O25  1  0.251755  0.511409  0.149289  1
  O  O26  1  0.909161  0.094977  0.736483  1
  O  O27  1  0.377260  0.000407  0.198365  1
  O  O28  1  0.511409  0.149289  0.251755  1
  O  O29  1  0.798835  0.440244  0.536418  1
  O  O30  1  0.554845  0.466920  0.199522  1
  O  O31  1  0.851412  0.746160  0.488463  1
  O  O32  1  0.008491  0.797876  0.620300  1
  O  O33  1  0.000407  0.198365  0.377260  1
  O  O34  1  0.736483  0.909161  0.094977  1
  O  O35  1  0.904117  0.266242  0.093171  1
