# generated using pymatgen
data_Sb3O2F5
_symmetry_space_group_name_H-M   'P 1'
_cell_length_a   5.69688000
_cell_length_b   6.60417701
_cell_length_c   18.52391558
_cell_angle_alpha   90.00000000
_cell_angle_beta   90.00000000
_cell_angle_gamma   90.00000000
_symmetry_Int_Tables_number   1
_chemical_formula_structural   Sb3O2F5
_chemical_formula_sum   'Sb12 O8 F20'
_cell_volume   696.92905335
_cell_formula_units_Z   4
loop_
 _symmetry_equiv_pos_site_id
 _symmetry_equiv_pos_as_xyz
  1  'x, y, z'
loop_
 _atom_site_type_symbol
 _atom_site_label
 _atom_site_symmetry_multiplicity
 _atom_site_fract_x
 _atom_site_fract_y
 _atom_site_fract_z
 _atom_site_occupancy
  Sb  Sb0  1  0.880552  0.461594  0.600876  1
  Sb  Sb1  1  0.880552  0.461594  0.899124  1
  Sb  Sb2  1  0.714565  0.046982  0.750000  1
  Sb  Sb3  1  0.785435  0.546982  0.250000  1
  Sb  Sb4  1  0.619448  0.961594  0.100876  1
  Sb  Sb5  1  0.619448  0.961594  0.399124  1
  Sb  Sb6  1  0.380552  0.038406  0.899124  1
  Sb  Sb7  1  0.380552  0.038406  0.600876  1
  Sb  Sb8  1  0.214565  0.453018  0.750000  1
  Sb  Sb9  1  0.285435  0.953018  0.250000  1
  Sb  Sb10  1  0.119448  0.538406  0.399124  1
  Sb  Sb11  1  0.119448  0.538406  0.100876  1
  O  O12  1  0.956054  0.717521  0.173962  1
  O  O13  1  0.956054  0.717521  0.326038  1
  O  O14  1  0.543946  0.217521  0.826038  1
  O  O15  1  0.543946  0.217521  0.673962  1
  O  O16  1  0.456054  0.782479  0.173962  1
  O  O17  1  0.456054  0.782479  0.326038  1
  O  O18  1  0.043946  0.282479  0.673962  1
  O  O19  1  0.043946  0.282479  0.826038  1
  F  F20  1  0.900542  0.609840  0.750000  1
  F  F21  1  0.911393  0.676778  0.027811  1
  F  F22  1  0.911393  0.676778  0.472189  1
  F  F23  1  0.849465  0.348355  0.380480  1
  F  F24  1  0.849465  0.348355  0.119520  1
  F  F25  1  0.650535  0.848355  0.880480  1
  F  F26  1  0.650535  0.848355  0.619520  1
  F  F27  1  0.588607  0.176778  0.527811  1
  F  F28  1  0.588607  0.176778  0.972189  1
  F  F29  1  0.599458  0.109840  0.250000  1
  F  F30  1  0.400542  0.890160  0.750000  1
  F  F31  1  0.411393  0.823222  0.027811  1
  F  F32  1  0.411393  0.823222  0.472189  1
  F  F33  1  0.349465  0.151645  0.380480  1
  F  F34  1  0.349465  0.151645  0.119520  1
  F  F35  1  0.150535  0.651645  0.619520  1
  F  F36  1  0.150535  0.651645  0.880480  1
  F  F37  1  0.088607  0.323222  0.972189  1
  F  F38  1  0.088607  0.323222  0.527811  1
  F  F39  1  0.099458  0.390160  0.250000  1
