# generated using pymatgen
data_SrCa2I6
_symmetry_space_group_name_H-M   'P 1'
_cell_length_a   7.29812559
_cell_length_b   8.09377065
_cell_length_c   27.05966343
_cell_angle_alpha   90.00000000
_cell_angle_beta   90.00000000
_cell_angle_gamma   90.00000000
_symmetry_Int_Tables_number   1
_chemical_formula_structural   SrCa2I6
_chemical_formula_sum   'Sr4 Ca8 I24'
_cell_volume   1598.39685722
_cell_formula_units_Z   4
loop_
 _symmetry_equiv_pos_site_id
 _symmetry_equiv_pos_as_xyz
  1  'x, y, z'
loop_
 _atom_site_type_symbol
 _atom_site_label
 _atom_site_symmetry_multiplicity
 _atom_site_fract_x
 _atom_site_fract_y
 _atom_site_fract_z
 _atom_site_occupancy
  Sr  Sr0  1  0.000000  0.750000  0.378930  1
  Sr  Sr1  1  0.000000  0.250000  0.621070  1
  Sr  Sr2  1  0.500000  0.750000  0.878930  1
  Sr  Sr3  1  0.500000  0.250000  0.121070  1
  Ca  Ca4  1  0.000000  0.750000  0.045717  1
  Ca  Ca5  1  0.000000  0.250000  0.286737  1
  Ca  Ca6  1  0.000000  0.750000  0.713263  1
  Ca  Ca7  1  0.000000  0.250000  0.954283  1
  Ca  Ca8  1  0.500000  0.750000  0.213263  1
  Ca  Ca9  1  0.500000  0.250000  0.786737  1
  Ca  Ca10  1  0.500000  0.750000  0.545717  1
  Ca  Ca11  1  0.500000  0.250000  0.454283  1
  I  I12  1  0.762836  0.427575  0.036577  1
  I  I13  1  0.762836  0.927575  0.963423  1
  I  I14  1  0.750401  0.432066  0.207302  1
  I  I15  1  0.750401  0.932066  0.792698  1
  I  I16  1  0.758338  0.408048  0.371946  1
  I  I17  1  0.758338  0.908048  0.628054  1
  I  I18  1  0.741662  0.908048  0.128054  1
  I  I19  1  0.741662  0.408048  0.871946  1
  I  I20  1  0.749599  0.932066  0.292698  1
  I  I21  1  0.749599  0.432066  0.707302  1
  I  I22  1  0.737164  0.927575  0.463423  1
  I  I23  1  0.737164  0.427575  0.536577  1
  I  I24  1  0.262836  0.072425  0.536577  1
  I  I25  1  0.262836  0.572425  0.463423  1
  I  I26  1  0.250401  0.567934  0.292698  1
  I  I27  1  0.250401  0.067934  0.707302  1
  I  I28  1  0.258338  0.091952  0.871946  1
  I  I29  1  0.258338  0.591952  0.128054  1
  I  I30  1  0.241662  0.091952  0.371946  1
  I  I31  1  0.241662  0.591952  0.628054  1
  I  I32  1  0.249599  0.067934  0.207302  1
  I  I33  1  0.249599  0.567934  0.792698  1
  I  I34  1  0.237164  0.072425  0.036577  1
  I  I35  1  0.237164  0.572425  0.963423  1
