# generated using pymatgen
data_LiMnPO4
_symmetry_space_group_name_H-M   'P 1'
_cell_length_a   5.77372762
_cell_length_b   7.58116829
_cell_length_c   8.92450740
_cell_angle_alpha   106.04336116
_cell_angle_beta   99.61215519
_cell_angle_gamma   96.99863789
_symmetry_Int_Tables_number   1
_chemical_formula_structural   LiMnPO4
_chemical_formula_sum   'Li4 Mn4 P4 O16'
_cell_volume   364.29118726
_cell_formula_units_Z   4
loop_
 _symmetry_equiv_pos_site_id
 _symmetry_equiv_pos_as_xyz
  1  'x, y, z'
loop_
 _atom_site_type_symbol
 _atom_site_label
 _atom_site_symmetry_multiplicity
 _atom_site_fract_x
 _atom_site_fract_y
 _atom_site_fract_z
 _atom_site_occupancy
  Li  Li0  1  0.986867  0.821408  0.740715  1
  Li  Li1  1  0.800844  0.390365  0.957890  1
  Li  Li2  1  0.199156  0.609635  0.042110  1
  Li  Li3  1  0.013133  0.178592  0.259285  1
  Mn  Mn4  1  0.604973  0.440951  0.323312  1
  Mn  Mn5  1  0.473087  0.023637  0.733427  1
  Mn  Mn6  1  0.526913  0.976363  0.266573  1
  Mn  Mn7  1  0.395027  0.559049  0.676688  1
  P  P8  1  0.168835  0.671620  0.402774  1
  P  P9  1  0.289088  0.213017  0.033007  1
  P  P10  1  0.710912  0.786983  0.966993  1
  P  P11  1  0.831165  0.328380  0.597226  1
  O  O12  1  0.548399  0.322424  0.060944  1
  O  O13  1  0.277861  0.491110  0.397676  1
  O  O14  1  0.899473  0.632507  0.338656  1
  O  O15  1  0.705098  0.869400  0.822547  1
  O  O16  1  0.108068  0.346383  0.042516  1
  O  O17  1  0.225038  0.783054  0.588049  1
  O  O18  1  0.227349  0.052542  0.873748  1
  O  O19  1  0.699336  0.217563  0.689061  1
  O  O20  1  0.300664  0.782437  0.310939  1
  O  O21  1  0.772651  0.947458  0.126252  1
  O  O22  1  0.774962  0.216946  0.411951  1
  O  O23  1  0.891932  0.653617  0.957484  1
  O  O24  1  0.294902  0.130600  0.177453  1
  O  O25  1  0.100527  0.367493  0.661344  1
  O  O26  1  0.722139  0.508890  0.602324  1
  O  O27  1  0.451601  0.677576  0.939056  1
