# generated using pymatgen
data_VZn2HO5
_symmetry_space_group_name_H-M   'P 1'
_cell_length_a   6.14185415
_cell_length_b   9.03358284
_cell_length_c   14.79209355
_cell_angle_alpha   90.00000000
_cell_angle_beta   90.00000000
_cell_angle_gamma   90.00000000
_symmetry_Int_Tables_number   1
_chemical_formula_structural   VZn2HO5
_chemical_formula_sum   'V8 Zn16 H8 O40'
_cell_volume   820.70896102
_cell_formula_units_Z   8
loop_
 _symmetry_equiv_pos_site_id
 _symmetry_equiv_pos_as_xyz
  1  'x, y, z'
loop_
 _atom_site_type_symbol
 _atom_site_label
 _atom_site_symmetry_multiplicity
 _atom_site_fract_x
 _atom_site_fract_y
 _atom_site_fract_z
 _atom_site_occupancy
  V  V0  1  0.250000  0.689494  0.925432  1
  V  V1  1  0.250000  0.810506  0.425432  1
  V  V2  1  0.750000  0.310506  0.074568  1
  V  V3  1  0.750000  0.189494  0.574568  1
  V  V4  1  0.750000  0.019737  0.839212  1
  V  V5  1  0.750000  0.480263  0.339212  1
  V  V6  1  0.250000  0.980263  0.160788  1
  V  V7  1  0.250000  0.519737  0.660788  1
  Zn  Zn8  1  0.250000  0.087543  0.924915  1
  Zn  Zn9  1  0.250000  0.412457  0.424915  1
  Zn  Zn10  1  0.750000  0.912457  0.075085  1
  Zn  Zn11  1  0.750000  0.587543  0.575085  1
  Zn  Zn12  1  0.750000  0.660243  0.794000  1
  Zn  Zn13  1  0.750000  0.839757  0.294000  1
  Zn  Zn14  1  0.250000  0.339757  0.206000  1
  Zn  Zn15  1  0.250000  0.160243  0.706000  1
  Zn  Zn16  1  0.994769  0.375061  0.860476  1
  Zn  Zn17  1  0.505231  0.124939  0.360476  1
  Zn  Zn18  1  0.494769  0.624939  0.139524  1
  Zn  Zn19  1  0.005231  0.875061  0.639524  1
  Zn  Zn20  1  0.005231  0.624939  0.139524  1
  Zn  Zn21  1  0.494769  0.875061  0.639524  1
  Zn  Zn22  1  0.505231  0.375061  0.860476  1
  Zn  Zn23  1  0.994769  0.124939  0.360476  1
  H  H24  1  0.250000  0.344209  0.001918  1
  H  H25  1  0.250000  0.155791  0.501918  1
  H  H26  1  0.750000  0.655791  0.998082  1
  H  H27  1  0.750000  0.844209  0.498082  1
  H  H28  1  0.750000  0.400376  0.714240  1
  H  H29  1  0.750000  0.099624  0.214240  1
  H  H30  1  0.250000  0.599624  0.285760  1
  H  H31  1  0.250000  0.900376  0.785760  1
  O  O32  1  0.750000  0.873789  0.753298  1
  O  O33  1  0.750000  0.626211  0.253298  1
  O  O34  1  0.250000  0.126211  0.246702  1
  O  O35  1  0.250000  0.373789  0.746702  1
  O  O36  1  0.250000  0.874939  0.899167  1
  O  O37  1  0.250000  0.625061  0.399167  1
  O  O38  1  0.750000  0.125061  0.100833  1
  O  O39  1  0.750000  0.374939  0.600833  1
  O  O40  1  0.750000  0.343042  0.958499  1
  O  O41  1  0.750000  0.156958  0.458499  1
  O  O42  1  0.250000  0.656958  0.041501  1
  O  O43  1  0.250000  0.843042  0.541501  1
  O  O44  1  0.012569  0.610974  0.878833  1
  O  O45  1  0.487431  0.889026  0.378833  1
  O  O46  1  0.512569  0.389026  0.121167  1
  O  O47  1  0.987431  0.110974  0.621167  1
  O  O48  1  0.987431  0.389026  0.121167  1
  O  O49  1  0.512569  0.110974  0.621167  1
  O  O50  1  0.487431  0.610974  0.878833  1
  O  O51  1  0.012569  0.889026  0.378833  1
  O  O52  1  0.750000  0.933993  0.940410  1
  O  O53  1  0.750000  0.566007  0.440410  1
  O  O54  1  0.250000  0.066007  0.059590  1
  O  O55  1  0.250000  0.433993  0.559590  1
  O  O56  1  0.985771  0.131829  0.832929  1
  O  O57  1  0.514229  0.368171  0.332929  1
  O  O58  1  0.485771  0.868171  0.167071  1
  O  O59  1  0.014229  0.631829  0.667071  1
  O  O60  1  0.014229  0.868171  0.167071  1
  O  O61  1  0.485771  0.631829  0.667071  1
  O  O62  1  0.514229  0.131829  0.832929  1
  O  O63  1  0.985771  0.368171  0.332929  1
  O  O64  1  0.250000  0.313583  0.938460  1
  O  O65  1  0.250000  0.186417  0.438460  1
  O  O66  1  0.750000  0.686417  0.061540  1
  O  O67  1  0.750000  0.813583  0.561540  1
  O  O68  1  0.750000  0.433513  0.778402  1
  O  O69  1  0.750000  0.066487  0.278402  1
  O  O70  1  0.250000  0.566487  0.221598  1
  O  O71  1  0.250000  0.933513  0.721598  1
