# generated using pymatgen
data_Hg2W2O7
_symmetry_space_group_name_H-M   'P 1'
_cell_length_a   7.35538620
_cell_length_b   7.35538620
_cell_length_c   14.94653939
_cell_angle_alpha   76.65228394
_cell_angle_beta   103.34771606
_cell_angle_gamma   117.41337489
_symmetry_Int_Tables_number   1
_chemical_formula_structural   Hg2W2O7
_chemical_formula_sum   'Hg8 W8 O28'
_cell_volume   691.13723974
_cell_formula_units_Z   4
loop_
 _symmetry_equiv_pos_site_id
 _symmetry_equiv_pos_as_xyz
  1  'x, y, z'
loop_
 _atom_site_type_symbol
 _atom_site_label
 _atom_site_symmetry_multiplicity
 _atom_site_fract_x
 _atom_site_fract_y
 _atom_site_fract_z
 _atom_site_occupancy
  Hg  Hg0  1  0.928077  0.761084  0.063551  1
  Hg  Hg1  1  0.390622  0.258264  0.060507  1
  Hg  Hg2  1  0.741736  0.609378  0.560507  1
  Hg  Hg3  1  0.761084  0.928077  0.436449  1
  Hg  Hg4  1  0.238916  0.071923  0.563551  1
  Hg  Hg5  1  0.258264  0.390622  0.439493  1
  Hg  Hg6  1  0.609378  0.741736  0.939493  1
  Hg  Hg7  1  0.071923  0.238916  0.936449  1
  W  W8  1  0.847524  0.159761  0.188012  1
  W  W9  1  0.840239  0.152476  0.688012  1
  W  W10  1  0.663873  0.357389  0.309582  1
  W  W11  1  0.642611  0.336127  0.809582  1
  W  W12  1  0.357389  0.663873  0.190418  1
  W  W13  1  0.336127  0.642611  0.690418  1
  W  W14  1  0.159761  0.847524  0.311988  1
  W  W15  1  0.152476  0.840239  0.811988  1
  O  O16  1  0.812286  0.109072  0.073762  1
  O  O17  1  0.838766  0.206070  0.330702  1
  O  O18  1  0.890928  0.187714  0.573762  1
  O  O19  1  0.883586  0.614313  0.274653  1
  O  O20  1  0.649087  0.282211  0.170410  1
  O  O21  1  0.793930  0.161234  0.830702  1
  O  O22  1  0.681052  0.388537  0.425466  1
  O  O23  1  0.925102  0.576489  0.821846  1
  O  O24  1  0.717789  0.350913  0.670410  1
  O  O25  1  0.423511  0.074898  0.321846  1
  O  O26  1  0.971097  0.971097  0.750000  1
  O  O27  1  0.614313  0.883586  0.225347  1
  O  O28  1  0.456108  0.456108  0.250000  1
  O  O29  1  0.388537  0.681052  0.074534  1
  O  O30  1  0.611463  0.318948  0.925466  1
  O  O31  1  0.543892  0.543892  0.750000  1
  O  O32  1  0.385687  0.116414  0.774653  1
  O  O33  1  0.028903  0.028903  0.250000  1
  O  O34  1  0.576489  0.925102  0.678154  1
  O  O35  1  0.282211  0.649087  0.329590  1
  O  O36  1  0.074898  0.423511  0.178154  1
  O  O37  1  0.318948  0.611463  0.574534  1
  O  O38  1  0.206070  0.838766  0.169298  1
  O  O39  1  0.350913  0.717789  0.829590  1
  O  O40  1  0.116414  0.385687  0.725347  1
  O  O41  1  0.109072  0.812286  0.426238  1
  O  O42  1  0.161234  0.793930  0.669298  1
  O  O43  1  0.187714  0.890928  0.926238  1
