# generated using pymatgen
data_LiSnPCO7
_symmetry_space_group_name_H-M   'P 1'
_cell_length_a   5.23434996
_cell_length_b   6.54830448
_cell_length_c   8.95683671
_cell_angle_alpha   90.00000000
_cell_angle_beta   93.94270644
_cell_angle_gamma   90.00000000
_symmetry_Int_Tables_number   1
_chemical_formula_structural   LiSnPCO7
_chemical_formula_sum   'Li2 Sn2 P2 C2 O14'
_cell_volume   306.27899723
_cell_formula_units_Z   2
loop_
 _symmetry_equiv_pos_site_id
 _symmetry_equiv_pos_as_xyz
  1  'x, y, z'
loop_
 _atom_site_type_symbol
 _atom_site_label
 _atom_site_symmetry_multiplicity
 _atom_site_fract_x
 _atom_site_fract_y
 _atom_site_fract_z
 _atom_site_occupancy
  Li  Li0  1  0.765169  0.468759  0.661595  1
  Li  Li1  1  0.234831  0.968759  0.338405  1
  Sn  Sn2  1  0.211145  0.248275  0.842384  1
  Sn  Sn3  1  0.788855  0.748275  0.157616  1
  P  P4  1  0.269309  0.750988  0.928508  1
  P  P5  1  0.730691  0.250988  0.071492  1
  C  C6  1  0.272802  0.259810  0.561653  1
  C  C7  1  0.727198  0.759810  0.438347  1
  O  O8  1  0.690618  0.729873  0.571662  1
  O  O9  1  0.042983  0.262279  0.618789  1
  O  O10  1  0.463896  0.283320  0.669445  1
  O  O11  1  0.197427  0.937151  0.829796  1
  O  O12  1  0.170474  0.564426  0.837451  1
  O  O13  1  0.848158  0.259347  0.916659  1
  O  O14  1  0.566164  0.737922  0.961178  1
  O  O15  1  0.433836  0.237922  0.038822  1
  O  O16  1  0.151842  0.759347  0.083341  1
  O  O17  1  0.829526  0.064426  0.162549  1
  O  O18  1  0.802573  0.437151  0.170204  1
  O  O19  1  0.536104  0.783320  0.330555  1
  O  O20  1  0.957017  0.762279  0.381211  1
  O  O21  1  0.309382  0.229873  0.428338  1
