# generated using pymatgen
data_Li4Ti2Mn3O10
_symmetry_space_group_name_H-M   'P 1'
_cell_length_a   6.62693194
_cell_length_b   8.02225020
_cell_length_c   8.09186248
_cell_angle_alpha   98.22000261
_cell_angle_beta   113.25476474
_cell_angle_gamma   89.13118179
_symmetry_Int_Tables_number   1
_chemical_formula_structural   Li4Ti2Mn3O10
_chemical_formula_sum   'Li8 Ti4 Mn6 O20'
_cell_volume   390.77391309
_cell_formula_units_Z   2
loop_
 _symmetry_equiv_pos_site_id
 _symmetry_equiv_pos_as_xyz
  1  'x, y, z'
loop_
 _atom_site_type_symbol
 _atom_site_label
 _atom_site_symmetry_multiplicity
 _atom_site_fract_x
 _atom_site_fract_y
 _atom_site_fract_z
 _atom_site_occupancy
  Li  Li0  1  0.598500  0.208209  0.769072  1
  Li  Li1  1  0.308613  0.092794  0.403730  1
  Li  Li2  1  0.749939  0.257038  0.484938  1
  Li  Li3  1  0.250061  0.742962  0.515062  1
  Li  Li4  1  0.691387  0.907206  0.596270  1
  Li  Li5  1  0.401500  0.791791  0.230928  1
  Li  Li6  1  0.816822  0.573445  0.399285  1
  Li  Li7  1  0.183178  0.426555  0.600715  1
  Ti  Ti8  1  0.845301  0.945610  0.317868  1
  Ti  Ti9  1  0.154699  0.054390  0.682132  1
  Ti  Ti10  1  0.334410  0.433250  0.320228  1
  Ti  Ti11  1  0.665590  0.566750  0.679772  1
  Mn  Mn12  1  0.464286  0.151872  0.108219  1
  Mn  Mn13  1  0.535714  0.848128  0.891781  1
  Mn  Mn14  1  0.000000  0.000000  0.000000  1
  Mn  Mn15  1  0.500000  0.500000  0.000000  1
  Mn  Mn16  1  0.960302  0.644555  0.112327  1
  Mn  Mn17  1  0.039698  0.355445  0.887673  1
  O  O18  1  0.286885  0.951008  0.937167  1
  O  O19  1  0.409667  0.988219  0.652365  1
  O  O20  1  0.590333  0.011781  0.347635  1
  O  O21  1  0.900240  0.133250  0.766170  1
  O  O22  1  0.025980  0.145815  0.461552  1
  O  O23  1  0.713115  0.048992  0.062833  1
  O  O24  1  0.410869  0.628248  0.763490  1
  O  O25  1  0.211104  0.220359  0.165362  1
  O  O26  1  0.527233  0.651907  0.457676  1
  O  O27  1  0.788896  0.779641  0.834638  1
  O  O28  1  0.704633  0.722384  0.163783  1
  O  O29  1  0.974020  0.854185  0.538448  1
  O  O30  1  0.295367  0.277616  0.836217  1
  O  O31  1  0.099760  0.866750  0.233830  1
  O  O32  1  0.782519  0.445517  0.926787  1
  O  O33  1  0.472767  0.348093  0.542324  1
  O  O34  1  0.589131  0.371752  0.236510  1
  O  O35  1  0.902839  0.473825  0.643613  1
  O  O36  1  0.097161  0.526175  0.356387  1
  O  O37  1  0.217481  0.554483  0.073213  1
