# generated using pymatgen
data_TiMn3O8
_symmetry_space_group_name_H-M   'P 1'
_cell_length_a   8.27550879
_cell_length_b   8.27550879
_cell_length_c   8.27550879
_cell_angle_alpha   90.00000000
_cell_angle_beta   90.00000000
_cell_angle_gamma   90.00000000
_symmetry_Int_Tables_number   1
_chemical_formula_structural   TiMn3O8
_chemical_formula_sum   'Ti4 Mn12 O32'
_cell_volume   566.74032318
_cell_formula_units_Z   4
loop_
 _symmetry_equiv_pos_site_id
 _symmetry_equiv_pos_as_xyz
  1  'x, y, z'
loop_
 _atom_site_type_symbol
 _atom_site_label
 _atom_site_symmetry_multiplicity
 _atom_site_fract_x
 _atom_site_fract_y
 _atom_site_fract_z
 _atom_site_occupancy
  Ti  Ti0  1  0.125000  0.875000  0.375000  1
  Ti  Ti1  1  0.375000  0.125000  0.875000  1
  Ti  Ti2  1  0.625000  0.625000  0.625000  1
  Ti  Ti3  1  0.875000  0.375000  0.125000  1
  Mn  Mn4  1  0.122282  0.127718  0.625000  1
  Mn  Mn5  1  0.125000  0.377718  0.872282  1
  Mn  Mn6  1  0.127718  0.625000  0.122282  1
  Mn  Mn7  1  0.372282  0.375000  0.622282  1
  Mn  Mn8  1  0.375000  0.622282  0.372282  1
  Mn  Mn9  1  0.377718  0.872282  0.125000  1
  Mn  Mn10  1  0.622282  0.372282  0.375000  1
  Mn  Mn11  1  0.625000  0.122282  0.127718  1
  Mn  Mn12  1  0.627718  0.875000  0.877718  1
  Mn  Mn13  1  0.872282  0.125000  0.377718  1
  Mn  Mn14  1  0.875000  0.877718  0.627718  1
  Mn  Mn15  1  0.877718  0.627718  0.875000  1
  O  O16  1  0.105971  0.113976  0.391031  1
  O  O17  1  0.108969  0.894029  0.613976  1
  O  O18  1  0.111520  0.611520  0.888480  1
  O  O19  1  0.136024  0.144029  0.858969  1
  O  O20  1  0.113976  0.391031  0.105971  1
  O  O21  1  0.138480  0.361520  0.638480  1
  O  O22  1  0.141031  0.636024  0.355971  1
  O  O23  1  0.144029  0.858969  0.136024  1
  O  O24  1  0.355971  0.141031  0.636024  1
  O  O25  1  0.358969  0.363976  0.855971  1
  O  O26  1  0.361520  0.638480  0.138480  1
  O  O27  1  0.386024  0.608969  0.605971  1
  O  O28  1  0.363976  0.855971  0.358969  1
  O  O29  1  0.388480  0.388480  0.388480  1
  O  O30  1  0.391031  0.105971  0.113976  1
  O  O31  1  0.394029  0.886024  0.891031  1
  O  O32  1  0.605971  0.386024  0.608969  1
  O  O33  1  0.608969  0.605971  0.386024  1
  O  O34  1  0.611520  0.888480  0.111520  1
  O  O35  1  0.636024  0.355971  0.141031  1
  O  O36  1  0.613976  0.108969  0.894029  1
  O  O37  1  0.638480  0.138480  0.361520  1
  O  O38  1  0.641031  0.863976  0.644029  1
  O  O39  1  0.644029  0.641031  0.863976  1
  O  O40  1  0.855971  0.358969  0.363976  1
  O  O41  1  0.858969  0.136024  0.144029  1
  O  O42  1  0.861520  0.861520  0.861520  1
  O  O43  1  0.886024  0.891031  0.394029  1
  O  O44  1  0.863976  0.644029  0.641031  1
  O  O45  1  0.888480  0.111520  0.611520  1
  O  O46  1  0.891031  0.394029  0.886024  1
  O  O47  1  0.894029  0.613976  0.108969  1
