# generated using pymatgen
data_VH10(CO5)2
_symmetry_space_group_name_H-M   'P 1'
_cell_length_a   7.22942689
_cell_length_b   8.92901295
_cell_length_c   14.13084973
_cell_angle_alpha   90.00000000
_cell_angle_beta   95.15109118
_cell_angle_gamma   90.00000000
_symmetry_Int_Tables_number   1
_chemical_formula_structural   VH10(CO5)2
_chemical_formula_sum   'V4 H40 C8 O40'
_cell_volume   908.48572661
_cell_formula_units_Z   4
loop_
 _symmetry_equiv_pos_site_id
 _symmetry_equiv_pos_as_xyz
  1  'x, y, z'
loop_
 _atom_site_type_symbol
 _atom_site_label
 _atom_site_symmetry_multiplicity
 _atom_site_fract_x
 _atom_site_fract_y
 _atom_site_fract_z
 _atom_site_occupancy
  V  V0  1  0.688178  0.231710  0.011114  1
  V  V1  1  0.688178  0.268290  0.511114  1
  V  V2  1  0.311822  0.731710  0.488886  1
  V  V3  1  0.311822  0.768290  0.988886  1
  H  H4  1  0.961863  0.748605  0.045847  1
  H  H5  1  0.010294  0.047296  0.256464  1
  H  H6  1  0.949796  0.692999  0.434990  1
  H  H7  1  0.961863  0.751395  0.545847  1
  H  H8  1  0.895566  0.898958  0.245485  1
  H  H9  1  0.010294  0.452704  0.756464  1
  H  H10  1  0.835159  0.402164  0.151627  1
  H  H11  1  0.949796  0.807001  0.934990  1
  H  H12  1  0.895566  0.601042  0.745485  1
  H  H13  1  0.799592  0.027385  0.379609  1
  H  H14  1  0.763567  0.532564  0.359345  1
  H  H15  1  0.835159  0.097836  0.651627  1
  H  H16  1  0.735206  0.693645  0.314164  1
  H  H17  1  0.799592  0.472615  0.879609  1
  H  H18  1  0.687966  0.957231  0.461169  1
  H  H19  1  0.619981  0.363671  0.171297  1
  H  H20  1  0.763567  0.967436  0.859345  1
  H  H21  1  0.735206  0.806355  0.814164  1
  H  H22  1  0.687966  0.542769  0.961169  1
  H  H23  1  0.619981  0.136329  0.671297  1
  H  H24  1  0.380019  0.863671  0.328703  1
  H  H25  1  0.312034  0.457231  0.038831  1
  H  H26  1  0.264794  0.193645  0.185836  1
  H  H27  1  0.236433  0.032564  0.140655  1
  H  H28  1  0.380019  0.636329  0.828703  1
  H  H29  1  0.312034  0.042769  0.538831  1
  H  H30  1  0.200408  0.527385  0.120391  1
  H  H31  1  0.264794  0.306355  0.685836  1
  H  H32  1  0.164841  0.902164  0.348373  1
  H  H33  1  0.236433  0.467436  0.640655  1
  H  H34  1  0.200408  0.972615  0.620391  1
  H  H35  1  0.104434  0.398958  0.254515  1
  H  H36  1  0.050204  0.192999  0.065010  1
  H  H37  1  0.164841  0.597836  0.848373  1
  H  H38  1  0.989706  0.547296  0.243536  1
  H  H39  1  0.104434  0.101042  0.754515  1
  H  H40  1  0.038137  0.248605  0.454153  1
  H  H41  1  0.050204  0.307001  0.565010  1
  H  H42  1  0.989706  0.952704  0.743536  1
  H  H43  1  0.038137  0.251395  0.954153  1
  C  C44  1  0.653510  0.755587  0.104049  1
  C  C45  1  0.653510  0.744413  0.604049  1
  C  C46  1  0.506226  0.811232  0.169137  1
  C  C47  1  0.493774  0.311232  0.330863  1
  C  C48  1  0.506226  0.688768  0.669137  1
  C  C49  1  0.493774  0.188768  0.830863  1
  C  C50  1  0.346490  0.255587  0.395951  1
  C  C51  1  0.346490  0.244413  0.895951  1
  O  O52  1  0.969173  0.242388  0.012140  1
  O  O53  1  0.957340  0.966759  0.293586  1
  O  O54  1  0.969173  0.257612  0.512140  1
  O  O55  1  0.957340  0.533241  0.793586  1
  O  O56  1  0.819661  0.749717  0.135333  1
  O  O57  1  0.830832  0.623405  0.342225  1
  O  O58  1  0.819661  0.750283  0.635333  1
  O  O59  1  0.707230  0.381214  0.121086  1
  O  O60  1  0.675747  0.075607  0.070370  1
  O  O61  1  0.830832  0.876595  0.842225  1
  O  O62  1  0.714831  0.051165  0.428922  1
  O  O63  1  0.707230  0.118786  0.621086  1
  O  O64  1  0.653833  0.343814  0.373957  1
  O  O65  1  0.587699  0.719216  0.018955  1
  O  O66  1  0.675747  0.424393  0.570370  1
  O  O67  1  0.714831  0.448835  0.928922  1
  O  O68  1  0.547499  0.821780  0.256682  1
  O  O69  1  0.653833  0.156186  0.873957  1
  O  O70  1  0.587699  0.780784  0.518955  1
  O  O71  1  0.452501  0.321780  0.243318  1
  O  O72  1  0.547499  0.678220  0.756682  1
  O  O73  1  0.412301  0.219216  0.481045  1
  O  O74  1  0.346167  0.843814  0.126043  1
  O  O75  1  0.452501  0.178220  0.743318  1
  O  O76  1  0.285169  0.551165  0.071078  1
  O  O77  1  0.324253  0.575607  0.429630  1
  O  O78  1  0.412301  0.280784  0.981045  1
  O  O79  1  0.346167  0.656186  0.626043  1
  O  O80  1  0.292770  0.881214  0.378914  1
  O  O81  1  0.285169  0.948835  0.571078  1
  O  O82  1  0.169168  0.123405  0.157775  1
  O  O83  1  0.324253  0.924393  0.929630  1
  O  O84  1  0.292770  0.618786  0.878914  1
  O  O85  1  0.180339  0.249717  0.364667  1
  O  O86  1  0.169168  0.376595  0.657775  1
  O  O87  1  0.180339  0.250283  0.864667  1
  O  O88  1  0.042660  0.466759  0.206414  1
  O  O89  1  0.030827  0.742388  0.487860  1
  O  O90  1  0.042660  0.033241  0.706414  1
  O  O91  1  0.030827  0.757612  0.987860  1
