# generated using pymatgen
data_Li2MnF5
_symmetry_space_group_name_H-M   'P 1'
_cell_length_a   5.48487215
_cell_length_b   7.58064914
_cell_length_c   9.47166583
_cell_angle_alpha   90.00000000
_cell_angle_beta   90.00000000
_cell_angle_gamma   90.00000000
_symmetry_Int_Tables_number   1
_chemical_formula_structural   Li2MnF5
_chemical_formula_sum   'Li8 Mn4 F20'
_cell_volume   393.82136442
_cell_formula_units_Z   4
loop_
 _symmetry_equiv_pos_site_id
 _symmetry_equiv_pos_as_xyz
  1  'x, y, z'
loop_
 _atom_site_type_symbol
 _atom_site_label
 _atom_site_symmetry_multiplicity
 _atom_site_fract_x
 _atom_site_fract_y
 _atom_site_fract_z
 _atom_site_occupancy
  Li  Li0  1  0.250000  0.072738  0.277027  1
  Li  Li1  1  0.750000  0.923068  0.433828  1
  Li  Li2  1  0.250000  0.576932  0.933828  1
  Li  Li3  1  0.750000  0.427262  0.777027  1
  Li  Li4  1  0.250000  0.572738  0.222973  1
  Li  Li5  1  0.750000  0.423068  0.066172  1
  Li  Li6  1  0.250000  0.076932  0.566172  1
  Li  Li7  1  0.750000  0.927262  0.722973  1
  Mn  Mn8  1  0.750000  0.816647  0.050529  1
  Mn  Mn9  1  0.250000  0.683353  0.550529  1
  Mn  Mn10  1  0.750000  0.316647  0.449471  1
  Mn  Mn11  1  0.250000  0.183353  0.949471  1
  F  F12  1  0.000000  0.000000  0.000000  1
  F  F13  1  0.500000  0.000000  0.000000  1
  F  F14  1  0.750000  0.883442  0.235899  1
  F  F15  1  0.994955  0.869447  0.587798  1
  F  F16  1  0.505045  0.869447  0.587798  1
  F  F17  1  0.250000  0.758484  0.361607  1
  F  F18  1  0.750000  0.741516  0.861607  1
  F  F19  1  0.005045  0.630553  0.087798  1
  F  F20  1  0.494955  0.630553  0.087798  1
  F  F21  1  0.250000  0.616558  0.735899  1
  F  F22  1  0.000000  0.500000  0.500000  1
  F  F23  1  0.500000  0.500000  0.500000  1
  F  F24  1  0.750000  0.383442  0.264101  1
  F  F25  1  0.505045  0.369447  0.912202  1
  F  F26  1  0.994955  0.369447  0.912202  1
  F  F27  1  0.250000  0.258484  0.138393  1
  F  F28  1  0.750000  0.241516  0.638393  1
  F  F29  1  0.005045  0.130553  0.412202  1
  F  F30  1  0.494955  0.130553  0.412202  1
  F  F31  1  0.250000  0.116558  0.764101  1
