# generated using pymatgen
data_Tb2Ti2O7
_symmetry_space_group_name_H-M   'P 1'
_cell_length_a   7.01342033
_cell_length_b   7.01342033
_cell_length_c   12.73197362
_cell_angle_alpha   90.00000000
_cell_angle_beta   90.00000000
_cell_angle_gamma   90.00000000
_symmetry_Int_Tables_number   1
_chemical_formula_structural   Tb2Ti2O7
_chemical_formula_sum   'Tb8 Ti8 O28'
_cell_volume   626.26114161
_cell_formula_units_Z   4
loop_
 _symmetry_equiv_pos_site_id
 _symmetry_equiv_pos_as_xyz
  1  'x, y, z'
loop_
 _atom_site_type_symbol
 _atom_site_label
 _atom_site_symmetry_multiplicity
 _atom_site_fract_x
 _atom_site_fract_y
 _atom_site_fract_z
 _atom_site_occupancy
  Tb  Tb0  1  0.630172  0.140002  0.135675  1
  Tb  Tb1  1  0.640002  0.869828  0.885675  1
  Tb  Tb2  1  0.859998  0.369828  0.364325  1
  Tb  Tb3  1  0.869828  0.640002  0.114325  1
  Tb  Tb4  1  0.130172  0.359998  0.614325  1
  Tb  Tb5  1  0.140002  0.630172  0.864325  1
  Tb  Tb6  1  0.359998  0.130172  0.385675  1
  Tb  Tb7  1  0.369828  0.859998  0.635675  1
  Ti  Ti8  1  0.600258  0.351838  0.612945  1
  Ti  Ti9  1  0.648162  0.399742  0.887055  1
  Ti  Ti10  1  0.851838  0.899742  0.362945  1
  Ti  Ti11  1  0.899742  0.851838  0.637055  1
  Ti  Ti12  1  0.100258  0.148162  0.137055  1
  Ti  Ti13  1  0.148162  0.100258  0.862945  1
  Ti  Ti14  1  0.351838  0.600258  0.387055  1
  Ti  Ti15  1  0.399742  0.648162  0.112945  1
  O  O16  1  0.542482  0.425255  0.387299  1
  O  O17  1  0.573620  0.833948  0.071151  1
  O  O18  1  0.574745  0.457518  0.112701  1
  O  O19  1  0.637142  0.169957  0.956942  1
  O  O20  1  0.666052  0.073620  0.321151  1
  O  O21  1  0.669957  0.862858  0.706942  1
  O  O22  1  0.678188  0.321812  0.750000  1
  O  O23  1  0.821812  0.821812  0.500000  1
  O  O24  1  0.830043  0.362858  0.543058  1
  O  O25  1  0.833948  0.573620  0.928849  1
  O  O26  1  0.862858  0.669957  0.293058  1
  O  O27  1  0.925255  0.957518  0.137299  1
  O  O28  1  0.926380  0.333948  0.178849  1
  O  O29  1  0.957518  0.925255  0.862701  1
  O  O30  1  0.042482  0.074745  0.362701  1
  O  O31  1  0.073620  0.666052  0.678849  1
  O  O32  1  0.074745  0.042482  0.637299  1
  O  O33  1  0.137142  0.330043  0.793058  1
  O  O34  1  0.166052  0.426380  0.428849  1
  O  O35  1  0.169957  0.637142  0.043058  1
  O  O36  1  0.178188  0.178188  0.000000  1
  O  O37  1  0.321812  0.678188  0.250000  1
  O  O38  1  0.330043  0.137142  0.206942  1
  O  O39  1  0.333948  0.926380  0.821151  1
  O  O40  1  0.362858  0.830043  0.456942  1
  O  O41  1  0.425255  0.542482  0.612701  1
  O  O42  1  0.426380  0.166052  0.571151  1
  O  O43  1  0.457518  0.574745  0.887299  1
