# generated using pymatgen
data_Nd4O3F7
_symmetry_space_group_name_H-M   'P 1'
_cell_length_a   5.51608927
_cell_length_b   5.85216751
_cell_length_c   5.86685363
_cell_angle_alpha   90.00000000
_cell_angle_beta   91.10057127
_cell_angle_gamma   90.00000000
_symmetry_Int_Tables_number   1
_chemical_formula_structural   Nd4O3F7
_chemical_formula_sum   'Nd4 O3 F7'
_cell_volume   189.35342368
_cell_formula_units_Z   1
loop_
 _symmetry_equiv_pos_site_id
 _symmetry_equiv_pos_as_xyz
  1  'x, y, z'
loop_
 _atom_site_type_symbol
 _atom_site_label
 _atom_site_symmetry_multiplicity
 _atom_site_fract_x
 _atom_site_fract_y
 _atom_site_fract_z
 _atom_site_occupancy
  Nd  Nd0  1  0.272209  0.275044  0.248899  1
  Nd  Nd1  1  0.760999  0.796104  0.251898  1
  Nd  Nd2  1  0.239001  0.796104  0.748102  1
  Nd  Nd3  1  0.727791  0.275044  0.751101  1
  O  O4  1  0.500000  0.040156  0.000000  1
  O  O5  1  0.000000  0.025682  0.000000  1
  O  O6  1  0.500000  0.996143  0.500000  1
  F  F7  1  0.500000  0.560010  0.000000  1
  F  F8  1  0.683953  0.399622  0.353780  1
  F  F9  1  0.000000  0.494409  0.000000  1
  F  F10  1  0.316047  0.399622  0.646220  1
  F  F11  1  0.825059  0.679831  0.653247  1
  F  F12  1  0.174941  0.679831  0.346753  1
  F  F13  1  0.000000  0.080396  0.500000  1
