# generated using pymatgen
data_Na3Li3Fe2P2(CO7)2
_symmetry_space_group_name_H-M   'P 1'
_cell_length_a   5.10149687
_cell_length_b   6.58203735
_cell_length_c   8.77040597
_cell_angle_alpha   91.46987506
_cell_angle_beta   91.79028148
_cell_angle_gamma   90.01332009
_symmetry_Int_Tables_number   1
_chemical_formula_structural   Na3Li3Fe2P2(CO7)2
_chemical_formula_sum   'Na3 Li3 Fe2 P2 C2 O14'
_cell_volume   294.25405824
_cell_formula_units_Z   1
loop_
 _symmetry_equiv_pos_site_id
 _symmetry_equiv_pos_as_xyz
  1  'x, y, z'
loop_
 _atom_site_type_symbol
 _atom_site_label
 _atom_site_symmetry_multiplicity
 _atom_site_fract_x
 _atom_site_fract_y
 _atom_site_fract_z
 _atom_site_occupancy
  Na  Na0  1  0.758900  0.243437  0.917605  1
  Na  Na1  1  0.248129  0.500150  0.741315  1
  Na  Na2  1  0.752385  0.500928  0.258646  1
  Li  Li3  1  0.243106  0.008573  0.731485  1
  Li  Li4  1  0.756633  0.991850  0.267347  1
  Li  Li5  1  0.243682  0.761592  0.084007  1
  Fe  Fe6  1  0.785591  0.752164  0.647725  1
  Fe  Fe7  1  0.214458  0.247193  0.351617  1
  P  P8  1  0.700645  0.241171  0.585971  1
  P  P9  1  0.300412  0.757725  0.409178  1
  C  C10  1  0.728386  0.760176  0.951527  1
  C  C11  1  0.270377  0.239585  0.054763  1
  O  O12  1  0.283274  0.230858  0.906583  1
  O  O13  1  0.965341  0.751671  0.899667  1
  O  O14  1  0.527203  0.758973  0.856492  1
  O  O15  1  0.804055  0.063386  0.685602  1
  O  O16  1  0.783978  0.439622  0.676645  1
  O  O17  1  0.394927  0.232043  0.573336  1
  O  O18  1  0.183699  0.767014  0.570036  1
  O  O19  1  0.814708  0.232630  0.425149  1
  O  O20  1  0.605494  0.767459  0.425858  1
  O  O21  1  0.218154  0.560416  0.317300  1
  O  O22  1  0.199502  0.933095  0.305876  1
  O  O23  1  0.482041  0.240936  0.140709  1
  O  O24  1  0.044050  0.248099  0.118422  1
  O  O25  1  0.690871  0.769254  0.097139  1
