# generated using pymatgen
data_RbPHO3F
_symmetry_space_group_name_H-M   'P 1'
_cell_length_a   7.63108511
_cell_length_b   15.86458522
_cell_length_c   9.28452437
_cell_angle_alpha   90.00000000
_cell_angle_beta   126.87451899
_cell_angle_gamma   90.00000000
_symmetry_Int_Tables_number   1
_chemical_formula_structural   RbPHO3F
_chemical_formula_sum   'Rb8 P8 H8 O24 F8'
_cell_volume   899.16292823
_cell_formula_units_Z   8
loop_
 _symmetry_equiv_pos_site_id
 _symmetry_equiv_pos_as_xyz
  1  'x, y, z'
loop_
 _atom_site_type_symbol
 _atom_site_label
 _atom_site_symmetry_multiplicity
 _atom_site_fract_x
 _atom_site_fract_y
 _atom_site_fract_z
 _atom_site_occupancy
  Rb  Rb0  1  0.319349  0.295492  0.252410  1
  Rb  Rb1  1  0.981128  0.952553  0.724185  1
  Rb  Rb2  1  0.018872  0.452553  0.775815  1
  Rb  Rb3  1  0.680651  0.795492  0.247590  1
  Rb  Rb4  1  0.319349  0.204508  0.752410  1
  Rb  Rb5  1  0.981128  0.547447  0.224185  1
  Rb  Rb6  1  0.018872  0.047447  0.275815  1
  Rb  Rb7  1  0.680651  0.704508  0.747590  1
  P  P8  1  0.870479  0.203008  0.778318  1
  P  P9  1  0.512768  0.531494  0.268074  1
  P  P10  1  0.487232  0.031494  0.231926  1
  P  P11  1  0.129521  0.703008  0.721682  1
  P  P12  1  0.870479  0.296992  0.278318  1
  P  P13  1  0.512768  0.968506  0.768074  1
  P  P14  1  0.487232  0.468506  0.731926  1
  P  P15  1  0.129521  0.796992  0.221682  1
  H  H16  1  0.205195  0.899754  0.105354  1
  H  H17  1  0.637561  0.117495  0.466808  1
  H  H18  1  0.362439  0.617495  0.033192  1
  H  H19  1  0.794805  0.399754  0.394646  1
  H  H20  1  0.205195  0.600246  0.605354  1
  H  H21  1  0.637561  0.382505  0.966808  1
  H  H22  1  0.362439  0.882505  0.533192  1
  H  H23  1  0.794805  0.100246  0.894646  1
  O  O24  1  0.153939  0.837333  0.078375  1
  O  O25  1  0.263483  0.991098  0.120492  1
  O  O26  1  0.309480  0.478664  0.161474  1
  O  O27  1  0.486401  0.105212  0.347750  1
  O  O28  1  0.513599  0.605212  0.152250  1
  O  O29  1  0.863468  0.137359  0.656601  1
  O  O30  1  0.047427  0.268500  0.863937  1
  O  O31  1  0.690520  0.978664  0.338526  1
  O  O32  1  0.736517  0.491098  0.379508  1
  O  O33  1  0.952573  0.768500  0.636063  1
  O  O34  1  0.136532  0.637359  0.843399  1
  O  O35  1  0.846061  0.337333  0.421625  1
  O  O36  1  0.153939  0.662667  0.578375  1
  O  O37  1  0.863468  0.362641  0.156601  1
  O  O38  1  0.047427  0.231500  0.363937  1
  O  O39  1  0.263483  0.508902  0.620492  1
  O  O40  1  0.309480  0.021336  0.661474  1
  O  O41  1  0.952573  0.731500  0.136063  1
  O  O42  1  0.136532  0.862641  0.343399  1
  O  O43  1  0.486401  0.394788  0.847750  1
  O  O44  1  0.513599  0.894788  0.652250  1
  O  O45  1  0.690520  0.521336  0.838526  1
  O  O46  1  0.736517  0.008902  0.879508  1
  O  O47  1  0.846061  0.162667  0.921625  1
  F  F48  1  0.361366  0.747547  0.348814  1
  F  F49  1  0.502035  0.583241  0.412485  1
  F  F50  1  0.497965  0.083241  0.087515  1
  F  F51  1  0.638634  0.247547  0.151186  1
  F  F52  1  0.361366  0.752453  0.848814  1
  F  F53  1  0.502035  0.916759  0.912485  1
  F  F54  1  0.497965  0.416759  0.587515  1
  F  F55  1  0.638634  0.252453  0.651186  1
