# generated using pymatgen
data_LiP3(WO6)2
_symmetry_space_group_name_H-M   'P 1'
_cell_length_a   8.67724257
_cell_length_b   8.99005464
_cell_length_c   14.95186827
_cell_angle_alpha   90.00000000
_cell_angle_beta   124.55236007
_cell_angle_gamma   90.00000000
_symmetry_Int_Tables_number   1
_chemical_formula_structural   LiP3(WO6)2
_chemical_formula_sum   'Li4 P12 W8 O48'
_cell_volume   960.63899086
_cell_formula_units_Z   4
loop_
 _symmetry_equiv_pos_site_id
 _symmetry_equiv_pos_as_xyz
  1  'x, y, z'
loop_
 _atom_site_type_symbol
 _atom_site_label
 _atom_site_symmetry_multiplicity
 _atom_site_fract_x
 _atom_site_fract_y
 _atom_site_fract_z
 _atom_site_occupancy
  Li  Li0  1  0.512328  0.281279  0.823846  1
  Li  Li1  1  0.487672  0.781279  0.676154  1
  Li  Li2  1  0.512328  0.218721  0.323846  1
  Li  Li3  1  0.487672  0.718721  0.176154  1
  P  P4  1  0.042145  0.751070  0.507870  1
  P  P5  1  0.752289  0.882062  0.148063  1
  P  P6  1  0.466546  0.610392  0.856414  1
  P  P7  1  0.533454  0.110392  0.643586  1
  P  P8  1  0.247711  0.382062  0.351937  1
  P  P9  1  0.957855  0.251070  0.992130  1
  P  P10  1  0.042145  0.748930  0.007870  1
  P  P11  1  0.752289  0.617938  0.648063  1
  P  P12  1  0.466546  0.889608  0.356414  1
  P  P13  1  0.533454  0.389608  0.143586  1
  P  P14  1  0.247711  0.117938  0.851937  1
  P  P15  1  0.957855  0.248930  0.492130  1
  W  W16  1  0.129653  0.031965  0.381819  1
  W  W17  1  0.357861  0.462424  0.613690  1
  W  W18  1  0.870347  0.531965  0.118181  1
  W  W19  1  0.642139  0.962424  0.886310  1
  W  W20  1  0.357861  0.037576  0.113690  1
  W  W21  1  0.129653  0.468035  0.881819  1
  W  W22  1  0.642139  0.537576  0.386310  1
  W  W23  1  0.870347  0.968035  0.618181  1
  O  O24  1  0.109956  0.368402  0.559283  1
  O  O25  1  0.690714  0.385079  0.125144  1
  O  O26  1  0.403725  0.084069  0.832664  1
  O  O27  1  0.979842  0.184859  0.403676  1
  O  O28  1  0.022891  0.868078  0.429170  1
  O  O29  1  0.781730  0.713911  0.167264  1
  O  O30  1  0.680087  0.925238  0.031243  1
  O  O31  1  0.421417  0.488648  0.769222  1
  O  O32  1  0.238965  0.678078  0.568094  1
  O  O33  1  0.489170  0.761770  0.815636  1
  O  O34  1  0.653153  0.563706  0.959605  1
  O  O35  1  0.927023  0.976665  0.225681  1
  O  O36  1  0.072977  0.476665  0.274319  1
  O  O37  1  0.346847  0.063706  0.540395  1
  O  O38  1  0.510830  0.261770  0.684364  1
  O  O39  1  0.761035  0.178078  0.931906  1
  O  O40  1  0.319913  0.425238  0.468757  1
  O  O41  1  0.578583  0.988648  0.730778  1
  O  O42  1  0.218270  0.213911  0.332736  1
  O  O43  1  0.977109  0.368078  0.070830  1
  O  O44  1  0.020158  0.684859  0.096324  1
  O  O45  1  0.309286  0.885079  0.374856  1
  O  O46  1  0.596275  0.584069  0.667336  1
  O  O47  1  0.890044  0.868402  0.940717  1
  O  O48  1  0.109956  0.131598  0.059283  1
  O  O49  1  0.403725  0.415931  0.332664  1
  O  O50  1  0.690714  0.114921  0.625144  1
  O  O51  1  0.979842  0.315141  0.903676  1
  O  O52  1  0.022891  0.631922  0.929170  1
  O  O53  1  0.781730  0.786089  0.667264  1
  O  O54  1  0.421417  0.011352  0.269222  1
  O  O55  1  0.680087  0.574762  0.531243  1
  O  O56  1  0.238965  0.821922  0.068094  1
  O  O57  1  0.489170  0.738230  0.315636  1
  O  O58  1  0.653153  0.936294  0.459605  1
  O  O59  1  0.927023  0.523335  0.725681  1
  O  O60  1  0.072977  0.023335  0.774319  1
  O  O61  1  0.346847  0.436294  0.040395  1
  O  O62  1  0.510830  0.238230  0.184364  1
  O  O63  1  0.761035  0.321922  0.431906  1
  O  O64  1  0.578583  0.511352  0.230778  1
  O  O65  1  0.319913  0.074762  0.968757  1
  O  O66  1  0.218270  0.286089  0.832736  1
  O  O67  1  0.977109  0.131922  0.570830  1
  O  O68  1  0.020158  0.815141  0.596324  1
  O  O69  1  0.596275  0.915931  0.167336  1
  O  O70  1  0.309286  0.614921  0.874856  1
  O  O71  1  0.890044  0.631598  0.440717  1
