# generated using pymatgen
data_Li4TiV5O12
_symmetry_space_group_name_H-M   'P 1'
_cell_length_a   5.14916706
_cell_length_b   5.14916706
_cell_length_c   10.24840416
_cell_angle_alpha   89.40382965
_cell_angle_beta   90.59617035
_cell_angle_gamma   60.77454720
_symmetry_Int_Tables_number   1
_chemical_formula_structural   Li4TiV5O12
_chemical_formula_sum   'Li4 Ti1 V5 O12'
_cell_volume   237.08599976
_cell_formula_units_Z   1
loop_
 _symmetry_equiv_pos_site_id
 _symmetry_equiv_pos_as_xyz
  1  'x, y, z'
loop_
 _atom_site_type_symbol
 _atom_site_label
 _atom_site_symmetry_multiplicity
 _atom_site_fract_x
 _atom_site_fract_y
 _atom_site_fract_z
 _atom_site_occupancy
  Li  Li0  1  0.859643  0.645691  0.750427  1
  Li  Li1  1  0.645691  0.859643  0.249573  1
  Li  Li2  1  0.354309  0.140357  0.750427  1
  Li  Li3  1  0.140357  0.354309  0.249573  1
  Ti  Ti4  1  0.000000  0.000000  0.000000  1
  V  V5  1  0.500000  0.500000  0.500000  1
  V  V6  1  0.842712  0.842712  0.500000  1
  V  V7  1  0.662244  0.662244  0.000000  1
  V  V8  1  0.337756  0.337756  0.000000  1
  V  V9  1  0.157288  0.157288  0.500000  1
  O  O10  1  0.989299  0.674497  0.106754  1
  O  O11  1  0.674497  0.989299  0.893246  1
  O  O12  1  0.837697  0.509271  0.393898  1
  O  O13  1  0.509271  0.837697  0.606102  1
  O  O14  1  0.831946  0.168054  0.604285  1
  O  O15  1  0.680946  0.319054  0.100911  1
  O  O16  1  0.319054  0.680946  0.899089  1
  O  O17  1  0.168054  0.831946  0.395715  1
  O  O18  1  0.490729  0.162303  0.393898  1
  O  O19  1  0.162303  0.490729  0.606102  1
  O  O20  1  0.325503  0.010701  0.106754  1
  O  O21  1  0.010701  0.325503  0.893246  1
