# generated using pymatgen
data_Fe5Cu(PO4)6
_symmetry_space_group_name_H-M   'P 1'
_cell_length_a   8.38817476
_cell_length_b   8.38817476
_cell_length_c   8.38817476
_cell_angle_alpha   62.11950160
_cell_angle_beta   62.11950160
_cell_angle_gamma   62.11950160
_symmetry_Int_Tables_number   1
_chemical_formula_structural   Fe5Cu(PO4)6
_chemical_formula_sum   'Fe5 Cu1 P6 O24'
_cell_volume   437.10547476
_cell_formula_units_Z   1
loop_
 _symmetry_equiv_pos_site_id
 _symmetry_equiv_pos_as_xyz
  1  'x, y, z'
loop_
 _atom_site_type_symbol
 _atom_site_label
 _atom_site_symmetry_multiplicity
 _atom_site_fract_x
 _atom_site_fract_y
 _atom_site_fract_z
 _atom_site_occupancy
  Fe  Fe0  1  0.000956  0.000956  0.000956  1
  Fe  Fe1  1  0.646725  0.646725  0.646725  1
  Fe  Fe2  1  0.500491  0.500491  0.500491  1
  Fe  Fe3  1  0.854545  0.854545  0.854545  1
  Fe  Fe4  1  0.353899  0.353899  0.353899  1
  Cu  Cu5  1  0.146310  0.146310  0.146310  1
  P  P6  1  0.951687  0.250172  0.545844  1
  P  P7  1  0.545844  0.951687  0.250172  1
  P  P8  1  0.250172  0.545844  0.951687  1
  P  P9  1  0.751801  0.451515  0.049044  1
  P  P10  1  0.451515  0.049044  0.751801  1
  P  P11  1  0.049044  0.751801  0.451515  1
  O  O12  1  0.501417  0.107349  0.324917  1
  O  O13  1  0.324917  0.501417  0.107349  1
  O  O14  1  0.107349  0.324917  0.501417  1
  O  O15  1  0.940185  0.095885  0.749404  1
  O  O16  1  0.984053  0.180548  0.391869  1
  O  O17  1  0.747993  0.404370  0.565288  1
  O  O18  1  0.749404  0.940185  0.095885  1
  O  O19  1  0.565288  0.747993  0.404370  1
  O  O20  1  0.825721  0.606968  0.005245  1
  O  O21  1  0.404370  0.565288  0.747993  1
  O  O22  1  0.905414  0.249580  0.059210  1
  O  O23  1  0.606968  0.005245  0.825721  1
  O  O24  1  0.391869  0.984053  0.180548  1
  O  O25  1  0.095885  0.749404  0.940185  1
  O  O26  1  0.597509  0.436841  0.251750  1
  O  O27  1  0.180548  0.391869  0.984053  1
  O  O28  1  0.436841  0.251750  0.597509  1
  O  O29  1  0.249580  0.059210  0.905414  1
  O  O30  1  0.251750  0.597509  0.436841  1
  O  O31  1  0.005245  0.825721  0.606968  1
  O  O32  1  0.059210  0.905414  0.249580  1
  O  O33  1  0.893579  0.677285  0.494616  1
  O  O34  1  0.677285  0.494616  0.893579  1
  O  O35  1  0.494616  0.893579  0.677285  1
