# generated using pymatgen
data_VO2
_symmetry_space_group_name_H-M   'P 1'
_cell_length_a   5.02769485
_cell_length_b   5.02769485
_cell_length_c   5.25100402
_cell_angle_alpha   73.75888655
_cell_angle_beta   106.24111345
_cell_angle_gamma   67.59972705
_symmetry_Int_Tables_number   1
_chemical_formula_structural   VO2
_chemical_formula_sum   'V3 O6'
_cell_volume   106.08080209
_cell_formula_units_Z   3
loop_
 _symmetry_equiv_pos_site_id
 _symmetry_equiv_pos_as_xyz
  1  'x, y, z'
loop_
 _atom_site_type_symbol
 _atom_site_label
 _atom_site_symmetry_multiplicity
 _atom_site_fract_x
 _atom_site_fract_y
 _atom_site_fract_z
 _atom_site_occupancy
  V  V0  1  0.000000  0.000000  0.000000  1
  V  V1  1  0.177781  0.177781  0.500000  1
  V  V2  1  0.822219  0.822219  0.500000  1
  O  O3  1  0.812437  0.187563  0.233954  1
  O  O4  1  0.373228  0.957687  0.283880  1
  O  O5  1  0.042313  0.626772  0.283880  1
  O  O6  1  0.626772  0.042313  0.716120  1
  O  O7  1  0.957687  0.373228  0.716120  1
  O  O8  1  0.187563  0.812437  0.766046  1
