# generated using pymatgen
data_Li8Mn5O10
_symmetry_space_group_name_H-M   'P 1'
_cell_length_a   5.22711160
_cell_length_b   5.49187341
_cell_length_c   8.41616109
_cell_angle_alpha   105.57574417
_cell_angle_beta   92.73716525
_cell_angle_gamma   91.72124417
_symmetry_Int_Tables_number   1
_chemical_formula_structural   Li8Mn5O10
_chemical_formula_sum   'Li8 Mn5 O10'
_cell_volume   232.23098367
_cell_formula_units_Z   1
loop_
 _symmetry_equiv_pos_site_id
 _symmetry_equiv_pos_as_xyz
  1  'x, y, z'
loop_
 _atom_site_type_symbol
 _atom_site_label
 _atom_site_symmetry_multiplicity
 _atom_site_fract_x
 _atom_site_fract_y
 _atom_site_fract_z
 _atom_site_occupancy
  Li  Li0  1  0.621328  0.358155  0.009286  1
  Li  Li1  1  0.593520  0.896885  0.190913  1
  Li  Li2  1  0.377063  0.254167  0.203498  1
  Li  Li3  1  0.613403  0.557393  0.400116  1
  Li  Li4  1  0.361667  0.478921  0.602823  1
  Li  Li5  1  0.585301  0.117159  0.562867  1
  Li  Li6  1  0.598486  0.726974  0.820756  1
  Li  Li7  1  0.370616  0.068389  0.799841  1
  Mn  Mn8  1  0.006047  0.987172  0.996494  1
  Mn  Mn9  1  0.038696  0.605173  0.200144  1
  Mn  Mn10  1  0.987611  0.800741  0.601333  1
  Mn  Mn11  1  0.997910  0.406505  0.800724  1
  Mn  Mn12  1  0.999214  0.189513  0.394182  1
  O  O13  1  0.789133  0.684886  0.007937  1
  O  O14  1  0.227219  0.289499  0.996139  1
  O  O15  1  0.218172  0.943457  0.184616  1
  O  O16  1  0.752368  0.274909  0.221955  1
  O  O17  1  0.780514  0.889411  0.400169  1
  O  O18  1  0.226529  0.482859  0.389910  1
  O  O19  1  0.730150  0.480625  0.609284  1
  O  O20  1  0.211483  0.148556  0.594604  1
  O  O21  1  0.233001  0.733484  0.784525  1
  O  O22  1  0.753655  0.071521  0.827277  1
