# generated using pymatgen
data_Li4Co3CuO8
_symmetry_space_group_name_H-M   'P 1'
_cell_length_a   5.93960744
_cell_length_b   5.93960744
_cell_length_c   5.93960744
_cell_angle_alpha   58.80836782
_cell_angle_beta   58.80836782
_cell_angle_gamma   58.80836782
_symmetry_Int_Tables_number   1
_chemical_formula_structural   Li4Co3CuO8
_chemical_formula_sum   'Li4 Co3 Cu1 O8'
_cell_volume   144.13733323
_cell_formula_units_Z   1
loop_
 _symmetry_equiv_pos_site_id
 _symmetry_equiv_pos_as_xyz
  1  'x, y, z'
loop_
 _atom_site_type_symbol
 _atom_site_label
 _atom_site_symmetry_multiplicity
 _atom_site_fract_x
 _atom_site_fract_y
 _atom_site_fract_z
 _atom_site_occupancy
  Li  Li0  1  0.000000  0.000000  0.500000  1
  Li  Li1  1  1.000000  0.500000  0.000000  1
  Li  Li2  1  0.500000  0.000000  1.000000  1
  Li  Li3  1  0.500000  0.500000  0.500000  1
  Co  Co4  1  0.000000  0.500000  0.500000  1
  Co  Co5  1  0.500000  1.000000  0.500000  1
  Co  Co6  1  0.500000  0.500000  0.000000  1
  Cu  Cu7  1  0.000000  0.000000  0.000000  1
  O  O8  1  0.753795  0.753795  0.262301  1
  O  O9  1  0.753795  0.262301  0.753795  1
  O  O10  1  0.262301  0.753795  0.753795  1
  O  O11  1  0.255852  0.255852  0.255852  1
  O  O12  1  0.744148  0.744148  0.744148  1
  O  O13  1  0.737699  0.246205  0.246205  1
  O  O14  1  0.246205  0.737699  0.246205  1
  O  O15  1  0.246205  0.246205  0.737699  1
