# generated using pymatgen
data_Rb(BH)5
_symmetry_space_group_name_H-M   'P 1'
_cell_length_a   7.28178718
_cell_length_b   11.46155331
_cell_length_c   15.29525652
_cell_angle_alpha   90.00000000
_cell_angle_beta   113.36224101
_cell_angle_gamma   90.00000000
_symmetry_Int_Tables_number   1
_chemical_formula_structural   Rb(BH)5
_chemical_formula_sum   'Rb8 B40 H40'
_cell_volume   1171.89459016
_cell_formula_units_Z   8
loop_
 _symmetry_equiv_pos_site_id
 _symmetry_equiv_pos_as_xyz
  1  'x, y, z'
loop_
 _atom_site_type_symbol
 _atom_site_label
 _atom_site_symmetry_multiplicity
 _atom_site_fract_x
 _atom_site_fract_y
 _atom_site_fract_z
 _atom_site_occupancy
  Rb  Rb0  1  0.144336  0.120732  0.944778  1
  Rb  Rb1  1  0.558939  0.429344  0.811849  1
  Rb  Rb2  1  0.441061  0.929344  0.688151  1
  Rb  Rb3  1  0.855664  0.620732  0.555222  1
  Rb  Rb4  1  0.144336  0.379268  0.444778  1
  Rb  Rb5  1  0.558939  0.070656  0.311849  1
  Rb  Rb6  1  0.441061  0.570656  0.188151  1
  Rb  Rb7  1  0.855664  0.879268  0.055222  1
  B  B8  1  0.138246  0.704027  0.976766  1
  B  B9  1  0.357987  0.672374  0.953382  1
  B  B10  1  0.272295  0.822786  0.951610  1
  B  B11  1  0.126181  0.595787  0.886627  1
  B  B12  1  0.005467  0.809035  0.882813  1
  B  B13  1  0.407036  0.779674  0.888248  1
  B  B14  1  0.921281  0.670061  0.883444  1
  B  B15  1  0.253698  0.671284  0.822846  1
  B  B16  1  0.169030  0.822282  0.820734  1
  B  B17  1  0.993631  0.702243  0.793436  1
  B  B18  1  0.006369  0.202243  0.706564  1
  B  B19  1  0.830970  0.322282  0.679266  1
  B  B20  1  0.746302  0.171284  0.677154  1
  B  B21  1  0.078719  0.170061  0.616556  1
  B  B22  1  0.994533  0.309035  0.617187  1
  B  B23  1  0.873819  0.095787  0.613373  1
  B  B24  1  0.592964  0.279674  0.611752  1
  B  B25  1  0.727705  0.322786  0.548390  1
  B  B26  1  0.642013  0.172374  0.546618  1
  B  B27  1  0.861754  0.204027  0.523234  1
  B  B28  1  0.138246  0.795973  0.476766  1
  B  B29  1  0.357987  0.827626  0.453382  1
  B  B30  1  0.272295  0.677214  0.451610  1
  B  B31  1  0.407036  0.720326  0.388248  1
  B  B32  1  0.126181  0.904213  0.386627  1
  B  B33  1  0.005467  0.690965  0.382813  1
  B  B34  1  0.921281  0.829939  0.383444  1
  B  B35  1  0.253698  0.828716  0.322846  1
  B  B36  1  0.169030  0.677718  0.320734  1
  B  B37  1  0.993631  0.797757  0.293436  1
  B  B38  1  0.006369  0.297757  0.206564  1
  B  B39  1  0.830970  0.177718  0.179266  1
  B  B40  1  0.746302  0.328716  0.177154  1
  B  B41  1  0.078719  0.329939  0.116556  1
  B  B42  1  0.592964  0.220326  0.111752  1
  B  B43  1  0.994533  0.190965  0.117187  1
  B  B44  1  0.873819  0.404213  0.113373  1
  B  B45  1  0.727705  0.177214  0.048390  1
  B  B46  1  0.642013  0.327626  0.046618  1
  B  B47  1  0.861754  0.295973  0.023234  1
  H  H48  1  0.665514  0.100775  0.989230  1
  H  H49  1  0.505327  0.381244  0.988771  1
  H  H50  1  0.857475  0.304732  0.943678  1
  H  H51  1  0.128740  0.491039  0.888057  1
  H  H52  1  0.561728  0.812560  0.886945  1
  H  H53  1  0.897801  0.891418  0.878923  1
  H  H54  1  0.764705  0.637707  0.882860  1
  H  H55  1  0.129009  0.192557  0.786576  1
  H  H56  1  0.134417  0.899384  0.763021  1
  H  H57  1  0.299513  0.618564  0.765924  1
  H  H58  1  0.865583  0.399384  0.736979  1
  H  H59  1  0.700487  0.118564  0.734076  1
  H  H60  1  0.870991  0.692557  0.713424  1
  H  H61  1  0.102199  0.391418  0.621077  1
  H  H62  1  0.871260  0.991039  0.611943  1
  H  H63  1  0.235295  0.137707  0.617140  1
  H  H64  1  0.438272  0.312560  0.613055  1
  H  H65  1  0.142525  0.804732  0.556322  1
  H  H66  1  0.494673  0.881244  0.511229  1
  H  H67  1  0.334486  0.600775  0.510770  1
  H  H68  1  0.665514  0.399225  0.489230  1
  H  H69  1  0.505327  0.118756  0.488771  1
  H  H70  1  0.857475  0.195268  0.443678  1
  H  H71  1  0.561728  0.687440  0.386945  1
  H  H72  1  0.764705  0.862293  0.382860  1
  H  H73  1  0.128740  0.008961  0.388057  1
  H  H74  1  0.897801  0.608582  0.378923  1
  H  H75  1  0.129009  0.307443  0.286576  1
  H  H76  1  0.299513  0.881436  0.265924  1
  H  H77  1  0.134417  0.600616  0.263021  1
  H  H78  1  0.700487  0.381436  0.234076  1
  H  H79  1  0.865583  0.100616  0.236979  1
  H  H80  1  0.870991  0.807443  0.213424  1
  H  H81  1  0.235295  0.362293  0.117140  1
  H  H82  1  0.102199  0.108582  0.121077  1
  H  H83  1  0.438272  0.187440  0.113055  1
  H  H84  1  0.871260  0.508961  0.111943  1
  H  H85  1  0.142525  0.695268  0.056322  1
  H  H86  1  0.494673  0.618756  0.011229  1
  H  H87  1  0.334486  0.899225  0.010770  1
