# generated using pymatgen
data_KCa2P4H9O17
_symmetry_space_group_name_H-M   'P 1'
_cell_length_a   7.43948969
_cell_length_b   19.42820316
_cell_length_c   12.92566733
_cell_angle_alpha   90.00000000
_cell_angle_beta   124.42211168
_cell_angle_gamma   90.00000000
_symmetry_Int_Tables_number   1
_chemical_formula_structural   KCa2P4H9O17
_chemical_formula_sum   'K4 Ca8 P16 H36 O68'
_cell_volume   1541.08871665
_cell_formula_units_Z   4
loop_
 _symmetry_equiv_pos_site_id
 _symmetry_equiv_pos_as_xyz
  1  'x, y, z'
loop_
 _atom_site_type_symbol
 _atom_site_label
 _atom_site_symmetry_multiplicity
 _atom_site_fract_x
 _atom_site_fract_y
 _atom_site_fract_z
 _atom_site_occupancy
  K  K0  1  0.806742  0.397622  0.158448  1
  K  K1  1  0.806742  0.102378  0.658448  1
  K  K2  1  0.193258  0.602378  0.841552  1
  K  K3  1  0.193258  0.897622  0.341552  1
  Ca  Ca4  1  0.332252  0.254965  0.424479  1
  Ca  Ca5  1  0.332252  0.245035  0.924479  1
  Ca  Ca6  1  0.667748  0.745035  0.575521  1
  Ca  Ca7  1  0.667748  0.754965  0.075521  1
  Ca  Ca8  1  0.752171  0.230575  0.344358  1
  Ca  Ca9  1  0.752171  0.269425  0.844358  1
  Ca  Ca10  1  0.247829  0.769425  0.655642  1
  Ca  Ca11  1  0.247829  0.730575  0.155642  1
  P  P12  1  0.166308  0.401150  0.993677  1
  P  P13  1  0.166308  0.098850  0.493677  1
  P  P14  1  0.833692  0.598850  0.006323  1
  P  P15  1  0.833692  0.901150  0.506323  1
  P  P16  1  0.434801  0.385748  0.275827  1
  P  P17  1  0.434801  0.114252  0.775827  1
  P  P18  1  0.565199  0.614252  0.724173  1
  P  P19  1  0.565199  0.885748  0.224173  1
  P  P20  1  0.816479  0.224134  0.131278  1
  P  P21  1  0.816479  0.275866  0.631278  1
  P  P22  1  0.183521  0.775866  0.868722  1
  P  P23  1  0.183521  0.724134  0.368722  1
  P  P24  1  0.185564  0.176042  0.129119  1
  P  P25  1  0.185564  0.323958  0.629119  1
  P  P26  1  0.814436  0.823958  0.870881  1
  P  P27  1  0.814436  0.676042  0.370881  1
  H  H28  1  0.332540  0.503141  0.045536  1
  H  H29  1  0.332540  0.996859  0.545536  1
  H  H30  1  0.667460  0.496859  0.954464  1
  H  H31  1  0.667460  0.003141  0.454464  1
  H  H32  1  0.434543  0.496348  0.320886  1
  H  H33  1  0.434543  0.003652  0.820886  1
  H  H34  1  0.565457  0.503652  0.679114  1
  H  H35  1  0.565457  0.996348  0.179114  1
  H  H36  1  0.173215  0.076203  0.036527  1
  H  H37  1  0.173215  0.423797  0.536527  1
  H  H38  1  0.826785  0.923797  0.963473  1
  H  H39  1  0.826785  0.576203  0.463473  1
  H  H40  1  0.644163  0.091974  0.129074  1
  H  H41  1  0.644163  0.408026  0.629074  1
  H  H42  1  0.355837  0.908026  0.870926  1
  H  H43  1  0.355837  0.591974  0.370926  1
  H  H44  1  0.802436  0.068281  0.265175  1
  H  H45  1  0.802436  0.431719  0.765175  1
  H  H46  1  0.197564  0.931719  0.734825  1
  H  H47  1  0.197564  0.568281  0.234825  1
  H  H48  1  0.397433  0.049095  0.286417  1
  H  H49  1  0.397433  0.450905  0.786417  1
  H  H50  1  0.602567  0.950905  0.713583  1
  H  H51  1  0.602567  0.549095  0.213583  1
  H  H52  1  0.408003  0.077578  0.405465  1
  H  H53  1  0.408003  0.422422  0.905465  1
  H  H54  1  0.591997  0.922422  0.594535  1
  H  H55  1  0.591997  0.577578  0.094535  1
  H  H56  1  0.115290  0.501364  0.396304  1
  H  H57  1  0.115290  0.998636  0.896304  1
  H  H58  1  0.884710  0.498636  0.603696  1
  H  H59  1  0.884710  0.001364  0.103696  1
  H  H60  1  0.209098  0.429666  0.392223  1
  H  H61  1  0.209098  0.070334  0.892223  1
  H  H62  1  0.790902  0.570334  0.607777  1
  H  H63  1  0.790902  0.929666  0.107777  1
  O  O64  1  0.335744  0.363794  0.982551  1
  O  O65  1  0.335744  0.136206  0.482551  1
  O  O66  1  0.664256  0.636206  0.017449  1
  O  O67  1  0.664256  0.863794  0.517449  1
  O  O68  1  0.181870  0.481417  0.982324  1
  O  O69  1  0.181870  0.018583  0.482324  1
  O  O70  1  0.818130  0.518583  0.017676  1
  O  O71  1  0.818130  0.981417  0.517676  1
  O  O72  1  0.932025  0.379299  0.900999  1
  O  O73  1  0.932025  0.120701  0.400999  1
  O  O74  1  0.067975  0.620701  0.099001  1
  O  O75  1  0.067975  0.879299  0.599001  1
  O  O76  1  0.216044  0.388849  0.131550  1
  O  O77  1  0.216044  0.111151  0.631550  1
  O  O78  1  0.783956  0.611151  0.868450  1
  O  O79  1  0.783956  0.888849  0.368450  1
  O  O80  1  0.602183  0.340651  0.278926  1
  O  O81  1  0.602183  0.159349  0.778926  1
  O  O82  1  0.397817  0.659349  0.721074  1
  O  O83  1  0.397817  0.840651  0.221074  1
  O  O84  1  0.528042  0.461321  0.310549  1
  O  O85  1  0.528042  0.038679  0.810549  1
  O  O86  1  0.471958  0.538679  0.689451  1
  O  O87  1  0.471958  0.961321  0.189451  1
  O  O88  1  0.344416  0.365070  0.351505  1
  O  O89  1  0.344416  0.134930  0.851505  1
  O  O90  1  0.655584  0.634930  0.648495  1
  O  O91  1  0.655584  0.865070  0.148495  1
  O  O92  1  0.962036  0.260899  0.257309  1
  O  O93  1  0.962036  0.239101  0.757309  1
  O  O94  1  0.037964  0.739101  0.742691  1
  O  O95  1  0.037964  0.760899  0.242691  1
  O  O96  1  0.628112  0.187940  0.126041  1
  O  O97  1  0.628112  0.312060  0.626041  1
  O  O98  1  0.371888  0.812060  0.873959  1
  O  O99  1  0.371888  0.687940  0.373959  1
  O  O100  1  0.724829  0.271324  0.016996  1
  O  O101  1  0.724829  0.228676  0.516996  1
  O  O102  1  0.275171  0.728676  0.983004  1
  O  O103  1  0.275171  0.771324  0.483004  1
  O  O104  1  0.963205  0.165029  0.124093  1
  O  O105  1  0.963205  0.334971  0.624093  1
  O  O106  1  0.036795  0.834971  0.875907  1
  O  O107  1  0.036795  0.665029  0.375907  1
  O  O108  1  0.361375  0.205097  0.256334  1
  O  O109  1  0.361375  0.294903  0.756334  1
  O  O110  1  0.638625  0.794903  0.743666  1
  O  O111  1  0.638625  0.705097  0.243666  1
  O  O112  1  0.243264  0.098176  0.123511  1
  O  O113  1  0.243264  0.401824  0.623511  1
  O  O114  1  0.756736  0.901824  0.876489  1
  O  O115  1  0.756736  0.598176  0.376489  1
  O  O116  1  0.127766  0.216925  0.014432  1
  O  O117  1  0.127766  0.283075  0.514432  1
  O  O118  1  0.872234  0.783075  0.985568  1
  O  O119  1  0.872234  0.716925  0.485568  1
  O  O120  1  0.715630  0.049567  0.178000  1
  O  O121  1  0.715630  0.450433  0.678000  1
  O  O122  1  0.284370  0.950433  0.822000  1
  O  O123  1  0.284370  0.549567  0.322000  1
  O  O124  1  0.447033  0.038070  0.373050  1
  O  O125  1  0.447033  0.461930  0.873050  1
  O  O126  1  0.552967  0.961930  0.626950  1
  O  O127  1  0.552967  0.538070  0.126950  1
  O  O128  1  0.100431  0.451472  0.403487  1
  O  O129  1  0.100431  0.048528  0.903487  1
  O  O130  1  0.899569  0.548528  0.596513  1
  O  O131  1  0.899569  0.951472  0.096513  1
