# generated using pymatgen
data_Li12CrFe3P4(CO7)4
_symmetry_space_group_name_H-M   'P 1'
_cell_length_a   8.55506888
_cell_length_b   6.50241322
_cell_length_c   9.98126859
_cell_angle_alpha   90.00000000
_cell_angle_beta   94.73205506
_cell_angle_gamma   90.00000000
_symmetry_Int_Tables_number   1
_chemical_formula_structural   Li12CrFe3P4(CO7)4
_chemical_formula_sum   'Li12 Cr1 Fe3 P4 C4 O28'
_cell_volume   553.35131703
_cell_formula_units_Z   1
loop_
 _symmetry_equiv_pos_site_id
 _symmetry_equiv_pos_as_xyz
  1  'x, y, z'
loop_
 _atom_site_type_symbol
 _atom_site_label
 _atom_site_symmetry_multiplicity
 _atom_site_fract_x
 _atom_site_fract_y
 _atom_site_fract_z
 _atom_site_occupancy
  Li  Li0  1  0.905015  0.000000  0.379519  1
  Li  Li1  1  0.906198  0.000000  0.880399  1
  Li  Li2  1  0.725432  0.225482  0.123277  1
  Li  Li3  1  0.725432  0.774518  0.123277  1
  Li  Li4  1  0.725704  0.224881  0.623556  1
  Li  Li5  1  0.725704  0.775119  0.623556  1
  Li  Li6  1  0.274288  0.725922  0.375418  1
  Li  Li7  1  0.274288  0.274078  0.375418  1
  Li  Li8  1  0.274111  0.725909  0.877151  1
  Li  Li9  1  0.274111  0.274091  0.877151  1
  Li  Li10  1  0.093645  0.500000  0.119720  1
  Li  Li11  1  0.092736  0.500000  0.620256  1
  Cr  Cr12  1  0.334800  0.000000  0.607613  1
  Fe  Fe13  1  0.664989  0.500000  0.392893  1
  Fe  Fe14  1  0.665364  0.500000  0.893369  1
  Fe  Fe15  1  0.335146  0.000000  0.106326  1
  P  P16  1  0.587527  0.000000  0.358887  1
  P  P17  1  0.589737  0.000000  0.859683  1
  P  P18  1  0.411935  0.500000  0.140951  1
  P  P19  1  0.412581  0.500000  0.641195  1
  C  C20  1  0.965606  0.500000  0.351875  1
  C  C21  1  0.965622  0.500000  0.851578  1
  C  C22  1  0.035502  0.000000  0.148306  1
  C  C23  1  0.032240  0.000000  0.646860  1
  O  O24  1  0.929054  0.500000  0.475285  1
  O  O25  1  0.889775  0.000000  0.178392  1
  O  O26  1  0.929206  0.500000  0.975200  1
  O  O27  1  0.852593  0.500000  0.255151  1
  O  O28  1  0.887679  0.000000  0.679910  1
  O  O29  1  0.852638  0.500000  0.755003  1
  O  O30  1  0.689030  0.186631  0.412631  1
  O  O31  1  0.689030  0.813369  0.412631  1
  O  O32  1  0.690158  0.187065  0.914793  1
  O  O33  1  0.690158  0.812935  0.914793  1
  O  O34  1  0.577938  0.500000  0.090877  1
  O  O35  1  0.572873  0.000000  0.201831  1
  O  O36  1  0.578458  0.500000  0.590649  1
  O  O37  1  0.578932  0.000000  0.703628  1
  O  O38  1  0.427490  0.500000  0.297923  1
  O  O39  1  0.422007  0.000000  0.408474  1
  O  O40  1  0.428267  0.500000  0.798344  1
  O  O41  1  0.422615  0.000000  0.907812  1
  O  O42  1  0.310505  0.313326  0.087451  1
  O  O43  1  0.310505  0.686674  0.087451  1
  O  O44  1  0.311339  0.686186  0.587813  1
  O  O45  1  0.311339  0.313814  0.587813  1
  O  O46  1  0.147965  0.000000  0.244492  1
  O  O47  1  0.110493  0.500000  0.321941  1
  O  O48  1  0.146622  0.000000  0.741989  1
  O  O49  1  0.071008  0.000000  0.024684  1
  O  O50  1  0.110516  0.500000  0.821872  1
  O  O51  1  0.064095  0.000000  0.522934  1
