# generated using pymatgen
data_LuBO3
_symmetry_space_group_name_H-M   'P 1'
_cell_length_a   4.60040517
_cell_length_b   4.60040517
_cell_length_c   7.96624790
_cell_angle_alpha   90.00000000
_cell_angle_beta   90.00000000
_cell_angle_gamma   135.72867237
_symmetry_Int_Tables_number   1
_chemical_formula_structural   LuBO3
_chemical_formula_sum   'Lu2 B2 O6'
_cell_volume   117.68927756
_cell_formula_units_Z   2
loop_
 _symmetry_equiv_pos_site_id
 _symmetry_equiv_pos_as_xyz
  1  'x, y, z'
loop_
 _atom_site_type_symbol
 _atom_site_label
 _atom_site_symmetry_multiplicity
 _atom_site_fract_x
 _atom_site_fract_y
 _atom_site_fract_z
 _atom_site_occupancy
  Lu  Lu0  1  0.000000  0.000000  0.500000  1
  Lu  Lu1  1  0.000000  0.000000  0.000000  1
  B  B2  1  0.281797  0.718203  0.250000  1
  B  B3  1  0.718203  0.281797  0.750000  1
  O  O4  1  0.120831  0.879169  0.250000  1
  O  O5  1  0.364879  0.635121  0.400017  1
  O  O6  1  0.364879  0.635121  0.099983  1
  O  O7  1  0.635121  0.364879  0.900017  1
  O  O8  1  0.635121  0.364879  0.599983  1
  O  O9  1  0.879169  0.120831  0.750000  1
