# generated using pymatgen
data_LiMn2(PO4)2
_symmetry_space_group_name_H-M   'P 1'
_cell_length_a   5.14974499
_cell_length_b   10.19644864
_cell_length_c   14.19844127
_cell_angle_alpha   90.00000000
_cell_angle_beta   90.00000000
_cell_angle_gamma   90.00000000
_symmetry_Int_Tables_number   1
_chemical_formula_structural   LiMn2(PO4)2
_chemical_formula_sum   'Li4 Mn8 P8 O32'
_cell_volume   745.54751873
_cell_formula_units_Z   4
loop_
 _symmetry_equiv_pos_site_id
 _symmetry_equiv_pos_as_xyz
  1  'x, y, z'
loop_
 _atom_site_type_symbol
 _atom_site_label
 _atom_site_symmetry_multiplicity
 _atom_site_fract_x
 _atom_site_fract_y
 _atom_site_fract_z
 _atom_site_occupancy
  Li  Li0  1  0.552391  0.222305  0.250065  1
  Li  Li1  1  0.552391  0.277695  0.750065  1
  Li  Li2  1  0.447609  0.722305  0.250065  1
  Li  Li3  1  0.447609  0.777695  0.750065  1
  Mn  Mn4  1  0.058506  0.033308  0.247110  1
  Mn  Mn5  1  0.555419  0.222110  0.998673  1
  Mn  Mn6  1  0.555419  0.277890  0.498673  1
  Mn  Mn7  1  0.058506  0.466692  0.747110  1
  Mn  Mn8  1  0.941494  0.533308  0.247110  1
  Mn  Mn9  1  0.444581  0.722110  0.998673  1
  Mn  Mn10  1  0.444581  0.777890  0.498673  1
  Mn  Mn11  1  0.941494  0.966692  0.747110  1
  P  P12  1  0.433417  0.029782  0.623681  1
  P  P13  1  0.052669  0.213954  0.872096  1
  P  P14  1  0.052669  0.286046  0.372096  1
  P  P15  1  0.433417  0.470218  0.123681  1
  P  P16  1  0.566583  0.529782  0.623681  1
  P  P17  1  0.947331  0.713954  0.872096  1
  P  P18  1  0.947331  0.786046  0.372096  1
  P  P19  1  0.566583  0.970218  0.123681  1
  O  O20  1  0.137031  0.005955  0.631414  1
  O  O21  1  0.464187  0.033857  0.032834  1
  O  O22  1  0.440127  0.035345  0.212677  1
  O  O23  1  0.997016  0.065309  0.863128  1
  O  O24  1  0.495082  0.179141  0.624437  1
  O  O25  1  0.926466  0.235324  0.463058  1
  O  O26  1  0.934774  0.217611  0.283092  1
  O  O27  1  0.350485  0.242276  0.872869  1
  O  O28  1  0.350485  0.257724  0.372869  1
  O  O29  1  0.934774  0.282389  0.783092  1
  O  O30  1  0.926466  0.264676  0.963058  1
  O  O31  1  0.495082  0.320859  0.124437  1
  O  O32  1  0.997016  0.434691  0.363128  1
  O  O33  1  0.440127  0.464655  0.712677  1
  O  O34  1  0.464187  0.466143  0.532834  1
  O  O35  1  0.137031  0.494045  0.131414  1
  O  O36  1  0.862969  0.505955  0.631414  1
  O  O37  1  0.535813  0.533857  0.032834  1
  O  O38  1  0.559873  0.535345  0.212677  1
  O  O39  1  0.002984  0.565309  0.863128  1
  O  O40  1  0.504918  0.679141  0.624437  1
  O  O41  1  0.073534  0.735324  0.463058  1
  O  O42  1  0.065226  0.717611  0.283092  1
  O  O43  1  0.649515  0.742276  0.872869  1
  O  O44  1  0.649515  0.757724  0.372869  1
  O  O45  1  0.065226  0.782389  0.783092  1
  O  O46  1  0.073534  0.764676  0.963058  1
  O  O47  1  0.504918  0.820859  0.124437  1
  O  O48  1  0.002984  0.934691  0.363128  1
  O  O49  1  0.559873  0.964655  0.712677  1
  O  O50  1  0.535813  0.966143  0.532834  1
  O  O51  1  0.862969  0.994045  0.131414  1
