# generated using pymatgen
data_Li10Fe3Co3(NiO8)2
_symmetry_space_group_name_H-M   'P 1'
_cell_length_a   5.86622816
_cell_length_b   5.87684892
_cell_length_c   9.71588983
_cell_angle_alpha   90.49092028
_cell_angle_beta   90.24760374
_cell_angle_gamma   119.67888364
_symmetry_Int_Tables_number   1
_chemical_formula_structural   Li10Fe3Co3(NiO8)2
_chemical_formula_sum   'Li10 Fe3 Co3 Ni2 O16'
_cell_volume   290.98851912
_cell_formula_units_Z   1
loop_
 _symmetry_equiv_pos_site_id
 _symmetry_equiv_pos_as_xyz
  1  'x, y, z'
loop_
 _atom_site_type_symbol
 _atom_site_label
 _atom_site_symmetry_multiplicity
 _atom_site_fract_x
 _atom_site_fract_y
 _atom_site_fract_z
 _atom_site_occupancy
  Li  Li0  1  0.992340  0.980200  0.514075  1
  Li  Li1  1  0.982624  0.986353  0.019931  1
  Li  Li2  1  0.181523  0.801933  0.942183  1
  Li  Li3  1  0.365669  0.183677  0.441564  1
  Li  Li4  1  0.578051  0.776641  0.947265  1
  Li  Li5  1  0.176455  0.364783  0.943375  1
  Li  Li6  1  0.772895  0.583610  0.443380  1
  Li  Li7  1  0.317937  0.644460  0.717651  1
  Li  Li8  1  0.645147  0.319294  0.217729  1
  Li  Li9  1  0.799190  0.186690  0.436206  1
  Fe  Fe10  1  0.820268  0.646125  0.715748  1
  Fe  Fe11  1  0.820097  0.151169  0.713838  1
  Fe  Fe12  1  0.641712  0.817685  0.216284  1
  Co  Co13  1  0.328782  0.152612  0.713023  1
  Co  Co14  1  0.151446  0.821533  0.213046  1
  Co  Co15  1  0.151575  0.325632  0.212661  1
  Ni  Ni16  1  0.660994  0.323208  0.972722  1
  Ni  Ni17  1  0.320998  0.657768  0.468733  1
  O  O18  1  0.007086  0.994505  0.825750  1
  O  O19  1  0.996859  0.999096  0.321226  1
  O  O20  1  0.304612  0.147591  0.101393  1
  O  O21  1  0.157789  0.826678  0.600167  1
  O  O22  1  0.493608  0.471218  0.832072  1
  O  O23  1  0.007572  0.504329  0.327082  1
  O  O24  1  0.304596  0.648107  0.100710  1
  O  O25  1  0.648686  0.311862  0.595347  1
  O  O26  1  0.497367  0.004195  0.832346  1
  O  O27  1  0.468988  0.973666  0.330737  1
  O  O28  1  0.156234  0.304405  0.596620  1
  O  O29  1  0.824309  0.665032  0.097320  1
  O  O30  1  0.468446  0.490653  0.329393  1
  O  O31  1  0.977909  0.479612  0.833186  1
  O  O32  1  0.667688  0.818594  0.591359  1
  O  O33  1  0.825373  0.153123  0.098499  1
