# generated using pymatgen
data_SiO2
_symmetry_space_group_name_H-M   'P 1'
_cell_length_a   8.73547878
_cell_length_b   8.79443361
_cell_length_c   16.72152791
_cell_angle_alpha   91.34096801
_cell_angle_beta   89.99516789
_cell_angle_gamma   119.77440892
_symmetry_Int_Tables_number   1
_chemical_formula_structural   SiO2
_chemical_formula_sum   'Si24 O48'
_cell_volume   1114.61939062
_cell_formula_units_Z   24
loop_
 _symmetry_equiv_pos_site_id
 _symmetry_equiv_pos_as_xyz
  1  'x, y, z'
loop_
 _atom_site_type_symbol
 _atom_site_label
 _atom_site_symmetry_multiplicity
 _atom_site_fract_x
 _atom_site_fract_y
 _atom_site_fract_z
 _atom_site_occupancy
  Si  Si0  1  0.687230  0.612595  0.835247  1
  Si  Si1  1  0.332033  0.935692  0.816732  1
  Si  Si2  1  0.004833  0.295508  0.849137  1
  Si  Si3  1  0.022012  0.631263  0.914224  1
  Si  Si4  1  0.660576  0.940894  0.888461  1
  Si  Si5  1  0.344828  0.273170  0.886465  1
  Si  Si6  1  0.637058  0.612727  0.648092  1
  Si  Si7  1  0.949353  0.599699  0.565281  1
  Si  Si8  1  0.282742  0.933380  0.629482  1
  Si  Si9  1  0.643035  0.956891  0.591926  1
  Si  Si10  1  0.955673  0.296521  0.661467  1
  Si  Si11  1  0.282853  0.283822  0.593709  1
  Si  Si12  1  0.996194  0.596120  0.378008  1
  Si  Si13  1  0.691299  0.954789  0.404395  1
  Si  Si14  1  0.332527  0.283232  0.406480  1
  Si  Si15  1  0.662256  0.612083  0.332098  1
  Si  Si16  1  0.347628  0.953459  0.350438  1
  Si  Si17  1  0.008498  0.266420  0.318273  1
  Si  Si18  1  0.614467  0.615396  0.145165  1
  Si  Si19  1  0.970073  0.627634  0.101940  1
  Si  Si20  1  0.300560  0.959309  0.162739  1
  Si  Si21  1  0.609667  0.940548  0.075559  1
  Si  Si22  1  0.959200  0.268378  0.130993  1
  Si  Si23  1  0.296185  0.272835  0.073293  1
  O  O24  1  0.491627  0.473494  0.866544  1
  O  O25  1  0.171584  0.809554  0.874306  1
  O  O26  1  0.818880  0.141987  0.882627  1
  O  O27  1  0.830604  0.567311  0.872743  1
  O  O28  1  0.068825  0.474157  0.903195  1
  O  O29  1  0.498987  0.903193  0.827481  1
  O  O30  1  0.734764  0.809530  0.863897  1
  O  O31  1  0.152564  0.235348  0.855278  1
  O  O32  1  0.394762  0.139489  0.839908  1
  O  O33  1  0.695696  0.599518  0.738530  1
  O  O34  1  0.263876  0.891576  0.724311  1
  O  O35  1  0.980920  0.335140  0.757082  1
  O  O36  1  0.754056  0.569687  0.585362  1
  O  O37  1  0.429299  0.471442  0.633194  1
  O  O38  1  0.995648  0.476130  0.618907  1
  O  O39  1  0.435380  0.900783  0.590807  1
  O  O40  1  0.096417  0.803908  0.583858  1
  O  O41  1  0.670243  0.809128  0.635738  1
  O  O42  1  0.090582  0.232241  0.629220  1
  O  O43  1  0.754133  0.142193  0.641675  1
  O  O44  1  0.332674  0.135166  0.616636  1
  O  O45  1  0.950521  0.549335  0.471480  1
  O  O46  1  0.714162  0.978714  0.500910  1
  O  O47  1  0.275838  0.298261  0.497363  1
  O  O48  1  0.820463  0.565048  0.329774  1
  O  O49  1  0.063263  0.469611  0.337787  1
  O  O50  1  0.489902  0.896453  0.378060  1
  O  O51  1  0.737671  0.805296  0.374151  1
  O  O52  1  0.166252  0.231340  0.346381  1
  O  O53  1  0.387764  0.131777  0.399657  1
  O  O54  1  0.498636  0.470899  0.383955  1
  O  O55  1  0.150728  0.798422  0.370887  1
  O  O56  1  0.827035  0.140207  0.364714  1
  O  O57  1  0.593773  0.609655  0.241669  1
  O  O58  1  0.366582  0.990759  0.255311  1
  O  O59  1  0.977644  0.223229  0.222905  1
  O  O60  1  0.764898  0.567830  0.118491  1
  O  O61  1  0.426716  0.473930  0.104172  1
  O  O62  1  0.006847  0.471161  0.126470  1
  O  O63  1  0.419939  0.901384  0.109690  1
  O  O64  1  0.095373  0.803016  0.156222  1
  O  O65  1  0.668395  0.810046  0.115372  1
  O  O66  1  0.093399  0.234280  0.075479  1
  O  O67  1  0.758684  0.142182  0.097796  1
  O  O68  1  0.321290  0.141553  0.131390  1
  O  O69  1  0.015167  0.673616  0.008522  1
  O  O70  1  0.587742  0.907058  0.979379  1
  O  O71  1  0.342616  0.243199  0.982212  1
