# generated using pymatgen
data_Li3MnPCO7
_symmetry_space_group_name_H-M   'P 1'
_cell_length_a   5.28065769
_cell_length_b   6.71092898
_cell_length_c   8.33001354
_cell_angle_alpha   90.00000000
_cell_angle_beta   90.00000000
_cell_angle_gamma   90.00000000
_symmetry_Int_Tables_number   1
_chemical_formula_structural   Li3MnPCO7
_chemical_formula_sum   'Li6 Mn2 P2 C2 O14'
_cell_volume   295.20000852
_cell_formula_units_Z   2
loop_
 _symmetry_equiv_pos_site_id
 _symmetry_equiv_pos_as_xyz
  1  'x, y, z'
loop_
 _atom_site_type_symbol
 _atom_site_label
 _atom_site_symmetry_multiplicity
 _atom_site_fract_x
 _atom_site_fract_y
 _atom_site_fract_z
 _atom_site_occupancy
  Li  Li0  1  0.400199  0.274699  0.717003  1
  Li  Li1  1  0.400199  0.725301  0.717003  1
  Li  Li2  1  0.466548  0.000000  0.080056  1
  Li  Li3  1  0.900199  0.225301  0.282997  1
  Li  Li4  1  0.900199  0.774699  0.282997  1
  Li  Li5  1  0.966548  0.500000  0.919944  1
  Mn  Mn6  1  0.476738  0.500000  0.326014  1
  Mn  Mn7  1  0.976738  0.000000  0.673986  1
  P  P8  1  0.032631  0.500000  0.590984  1
  P  P9  1  0.532631  0.000000  0.409016  1
  C  C10  1  0.491333  0.500000  0.010123  1
  C  C11  1  0.991333  0.000000  0.989877  1
  O  O12  1  0.996776  0.000000  0.144101  1
  O  O13  1  0.201644  0.000000  0.907738  1
  O  O14  1  0.275262  0.500000  0.085123  1
  O  O15  1  0.322951  0.500000  0.553322  1
  O  O16  1  0.384405  0.000000  0.570682  1
  O  O17  1  0.481090  0.816086  0.300050  1
  O  O18  1  0.481090  0.183914  0.300050  1
  O  O19  1  0.496776  0.500000  0.855899  1
  O  O20  1  0.701644  0.500000  0.092262  1
  O  O21  1  0.775262  0.000000  0.914877  1
  O  O22  1  0.822951  0.000000  0.446678  1
  O  O23  1  0.884405  0.500000  0.429318  1
  O  O24  1  0.981090  0.683914  0.699950  1
  O  O25  1  0.981090  0.316086  0.699950  1
