# generated using pymatgen
data_LiVCSO7
_symmetry_space_group_name_H-M   'P 1'
_cell_length_a   5.14875074
_cell_length_b   6.42714922
_cell_length_c   9.00126154
_cell_angle_alpha   90.00000000
_cell_angle_beta   93.40933850
_cell_angle_gamma   90.00000000
_symmetry_Int_Tables_number   1
_chemical_formula_structural   LiVCSO7
_chemical_formula_sum   'Li2 V2 C2 S2 O14'
_cell_volume   297.34066835
_cell_formula_units_Z   2
loop_
 _symmetry_equiv_pos_site_id
 _symmetry_equiv_pos_as_xyz
  1  'x, y, z'
loop_
 _atom_site_type_symbol
 _atom_site_label
 _atom_site_symmetry_multiplicity
 _atom_site_fract_x
 _atom_site_fract_y
 _atom_site_fract_z
 _atom_site_occupancy
  Li  Li0  1  0.768075  0.473551  0.167416  1
  Li  Li1  1  0.231925  0.973551  0.832584  1
  V  V2  1  0.217497  0.249504  0.336845  1
  V  V3  1  0.782503  0.749504  0.663155  1
  C  C4  1  0.270011  0.258914  0.069681  1
  C  C5  1  0.729989  0.758914  0.930319  1
  S  S6  1  0.271557  0.750139  0.422824  1
  S  S7  1  0.728443  0.250139  0.577176  1
  O  O8  1  0.684744  0.726813  0.061552  1
  O  O9  1  0.039539  0.261495  0.126363  1
  O  O10  1  0.460311  0.285958  0.179411  1
  O  O11  1  0.211335  0.935101  0.328574  1
  O  O12  1  0.173365  0.568493  0.333990  1
  O  O13  1  0.861901  0.261490  0.434828  1
  O  O14  1  0.555141  0.730690  0.458152  1
  O  O15  1  0.444859  0.230690  0.541848  1
  O  O16  1  0.138099  0.761490  0.565172  1
  O  O17  1  0.826635  0.068493  0.666010  1
  O  O18  1  0.788665  0.435101  0.671426  1
  O  O19  1  0.539689  0.785958  0.820589  1
  O  O20  1  0.960461  0.761495  0.873637  1
  O  O21  1  0.315256  0.226813  0.938448  1
