# generated using pymatgen
data_FeNi3(PO4)4
_symmetry_space_group_name_H-M   'P 1'
_cell_length_a   4.81806425
_cell_length_b   5.82864147
_cell_length_c   11.06233719
_cell_angle_alpha   90.00000000
_cell_angle_beta   115.85762758
_cell_angle_gamma   90.00000000
_symmetry_Int_Tables_number   1
_chemical_formula_structural   FeNi3(PO4)4
_chemical_formula_sum   'Fe1 Ni3 P4 O16'
_cell_volume   279.55785071
_cell_formula_units_Z   1
loop_
 _symmetry_equiv_pos_site_id
 _symmetry_equiv_pos_as_xyz
  1  'x, y, z'
loop_
 _atom_site_type_symbol
 _atom_site_label
 _atom_site_symmetry_multiplicity
 _atom_site_fract_x
 _atom_site_fract_y
 _atom_site_fract_z
 _atom_site_occupancy
  Fe  Fe0  1  0.689403  0.000000  0.727490  1
  Ni  Ni1  1  0.314793  0.500000  0.272838  1
  Ni  Ni2  1  0.228052  0.500000  0.773373  1
  Ni  Ni3  1  0.770596  0.000000  0.227001  1
  P  P4  1  0.494630  0.000000  0.403001  1
  P  P5  1  0.314554  0.000000  0.907816  1
  P  P6  1  0.686343  0.500000  0.095528  1
  P  P7  1  0.506512  0.500000  0.594737  1
  O  O8  1  0.714894  0.000000  0.553832  1
  O  O9  1  0.568155  0.205800  0.330383  1
  O  O10  1  0.568155  0.794200  0.330383  1
  O  O11  1  0.836141  0.500000  0.608412  1
  O  O12  1  0.384560  0.500000  0.109614  1
  O  O13  1  0.089817  0.203574  0.832193  1
  O  O14  1  0.089817  0.796426  0.832193  1
  O  O15  1  0.389993  0.000000  0.057014  1
  O  O16  1  0.608978  0.500000  0.945873  1
  O  O17  1  0.907633  0.705435  0.169172  1
  O  O18  1  0.907633  0.294565  0.169172  1
  O  O19  1  0.607946  0.000000  0.886642  1
  O  O20  1  0.164294  0.000000  0.389838  1
  O  O21  1  0.438857  0.707486  0.669085  1
  O  O22  1  0.438857  0.292514  0.669085  1
  O  O23  1  0.279386  0.500000  0.445327  1
