# generated using pymatgen
data_Li4Cr2Si3O10
_symmetry_space_group_name_H-M   'P 1'
_cell_length_a   5.42090599
_cell_length_b   5.42090599
_cell_length_c   16.71014159
_cell_angle_alpha   81.91731678
_cell_angle_beta   98.08268322
_cell_angle_gamma   118.04030543
_symmetry_Int_Tables_number   1
_chemical_formula_structural   Li4Cr2Si3O10
_chemical_formula_sum   'Li8 Cr4 Si6 O20'
_cell_volume   427.53938100
_cell_formula_units_Z   2
loop_
 _symmetry_equiv_pos_site_id
 _symmetry_equiv_pos_as_xyz
  1  'x, y, z'
loop_
 _atom_site_type_symbol
 _atom_site_label
 _atom_site_symmetry_multiplicity
 _atom_site_fract_x
 _atom_site_fract_y
 _atom_site_fract_z
 _atom_site_occupancy
  Li  Li0  1  0.834619  0.329771  0.052349  1
  Li  Li1  1  0.584043  0.201554  0.229539  1
  Li  Li2  1  0.670230  0.165381  0.552349  1
  Li  Li3  1  0.798446  0.415957  0.729539  1
  Li  Li4  1  0.201554  0.584043  0.270461  1
  Li  Li5  1  0.329771  0.834619  0.447651  1
  Li  Li6  1  0.415957  0.798446  0.770461  1
  Li  Li7  1  0.165381  0.670229  0.947651  1
  Cr  Cr8  1  0.200652  0.021507  0.083184  1
  Cr  Cr9  1  0.978493  0.799348  0.583184  1
  Cr  Cr10  1  0.021507  0.200652  0.416816  1
  Cr  Cr11  1  0.799348  0.978493  0.916816  1
  Si  Si12  1  0.655823  0.533865  0.401326  1
  Si  Si13  1  0.888982  0.888982  0.250000  1
  Si  Si14  1  0.533865  0.655823  0.098674  1
  Si  Si15  1  0.466135  0.344177  0.901326  1
  Si  Si16  1  0.111018  0.111018  0.750000  1
  Si  Si17  1  0.344177  0.466135  0.598674  1
  O  O18  1  0.927450  0.159640  0.291550  1
  O  O19  1  0.840360  0.072550  0.791550  1
  O  O20  1  0.597533  0.218736  0.434749  1
  O  O21  1  0.580235  0.372859  0.115983  1
  O  O22  1  0.800957  0.599620  0.312836  1
  O  O23  1  0.772027  0.904251  0.042072  1
  O  O24  1  0.904251  0.772027  0.457928  1
  O  O25  1  0.781264  0.402467  0.934749  1
  O  O26  1  0.627141  0.419765  0.615983  1
  O  O27  1  0.599620  0.800957  0.187164  1
  O  O28  1  0.400380  0.199043  0.812836  1
  O  O29  1  0.372859  0.580235  0.384017  1
  O  O30  1  0.218736  0.597533  0.065251  1
  O  O31  1  0.095749  0.227973  0.542072  1
  O  O32  1  0.227973  0.095749  0.957928  1
  O  O33  1  0.199043  0.400380  0.687164  1
  O  O34  1  0.419765  0.627141  0.884017  1
  O  O35  1  0.402467  0.781264  0.565251  1
  O  O36  1  0.159640  0.927450  0.208450  1
  O  O37  1  0.072550  0.840360  0.708450  1
