# generated using pymatgen
data_Mn6O7F5
_symmetry_space_group_name_H-M   'P 1'
_cell_length_a   4.62234535
_cell_length_b   5.59133365
_cell_length_c   7.77746200
_cell_angle_alpha   87.20744688
_cell_angle_beta   89.76944807
_cell_angle_gamma   89.04203229
_symmetry_Int_Tables_number   1
_chemical_formula_structural   Mn6O7F5
_chemical_formula_sum   'Mn6 O7 F5'
_cell_volume   200.74128824
_cell_formula_units_Z   1
loop_
 _symmetry_equiv_pos_site_id
 _symmetry_equiv_pos_as_xyz
  1  'x, y, z'
loop_
 _atom_site_type_symbol
 _atom_site_label
 _atom_site_symmetry_multiplicity
 _atom_site_fract_x
 _atom_site_fract_y
 _atom_site_fract_z
 _atom_site_occupancy
  Mn  Mn0  1  0.491126  0.501020  0.998740  1
  Mn  Mn1  1  0.542890  0.174928  0.345081  1
  Mn  Mn2  1  0.510520  0.819639  0.655433  1
  Mn  Mn3  1  0.971365  0.669155  0.317745  1
  Mn  Mn4  1  0.981267  0.351848  0.679307  1
  Mn  Mn5  1  0.996433  0.001981  0.009676  1
  O  O6  1  0.806850  0.631482  0.548232  1
  O  O7  1  0.795113  0.963123  0.236699  1
  O  O8  1  0.813610  0.289551  0.909068  1
  O  O9  1  0.691173  0.468829  0.226169  1
  O  O10  1  0.696721  0.126559  0.570576  1
  O  O11  1  0.313362  0.533548  0.765059  1
  O  O12  1  0.179487  0.707137  0.099948  1
  F  F13  1  0.706000  0.805873  0.896287  1
  F  F14  1  0.284074  0.869114  0.422806  1
  F  F15  1  0.307574  0.189979  0.119370  1
  F  F16  1  0.202152  0.369825  0.429557  1
  F  F17  1  0.210281  0.026411  0.770247  1
