# generated using pymatgen
data_LiVP3(H7O8)2
_symmetry_space_group_name_H-M   'P 1'
_cell_length_a   7.54974116
_cell_length_b   9.06699463
_cell_length_c   10.92285387
_cell_angle_alpha   71.98362975
_cell_angle_beta   80.05239060
_cell_angle_gamma   71.17923957
_symmetry_Int_Tables_number   1
_chemical_formula_structural   LiVP3(H7O8)2
_chemical_formula_sum   'Li2 V2 P6 H28 O32'
_cell_volume   670.81278604
_cell_formula_units_Z   2
loop_
 _symmetry_equiv_pos_site_id
 _symmetry_equiv_pos_as_xyz
  1  'x, y, z'
loop_
 _atom_site_type_symbol
 _atom_site_label
 _atom_site_symmetry_multiplicity
 _atom_site_fract_x
 _atom_site_fract_y
 _atom_site_fract_z
 _atom_site_occupancy
  Li  Li0  1  0.008803  0.488246  0.492798  1
  Li  Li1  1  0.593197  0.360618  0.389994  1
  V  V2  1  0.000549  0.999069  0.999765  1
  V  V3  1  0.415568  0.628628  0.596113  1
  P  P4  1  0.151588  0.135076  0.200377  1
  P  P5  1  0.044423  0.532945  0.788305  1
  P  P6  1  0.293788  0.228943  0.928780  1
  P  P7  1  0.705519  0.769584  0.073296  1
  P  P8  1  0.959337  0.470308  0.212082  1
  P  P9  1  0.846315  0.864500  0.801258  1
  H  H10  1  0.088004  0.663336  0.277412  1
  H  H11  1  0.044376  0.825637  0.315467  1
  H  H12  1  0.281423  0.274851  0.389820  1
  H  H13  1  0.198573  0.673172  0.069698  1
  H  H14  1  0.300353  0.077737  0.749334  1
  H  H15  1  0.320760  0.233072  0.532961  1
  H  H16  1  0.492061  0.997188  0.678352  1
  H  H17  1  0.340328  0.773551  0.058000  1
  H  H18  1  0.414745  0.401146  0.182512  1
  H  H19  1  0.294442  0.655343  0.375466  1
  H  H20  1  0.222908  0.949497  0.472371  1
  H  H21  1  0.621676  0.312276  0.139124  1
  H  H22  1  0.259974  0.937941  0.612553  1
  H  H23  1  0.486104  0.688092  0.313487  1
  H  H24  1  0.518261  0.310012  0.701389  1
  H  H25  1  0.743139  0.067397  0.387176  1
  H  H26  1  0.374562  0.687613  0.858343  1
  H  H27  1  0.779225  0.049290  0.526627  1
  H  H28  1  0.701227  0.346020  0.622770  1
  H  H29  1  0.584509  0.598356  0.816694  1
  H  H30  1  0.660408  0.225483  0.941616  1
  H  H31  1  0.508377  0.002021  0.322225  1
  H  H32  1  0.675355  0.773758  0.463906  1
  H  H33  1  0.699737  0.919984  0.251779  1
  H  H34  1  0.802443  0.325695  0.930277  1
  H  H35  1  0.714822  0.729079  0.609643  1
  H  H36  1  0.954743  0.174676  0.682806  1
  H  H37  1  0.911181  0.335713  0.722517  1
  O  O38  1  0.071040  0.014249  0.178798  1
  O  O39  1  0.246405  0.096382  0.320993  1
  O  O40  1  0.143991  0.511771  0.188502  1
  O  O41  1  0.307574  0.178557  0.081883  1
  O  O42  1  0.074142  0.707163  0.352323  1
  O  O43  1  0.187464  0.135826  0.891362  1
  O  O44  1  0.016011  0.698146  0.825443  1
  O  O45  1  0.159825  0.537958  0.660235  1
  O  O46  1  0.293603  0.325506  0.454166  1
  O  O47  1  0.235241  0.770916  0.014444  1
  O  O48  1  0.357480  0.052442  0.666741  1
  O  O49  1  0.166833  0.415004  0.907685  1
  O  O50  1  0.233868  0.875193  0.560757  1
  O  O51  1  0.545360  0.364449  0.204814  1
  O  O52  1  0.429088  0.628181  0.394043  1
  O  O53  1  0.487617  0.220029  0.865052  1
  O  O54  1  0.511950  0.778418  0.137380  1
  O  O55  1  0.561851  0.376837  0.618228  1
  O  O56  1  0.454020  0.634042  0.793900  1
  O  O57  1  0.769403  0.127224  0.440384  1
  O  O58  1  0.833251  0.584714  0.092545  1
  O  O59  1  0.641194  0.940567  0.335686  1
  O  O60  1  0.767212  0.227378  0.983741  1
  O  O61  1  0.685920  0.684291  0.546588  1
  O  O62  1  0.851150  0.471152  0.340269  1
  O  O63  1  0.985699  0.302673  0.177724  1
  O  O64  1  0.811977  0.864402  0.108637  1
  O  O65  1  0.924658  0.293159  0.647017  1
  O  O66  1  0.691301  0.820868  0.919291  1
  O  O67  1  0.861684  0.492363  0.803511  1
  O  O68  1  0.753731  0.897346  0.680730  1
  O  O69  1  0.926651  0.986944  0.820037  1
