# generated using pymatgen
data_Cr4OF11
_symmetry_space_group_name_H-M   'P 1'
_cell_length_a   5.05681765
_cell_length_b   5.32658105
_cell_length_c   8.80062824
_cell_angle_alpha   106.52188542
_cell_angle_beta   89.52571886
_cell_angle_gamma   117.89245708
_symmetry_Int_Tables_number   1
_chemical_formula_structural   Cr4OF11
_chemical_formula_sum   'Cr4 O1 F11'
_cell_volume   198.67140430
_cell_formula_units_Z   1
loop_
 _symmetry_equiv_pos_site_id
 _symmetry_equiv_pos_as_xyz
  1  'x, y, z'
loop_
 _atom_site_type_symbol
 _atom_site_label
 _atom_site_symmetry_multiplicity
 _atom_site_fract_x
 _atom_site_fract_y
 _atom_site_fract_z
 _atom_site_occupancy
  Cr  Cr0  1  0.741737  0.257907  0.255872  1
  Cr  Cr1  1  0.506252  0.494218  0.491906  1
  Cr  Cr2  1  0.251839  0.747492  0.749599  1
  Cr  Cr3  1  0.999621  0.000712  0.001814  1
  O  O4  1  0.563075  0.436897  0.313081  1
  F  F5  1  0.436212  0.563480  0.680402  1
  F  F6  1  0.435560  0.183198  0.067076  1
  F  F7  1  0.505472  0.874267  0.376181  1
  F  F8  1  0.993821  0.623012  0.126231  1
  F  F9  1  0.064178  0.936092  0.813927  1
  F  F10  1  0.066600  0.314440  0.437035  1
  F  F11  1  0.935969  0.685481  0.563535  1
  F  F12  1  0.931555  0.068447  0.187306  1
  F  F13  1  0.004334  0.375320  0.875538  1
  F  F14  1  0.499481  0.124553  0.624848  1
  F  F15  1  0.564295  0.814483  0.935649  1
