# generated using pymatgen
data_Li9Ti7Nb5O30
_symmetry_space_group_name_H-M   'P 1'
_cell_length_a   5.17228960
_cell_length_b   5.17228960
_cell_length_c   24.16786750
_cell_angle_alpha   90.00000000
_cell_angle_beta   90.00000000
_cell_angle_gamma   120.00000000
_symmetry_Int_Tables_number   1
_chemical_formula_structural   Li9Ti7Nb5O30
_chemical_formula_sum   'Li9 Ti7 Nb5 O30'
_cell_volume   559.93115004
_cell_formula_units_Z   1
loop_
 _symmetry_equiv_pos_site_id
 _symmetry_equiv_pos_as_xyz
  1  'x, y, z'
loop_
 _atom_site_type_symbol
 _atom_site_label
 _atom_site_symmetry_multiplicity
 _atom_site_fract_x
 _atom_site_fract_y
 _atom_site_fract_z
 _atom_site_occupancy
  Li  Li0  1  0.000000  0.000000  0.275070  1
  Li  Li1  1  0.666667  0.333333  0.082063  1
  Li  Li2  1  0.666667  0.333333  0.373152  1
  Li  Li3  1  0.666667  0.333333  0.627420  1
  Li  Li4  1  0.666667  0.333333  0.923578  1
  Li  Li5  1  0.000000  0.000000  0.793275  1
  Li  Li6  1  0.000000  0.000000  0.527024  1
  Li  Li7  1  0.333333  0.666667  0.203868  1
  Li  Li8  1  0.333333  0.666667  0.474893  1
  Ti  Ti9  1  0.000000  0.000000  0.895628  1
  Ti  Ti10  1  0.000000  0.000000  0.015473  1
  Ti  Ti11  1  0.000000  0.000000  0.685668  1
  Ti  Ti12  1  0.333333  0.666667  0.714155  1
  Ti  Ti13  1  0.333333  0.666667  0.984760  1
  Ti  Ti14  1  0.333333  0.666667  0.107494  1
  Ti  Ti15  1  0.333333  0.666667  0.592073  1
  Nb  Nb16  1  0.000000  0.000000  0.403103  1
  Nb  Nb17  1  0.666667  0.333333  0.204152  1
  Nb  Nb18  1  0.666667  0.333333  0.501545  1
  Nb  Nb19  1  0.666667  0.333333  0.802760  1
  Nb  Nb20  1  0.333333  0.666667  0.308288  1
  O  O21  1  0.585408  0.000948  0.149179  1
  O  O22  1  0.672644  0.964917  0.352207  1
  O  O23  1  0.675833  0.996474  0.745630  1
  O  O24  1  0.958274  0.289958  0.452929  1
  O  O25  1  0.644436  0.699591  0.045651  1
  O  O26  1  0.055156  0.355564  0.045651  1
  O  O27  1  0.710042  0.668316  0.452929  1
  O  O28  1  0.003526  0.679359  0.745630  1
  O  O29  1  0.292273  0.327356  0.352207  1
  O  O30  1  0.999052  0.584460  0.149179  1
  O  O31  1  0.320641  0.324167  0.745630  1
  O  O32  1  0.035083  0.707727  0.352207  1
  O  O33  1  0.005189  0.625949  0.550831  1
  O  O34  1  0.415540  0.414592  0.149179  1
  O  O35  1  0.032712  0.719637  0.951456  1
  O  O36  1  0.300409  0.944844  0.045651  1
  O  O37  1  0.924916  0.257394  0.848019  1
  O  O38  1  0.331684  0.041726  0.452929  1
  O  O39  1  0.293399  0.941647  0.652828  1
  O  O40  1  0.004449  0.379715  0.252791  1
  O  O41  1  0.332478  0.075084  0.848019  1
  O  O42  1  0.058353  0.351752  0.652828  1
  O  O43  1  0.375265  0.995551  0.252791  1
  O  O44  1  0.620760  0.994811  0.550831  1
  O  O45  1  0.280363  0.313076  0.951456  1
  O  O46  1  0.686924  0.967288  0.951456  1
  O  O47  1  0.374051  0.379240  0.550831  1
  O  O48  1  0.620285  0.624735  0.252791  1
  O  O49  1  0.648248  0.706601  0.652828  1
  O  O50  1  0.742606  0.667522  0.848019  1
