# generated using pymatgen
data_LiNd14(Cu3O14)2
_symmetry_space_group_name_H-M   'P 1'
_cell_length_a   8.79451245
_cell_length_b   8.79451245
_cell_length_c   8.89589140
_cell_angle_alpha   84.21863671
_cell_angle_beta   95.78136329
_cell_angle_gamma   91.24447178
_symmetry_Int_Tables_number   1
_chemical_formula_structural   LiNd14(Cu3O14)2
_chemical_formula_sum   'Li1 Nd14 Cu6 O28'
_cell_volume   681.01080647
_cell_formula_units_Z   1
loop_
 _symmetry_equiv_pos_site_id
 _symmetry_equiv_pos_as_xyz
  1  'x, y, z'
loop_
 _atom_site_type_symbol
 _atom_site_label
 _atom_site_symmetry_multiplicity
 _atom_site_fract_x
 _atom_site_fract_y
 _atom_site_fract_z
 _atom_site_occupancy
  Li  Li0  1  0.000000  0.000000  0.000000  1
  Nd  Nd1  1  0.649491  0.649491  0.000000  1
  Nd  Nd2  1  0.350509  0.350509  0.000000  1
  Nd  Nd3  1  0.362544  0.935251  0.142537  1
  Nd  Nd4  1  0.064749  0.637456  0.142537  1
  Nd  Nd5  1  0.077365  0.220302  0.284896  1
  Nd  Nd6  1  0.779698  0.922635  0.284896  1
  Nd  Nd7  1  0.792995  0.507214  0.429019  1
  Nd  Nd8  1  0.492786  0.207005  0.429019  1
  Nd  Nd9  1  0.207005  0.492786  0.570981  1
  Nd  Nd10  1  0.507214  0.792995  0.570981  1
  Nd  Nd11  1  0.220302  0.077365  0.715104  1
  Nd  Nd12  1  0.922635  0.779698  0.715104  1
  Nd  Nd13  1  0.637456  0.064749  0.857463  1
  Nd  Nd14  1  0.935251  0.362544  0.857463  1
  Cu  Cu15  1  0.142797  0.857203  0.428932  1
  Cu  Cu16  1  0.429369  0.570631  0.285464  1
  Cu  Cu17  1  0.713596  0.286404  0.142638  1
  Cu  Cu18  1  0.570631  0.429369  0.714536  1
  Cu  Cu19  1  0.286404  0.713596  0.857362  1
  Cu  Cu20  1  0.857203  0.142797  0.571068  1
  O  O21  1  0.357373  0.642627  0.071591  1
  O  O22  1  0.074526  0.925474  0.223086  1
  O  O23  1  0.107569  0.392811  0.071104  1
  O  O24  1  0.607189  0.892431  0.071104  1
  O  O25  1  0.035564  0.464534  0.356579  1
  O  O26  1  0.000000  0.000000  0.500000  1
  O  O27  1  0.321036  0.178859  0.213694  1
  O  O28  1  0.535466  0.964436  0.356579  1
  O  O29  1  0.821141  0.678964  0.213694  1
  O  O30  1  0.288240  0.711760  0.356588  1
  O  O31  1  0.850394  0.149606  0.075166  1
  O  O32  1  0.573293  0.426707  0.213958  1
  O  O33  1  0.786334  0.213666  0.361241  1
  O  O34  1  0.213666  0.786334  0.638759  1
  O  O35  1  0.249217  0.249217  0.500000  1
  O  O36  1  0.500000  0.500000  0.500000  1
  O  O37  1  0.750783  0.750783  0.500000  1
  O  O38  1  0.711760  0.288240  0.643412  1
  O  O39  1  0.964436  0.535466  0.643421  1
  O  O40  1  0.149606  0.850394  0.924834  1
  O  O41  1  0.178859  0.321036  0.786306  1
  O  O42  1  0.678964  0.821141  0.786306  1
  O  O43  1  0.426707  0.573293  0.786042  1
  O  O44  1  0.464534  0.035564  0.643421  1
  O  O45  1  0.925474  0.074526  0.776914  1
  O  O46  1  0.642628  0.357372  0.928409  1
  O  O47  1  0.392811  0.107569  0.928896  1
  O  O48  1  0.892431  0.607189  0.928896  1
