# generated using pymatgen
data_Li3V2(O2F)2
_symmetry_space_group_name_H-M   'P 1'
_cell_length_a   5.94032042
_cell_length_b   7.84390193
_cell_length_c   7.95708138
_cell_angle_alpha   106.12327630
_cell_angle_beta   101.25146127
_cell_angle_gamma   100.04931710
_symmetry_Int_Tables_number   1
_chemical_formula_structural   Li3V2(O2F)2
_chemical_formula_sum   'Li9 V6 O12 F6'
_cell_volume   338.88815216
_cell_formula_units_Z   3
loop_
 _symmetry_equiv_pos_site_id
 _symmetry_equiv_pos_as_xyz
  1  'x, y, z'
loop_
 _atom_site_type_symbol
 _atom_site_label
 _atom_site_symmetry_multiplicity
 _atom_site_fract_x
 _atom_site_fract_y
 _atom_site_fract_z
 _atom_site_occupancy
  Li  Li0  1  0.839545  0.009764  0.367488  1
  Li  Li1  1  0.989739  0.314714  0.643761  1
  Li  Li2  1  0.701867  0.361949  0.361144  1
  Li  Li3  1  0.832282  0.675897  0.637770  1
  Li  Li4  1  0.509231  0.689013  0.369168  1
  Li  Li5  1  0.345656  0.003443  0.363339  1
  Li  Li6  1  0.488346  0.322165  0.633568  1
  Li  Li7  1  0.299206  0.643737  0.606316  1
  Li  Li8  1  0.150978  0.960786  0.624201  1
  V  V9  1  0.995154  0.001656  0.996949  1
  V  V10  1  0.839558  0.338044  0.008627  1
  V  V11  1  0.501309  0.998310  0.989820  1
  V  V12  1  0.668649  0.666635  0.008639  1
  V  V13  1  0.336525  0.333426  0.005368  1
  V  V14  1  0.166662  0.667175  0.000844  1
  O  O15  1  0.997349  0.827524  0.138737  1
  O  O16  1  0.811351  0.159269  0.143144  1
  O  O17  1  0.845834  0.507246  0.862318  1
  O  O18  1  0.670738  0.481904  0.149458  1
  O  O19  1  0.659423  0.842199  0.859739  1
  O  O20  1  0.516308  0.177365  0.860435  1
  O  O21  1  0.485511  0.826837  0.145930  1
  O  O22  1  0.331802  0.142264  0.133572  1
  O  O23  1  0.342180  0.509973  0.858825  1
  O  O24  1  0.164097  0.505837  0.141546  1
  O  O25  1  0.000493  0.187778  0.864005  1
  O  O26  1  0.171156  0.831609  0.847213  1
  F  F27  1  0.990931  0.499586  0.534373  1
  F  F28  1  0.829156  0.835498  0.495497  1
  F  F29  1  0.662694  0.179071  0.483731  1
  F  F30  1  0.520254  0.514326  0.511659  1
  F  F31  1  0.331746  0.829712  0.495422  1
  F  F32  1  0.168479  0.152826  0.516685  1
