# generated using pymatgen
data_LiVPO5
_symmetry_space_group_name_H-M   'P 1'
_cell_length_a   5.34874420
_cell_length_b   9.69256192
_cell_length_c   7.51045896
_cell_angle_alpha   90.00000000
_cell_angle_beta   109.44184782
_cell_angle_gamma   90.00000000
_symmetry_Int_Tables_number   1
_chemical_formula_structural   LiVPO5
_chemical_formula_sum   'Li4 V4 P4 O20'
_cell_volume   367.16331368
_cell_formula_units_Z   4
loop_
 _symmetry_equiv_pos_site_id
 _symmetry_equiv_pos_as_xyz
  1  'x, y, z'
loop_
 _atom_site_type_symbol
 _atom_site_label
 _atom_site_symmetry_multiplicity
 _atom_site_fract_x
 _atom_site_fract_y
 _atom_site_fract_z
 _atom_site_occupancy
  Li  Li0  1  0.554127  0.105542  0.213864  1
  Li  Li1  1  0.445873  0.605542  0.286136  1
  Li  Li2  1  0.554127  0.394458  0.713864  1
  Li  Li3  1  0.445873  0.894458  0.786136  1
  V  V4  1  0.985490  0.920981  0.154417  1
  V  V5  1  0.014510  0.420981  0.345583  1
  V  V6  1  0.985490  0.579019  0.654417  1
  V  V7  1  0.014510  0.079019  0.845583  1
  P  P8  1  0.836177  0.654645  0.043079  1
  P  P9  1  0.836177  0.845355  0.543079  1
  P  P10  1  0.163823  0.154645  0.456921  1
  P  P11  1  0.163823  0.345355  0.956921  1
  O  O12  1  0.334240  0.213165  0.998804  1
  O  O13  1  0.113549  0.718087  0.159920  1
  O  O14  1  0.792177  0.049111  0.014670  1
  O  O15  1  0.175806  0.415448  0.144134  1
  O  O16  1  0.743427  0.549065  0.165672  1
  O  O17  1  0.824194  0.915448  0.355866  1
  O  O18  1  0.886451  0.218087  0.340080  1
  O  O19  1  0.665760  0.713165  0.501196  1
  O  O20  1  0.256573  0.049065  0.334328  1
  O  O21  1  0.792177  0.450889  0.514670  1
  O  O22  1  0.207823  0.549111  0.485330  1
  O  O23  1  0.743427  0.950935  0.665672  1
  O  O24  1  0.334240  0.286835  0.498804  1
  O  O25  1  0.113549  0.781913  0.659920  1
  O  O26  1  0.175806  0.084552  0.644134  1
  O  O27  1  0.256573  0.450935  0.834328  1
  O  O28  1  0.824194  0.584552  0.855866  1
  O  O29  1  0.207823  0.950889  0.985330  1
  O  O30  1  0.886451  0.281913  0.840080  1
  O  O31  1  0.665760  0.786835  0.001196  1
