# generated using pymatgen
data_Li2CrP4(H2O3)6
_symmetry_space_group_name_H-M   'P 1'
_cell_length_a   8.05978866
_cell_length_b   11.58597330
_cell_length_c   8.93652359
_cell_angle_alpha   90.00000000
_cell_angle_beta   114.77811275
_cell_angle_gamma   90.00000000
_symmetry_Int_Tables_number   1
_chemical_formula_structural   Li2CrP4(H2O3)6
_chemical_formula_sum   'Li4 Cr2 P8 H24 O36'
_cell_volume   757.67124750
_cell_formula_units_Z   2
loop_
 _symmetry_equiv_pos_site_id
 _symmetry_equiv_pos_as_xyz
  1  'x, y, z'
loop_
 _atom_site_type_symbol
 _atom_site_label
 _atom_site_symmetry_multiplicity
 _atom_site_fract_x
 _atom_site_fract_y
 _atom_site_fract_z
 _atom_site_occupancy
  Li  Li0  1  0.018663  0.750000  0.569515  1
  Li  Li1  1  0.246502  0.250000  0.909274  1
  Li  Li2  1  0.753498  0.750000  0.090726  1
  Li  Li3  1  0.981337  0.250000  0.430485  1
  Cr  Cr4  1  0.470695  0.750000  0.737276  1
  Cr  Cr5  1  0.529305  0.250000  0.262724  1
  P  P6  1  0.287709  0.484973  0.643272  1
  P  P7  1  0.287709  0.015027  0.643272  1
  P  P8  1  0.303991  0.501992  0.162532  1
  P  P9  1  0.303991  0.998008  0.162532  1
  P  P10  1  0.696009  0.498008  0.837468  1
  P  P11  1  0.696009  0.001992  0.837468  1
  P  P12  1  0.712291  0.984973  0.356728  1
  P  P13  1  0.712291  0.515027  0.356728  1
  H  H14  1  0.058837  0.816866  0.868485  1
  H  H15  1  0.058837  0.683134  0.868485  1
  H  H16  1  0.248865  0.490170  0.872172  1
  H  H17  1  0.248865  0.009830  0.872172  1
  H  H18  1  0.391282  0.818447  0.987752  1
  H  H19  1  0.391282  0.681553  0.987752  1
  H  H20  1  0.087643  0.817914  0.284403  1
  H  H21  1  0.087643  0.682086  0.284403  1
  H  H22  1  0.172153  0.016649  0.335245  1
  H  H23  1  0.172153  0.483351  0.335245  1
  H  H24  1  0.418938  0.183158  0.493004  1
  H  H25  1  0.418938  0.316842  0.493004  1
  H  H26  1  0.581062  0.816842  0.506996  1
  H  H27  1  0.581062  0.683158  0.506996  1
  H  H28  1  0.827847  0.983351  0.664755  1
  H  H29  1  0.827847  0.516649  0.664755  1
  H  H30  1  0.912357  0.317914  0.715597  1
  H  H31  1  0.912357  0.182086  0.715597  1
  H  H32  1  0.608718  0.318447  0.012248  1
  H  H33  1  0.608718  0.181553  0.012248  1
  H  H34  1  0.751135  0.990170  0.127828  1
  H  H35  1  0.751135  0.509830  0.127828  1
  H  H36  1  0.941163  0.316866  0.131515  1
  H  H37  1  0.941163  0.183134  0.131515  1
  O  O38  1  0.248453  0.069880  0.786968  1
  O  O39  1  0.248453  0.430120  0.786968  1
  O  O40  1  0.015486  0.750000  0.286814  1
  O  O41  1  0.984476  0.250000  0.204712  1
  O  O42  1  0.190934  0.414628  0.487509  1
  O  O43  1  0.190934  0.085372  0.487509  1
  O  O44  1  0.260006  0.885570  0.634553  1
  O  O45  1  0.260006  0.614430  0.634553  1
  O  O46  1  0.457183  0.750000  0.969836  1
  O  O47  1  0.164240  0.965330  0.236784  1
  O  O48  1  0.164240  0.534670  0.236784  1
  O  O49  1  0.503373  0.455914  0.692035  1
  O  O50  1  0.503373  0.044086  0.692035  1
  O  O51  1  0.263499  0.923949  0.009910  1
  O  O52  1  0.263499  0.576051  0.009910  1
  O  O53  1  0.311208  0.374379  0.134057  1
  O  O54  1  0.311208  0.125621  0.134057  1
  O  O55  1  0.486205  0.250000  0.479017  1
  O  O56  1  0.513795  0.750000  0.520983  1
  O  O57  1  0.688792  0.625621  0.865943  1
  O  O58  1  0.688792  0.874379  0.865943  1
  O  O59  1  0.736501  0.423949  0.990090  1
  O  O60  1  0.736501  0.076051  0.990090  1
  O  O61  1  0.496627  0.955914  0.307965  1
  O  O62  1  0.496627  0.544086  0.307965  1
  O  O63  1  0.835760  0.465330  0.763216  1
  O  O64  1  0.835760  0.034670  0.763216  1
  O  O65  1  0.542817  0.250000  0.030164  1
  O  O66  1  0.739994  0.385570  0.365447  1
  O  O67  1  0.739994  0.114430  0.365447  1
  O  O68  1  0.809066  0.914628  0.512491  1
  O  O69  1  0.809066  0.585372  0.512491  1
  O  O70  1  0.015524  0.750000  0.795288  1
  O  O71  1  0.984514  0.250000  0.713186  1
  O  O72  1  0.751547  0.930120  0.213032  1
  O  O73  1  0.751547  0.569880  0.213032  1
