# generated using pymatgen
data_NaFe5O8
_symmetry_space_group_name_H-M   'P 1'
_cell_length_a   6.07820946
_cell_length_b   6.07820946
_cell_length_c   6.07820946
_cell_angle_alpha   59.52533887
_cell_angle_beta   59.52533887
_cell_angle_gamma   59.52533887
_symmetry_Int_Tables_number   1
_chemical_formula_structural   NaFe5O8
_chemical_formula_sum   'Na1 Fe5 O8'
_cell_volume   157.07207881
_cell_formula_units_Z   1
loop_
 _symmetry_equiv_pos_site_id
 _symmetry_equiv_pos_as_xyz
  1  'x, y, z'
loop_
 _atom_site_type_symbol
 _atom_site_label
 _atom_site_symmetry_multiplicity
 _atom_site_fract_x
 _atom_site_fract_y
 _atom_site_fract_z
 _atom_site_occupancy
  Na  Na0  1  0.000000  0.000000  0.000000  1
  Fe  Fe1  1  0.000000  0.500000  1.000000  1
  Fe  Fe2  1  0.617376  0.617376  0.617376  1
  Fe  Fe3  1  0.000000  0.000000  0.500000  1
  Fe  Fe4  1  0.382624  0.382624  0.382624  1
  Fe  Fe5  1  0.500000  0.000000  1.000000  1
  O  O6  1  0.768182  0.258379  0.258379  1
  O  O7  1  0.246821  0.246821  0.246821  1
  O  O8  1  0.753179  0.753179  0.753179  1
  O  O9  1  0.741621  0.231818  0.741621  1
  O  O10  1  0.741621  0.741621  0.231818  1
  O  O11  1  0.231818  0.741621  0.741621  1
  O  O12  1  0.258379  0.258379  0.768182  1
  O  O13  1  0.258379  0.768182  0.258379  1
