# generated using pymatgen
data_Li7Mn8(BO3)8
_symmetry_space_group_name_H-M   'P 1'
_cell_length_a   5.22784407
_cell_length_b   9.11563239
_cell_length_c   11.53350335
_cell_angle_alpha   111.39699828
_cell_angle_beta   102.20251853
_cell_angle_gamma   89.28174962
_symmetry_Int_Tables_number   1
_chemical_formula_structural   Li7Mn8(BO3)8
_chemical_formula_sum   'Li7 Mn8 B8 O24'
_cell_volume   498.92397545
_cell_formula_units_Z   1
loop_
 _symmetry_equiv_pos_site_id
 _symmetry_equiv_pos_as_xyz
  1  'x, y, z'
loop_
 _atom_site_type_symbol
 _atom_site_label
 _atom_site_symmetry_multiplicity
 _atom_site_fract_x
 _atom_site_fract_y
 _atom_site_fract_z
 _atom_site_occupancy
  Li  Li0  1  0.020252  0.992913  0.837580  1
  Li  Li1  1  0.206911  0.219606  0.580878  1
  Li  Li2  1  0.523870  0.491159  0.836928  1
  Li  Li3  1  0.470071  0.462744  0.097936  1
  Li  Li4  1  0.708568  0.707900  0.573837  1
  Li  Li5  1  0.726966  0.750059  0.334383  1
  Li  Li6  1  0.959827  0.955181  0.078216  1
  Mn  Mn7  1  0.030698  0.342811  0.873366  1
  Mn  Mn8  1  0.235103  0.563852  0.618453  1
  Mn  Mn9  1  0.250698  0.952297  0.363021  1
  Mn  Mn10  1  0.523255  0.845638  0.866693  1
  Mn  Mn11  1  0.457523  0.139204  0.124067  1
  Mn  Mn12  1  0.729772  0.055875  0.618301  1
  Mn  Mn13  1  0.782886  0.408469  0.369836  1
  Mn  Mn14  1  0.975332  0.647580  0.119501  1
  B  B15  1  0.030588  0.682609  0.873162  1
  B  B16  1  0.239896  0.895134  0.624409  1
  B  B17  1  0.259560  0.618466  0.375240  1
  B  B18  1  0.534163  0.187187  0.879279  1
  B  B19  1  0.471657  0.812805  0.124219  1
  B  B20  1  0.735876  0.385767  0.622454  1
  B  B21  1  0.763661  0.110574  0.378038  1
  B  B22  1  0.969888  0.309389  0.128175  1
  O  O23  1  0.026097  0.143015  0.397326  1
  O  O24  1  0.260223  0.646507  0.827539  1
  O  O25  1  0.106281  0.720625  0.329909  1
  O  O26  1  0.401726  0.077227  0.908345  1
  O  O27  1  0.131255  0.520200  0.417812  1
  O  O28  1  0.440009  0.335828  0.901849  1
  O  O29  1  0.064387  0.166652  0.114829  1
  O  O30  1  0.323837  0.008599  0.583607  1
  O  O31  1  0.083935  0.416222  0.089648  1
  O  O32  1  0.417211  0.790852  0.656007  1
  O  O33  1  0.226129  0.849124  0.153004  1
  O  O34  1  0.487007  0.394481  0.644270  1
  O  O35  1  0.527180  0.614672  0.385898  1
  O  O36  1  0.761418  0.149330  0.832541  1
  O  O37  1  0.587392  0.207802  0.334702  1
  O  O38  1  0.906505  0.573803  0.906886  1
  O  O39  1  0.661950  0.987907  0.404522  1
  O  O40  1  0.926847  0.826149  0.886681  1
  O  O41  1  0.588673  0.682947  0.140756  1
  O  O42  1  0.825506  0.483286  0.565313  1
  O  O43  1  0.595832  0.910718  0.081108  1
  O  O44  1  0.907381  0.284915  0.659476  1
  O  O45  1  0.738211  0.349356  0.178820  1
  O  O46  1  0.984548  0.884509  0.638145  1
