# generated using pymatgen
data_LiZnCr3(SO4)6
_symmetry_space_group_name_H-M   'P 1'
_cell_length_a   8.31210064
_cell_length_b   8.31728261
_cell_length_c   8.90014658
_cell_angle_alpha   62.20374645
_cell_angle_beta   62.32803326
_cell_angle_gamma   60.36149720
_symmetry_Int_Tables_number   1
_chemical_formula_structural   LiZnCr3(SO4)6
_chemical_formula_sum   'Li1 Zn1 Cr3 S6 O24'
_cell_volume   450.68711601
_cell_formula_units_Z   1
loop_
 _symmetry_equiv_pos_site_id
 _symmetry_equiv_pos_as_xyz
  1  'x, y, z'
loop_
 _atom_site_type_symbol
 _atom_site_label
 _atom_site_symmetry_multiplicity
 _atom_site_fract_x
 _atom_site_fract_y
 _atom_site_fract_z
 _atom_site_occupancy
  Li  Li0  1  0.771958  0.419909  0.629252  1
  Zn  Zn1  1  0.167526  0.139187  0.545345  1
  Cr  Cr2  1  0.353448  0.350713  0.938719  1
  Cr  Cr3  1  0.643941  0.645268  0.067761  1
  Cr  Cr4  1  0.851170  0.852529  0.449667  1
  S  S5  1  0.037728  0.469128  0.749400  1
  S  S6  1  0.540940  0.253757  0.249761  1
  S  S7  1  0.254860  0.953906  0.249632  1
  S  S8  1  0.748373  0.037692  0.748934  1
  S  S9  1  0.465502  0.742758  0.753044  1
  S  S10  1  0.955970  0.543524  0.249291  1
  O  O11  1  0.299139  0.105721  0.076810  1
  O  O12  1  0.109044  0.509713  0.082713  1
  O  O13  1  0.004012  0.339212  0.704701  1
  O  O14  1  0.024829  0.659302  0.604552  1
  O  O15  1  0.352326  0.289348  0.388917  1
  O  O16  1  0.048253  0.983030  0.293287  1
  O  O17  1  0.518270  0.297063  0.076376  1
  O  O18  1  0.234392  0.379636  0.768231  1
  O  O19  1  0.674652  0.048281  0.295607  1
  O  O20  1  0.380061  0.759268  0.224916  1
  O  O21  1  0.634084  0.381220  0.225162  1
  O  O22  1  0.291212  0.965540  0.389924  1
  O  O23  1  0.713686  0.024413  0.605670  1
  O  O24  1  0.384716  0.609452  0.768455  1
  O  O25  1  0.619013  0.240264  0.764124  1
  O  O26  1  0.339818  0.945383  0.707009  1
  O  O27  1  0.761356  0.634654  0.224582  1
  O  O28  1  0.495910  0.686991  0.923182  1
  O  O29  1  0.949392  0.014717  0.706435  1
  O  O30  1  0.660828  0.705157  0.607804  1
  O  O31  1  0.960359  0.359394  0.399871  1
  O  O32  1  0.983017  0.679476  0.291704  1
  O  O33  1  0.892593  0.497024  0.920821  1
  O  O34  1  0.687922  0.898171  0.921942  1
