# generated using pymatgen
data_Li3Nb4NiO12
_symmetry_space_group_name_H-M   'P 1'
_cell_length_a   5.25071983
_cell_length_b   5.61782825
_cell_length_c   7.67963177
_cell_angle_alpha   84.23582665
_cell_angle_beta   89.60952727
_cell_angle_gamma   89.67055452
_symmetry_Int_Tables_number   1
_chemical_formula_structural   Li3Nb4NiO12
_chemical_formula_sum   'Li3 Nb4 Ni1 O12'
_cell_volume   225.37746679
_cell_formula_units_Z   1
loop_
 _symmetry_equiv_pos_site_id
 _symmetry_equiv_pos_as_xyz
  1  'x, y, z'
loop_
 _atom_site_type_symbol
 _atom_site_label
 _atom_site_symmetry_multiplicity
 _atom_site_fract_x
 _atom_site_fract_y
 _atom_site_fract_z
 _atom_site_occupancy
  Li  Li0  1  0.500069  0.928540  0.213514  1
  Li  Li1  1  0.500013  0.925592  0.714698  1
  Li  Li2  1  0.999423  0.427144  0.211805  1
  Nb  Nb3  1  0.496274  0.494834  0.497937  1
  Nb  Nb4  1  0.498734  0.497000  0.000475  1
  Nb  Nb5  1  0.999382  0.995457  0.999922  1
  Nb  Nb6  1  0.000299  0.996697  0.497601  1
  Ni  Ni7  1  0.002994  0.420990  0.709476  1
  O  O8  1  0.176960  0.349479  0.453834  1
  O  O9  1  0.383863  0.547700  0.765955  1
  O  O10  1  0.319198  0.847891  0.458453  1
  O  O11  1  0.128044  0.044056  0.763778  1
  O  O12  1  0.195067  0.722579  0.084865  1
  O  O13  1  0.682556  0.849880  0.959792  1
  O  O14  1  0.305199  0.221353  0.083559  1
  O  O15  1  0.875610  0.041198  0.263954  1
  O  O16  1  0.820742  0.349341  0.960236  1
  O  O17  1  0.626251  0.542816  0.265987  1
  O  O18  1  0.681923  0.214953  0.580393  1
  O  O19  1  0.807400  0.723298  0.584165  1
