# generated using pymatgen
data_LiMn2(BO3)2
_symmetry_space_group_name_H-M   'P 1'
_cell_length_a   5.32549801
_cell_length_b   9.09815083
_cell_length_c   10.33022664
_cell_angle_alpha   88.60732731
_cell_angle_beta   87.91583596
_cell_angle_gamma   89.21671916
_symmetry_Int_Tables_number   1
_chemical_formula_structural   LiMn2(BO3)2
_chemical_formula_sum   'Li4 Mn8 B8 O24'
_cell_volume   500.00222958
_cell_formula_units_Z   4
loop_
 _symmetry_equiv_pos_site_id
 _symmetry_equiv_pos_as_xyz
  1  'x, y, z'
loop_
 _atom_site_type_symbol
 _atom_site_label
 _atom_site_symmetry_multiplicity
 _atom_site_fract_x
 _atom_site_fract_y
 _atom_site_fract_z
 _atom_site_occupancy
  Li  Li0  1  0.839748  0.000700  0.660391  1
  Li  Li1  1  0.359594  0.513447  0.672445  1
  Li  Li2  1  0.361161  0.492369  0.161666  1
  Li  Li3  1  0.153334  0.979563  0.344140  1
  Mn  Mn4  1  0.855106  0.317809  0.634695  1
  Mn  Mn5  1  0.853074  0.689950  0.124780  1
  Mn  Mn6  1  0.638103  0.811258  0.872709  1
  Mn  Mn7  1  0.667765  0.164452  0.382623  1
  Mn  Mn8  1  0.336020  0.846928  0.620506  1
  Mn  Mn9  1  0.358051  0.169053  0.134496  1
  Mn  Mn10  1  0.150284  0.340575  0.890514  1
  Mn  Mn11  1  0.153336  0.652215  0.384929  1
  B  B12  1  0.842648  0.655685  0.636009  1
  B  B13  1  0.835043  0.348721  0.134314  1
  B  B14  1  0.654846  0.161951  0.872454  1
  B  B15  1  0.666383  0.833747  0.371890  1
  B  B16  1  0.326831  0.177917  0.631326  1
  B  B17  1  0.332956  0.829258  0.124252  1
  B  B18  1  0.169365  0.683010  0.875192  1
  B  B19  1  0.166854  0.316962  0.373428  1
  O  O20  1  0.928488  0.697496  0.935269  1
  O  O21  1  0.946432  0.301243  0.449175  1
  O  O22  1  0.807121  0.952586  0.398058  1
  O  O23  1  0.785042  0.287249  0.821654  1
  O  O24  1  0.784420  0.713003  0.309231  1
  O  O25  1  0.728347  0.026353  0.839739  1
  O  O26  1  0.722918  0.786892  0.683828  1
  O  O27  1  0.712293  0.529943  0.632442  1
  O  O28  1  0.716383  0.480529  0.124268  1
  O  O29  1  0.709010  0.223010  0.181812  1
  O  O30  1  0.581190  0.176701  0.591284  1
  O  O31  1  0.571656  0.817724  0.062683  1
  O  O32  1  0.440957  0.193744  0.951275  1
  O  O33  1  0.413883  0.825000  0.412173  1
  O  O34  1  0.285768  0.813622  0.834793  1
  O  O35  1  0.274176  0.550318  0.855712  1
  O  O36  1  0.276534  0.445948  0.344795  1
  O  O37  1  0.272461  0.183139  0.324187  1
  O  O38  1  0.223049  0.311293  0.676135  1
  O  O39  1  0.232341  0.960784  0.155169  1
  O  O40  1  0.215044  0.695673  0.156936  1
  O  O41  1  0.184480  0.056569  0.622242  1
  O  O42  1  0.092648  0.666641  0.591528  1
  O  O43  1  0.091008  0.333202  0.095761  1
