# generated using pymatgen
data_Hf2N2O
_symmetry_space_group_name_H-M   'P 1'
_cell_length_a   8.70837079
_cell_length_b   8.73467442
_cell_length_c   8.73775555
_cell_angle_alpha   109.53258320
_cell_angle_beta   109.52239310
_cell_angle_gamma   109.24776156
_symmetry_Int_Tables_number   1
_chemical_formula_structural   Hf2N2O
_chemical_formula_sum   'Hf16 N16 O8'
_cell_volume   512.33278831
_cell_formula_units_Z   8
loop_
 _symmetry_equiv_pos_site_id
 _symmetry_equiv_pos_as_xyz
  1  'x, y, z'
loop_
 _atom_site_type_symbol
 _atom_site_label
 _atom_site_symmetry_multiplicity
 _atom_site_fract_x
 _atom_site_fract_y
 _atom_site_fract_z
 _atom_site_occupancy
  Hf  Hf0  1  0.544045  0.793312  0.759351  1
  Hf  Hf1  1  0.787941  0.757025  0.532154  1
  Hf  Hf2  1  0.005237  0.009765  0.997267  1
  Hf  Hf3  1  0.277878  0.744324  0.021250  1
  Hf  Hf4  1  0.508963  0.006657  0.508850  1
  Hf  Hf5  1  0.998000  0.501265  0.500734  1
  Hf  Hf6  1  0.964119  0.711835  0.254523  1
  Hf  Hf7  1  0.747253  0.453756  0.718104  1
  Hf  Hf8  1  0.252297  0.532931  0.285911  1
  Hf  Hf9  1  0.747679  0.962083  0.212208  1
  Hf  Hf10  1  0.245386  0.039066  0.787571  1
  Hf  Hf11  1  0.030798  0.281651  0.738578  1
  Hf  Hf12  1  0.508251  0.498622  0.997863  1
  Hf  Hf13  1  0.214322  0.248659  0.467377  1
  Hf  Hf14  1  0.724559  0.258525  0.975895  1
  Hf  Hf15  1  0.453858  0.211073  0.242362  1
  N  N16  1  0.771351  0.039734  0.007874  1
  N  N17  1  0.479602  0.724437  0.947980  1
  N  N18  1  0.949784  0.225102  0.458599  1
  N  N19  1  0.529198  0.759420  0.490396  1
  N  N20  1  0.031997  0.542562  0.770852  1
  N  N21  1  0.464819  0.234189  0.507169  1
  N  N22  1  0.729949  0.741753  0.273511  1
  N  N23  1  0.972435  0.459019  0.230743  1
  N  N24  1  0.985800  0.032835  0.761900  1
  N  N25  1  0.768885  0.221287  0.736621  1
  N  N26  1  0.741106  0.516469  0.965879  1
  N  N27  1  0.050542  0.772991  0.537687  1
  N  N28  1  0.235298  0.273935  0.225477  1
  N  N29  1  0.517148  0.275583  0.050473  1
  N  N30  1  0.272604  0.263782  0.728747  1
  N  N31  1  0.228954  0.956461  0.995247  1
  O  O32  1  0.545817  0.006549  0.276331  1
  O  O33  1  0.272323  0.532254  0.547212  1
  O  O34  1  0.015586  0.965260  0.240529  1
  O  O35  1  0.226884  0.775671  0.257203  1
  O  O36  1  0.259871  0.491499  0.038481  1
  O  O37  1  0.759349  0.723611  0.769997  1
  O  O38  1  0.451469  0.986327  0.724349  1
  O  O39  1  0.728641  0.468721  0.456745  1
