# generated using pymatgen
data_Ca5Al11TlSi13O48
_symmetry_space_group_name_H-M   'P 1'
_cell_length_a   12.32089408
_cell_length_b   12.39592094
_cell_length_c   12.54557741
_cell_angle_alpha   89.49723171
_cell_angle_beta   89.72695870
_cell_angle_gamma   89.61567184
_symmetry_Int_Tables_number   1
_chemical_formula_structural   Ca5Al11TlSi13O48
_chemical_formula_sum   'Ca5 Al11 Tl1 Si13 O48'
_cell_volume   1915.93324872
_cell_formula_units_Z   1
loop_
 _symmetry_equiv_pos_site_id
 _symmetry_equiv_pos_as_xyz
  1  'x, y, z'
loop_
 _atom_site_type_symbol
 _atom_site_label
 _atom_site_symmetry_multiplicity
 _atom_site_fract_x
 _atom_site_fract_y
 _atom_site_fract_z
 _atom_site_occupancy
  Ca  Ca0  1  0.199409  0.807650  0.779192  1
  Ca  Ca1  1  0.805004  0.812923  0.778053  1
  Ca  Ca2  1  0.191474  0.201901  0.787801  1
  Ca  Ca3  1  0.818148  0.194222  0.816502  1
  Ca  Ca4  1  0.003216  0.003427  0.192970  1
  Al  Al5  1  0.003902  0.812532  0.612047  1
  Al  Al6  1  0.185088  0.999293  0.616357  1
  Al  Al7  1  0.993650  0.186366  0.619726  1
  Al  Al8  1  0.811310  0.003308  0.615897  1
  Al  Al9  1  0.363560  0.996756  0.829395  1
  Al  Al10  1  0.000885  0.642413  0.833853  1
  Al  Al11  1  0.003976  0.373986  0.821911  1
  Al  Al12  1  0.631782  0.993572  0.823428  1
  Al  Al13  1  0.185625  0.371168  0.005729  1
  Al  Al14  1  0.812616  0.375381  0.004170  1
  Al  Al15  1  0.630912  0.180755  0.999723  1
  Tl  Tl16  1  0.620157  0.384421  0.591893  1
  Si  Si17  1  0.373070  0.999073  0.179692  1
  Si  Si18  1  0.000116  0.627867  0.179175  1
  Si  Si19  1  0.996549  0.374915  0.182523  1
  Si  Si20  1  0.626149  0.999759  0.180763  1
  Si  Si21  1  0.001421  0.815853  0.353977  1
  Si  Si22  1  0.997954  0.183710  0.354679  1
  Si  Si23  1  0.184215  0.002517  0.356042  1
  Si  Si24  1  0.816435  0.000532  0.352664  1
  Si  Si25  1  0.370537  0.811884  0.008804  1
  Si  Si26  1  0.628382  0.813371  0.009136  1
  Si  Si27  1  0.187112  0.633590  0.006551  1
  Si  Si28  1  0.815503  0.638578  0.007466  1
  Si  Si29  1  0.363479  0.178982  0.002860  1
  O  O30  1  0.499491  0.781785  0.998608  1
  O  O31  1  0.214538  0.509159  0.993135  1
  O  O32  1  0.700616  0.704558  0.023948  1
  O  O33  1  0.303470  0.292677  0.010157  1
  O  O34  1  0.491421  0.188546  0.988433  1
  O  O35  1  0.695526  0.302143  0.989176  1
  O  O36  1  0.351271  0.888729  0.113017  1
  O  O37  1  0.644714  0.887411  0.114963  1
  O  O38  1  0.109104  0.657471  0.111037  1
  O  O39  1  0.106361  0.346429  0.119286  1
  O  O40  1  0.891978  0.662258  0.112816  1
  O  O41  1  0.885993  0.349133  0.121619  1
  O  O42  1  0.662318  0.103921  0.115192  1
  O  O43  1  0.335478  0.103520  0.110565  1
  O  O44  1  0.998069  0.503476  0.222059  1
  O  O45  1  0.498281  0.002658  0.221788  1
  O  O46  1  0.002944  0.711037  0.280319  1
  O  O47  1  0.705605  0.990555  0.286337  1
  O  O48  1  0.996373  0.297208  0.292894  1
  O  O49  1  0.291691  0.994819  0.283407  1
  O  O50  1  0.104610  0.898866  0.315814  1
  O  O51  1  0.899144  0.898146  0.310504  1
  O  O52  1  0.103858  0.105167  0.309787  1
  O  O53  1  0.896923  0.102612  0.304939  1
  O  O54  1  0.210487  0.010561  0.478441  1
  O  O55  1  0.998093  0.783383  0.475401  1
  O  O56  1  0.793848  0.009066  0.476167  1
  O  O57  1  0.993560  0.194110  0.479285  1
  O  O58  1  0.128093  0.872574  0.633264  1
  O  O59  1  0.891092  0.890076  0.641590  1
  O  O60  1  0.110728  0.112625  0.655804  1
  O  O61  1  0.867312  0.127137  0.656081  1
  O  O62  1  0.710930  0.969334  0.709563  1
  O  O63  1  0.000045  0.724518  0.721083  1
  O  O64  1  0.004193  0.294595  0.705523  1
  O  O65  1  0.279422  0.986272  0.719379  1
  O  O66  1  0.001265  0.510287  0.806867  1
  O  O67  1  0.496776  0.999564  0.800925  1
  O  O68  1  0.671740  0.873080  0.899880  1
  O  O69  1  0.121937  0.325349  0.888351  1
  O  O70  1  0.890522  0.328683  0.894244  1
  O  O71  1  0.684586  0.105674  0.889239  1
  O  O72  1  0.325670  0.873550  0.900800  1
  O  O73  1  0.124055  0.687587  0.901339  1
  O  O74  1  0.879694  0.692871  0.902800  1
  O  O75  1  0.310694  0.112118  0.899095  1
  O  O76  1  0.299865  0.702536  0.022828  1
  O  O77  1  0.790781  0.514659  0.992071  1
