# generated using pymatgen
data_LaAlO3
_symmetry_space_group_name_H-M   'P 1'
_cell_length_a   6.81910610
_cell_length_b   7.90093684
_cell_length_c   8.05499292
_cell_angle_alpha   102.70463514
_cell_angle_beta   92.71731281
_cell_angle_gamma   93.24450384
_symmetry_Int_Tables_number   1
_chemical_formula_structural   LaAlO3
_chemical_formula_sum   'La6 Al6 O18'
_cell_volume   421.87866244
_cell_formula_units_Z   6
loop_
 _symmetry_equiv_pos_site_id
 _symmetry_equiv_pos_as_xyz
  1  'x, y, z'
loop_
 _atom_site_type_symbol
 _atom_site_label
 _atom_site_symmetry_multiplicity
 _atom_site_fract_x
 _atom_site_fract_y
 _atom_site_fract_z
 _atom_site_occupancy
  La  La0  1  0.777197  0.900280  0.108988  1
  La  La1  1  0.584420  0.747072  0.527757  1
  La  La2  1  0.121156  0.576851  0.809889  1
  La  La3  1  0.878844  0.423149  0.190111  1
  La  La4  1  0.415580  0.252928  0.472243  1
  La  La5  1  0.222803  0.099720  0.891012  1
  Al  Al6  1  0.089168  0.776163  0.466806  1
  Al  Al7  1  0.310640  0.895077  0.200653  1
  Al  Al8  1  0.357412  0.523288  0.205361  1
  Al  Al9  1  0.642588  0.476712  0.794639  1
  Al  Al10  1  0.910832  0.223837  0.533194  1
  Al  Al11  1  0.689360  0.104923  0.799347  1
  O  O12  1  0.554985  0.911475  0.817432  1
  O  O13  1  0.274989  0.928509  0.424932  1
  O  O14  1  0.115859  0.853719  0.045489  1
  O  O15  1  0.066174  0.816059  0.686577  1
  O  O16  1  0.861072  0.745125  0.347415  1
  O  O17  1  0.466234  0.722162  0.174133  1
  O  O18  1  0.446518  0.551369  0.691287  1
  O  O19  1  0.196284  0.572972  0.380008  1
  O  O20  1  0.802594  0.583381  0.963035  1
  O  O21  1  0.803716  0.427028  0.619992  1
  O  O22  1  0.197406  0.416619  0.036965  1
  O  O23  1  0.553482  0.448631  0.308713  1
  O  O24  1  0.533766  0.277838  0.825867  1
  O  O25  1  0.138928  0.254875  0.652585  1
  O  O26  1  0.933826  0.183941  0.313423  1
  O  O27  1  0.725011  0.071491  0.575068  1
  O  O28  1  0.884141  0.146281  0.954511  1
  O  O29  1  0.445015  0.088525  0.182568  1
