# generated using pymatgen
data_Li3Nb6O11
_symmetry_space_group_name_H-M   'P 1'
_cell_length_a   6.05805144
_cell_length_b   6.05805144
_cell_length_c   7.56240624
_cell_angle_alpha   90.00000000
_cell_angle_beta   90.00000000
_cell_angle_gamma   120.00000000
_symmetry_Int_Tables_number   1
_chemical_formula_structural   Li3Nb6O11
_chemical_formula_sum   'Li3 Nb6 O11'
_cell_volume   240.35687461
_cell_formula_units_Z   1
loop_
 _symmetry_equiv_pos_site_id
 _symmetry_equiv_pos_as_xyz
  1  'x, y, z'
loop_
 _atom_site_type_symbol
 _atom_site_label
 _atom_site_symmetry_multiplicity
 _atom_site_fract_x
 _atom_site_fract_y
 _atom_site_fract_z
 _atom_site_occupancy
  Li  Li0  1  0.000000  0.000000  0.500000  1
  Li  Li1  1  0.333333  0.666667  0.578367  1
  Li  Li2  1  0.666667  0.333333  0.421633  1
  Nb  Nb3  1  0.159115  0.840885  0.164119  1
  Nb  Nb4  1  0.159115  0.318230  0.164119  1
  Nb  Nb5  1  0.318230  0.159115  0.835881  1
  Nb  Nb6  1  0.681770  0.840885  0.164119  1
  Nb  Nb7  1  0.840885  0.681770  0.835881  1
  Nb  Nb8  1  0.840885  0.159115  0.835881  1
  O  O9  1  0.159329  0.840671  0.685065  1
  O  O10  1  0.000000  0.500000  0.000000  1
  O  O11  1  0.333333  0.666667  0.316373  1
  O  O12  1  0.159329  0.318659  0.685065  1
  O  O13  1  0.318659  0.159329  0.314935  1
  O  O14  1  0.500000  0.500000  0.000000  1
  O  O15  1  0.681341  0.840671  0.685065  1
  O  O16  1  0.666667  0.333333  0.683627  1
  O  O17  1  0.500000  0.000000  0.000000  1
  O  O18  1  0.840671  0.681341  0.314935  1
  O  O19  1  0.840671  0.159329  0.314935  1
