# generated using pymatgen
data_Li3Mn2Fe(BO3)4
_symmetry_space_group_name_H-M   'P 1'
_cell_length_a   5.22890256
_cell_length_b   9.18246505
_cell_length_c   10.63861857
_cell_angle_alpha   90.00000000
_cell_angle_beta   114.68200893
_cell_angle_gamma   90.00000000
_symmetry_Int_Tables_number   1
_chemical_formula_structural   Li3Mn2Fe(BO3)4
_chemical_formula_sum   'Li6 Mn4 Fe2 B8 O24'
_cell_volume   464.13744675
_cell_formula_units_Z   2
loop_
 _symmetry_equiv_pos_site_id
 _symmetry_equiv_pos_as_xyz
  1  'x, y, z'
loop_
 _atom_site_type_symbol
 _atom_site_label
 _atom_site_symmetry_multiplicity
 _atom_site_fract_x
 _atom_site_fract_y
 _atom_site_fract_z
 _atom_site_occupancy
  Li  Li0  1  0.492307  0.226981  0.653824  1
  Li  Li1  1  0.917557  0.238762  0.117159  1
  Li  Li2  1  0.500039  0.732024  0.832932  1
  Li  Li3  1  0.917557  0.761238  0.617159  1
  Li  Li4  1  0.492307  0.773019  0.153824  1
  Li  Li5  1  0.500039  0.267976  0.332932  1
  Mn  Mn6  1  0.975497  0.557950  0.119514  1
  Mn  Mn7  1  0.022657  0.074912  0.375499  1
  Mn  Mn8  1  0.975497  0.442050  0.619514  1
  Mn  Mn9  1  0.022657  0.925088  0.875499  1
  Fe  Fe10  1  0.070287  0.736957  0.388835  1
  Fe  Fe11  1  0.070287  0.263043  0.888835  1
  B  B12  1  0.435675  0.558108  0.607450  1
  B  B13  1  0.982891  0.906462  0.139720  1
  B  B14  1  0.563341  0.068320  0.889011  1
  B  B15  1  0.026161  0.401885  0.367271  1
  B  B16  1  0.982891  0.093538  0.639720  1
  B  B17  1  0.435675  0.441892  0.107450  1
  B  B18  1  0.026161  0.598115  0.867271  1
  B  B19  1  0.563341  0.931680  0.389011  1
  O  O20  1  0.832247  0.600082  0.924592  1
  O  O21  1  0.312393  0.907397  0.402647  1
  O  O22  1  0.733891  0.187082  0.896539  1
  O  O23  1  0.142660  0.278730  0.342105  1
  O  O24  1  0.633190  0.930749  0.865914  1
  O  O25  1  0.097460  0.537383  0.324652  1
  O  O26  1  0.360850  0.422725  0.635731  1
  O  O27  1  0.913508  0.038320  0.180261  1
  O  O28  1  0.889949  0.775847  0.175491  1
  O  O29  1  0.244640  0.673337  0.584130  1
  O  O30  1  0.157817  0.100174  0.571283  1
  O  O31  1  0.688207  0.415995  0.102118  1
  O  O32  1  0.312393  0.092603  0.902647  1
  O  O33  1  0.832247  0.399918  0.424592  1
  O  O34  1  0.142660  0.721270  0.842105  1
  O  O35  1  0.097460  0.462617  0.824652  1
  O  O36  1  0.733891  0.812918  0.396539  1
  O  O37  1  0.633190  0.069251  0.365914  1
  O  O38  1  0.913508  0.961680  0.680261  1
  O  O39  1  0.889949  0.224153  0.675491  1
  O  O40  1  0.360850  0.577275  0.135731  1
  O  O41  1  0.244640  0.326663  0.084130  1
  O  O42  1  0.688207  0.584005  0.602118  1
  O  O43  1  0.157817  0.899826  0.071283  1
