# generated using pymatgen
data_Ni6OF11
_symmetry_space_group_name_H-M   'P 1'
_cell_length_a   10.53723812
_cell_length_b   10.53723812
_cell_length_c   3.08926563
_cell_angle_alpha   90.00000000
_cell_angle_beta   90.00000000
_cell_angle_gamma   143.35256848
_symmetry_Int_Tables_number   1
_chemical_formula_structural   Ni6OF11
_chemical_formula_sum   'Ni6 O1 F11'
_cell_volume   204.73996033
_cell_formula_units_Z   1
loop_
 _symmetry_equiv_pos_site_id
 _symmetry_equiv_pos_as_xyz
  1  'x, y, z'
loop_
 _atom_site_type_symbol
 _atom_site_label
 _atom_site_symmetry_multiplicity
 _atom_site_fract_x
 _atom_site_fract_y
 _atom_site_fract_z
 _atom_site_occupancy
  Ni  Ni0  1  0.996513  0.996513  0.000000  1
  Ni  Ni1  1  0.507827  0.507827  0.500000  1
  Ni  Ni2  1  0.666449  0.332356  1.000000  1
  Ni  Ni3  1  0.166815  0.833682  0.500000  1
  Ni  Ni4  1  0.833682  0.166815  0.500000  1
  Ni  Ni5  1  0.332356  0.666449  0.000000  1
  O  O6  1  0.693481  0.693481  0.000000  1
  F  F7  1  0.969849  0.636650  0.000000  1
  F  F8  1  0.302667  0.302667  1.000000  1
  F  F9  1  0.601682  0.398491  0.500000  1
  F  F10  1  0.732297  0.267644  0.500000  1
  F  F11  1  0.066321  0.934295  0.500000  1
  F  F12  1  0.363386  0.029417  1.000000  1
  F  F13  1  0.636650  0.969849  0.000000  1
  F  F14  1  0.267644  0.732297  0.500000  1
  F  F15  1  0.934295  0.066321  0.500000  1
  F  F16  1  0.398491  0.601682  0.500000  1
  F  F17  1  0.029417  0.363386  1.000000  1
