# generated using pymatgen
data_Ti3Nb(CuO4)3
_symmetry_space_group_name_H-M   'P 1'
_cell_length_a   6.47557757
_cell_length_b   6.47557757
_cell_length_c   6.47557757
_cell_angle_alpha   109.65686726
_cell_angle_beta   109.65686726
_cell_angle_gamma   109.65686726
_symmetry_Int_Tables_number   1
_chemical_formula_structural   Ti3Nb(CuO4)3
_chemical_formula_sum   'Ti3 Nb1 Cu3 O12'
_cell_volume   207.58322699
_cell_formula_units_Z   1
loop_
 _symmetry_equiv_pos_site_id
 _symmetry_equiv_pos_as_xyz
  1  'x, y, z'
loop_
 _atom_site_type_symbol
 _atom_site_label
 _atom_site_symmetry_multiplicity
 _atom_site_fract_x
 _atom_site_fract_y
 _atom_site_fract_z
 _atom_site_occupancy
  Ti  Ti0  1  0.500000  0.000000  0.000000  1
  Ti  Ti1  1  0.000000  0.000000  0.500000  1
  Ti  Ti2  1  0.000000  0.500000  0.000000  1
  Nb  Nb3  1  0.500000  0.500000  0.500000  1
  Cu  Cu4  1  0.500000  0.000000  0.500000  1
  Cu  Cu5  1  0.500000  0.500000  0.000000  1
  Cu  Cu6  1  0.000000  0.500000  0.500000  1
  O  O7  1  0.820056  0.133594  0.313405  1
  O  O8  1  0.491886  0.312007  0.175743  1
  O  O9  1  0.866406  0.686595  0.179944  1
  O  O10  1  0.686595  0.179944  0.866406  1
  O  O11  1  0.312007  0.175743  0.491886  1
  O  O12  1  0.824257  0.508114  0.687993  1
  O  O13  1  0.175743  0.491886  0.312007  1
  O  O14  1  0.313405  0.820056  0.133594  1
  O  O15  1  0.687993  0.824257  0.508114  1
  O  O16  1  0.133594  0.313405  0.820056  1
  O  O17  1  0.508114  0.687993  0.824257  1
  O  O18  1  0.179944  0.866406  0.686595  1
