# generated using pymatgen
data_Li8BiS6
_symmetry_space_group_name_H-M   'P 1'
_cell_length_a   7.11463083
_cell_length_b   7.11463083
_cell_length_c   13.47914273
_cell_angle_alpha   90.00000000
_cell_angle_beta   90.00000000
_cell_angle_gamma   120.00000000
_symmetry_Int_Tables_number   1
_chemical_formula_structural   Li8BiS6
_chemical_formula_sum   'Li16 Bi2 S12'
_cell_volume   590.87776024
_cell_formula_units_Z   2
loop_
 _symmetry_equiv_pos_site_id
 _symmetry_equiv_pos_as_xyz
  1  'x, y, z'
loop_
 _atom_site_type_symbol
 _atom_site_label
 _atom_site_symmetry_multiplicity
 _atom_site_fract_x
 _atom_site_fract_y
 _atom_site_fract_z
 _atom_site_occupancy
  Li  Li0  1  0.000000  0.674066  0.765500  1
  Li  Li1  1  0.000000  0.611192  0.132805  1
  Li  Li2  1  0.000000  0.388808  0.632805  1
  Li  Li3  1  0.000000  0.325934  0.265500  1
  Li  Li4  1  0.333333  0.666667  0.396091  1
  Li  Li5  1  0.333333  0.666667  0.896091  1
  Li  Li6  1  0.325934  0.325934  0.765500  1
  Li  Li7  1  0.388808  0.388808  0.132805  1
  Li  Li8  1  0.611192  0.611192  0.632805  1
  Li  Li9  1  0.325934  0.000000  0.265500  1
  Li  Li10  1  0.674066  0.674066  0.265500  1
  Li  Li11  1  0.388808  0.000000  0.632805  1
  Li  Li12  1  0.666667  0.333333  0.896091  1
  Li  Li13  1  0.666667  0.333333  0.396091  1
  Li  Li14  1  0.611192  0.000000  0.132805  1
  Li  Li15  1  0.674066  0.000000  0.765500  1
  Bi  Bi16  1  0.000000  0.000000  0.992205  1
  Bi  Bi17  1  0.000000  0.000000  0.492205  1
  S  S18  1  0.000000  0.646433  0.950276  1
  S  S19  1  0.000000  0.353567  0.450276  1
  S  S20  1  0.333333  0.666667  0.213633  1
  S  S21  1  0.000000  0.000000  0.188184  1
  S  S22  1  0.000000  0.000000  0.688184  1
  S  S23  1  0.333333  0.666667  0.713633  1
  S  S24  1  0.353567  0.353567  0.950276  1
  S  S25  1  0.353567  0.000000  0.450276  1
  S  S26  1  0.646433  0.646433  0.450276  1
  S  S27  1  0.666667  0.333333  0.713633  1
  S  S28  1  0.666667  0.333333  0.213633  1
  S  S29  1  0.646433  0.000000  0.950276  1
