# generated using pymatgen
data_LiPH4NO3F
_symmetry_space_group_name_H-M   'P 1'
_cell_length_a   5.52643889
_cell_length_b   5.07060884
_cell_length_c   14.52840913
_cell_angle_alpha   90.00000000
_cell_angle_beta   90.14384480
_cell_angle_gamma   90.00000000
_symmetry_Int_Tables_number   1
_chemical_formula_structural   LiPH4NO3F
_chemical_formula_sum   'Li4 P4 H16 N4 O12 F4'
_cell_volume   407.11975297
_cell_formula_units_Z   4
loop_
 _symmetry_equiv_pos_site_id
 _symmetry_equiv_pos_as_xyz
  1  'x, y, z'
loop_
 _atom_site_type_symbol
 _atom_site_label
 _atom_site_symmetry_multiplicity
 _atom_site_fract_x
 _atom_site_fract_y
 _atom_site_fract_z
 _atom_site_occupancy
  Li  Li0  1  0.184686  0.445019  0.745336  1
  Li  Li1  1  0.815314  0.945019  0.754664  1
  Li  Li2  1  0.815314  0.554981  0.254664  1
  Li  Li3  1  0.184686  0.054981  0.245336  1
  P  P4  1  0.701839  0.440816  0.855974  1
  P  P5  1  0.298161  0.940816  0.644026  1
  P  P6  1  0.298161  0.559184  0.144026  1
  P  P7  1  0.701839  0.059184  0.355974  1
  H  H8  1  0.726482  0.520493  0.516585  1
  H  H9  1  0.273518  0.020493  0.983415  1
  H  H10  1  0.273518  0.479507  0.483415  1
  H  H11  1  0.726482  0.979507  0.016585  1
  H  H12  1  0.701684  0.274738  0.597037  1
  H  H13  1  0.298316  0.774738  0.902963  1
  H  H14  1  0.298316  0.725262  0.402963  1
  H  H15  1  0.701684  0.225262  0.097037  1
  H  H16  1  0.932906  0.506524  0.601990  1
  H  H17  1  0.067094  0.006524  0.898010  1
  H  H18  1  0.067094  0.493476  0.398010  1
  H  H19  1  0.932906  0.993476  0.101990  1
  H  H20  1  0.644606  0.590527  0.624381  1
  H  H21  1  0.355394  0.090527  0.875619  1
  H  H22  1  0.355394  0.409473  0.375619  1
  H  H23  1  0.644606  0.909473  0.124381  1
  N  N24  1  0.751888  0.470091  0.584597  1
  N  N25  1  0.248112  0.970091  0.915403  1
  N  N26  1  0.248112  0.529909  0.415403  1
  N  N27  1  0.751888  0.029909  0.084597  1
  O  O28  1  0.872929  0.579124  0.789736  1
  O  O29  1  0.127071  0.079124  0.710264  1
  O  O30  1  0.127071  0.420876  0.210264  1
  O  O31  1  0.872929  0.920876  0.289736  1
  O  O32  1  0.434179  0.495957  0.839670  1
  O  O33  1  0.565821  0.995957  0.660330  1
  O  O34  1  0.565821  0.504043  0.160330  1
  O  O35  1  0.434179  0.004043  0.339670  1
  O  O36  1  0.760439  0.149004  0.871969  1
  O  O37  1  0.239561  0.649004  0.628031  1
  O  O38  1  0.239561  0.850996  0.128031  1
  O  O39  1  0.760439  0.350996  0.371969  1
  F  F40  1  0.755277  0.578772  0.955109  1
  F  F41  1  0.244723  0.078772  0.544891  1
  F  F42  1  0.244723  0.421228  0.044891  1
  F  F43  1  0.755277  0.921228  0.455109  1
