# generated using pymatgen
data_Sn(PO3)4
_symmetry_space_group_name_H-M   'P 1'
_cell_length_a   7.54529782
_cell_length_b   7.54529782
_cell_length_c   10.12879396
_cell_angle_alpha   67.99654279
_cell_angle_beta   112.00345721
_cell_angle_gamma   113.00426055
_symmetry_Int_Tables_number   1
_chemical_formula_structural   Sn(PO3)4
_chemical_formula_sum   'Sn2 P8 O24'
_cell_volume   474.20154301
_cell_formula_units_Z   2
loop_
 _symmetry_equiv_pos_site_id
 _symmetry_equiv_pos_as_xyz
  1  'x, y, z'
loop_
 _atom_site_type_symbol
 _atom_site_label
 _atom_site_symmetry_multiplicity
 _atom_site_fract_x
 _atom_site_fract_y
 _atom_site_fract_z
 _atom_site_occupancy
  Sn  Sn0  1  0.000000  0.500000  0.500000  1
  Sn  Sn1  1  0.500000  0.000000  0.000000  1
  P  P2  1  0.740583  0.748435  0.970096  1
  P  P3  1  0.748435  0.740583  0.529904  1
  P  P4  1  0.341135  0.690609  0.315924  1
  P  P5  1  0.251565  0.259417  0.470096  1
  P  P6  1  0.259417  0.251565  0.029904  1
  P  P7  1  0.690609  0.341135  0.184076  1
  P  P8  1  0.309391  0.658865  0.815924  1
  P  P9  1  0.658865  0.309391  0.684076  1
  O  O10  1  0.533107  0.662557  0.848231  1
  O  O11  1  0.652363  0.202816  0.842011  1
  O  O12  1  0.347637  0.797184  0.157989  1
  O  O13  1  0.671328  0.813380  0.066063  1
  O  O14  1  0.186620  0.328672  0.566063  1
  O  O15  1  0.337443  0.466893  0.348231  1
  O  O16  1  0.836393  0.303717  0.650041  1
  O  O17  1  0.459972  0.210280  0.575499  1
  O  O18  1  0.789720  0.540028  0.075499  1
  O  O19  1  0.123984  0.101089  0.398150  1
  O  O20  1  0.466893  0.337443  0.151769  1
  O  O21  1  0.797184  0.347637  0.342011  1
  O  O22  1  0.303717  0.836393  0.849959  1
  O  O23  1  0.101089  0.123984  0.101850  1
  O  O24  1  0.898911  0.876016  0.898150  1
  O  O25  1  0.813380  0.671328  0.433937  1
  O  O26  1  0.202816  0.652363  0.657989  1
  O  O27  1  0.328672  0.186620  0.933937  1
  O  O28  1  0.876016  0.898911  0.601850  1
  O  O29  1  0.210280  0.459972  0.924501  1
  O  O30  1  0.540028  0.789720  0.424501  1
  O  O31  1  0.163607  0.696283  0.349959  1
  O  O32  1  0.662557  0.533107  0.651769  1
  O  O33  1  0.696283  0.163607  0.150041  1
