# generated using pymatgen
data_SrTaNO2
_symmetry_space_group_name_H-M   'P 1'
_cell_length_a   5.73254115
_cell_length_b   5.73254115
_cell_length_c   8.19214268
_cell_angle_alpha   89.84763375
_cell_angle_beta   90.15236625
_cell_angle_gamma   91.06458178
_symmetry_Int_Tables_number   1
_chemical_formula_structural   SrTaNO2
_chemical_formula_sum   'Sr4 Ta4 N4 O8'
_cell_volume   269.16208440
_cell_formula_units_Z   4
loop_
 _symmetry_equiv_pos_site_id
 _symmetry_equiv_pos_as_xyz
  1  'x, y, z'
loop_
 _atom_site_type_symbol
 _atom_site_label
 _atom_site_symmetry_multiplicity
 _atom_site_fract_x
 _atom_site_fract_y
 _atom_site_fract_z
 _atom_site_occupancy
  Sr  Sr0  1  0.995640  0.005540  0.249902  1
  Sr  Sr1  1  0.497171  0.508322  0.249918  1
  Sr  Sr2  1  0.508322  0.497171  0.750082  1
  Sr  Sr3  1  0.005540  0.995640  0.750098  1
  Ta  Ta4  1  0.009260  0.491751  0.492055  1
  Ta  Ta5  1  0.993814  0.510325  0.009243  1
  Ta  Ta6  1  0.510325  0.993814  0.990757  1
  Ta  Ta7  1  0.491751  0.009260  0.507945  1
  N  N8  1  0.771887  0.771887  0.000000  1
  N  N9  1  0.521159  0.023741  0.749919  1
  N  N10  1  0.023741  0.521159  0.250081  1
  N  N11  1  0.227497  0.227497  0.500000  1
  O  O12  1  0.775742  0.775742  0.500000  1
  O  O13  1  0.476292  0.971687  0.250391  1
  O  O14  1  0.971687  0.476292  0.749609  1
  O  O15  1  0.723155  0.273796  0.024175  1
  O  O16  1  0.275290  0.725053  0.524037  1
  O  O17  1  0.725053  0.275290  0.475963  1
  O  O18  1  0.273796  0.723155  0.975825  1
  O  O19  1  0.222880  0.222880  0.000000  1
