# generated using pymatgen
data_Ho2WO6
_symmetry_space_group_name_H-M   'P 1'
_cell_length_a   5.26505853
_cell_length_b   9.12001221
_cell_length_c   9.97647724
_cell_angle_alpha   90.00000000
_cell_angle_beta   90.00000000
_cell_angle_gamma   90.00000000
_symmetry_Int_Tables_number   1
_chemical_formula_structural   Ho2WO6
_chemical_formula_sum   'Ho8 W4 O24'
_cell_volume   479.04447907
_cell_formula_units_Z   4
loop_
 _symmetry_equiv_pos_site_id
 _symmetry_equiv_pos_as_xyz
  1  'x, y, z'
loop_
 _atom_site_type_symbol
 _atom_site_label
 _atom_site_symmetry_multiplicity
 _atom_site_fract_x
 _atom_site_fract_y
 _atom_site_fract_z
 _atom_site_occupancy
  Ho  Ho0  1  0.019540  0.396920  0.034566  1
  Ho  Ho1  1  0.037755  0.280608  0.628120  1
  Ho  Ho2  1  0.462245  0.719392  0.128120  1
  Ho  Ho3  1  0.480460  0.603080  0.534566  1
  Ho  Ho4  1  0.519540  0.103080  0.965434  1
  Ho  Ho5  1  0.537755  0.219392  0.371880  1
  Ho  Ho6  1  0.962245  0.780608  0.871880  1
  Ho  Ho7  1  0.980460  0.896920  0.465434  1
  W  W8  1  0.039492  0.005008  0.152234  1
  W  W9  1  0.460508  0.994992  0.652234  1
  W  W10  1  0.539492  0.494992  0.847766  1
  W  W11  1  0.960508  0.505008  0.347766  1
  O  O12  1  0.086103  0.657481  0.469864  1
  O  O13  1  0.176796  0.547344  0.201164  1
  O  O14  1  0.179715  0.861117  0.681073  1
  O  O15  1  0.193724  0.859041  0.264840  1
  O  O16  1  0.232290  0.385372  0.432853  1
  O  O17  1  0.250751  0.090041  0.505703  1
  O  O18  1  0.249249  0.909959  0.005703  1
  O  O19  1  0.267710  0.614628  0.932853  1
  O  O20  1  0.306276  0.140959  0.764840  1
  O  O21  1  0.320285  0.138883  0.181073  1
  O  O22  1  0.323204  0.452656  0.701164  1
  O  O23  1  0.413897  0.342519  0.969864  1
  O  O24  1  0.586103  0.842519  0.530136  1
  O  O25  1  0.676796  0.952656  0.798836  1
  O  O26  1  0.679715  0.638883  0.318927  1
  O  O27  1  0.693724  0.640959  0.735160  1
  O  O28  1  0.732290  0.114628  0.567147  1
  O  O29  1  0.750751  0.409959  0.494297  1
  O  O30  1  0.749249  0.590041  0.994297  1
  O  O31  1  0.767710  0.885372  0.067147  1
  O  O32  1  0.806276  0.359041  0.235160  1
  O  O33  1  0.820285  0.361117  0.818927  1
  O  O34  1  0.823204  0.047344  0.298836  1
  O  O35  1  0.913897  0.157481  0.030136  1
