# generated using pymatgen
data_TbCeO4
_symmetry_space_group_name_H-M   'P 1'
_cell_length_a   7.74088860
_cell_length_b   7.74088860
_cell_length_c   7.74088860
_cell_angle_alpha   60.00000000
_cell_angle_beta   60.00000000
_cell_angle_gamma   60.00000000
_symmetry_Int_Tables_number   1
_chemical_formula_structural   TbCeO4
_chemical_formula_sum   'Tb4 Ce4 O16'
_cell_volume   327.98762306
_cell_formula_units_Z   4
loop_
 _symmetry_equiv_pos_site_id
 _symmetry_equiv_pos_as_xyz
  1  'x, y, z'
loop_
 _atom_site_type_symbol
 _atom_site_label
 _atom_site_symmetry_multiplicity
 _atom_site_fract_x
 _atom_site_fract_y
 _atom_site_fract_z
 _atom_site_occupancy
  Tb  Tb0  1  0.381452  0.872849  0.872849  1
  Tb  Tb1  1  0.872849  0.381452  0.872849  1
  Tb  Tb2  1  0.872849  0.872849  0.381452  1
  Tb  Tb3  1  0.872849  0.872849  0.872849  1
  Ce  Ce4  1  0.374277  0.877170  0.374277  1
  Ce  Ce5  1  0.877170  0.374277  0.374277  1
  Ce  Ce6  1  0.374277  0.374277  0.374277  1
  Ce  Ce7  1  0.374277  0.374277  0.877170  1
  O  O8  1  0.496755  0.496755  0.003245  1
  O  O9  1  0.749860  0.250140  0.250140  1
  O  O10  1  0.250140  0.749860  0.250140  1
  O  O11  1  0.500000  0.500000  0.500000  1
  O  O12  1  0.000000  0.000000  1.000000  1
  O  O13  1  0.250140  0.749860  0.749860  1
  O  O14  1  0.749860  0.250140  0.749860  1
  O  O15  1  0.496755  0.003245  0.003245  1
  O  O16  1  0.496755  0.003245  0.496755  1
  O  O17  1  0.750000  0.750000  0.750000  1
  O  O18  1  0.250140  0.250140  0.749860  1
  O  O19  1  0.003245  0.496755  0.496755  1
  O  O20  1  0.250000  0.250000  0.250000  1
  O  O21  1  0.749860  0.749860  0.250140  1
  O  O22  1  0.003245  0.496755  0.003245  1
  O  O23  1  0.003245  0.003245  0.496755  1
