# generated using pymatgen
data_La6Mn3O14
_symmetry_space_group_name_H-M   'P 1'
_cell_length_a   5.59630245
_cell_length_b   5.57201534
_cell_length_c   21.09742503
_cell_angle_alpha   90.00000000
_cell_angle_beta   105.28008285
_cell_angle_gamma   90.00000000
_symmetry_Int_Tables_number   1
_chemical_formula_structural   La6Mn3O14
_chemical_formula_sum   'La12 Mn6 O28'
_cell_volume   634.61786116
_cell_formula_units_Z   2
loop_
 _symmetry_equiv_pos_site_id
 _symmetry_equiv_pos_as_xyz
  1  'x, y, z'
loop_
 _atom_site_type_symbol
 _atom_site_label
 _atom_site_symmetry_multiplicity
 _atom_site_fract_x
 _atom_site_fract_y
 _atom_site_fract_z
 _atom_site_occupancy
  La  La0  1  0.571117  0.027539  0.323296  1
  La  La1  1  0.918617  0.013030  0.683230  1
  La  La2  1  0.733616  0.979108  0.491471  1
  La  La3  1  0.733616  0.020892  0.991471  1
  La  La4  1  0.918617  0.986970  0.183230  1
  La  La5  1  0.571117  0.972461  0.823296  1
  La  La6  1  0.443241  0.512022  0.180903  1
  La  La7  1  0.104572  0.504142  0.822597  1
  La  La8  1  0.217569  0.507560  0.990010  1
  La  La9  1  0.217569  0.492440  0.490010  1
  La  La10  1  0.104572  0.495858  0.322597  1
  La  La11  1  0.443241  0.487978  0.680903  1
  Mn  Mn12  1  0.345445  0.001558  0.096569  1
  Mn  Mn13  1  0.147638  0.005075  0.901960  1
  Mn  Mn14  1  0.147638  0.994925  0.401960  1
  Mn  Mn15  1  0.345445  0.998442  0.596569  1
  Mn  Mn16  1  0.852163  0.503710  0.597771  1
  Mn  Mn17  1  0.852163  0.496290  0.097771  1
  O  O18  1  0.114503  0.248237  0.118428  1
  O  O19  1  0.607145  0.248357  0.099771  1
  O  O20  1  0.398244  0.235753  0.414247  1
  O  O21  1  0.914901  0.241508  0.402466  1
  O  O22  1  0.590360  0.252213  0.581873  1
  O  O23  1  0.098879  0.253272  0.600160  1
  O  O24  1  0.901053  0.241832  0.888989  1
  O  O25  1  0.393615  0.239700  0.902761  1
  O  O26  1  0.199415  0.046041  0.996443  1
  O  O27  1  0.079862  0.027786  0.299828  1
  O  O28  1  0.511114  0.045878  0.707138  1
  O  O29  1  0.511114  0.954122  0.207138  1
  O  O30  1  0.079862  0.972214  0.799828  1
  O  O31  1  0.199415  0.953959  0.496443  1
  O  O32  1  0.098879  0.746728  0.100160  1
  O  O33  1  0.590360  0.747787  0.081873  1
  O  O34  1  0.901053  0.758168  0.388989  1
  O  O35  1  0.393615  0.760300  0.402761  1
  O  O36  1  0.607145  0.751643  0.599771  1
  O  O37  1  0.114503  0.751763  0.618428  1
  O  O38  1  0.914901  0.758492  0.902466  1
  O  O39  1  0.398244  0.764247  0.914247  1
  O  O40  1  0.815676  0.555973  0.508292  1
  O  O41  1  0.910954  0.542072  0.200883  1
  O  O42  1  0.465941  0.565416  0.785713  1
  O  O43  1  0.465941  0.434584  0.285713  1
  O  O44  1  0.910954  0.457928  0.700883  1
  O  O45  1  0.815676  0.444027  0.008292  1
