# generated using pymatgen
data_Li3MnPCO7
_symmetry_space_group_name_H-M   'P 1'
_cell_length_a   8.58625395
_cell_length_b   6.48146203
_cell_length_c   9.85504584
_cell_angle_alpha   90.00000000
_cell_angle_beta   94.62367878
_cell_angle_gamma   90.00000000
_symmetry_Int_Tables_number   1
_chemical_formula_structural   Li3MnPCO7
_chemical_formula_sum   'Li12 Mn4 P4 C4 O28'
_cell_volume   546.66303459
_cell_formula_units_Z   4
loop_
 _symmetry_equiv_pos_site_id
 _symmetry_equiv_pos_as_xyz
  1  'x, y, z'
loop_
 _atom_site_type_symbol
 _atom_site_label
 _atom_site_symmetry_multiplicity
 _atom_site_fract_x
 _atom_site_fract_y
 _atom_site_fract_z
 _atom_site_occupancy
  Li  Li0  1  0.899145  0.747841  0.634918  1
  Li  Li1  1  0.899145  0.752159  0.134918  1
  Li  Li2  1  0.716359  0.512654  0.367337  1
  Li  Li3  1  0.716359  0.987346  0.867337  1
  Li  Li4  1  0.649109  0.246308  0.639722  1
  Li  Li5  1  0.649109  0.253692  0.139722  1
  Li  Li6  1  0.350891  0.753692  0.360278  1
  Li  Li7  1  0.350891  0.746308  0.860278  1
  Li  Li8  1  0.283641  0.487346  0.632663  1
  Li  Li9  1  0.283641  0.012654  0.132663  1
  Li  Li10  1  0.100855  0.252159  0.365082  1
  Li  Li11  1  0.100855  0.247841  0.865082  1
  Mn  Mn12  1  0.729142  0.998430  0.380171  1
  Mn  Mn13  1  0.729142  0.501570  0.880171  1
  Mn  Mn14  1  0.270858  0.001570  0.619829  1
  Mn  Mn15  1  0.270858  0.498430  0.119829  1
  P  P16  1  0.592502  0.748642  0.609845  1
  P  P17  1  0.592502  0.751358  0.109845  1
  P  P18  1  0.407498  0.251358  0.390155  1
  P  P19  1  0.407498  0.248642  0.890155  1
  C  C20  1  0.958413  0.248424  0.602506  1
  C  C21  1  0.958413  0.251576  0.102506  1
  C  C22  1  0.041587  0.751576  0.397494  1
  C  C23  1  0.041587  0.748424  0.897494  1
  O  O24  1  0.929644  0.258901  0.727283  1
  O  O25  1  0.895078  0.752353  0.431392  1
  O  O26  1  0.929644  0.241099  0.227283  1
  O  O27  1  0.847493  0.240879  0.504748  1
  O  O28  1  0.895078  0.747647  0.931392  1
  O  O29  1  0.847493  0.259121  0.004748  1
  O  O30  1  0.690310  0.938402  0.660298  1
  O  O31  1  0.689828  0.557723  0.662899  1
  O  O32  1  0.689828  0.942277  0.162899  1
  O  O33  1  0.690310  0.561598  0.160298  1
  O  O34  1  0.574411  0.255010  0.340113  1
  O  O35  1  0.576679  0.750097  0.450435  1
  O  O36  1  0.574411  0.244990  0.840113  1
  O  O37  1  0.576679  0.749903  0.950435  1
  O  O38  1  0.423321  0.249903  0.549565  1
  O  O39  1  0.425589  0.744990  0.659887  1
  O  O40  1  0.423321  0.250097  0.049565  1
  O  O41  1  0.425589  0.755010  0.159887  1
  O  O42  1  0.309690  0.061598  0.339702  1
  O  O43  1  0.310172  0.442277  0.337101  1
  O  O44  1  0.309690  0.438402  0.839702  1
  O  O45  1  0.310172  0.057723  0.837101  1
  O  O46  1  0.152507  0.759121  0.495252  1
  O  O47  1  0.104922  0.247647  0.568608  1
  O  O48  1  0.152507  0.740879  0.995252  1
  O  O49  1  0.070356  0.741099  0.272717  1
  O  O50  1  0.104922  0.252353  0.068608  1
  O  O51  1  0.070356  0.758901  0.772717  1
