# generated using pymatgen
data_Ta2PbO6
_symmetry_space_group_name_H-M   'P 1'
_cell_length_a   5.27359911
_cell_length_b   6.13279900
_cell_length_c   15.90032188
_cell_angle_alpha   90.00000000
_cell_angle_beta   90.00000000
_cell_angle_gamma   90.00000000
_symmetry_Int_Tables_number   1
_chemical_formula_structural   Ta2PbO6
_chemical_formula_sum   'Ta8 Pb4 O24'
_cell_volume   514.24699136
_cell_formula_units_Z   4
loop_
 _symmetry_equiv_pos_site_id
 _symmetry_equiv_pos_as_xyz
  1  'x, y, z'
loop_
 _atom_site_type_symbol
 _atom_site_label
 _atom_site_symmetry_multiplicity
 _atom_site_fract_x
 _atom_site_fract_y
 _atom_site_fract_z
 _atom_site_occupancy
  Ta  Ta0  1  0.729321  0.674974  0.671260  1
  Ta  Ta1  1  0.229321  0.325026  0.671260  1
  Ta  Ta2  1  0.229321  0.825026  0.828740  1
  Ta  Ta3  1  0.729321  0.174974  0.828740  1
  Ta  Ta4  1  0.270679  0.825026  0.171260  1
  Ta  Ta5  1  0.770679  0.174974  0.171260  1
  Ta  Ta6  1  0.770679  0.674974  0.328740  1
  Ta  Ta7  1  0.270679  0.325026  0.328740  1
  Pb  Pb8  1  0.250000  0.794955  0.500000  1
  Pb  Pb9  1  0.750000  0.205045  0.500000  1
  Pb  Pb10  1  0.750000  0.705045  0.000000  1
  Pb  Pb11  1  0.250000  0.294955  0.000000  1
  O  O12  1  0.632834  0.875254  0.592921  1
  O  O13  1  0.132834  0.124746  0.592921  1
  O  O14  1  0.034991  0.574514  0.614252  1
  O  O15  1  0.534991  0.425486  0.614252  1
  O  O16  1  0.908039  0.357063  0.745222  1
  O  O17  1  0.408039  0.642937  0.745222  1
  O  O18  1  0.908039  0.857063  0.754778  1
  O  O19  1  0.408039  0.142937  0.754778  1
  O  O20  1  0.534991  0.925486  0.885748  1
  O  O21  1  0.034991  0.074514  0.885748  1
  O  O22  1  0.132834  0.624746  0.907079  1
  O  O23  1  0.632834  0.375254  0.907079  1
  O  O24  1  0.367166  0.624746  0.092921  1
  O  O25  1  0.867166  0.375254  0.092921  1
  O  O26  1  0.965009  0.925486  0.114252  1
  O  O27  1  0.465009  0.074514  0.114252  1
  O  O28  1  0.591961  0.857063  0.245222  1
  O  O29  1  0.091961  0.142937  0.245222  1
  O  O30  1  0.091961  0.642937  0.254778  1
  O  O31  1  0.591961  0.357063  0.254778  1
  O  O32  1  0.465009  0.574514  0.385748  1
  O  O33  1  0.965009  0.425486  0.385748  1
  O  O34  1  0.867166  0.875254  0.407079  1
  O  O35  1  0.367166  0.124746  0.407079  1
