# generated using pymatgen
data_Li2TiCuO4
_symmetry_space_group_name_H-M   'P 1'
_cell_length_a   5.46620125
_cell_length_b   5.46620125
_cell_length_c   5.46620125
_cell_angle_alpha   137.25130334
_cell_angle_beta   137.25130334
_cell_angle_gamma   62.05161934
_symmetry_Int_Tables_number   1
_chemical_formula_structural   Li2TiCuO4
_chemical_formula_sum   'Li2 Ti1 Cu1 O4'
_cell_volume   74.36427586
_cell_formula_units_Z   1
loop_
 _symmetry_equiv_pos_site_id
 _symmetry_equiv_pos_as_xyz
  1  'x, y, z'
loop_
 _atom_site_type_symbol
 _atom_site_label
 _atom_site_symmetry_multiplicity
 _atom_site_fract_x
 _atom_site_fract_y
 _atom_site_fract_z
 _atom_site_occupancy
  Li  Li0  1  0.500000  0.500000  0.000000  1
  Li  Li1  1  0.750000  0.250000  0.500000  1
  Ti  Ti2  1  0.000000  0.000000  0.000000  1
  Cu  Cu3  1  0.250000  0.750000  0.500000  1
  O  O4  1  0.786231  0.786231  0.000000  1
  O  O5  1  0.502877  0.002877  0.500000  1
  O  O6  1  0.213769  0.213769  0.000000  1
  O  O7  1  0.997123  0.497123  0.500000  1
