# generated using pymatgen
data_SrPSe3
_symmetry_space_group_name_H-M   'P 1'
_cell_length_a   7.13022560
_cell_length_b   7.91294961
_cell_length_c   12.02173742
_cell_angle_alpha   90.00000000
_cell_angle_beta   124.52470650
_cell_angle_gamma   90.00000000
_symmetry_Int_Tables_number   1
_chemical_formula_structural   SrPSe3
_chemical_formula_sum   'Sr4 P4 Se12'
_cell_volume   558.82246451
_cell_formula_units_Z   4
loop_
 _symmetry_equiv_pos_site_id
 _symmetry_equiv_pos_as_xyz
  1  'x, y, z'
loop_
 _atom_site_type_symbol
 _atom_site_label
 _atom_site_symmetry_multiplicity
 _atom_site_fract_x
 _atom_site_fract_y
 _atom_site_fract_z
 _atom_site_occupancy
  Sr  Sr0  1  0.216115  0.890388  0.751147  1
  Sr  Sr1  1  0.783885  0.390388  0.748853  1
  Sr  Sr2  1  0.783885  0.109612  0.248853  1
  Sr  Sr3  1  0.216115  0.609612  0.251147  1
  P  P4  1  0.878093  0.894264  0.936352  1
  P  P5  1  0.121907  0.394264  0.563648  1
  P  P6  1  0.121907  0.105736  0.063648  1
  P  P7  1  0.878093  0.605736  0.436352  1
  Se  Se8  1  0.632593  0.498650  0.234552  1
  Se  Se9  1  0.367407  0.998650  0.265448  1
  Se  Se10  1  0.367407  0.501350  0.765448  1
  Se  Se11  1  0.632593  0.001350  0.734552  1
  Se  Se12  1  0.724310  0.699542  0.541382  1
  Se  Se13  1  0.275690  0.199542  0.958618  1
  Se  Se14  1  0.275690  0.300458  0.458618  1
  Se  Se15  1  0.724310  0.800458  0.041382  1
  Se  Se16  1  0.106190  0.802089  0.444632  1
  Se  Se17  1  0.893810  0.302089  0.055368  1
  Se  Se18  1  0.893810  0.197911  0.555368  1
  Se  Se19  1  0.106190  0.697911  0.944632  1
