# generated using pymatgen
data_LiMnAsCO7
_symmetry_space_group_name_H-M   'P 1'
_cell_length_a   5.21530672
_cell_length_b   6.41167108
_cell_length_c   8.90729946
_cell_angle_alpha   90.00000000
_cell_angle_beta   94.17845169
_cell_angle_gamma   90.00000000
_symmetry_Int_Tables_number   1
_chemical_formula_structural   LiMnAsCO7
_chemical_formula_sum   'Li2 Mn2 As2 C2 O14'
_cell_volume   297.05798431
_cell_formula_units_Z   2
loop_
 _symmetry_equiv_pos_site_id
 _symmetry_equiv_pos_as_xyz
  1  'x, y, z'
loop_
 _atom_site_type_symbol
 _atom_site_label
 _atom_site_symmetry_multiplicity
 _atom_site_fract_x
 _atom_site_fract_y
 _atom_site_fract_z
 _atom_site_occupancy
  Li  Li0  1  0.780147  0.498537  0.209655  1
  Li  Li1  1  0.219853  0.998537  0.790345  1
  Mn  Mn2  1  0.204869  0.249439  0.332311  1
  Mn  Mn3  1  0.795131  0.749439  0.667689  1
  As  As4  1  0.279171  0.754320  0.430422  1
  As  As5  1  0.720829  0.254320  0.569578  1
  C  C6  1  0.275412  0.250040  0.067288  1
  C  C7  1  0.724588  0.750040  0.932712  1
  O  O8  1  0.688067  0.722653  0.066169  1
  O  O9  1  0.047118  0.255778  0.123406  1
  O  O10  1  0.460311  0.269951  0.177023  1
  O  O11  1  0.200258  0.954520  0.308969  1
  O  O12  1  0.171915  0.550380  0.317825  1
  O  O13  1  0.856355  0.263107  0.400416  1
  O  O14  1  0.607494  0.733426  0.471747  1
  O  O15  1  0.392506  0.233426  0.528253  1
  O  O16  1  0.143645  0.763107  0.599584  1
  O  O17  1  0.828085  0.050380  0.682175  1
  O  O18  1  0.799742  0.454520  0.691031  1
  O  O19  1  0.539689  0.769951  0.822977  1
  O  O20  1  0.952882  0.755778  0.876594  1
  O  O21  1  0.311933  0.222653  0.933831  1
