# generated using pymatgen
data_P2H12BrN7
_symmetry_space_group_name_H-M   'P 1'
_cell_length_a   6.09279233
_cell_length_b   7.53118102
_cell_length_c   11.32095944
_cell_angle_alpha   108.63590912
_cell_angle_beta   104.46292009
_cell_angle_gamma   90.68150005
_symmetry_Int_Tables_number   1
_chemical_formula_structural   P2H12BrN7
_chemical_formula_sum   'P4 H24 Br2 N14'
_cell_volume   474.25007977
_cell_formula_units_Z   2
loop_
 _symmetry_equiv_pos_site_id
 _symmetry_equiv_pos_as_xyz
  1  'x, y, z'
loop_
 _atom_site_type_symbol
 _atom_site_label
 _atom_site_symmetry_multiplicity
 _atom_site_fract_x
 _atom_site_fract_y
 _atom_site_fract_z
 _atom_site_occupancy
  P  P0  1  0.225122  0.310897  0.065936  1
  P  P1  1  0.403792  0.640988  0.299210  1
  P  P2  1  0.596208  0.359012  0.700790  1
  P  P3  1  0.774878  0.689103  0.934064  1
  H  H4  1  0.098928  0.742782  0.878315  1
  H  H5  1  0.192150  0.155444  0.847768  1
  H  H6  1  0.377667  0.356163  0.909141  1
  H  H7  1  0.248099  0.477436  0.656643  1
  H  H8  1  0.246071  0.261972  0.547439  1
  H  H9  1  0.224646  0.643738  0.458051  1
  H  H10  1  0.180017  0.427872  0.340086  1
  H  H11  1  0.214496  0.910953  0.322629  1
  H  H12  1  0.504074  0.831498  0.818971  1
  H  H13  1  0.155013  0.666512  0.008765  1
  H  H14  1  0.500128  0.045131  0.666743  1
  H  H15  1  0.245708  0.024863  0.096457  1
  H  H16  1  0.754292  0.975137  0.903543  1
  H  H17  1  0.499872  0.954869  0.333257  1
  H  H18  1  0.844987  0.333488  0.991235  1
  H  H19  1  0.495926  0.168502  0.181029  1
  H  H20  1  0.785504  0.089047  0.677371  1
  H  H21  1  0.819983  0.572128  0.659914  1
  H  H22  1  0.775354  0.356262  0.541949  1
  H  H23  1  0.753929  0.738028  0.452561  1
  H  H24  1  0.751901  0.522564  0.343357  1
  H  H25  1  0.622333  0.643837  0.090859  1
  H  H26  1  0.807850  0.844556  0.152232  1
  H  H27  1  0.901072  0.257218  0.121685  1
  Br  Br28  1  0.127125  0.837617  0.673162  1
  Br  Br29  1  0.872875  0.162383  0.326838  1
  N  N30  1  0.052806  0.740762  0.959261  1
  N  N31  1  0.245379  0.283058  0.919561  1
  N  N32  1  0.320071  0.353297  0.638342  1
  N  N33  1  0.222800  0.568851  0.364433  1
  N  N34  1  0.372578  0.865016  0.332612  1
  N  N35  1  0.647266  0.484242  0.851081  1
  N  N36  1  0.675333  0.840900  0.862077  1
  N  N37  1  0.324667  0.159100  0.137923  1
  N  N38  1  0.352734  0.515758  0.148919  1
  N  N39  1  0.627422  0.134984  0.667388  1
  N  N40  1  0.777200  0.431149  0.635567  1
  N  N41  1  0.679929  0.646703  0.361658  1
  N  N42  1  0.754621  0.716942  0.080439  1
  N  N43  1  0.947194  0.259238  0.040739  1
