# generated using pymatgen
data_In3Cu3O8
_symmetry_space_group_name_H-M   'P 1'
_cell_length_a   6.02600590
_cell_length_b   10.25796641
_cell_length_c   6.19008855
_cell_angle_alpha   90.00000000
_cell_angle_beta   110.08596038
_cell_angle_gamma   90.00000000
_symmetry_Int_Tables_number   1
_chemical_formula_structural   In3Cu3O8
_chemical_formula_sum   'In6 Cu6 O16'
_cell_volume   359.36501766
_cell_formula_units_Z   2
loop_
 _symmetry_equiv_pos_site_id
 _symmetry_equiv_pos_as_xyz
  1  'x, y, z'
loop_
 _atom_site_type_symbol
 _atom_site_label
 _atom_site_symmetry_multiplicity
 _atom_site_fract_x
 _atom_site_fract_y
 _atom_site_fract_z
 _atom_site_occupancy
  In  In0  1  0.484816  0.166705  0.960093  1
  In  In1  1  0.500000  0.500000  0.000000  1
  In  In2  1  0.000000  0.000000  0.000000  1
  In  In3  1  0.515184  0.833295  0.039907  1
  In  In4  1  0.984816  0.333295  0.960093  1
  In  In5  1  0.015184  0.666705  0.039907  1
  Cu  Cu6  1  0.500000  0.000000  0.500000  1
  Cu  Cu7  1  0.515526  0.307451  0.484673  1
  Cu  Cu8  1  0.015526  0.192549  0.484673  1
  Cu  Cu9  1  0.484474  0.692549  0.515327  1
  Cu  Cu10  1  0.000000  0.500000  0.500000  1
  Cu  Cu11  1  0.984474  0.807451  0.515327  1
  O  O12  1  0.338594  0.155115  0.520846  1
  O  O13  1  0.391130  0.010065  0.173417  1
  O  O14  1  0.383992  0.328666  0.157511  1
  O  O15  1  0.090652  0.159600  0.805035  1
  O  O16  1  0.838594  0.344885  0.520846  1
  O  O17  1  0.108870  0.510065  0.826583  1
  O  O18  1  0.608870  0.989935  0.826583  1
  O  O19  1  0.409348  0.659600  0.194965  1
  O  O20  1  0.883992  0.171334  0.157511  1
  O  O21  1  0.161406  0.655115  0.479154  1
  O  O22  1  0.590652  0.340400  0.805035  1
  O  O23  1  0.116008  0.828666  0.842489  1
  O  O24  1  0.891130  0.489935  0.173417  1
  O  O25  1  0.616008  0.671334  0.842489  1
  O  O26  1  0.909348  0.840400  0.194965  1
  O  O27  1  0.661406  0.844885  0.479154  1
