# generated using pymatgen
data_Y2O3
_symmetry_space_group_name_H-M   'P 1'
_cell_length_a   9.20334610
_cell_length_b   3.42010750
_cell_length_c   9.35969399
_cell_angle_alpha   90.00000000
_cell_angle_beta   106.58594072
_cell_angle_gamma   90.00000000
_symmetry_Int_Tables_number   1
_chemical_formula_structural   Y2O3
_chemical_formula_sum   'Y8 O12'
_cell_volume   282.35184819
_cell_formula_units_Z   4
loop_
 _symmetry_equiv_pos_site_id
 _symmetry_equiv_pos_as_xyz
  1  'x, y, z'
loop_
 _atom_site_type_symbol
 _atom_site_label
 _atom_site_symmetry_multiplicity
 _atom_site_fract_x
 _atom_site_fract_y
 _atom_site_fract_z
 _atom_site_occupancy
  Y  Y0  1  0.819708  0.250000  0.988191  1
  Y  Y1  1  0.451453  0.250000  0.815999  1
  Y  Y2  1  0.060864  0.250000  0.670911  1
  Y  Y3  1  0.665858  0.750000  0.586985  1
  Y  Y4  1  0.334142  0.250000  0.413015  1
  Y  Y5  1  0.939136  0.750000  0.329089  1
  Y  Y6  1  0.548547  0.750000  0.184001  1
  Y  Y7  1  0.180292  0.750000  0.011809  1
  O  O8  1  0.036248  0.250000  0.899489  1
  O  O9  1  0.605670  0.750000  0.954483  1
  O  O10  1  0.235555  0.750000  0.778112  1
  O  O11  1  0.689991  0.250000  0.745162  1
  O  O12  1  0.421021  0.750000  0.596086  1
  O  O13  1  0.094545  0.250000  0.432868  1
  O  O14  1  0.905455  0.750000  0.567132  1
  O  O15  1  0.578979  0.250000  0.403914  1
  O  O16  1  0.310009  0.750000  0.254838  1
  O  O17  1  0.764445  0.250000  0.221888  1
  O  O18  1  0.394330  0.250000  0.045517  1
  O  O19  1  0.963752  0.750000  0.100511  1
