# generated using pymatgen
data_PH11(NO2)2
_symmetry_space_group_name_H-M   'P 1'
_cell_length_a   6.37488894
_cell_length_b   8.27735725
_cell_length_c   12.76716155
_cell_angle_alpha   90.00000000
_cell_angle_beta   98.84718565
_cell_angle_gamma   90.00000000
_symmetry_Int_Tables_number   1
_chemical_formula_structural   PH11(NO2)2
_chemical_formula_sum   'P4 H44 N8 O16'
_cell_volume   665.67229110
_cell_formula_units_Z   4
loop_
 _symmetry_equiv_pos_site_id
 _symmetry_equiv_pos_as_xyz
  1  'x, y, z'
loop_
 _atom_site_type_symbol
 _atom_site_label
 _atom_site_symmetry_multiplicity
 _atom_site_fract_x
 _atom_site_fract_y
 _atom_site_fract_z
 _atom_site_occupancy
  P  P0  1  0.792791  0.066486  0.635670  1
  P  P1  1  0.207209  0.566486  0.864330  1
  P  P2  1  0.207209  0.933514  0.364330  1
  P  P3  1  0.792791  0.433514  0.135670  1
  H  H4  1  0.244836  0.063287  0.437554  1
  H  H5  1  0.755164  0.563287  0.062446  1
  H  H6  1  0.755164  0.936713  0.562446  1
  H  H7  1  0.244836  0.436713  0.937554  1
  H  H8  1  0.326240  0.793612  0.192482  1
  H  H9  1  0.673760  0.293612  0.307518  1
  H  H10  1  0.673760  0.206388  0.807518  1
  H  H11  1  0.326240  0.706388  0.692482  1
  H  H12  1  0.308901  0.707671  0.067301  1
  H  H13  1  0.691099  0.207671  0.432699  1
  H  H14  1  0.691099  0.292329  0.932699  1
  H  H15  1  0.308901  0.792329  0.567301  1
  H  H16  1  0.190056  0.615030  0.161587  1
  H  H17  1  0.809944  0.115030  0.338413  1
  H  H18  1  0.809944  0.384970  0.838413  1
  H  H19  1  0.190056  0.884970  0.661587  1
  H  H20  1  0.454627  0.616181  0.174895  1
  H  H21  1  0.545373  0.116181  0.325105  1
  H  H22  1  0.545373  0.383819  0.825105  1
  H  H23  1  0.454627  0.883819  0.674895  1
  H  H24  1  0.816079  0.782752  0.379112  1
  H  H25  1  0.183921  0.282752  0.120888  1
  H  H26  1  0.183921  0.217248  0.620888  1
  H  H27  1  0.816079  0.717248  0.879112  1
  H  H28  1  0.716490  0.599988  0.341299  1
  H  H29  1  0.283510  0.099988  0.158701  1
  H  H30  1  0.283510  0.400012  0.658701  1
  H  H31  1  0.716490  0.900012  0.841299  1
  H  H32  1  0.565178  0.728424  0.402296  1
  H  H33  1  0.434822  0.228424  0.097704  1
  H  H34  1  0.434822  0.271576  0.597704  1
  H  H35  1  0.565178  0.771576  0.902296  1
  H  H36  1  0.779548  0.641741  0.474597  1
  H  H37  1  0.220452  0.141741  0.025403  1
  H  H38  1  0.220452  0.358259  0.525403  1
  H  H39  1  0.779548  0.858259  0.974597  1
  H  H40  1  0.788893  0.067984  0.093032  1
  H  H41  1  0.211107  0.567984  0.406968  1
  H  H42  1  0.211107  0.932016  0.906968  1
  H  H43  1  0.788893  0.432016  0.593032  1
  H  H44  1  0.877086  0.934973  0.177190  1
  H  H45  1  0.122914  0.434973  0.322810  1
  H  H46  1  0.122914  0.065027  0.822810  1
  H  H47  1  0.877086  0.565027  0.677190  1
  N  N48  1  0.680531  0.314031  0.851166  1
  N  N49  1  0.319469  0.814031  0.648834  1
  N  N50  1  0.319469  0.685969  0.148834  1
  N  N51  1  0.680531  0.185969  0.351166  1
  N  N52  1  0.719939  0.811747  0.900001  1
  N  N53  1  0.280061  0.311747  0.599999  1
  N  N54  1  0.280061  0.188253  0.099999  1
  N  N55  1  0.719939  0.688253  0.400001  1
  O  O56  1  0.709600  0.219289  0.573641  1
  O  O57  1  0.290400  0.719289  0.926359  1
  O  O58  1  0.290400  0.780711  0.426359  1
  O  O59  1  0.709600  0.280711  0.073641  1
  O  O60  1  0.034430  0.068270  0.674270  1
  O  O61  1  0.965570  0.568270  0.825730  1
  O  O62  1  0.965570  0.931730  0.325730  1
  O  O63  1  0.034430  0.431730  0.174270  1
  O  O64  1  0.662728  0.027135  0.724948  1
  O  O65  1  0.337272  0.527135  0.775052  1
  O  O66  1  0.337272  0.972865  0.275052  1
  O  O67  1  0.662728  0.472865  0.224948  1
  O  O68  1  0.824089  0.951439  0.101199  1
  O  O69  1  0.175911  0.451439  0.398801  1
  O  O70  1  0.175911  0.048561  0.898801  1
  O  O71  1  0.824089  0.548561  0.601199  1
