# generated using pymatgen
data_La6Cu6O17
_symmetry_space_group_name_H-M   'P 1'
_cell_length_a   6.75230163
_cell_length_b   6.75230163
_cell_length_c   10.46943997
_cell_angle_alpha   90.00000000
_cell_angle_beta   90.00000000
_cell_angle_gamma   120.00000000
_symmetry_Int_Tables_number   1
_chemical_formula_structural   La6Cu6O17
_chemical_formula_sum   'La6 Cu6 O17'
_cell_volume   413.38789174
_cell_formula_units_Z   1
loop_
 _symmetry_equiv_pos_site_id
 _symmetry_equiv_pos_as_xyz
  1  'x, y, z'
loop_
 _atom_site_type_symbol
 _atom_site_label
 _atom_site_symmetry_multiplicity
 _atom_site_fract_x
 _atom_site_fract_y
 _atom_site_fract_z
 _atom_site_occupancy
  La  La0  1  0.000000  0.000000  0.269437  1
  La  La1  1  0.333333  0.666667  0.746461  1
  La  La2  1  0.333333  0.666667  0.253539  1
  La  La3  1  0.000000  0.000000  0.730563  1
  La  La4  1  0.666667  0.333333  0.790350  1
  La  La5  1  0.666667  0.333333  0.209650  1
  Cu  Cu6  1  0.671356  0.835678  0.000000  1
  Cu  Cu7  1  0.164322  0.328644  0.000000  1
  Cu  Cu8  1  0.504513  0.495487  0.500000  1
  Cu  Cu9  1  0.164322  0.835678  0.000000  1
  Cu  Cu10  1  0.504513  0.009027  0.500000  1
  Cu  Cu11  1  0.990973  0.495487  0.500000  1
  O  O12  1  0.673606  0.971712  0.843618  1
  O  O13  1  0.673606  0.701895  0.156382  1
  O  O14  1  0.028288  0.326394  0.156382  1
  O  O15  1  0.333333  0.666667  0.500000  1
  O  O16  1  0.333333  0.666667  0.000000  1
  O  O17  1  0.000000  0.000000  0.000000  1
  O  O18  1  0.298105  0.326394  0.843618  1
  O  O19  1  0.028288  0.701895  0.843618  1
  O  O20  1  0.346799  0.336907  0.353108  1
  O  O21  1  0.298105  0.971712  0.156382  1
  O  O22  1  0.663093  0.653201  0.646892  1
  O  O23  1  0.346799  0.009891  0.646892  1
  O  O24  1  0.666667  0.333333  0.000000  1
  O  O25  1  0.666667  0.333333  0.500000  1
  O  O26  1  0.663093  0.009891  0.353108  1
  O  O27  1  0.990109  0.653201  0.353108  1
  O  O28  1  0.990109  0.336907  0.646892  1
