# generated using pymatgen
data_Li4Bi2C4SO16
_symmetry_space_group_name_H-M   'P 1'
_cell_length_a   10.29571179
_cell_length_b   10.05380521
_cell_length_c   9.59276967
_cell_angle_alpha   63.15678680
_cell_angle_beta   60.60789350
_cell_angle_gamma   56.23531970
_symmetry_Int_Tables_number   1
_chemical_formula_structural   Li4Bi2C4SO16
_chemical_formula_sum   'Li8 Bi4 C8 S2 O32'
_cell_volume   696.96645812
_cell_formula_units_Z   2
loop_
 _symmetry_equiv_pos_site_id
 _symmetry_equiv_pos_as_xyz
  1  'x, y, z'
loop_
 _atom_site_type_symbol
 _atom_site_label
 _atom_site_symmetry_multiplicity
 _atom_site_fract_x
 _atom_site_fract_y
 _atom_site_fract_z
 _atom_site_occupancy
  Li  Li0  1  0.560063  0.939937  0.560063  1
  Li  Li1  1  0.947855  0.552145  0.552145  1
  Li  Li2  1  0.697855  0.302145  0.302145  1
  Li  Li3  1  0.310063  0.689937  0.310063  1
  Li  Li4  1  0.939937  0.560063  0.939937  1
  Li  Li5  1  0.552145  0.947855  0.947855  1
  Li  Li6  1  0.302145  0.697855  0.697855  1
  Li  Li7  1  0.689937  0.310063  0.689937  1
  Bi  Bi8  1  0.125000  0.125000  0.625000  1
  Bi  Bi9  1  0.125000  0.125000  0.125000  1
  Bi  Bi10  1  0.625000  0.125000  0.125000  1
  Bi  Bi11  1  0.125000  0.625000  0.125000  1
  C  C12  1  0.902455  0.916986  0.305879  1
  C  C13  1  0.333014  0.347545  0.375319  1
  C  C14  1  0.305879  0.874681  0.902455  1
  C  C15  1  0.874681  0.305879  0.916986  1
  C  C16  1  0.375319  0.944121  0.333014  1
  C  C17  1  0.944121  0.375319  0.347545  1
  C  C18  1  0.916986  0.902455  0.874681  1
  C  C19  1  0.347545  0.333014  0.944121  1
  S  S20  1  0.500000  0.500000  0.500000  1
  S  S21  1  0.750000  0.750000  0.750000  1
  O  O22  1  0.774279  0.914529  0.312548  1
  O  O23  1  0.577209  0.315344  0.550380  1
  O  O24  1  0.897010  0.053328  0.293327  1
  O  O25  1  0.196672  0.352990  0.493666  1
  O  O26  1  0.293327  0.756334  0.897010  1
  O  O27  1  0.469551  0.212155  0.375486  1
  O  O28  1  0.550380  0.557066  0.577209  1
  O  O29  1  0.315344  0.577209  0.557066  1
  O  O30  1  0.942807  0.375486  0.212155  1
  O  O31  1  0.756334  0.293327  0.053328  1
  O  O32  1  0.335471  0.475721  0.251356  1
  O  O33  1  0.557066  0.550380  0.315344  1
  O  O34  1  0.312548  0.998644  0.774279  1
  O  O35  1  0.998644  0.312548  0.914529  1
  O  O36  1  0.037845  0.780449  0.307193  1
  O  O37  1  0.375486  0.942807  0.469551  1
  O  O38  1  0.874514  0.307193  0.780449  1
  O  O39  1  0.212155  0.469551  0.942807  1
  O  O40  1  0.251356  0.937452  0.335471  1
  O  O41  1  0.937452  0.251356  0.475721  1
  O  O42  1  0.692934  0.699620  0.934656  1
  O  O43  1  0.914529  0.774279  0.998644  1
  O  O44  1  0.493666  0.956673  0.196672  1
  O  O45  1  0.307193  0.874514  0.037845  1
  O  O46  1  0.934656  0.672791  0.692934  1
  O  O47  1  0.699620  0.692934  0.672791  1
  O  O48  1  0.780449  0.037845  0.874514  1
  O  O49  1  0.956673  0.493666  0.352990  1
  O  O50  1  0.053328  0.897010  0.756334  1
  O  O51  1  0.352990  0.196672  0.956673  1
  O  O52  1  0.672791  0.934656  0.699620  1
  O  O53  1  0.475721  0.335471  0.937452  1
