# generated using pymatgen
data_Li8Mn9O18
_symmetry_space_group_name_H-M   'P 1'
_cell_length_a   6.54537945
_cell_length_b   6.54711208
_cell_length_c   16.38282494
_cell_angle_alpha   85.49534560
_cell_angle_beta   85.56666589
_cell_angle_gamma   82.53534379
_symmetry_Int_Tables_number   1
_chemical_formula_structural   Li8Mn9O18
_chemical_formula_sum   'Li16 Mn18 O36'
_cell_volume   692.35796430
_cell_formula_units_Z   2
loop_
 _symmetry_equiv_pos_site_id
 _symmetry_equiv_pos_as_xyz
  1  'x, y, z'
loop_
 _atom_site_type_symbol
 _atom_site_label
 _atom_site_symmetry_multiplicity
 _atom_site_fract_x
 _atom_site_fract_y
 _atom_site_fract_z
 _atom_site_occupancy
  Li  Li0  1  0.087822  0.415954  0.247868  1
  Li  Li1  1  0.084387  0.424300  0.580671  1
  Li  Li2  1  0.080532  0.408953  0.922151  1
  Li  Li3  1  0.265232  0.246609  0.413758  1
  Li  Li4  1  0.247826  0.247736  0.747367  1
  Li  Li5  1  0.418417  0.081555  0.253134  1
  Li  Li6  1  0.427978  0.087547  0.574683  1
  Li  Li7  1  0.407870  0.080449  0.923461  1
  Li  Li8  1  0.567935  0.929046  0.086370  1
  Li  Li9  1  0.745675  0.752179  0.251461  1
  Li  Li10  1  0.576545  0.910586  0.757673  1
  Li  Li11  1  0.756999  0.762735  0.571552  1
  Li  Li12  1  0.928009  0.568083  0.086384  1
  Li  Li13  1  0.908952  0.602878  0.408394  1
  Li  Li14  1  0.745916  0.745663  0.924046  1
  Li  Li15  1  0.910670  0.579771  0.755847  1
  Mn  Mn16  1  0.507548  0.511873  0.498982  1
  Mn  Mn17  1  0.830687  0.162163  0.834800  1
  Mn  Mn18  1  0.998926  0.999912  0.665441  1
  Mn  Mn19  1  0.996818  0.996759  0.003032  1
  Mn  Mn20  1  0.998540  0.999878  0.333297  1
  Mn  Mn21  1  0.169267  0.836509  0.167754  1
  Mn  Mn22  1  0.327705  0.660350  0.000919  1
  Mn  Mn23  1  0.183286  0.844272  0.496040  1
  Mn  Mn24  1  0.338046  0.668799  0.333278  1
  Mn  Mn25  1  0.162125  0.830192  0.834668  1
  Mn  Mn26  1  0.500872  0.499785  0.165659  1
  Mn  Mn27  1  0.327692  0.666396  0.667660  1
  Mn  Mn28  1  0.661121  0.327754  0.000925  1
  Mn  Mn29  1  0.664450  0.327806  0.333383  1
  Mn  Mn30  1  0.496481  0.496073  0.833935  1
  Mn  Mn31  1  0.664688  0.329732  0.667579  1
  Mn  Mn32  1  0.835965  0.168543  0.168033  1
  Mn  Mn33  1  0.839598  0.178153  0.496381  1
  O  O34  1  0.102592  0.100376  0.223160  1
  O  O35  1  0.050678  0.719469  0.299597  1
  O  O36  1  0.120695  0.122723  0.534394  1
  O  O37  1  0.218559  0.558890  0.131046  1
  O  O38  1  0.044362  0.720679  0.628901  1
  O  O39  1  0.112477  0.111822  0.870220  1
  O  O40  1  0.281109  0.939889  0.035476  1
  O  O41  1  0.047142  0.713188  0.964911  1
  O  O42  1  0.225079  0.561176  0.463629  1
  O  O43  1  0.276236  0.953514  0.366739  1
  O  O44  1  0.382688  0.385100  0.296838  1
  O  O45  1  0.215794  0.546987  0.798969  1
  O  O46  1  0.277529  0.944296  0.705352  1
  O  O47  1  0.451212  0.784318  0.202460  1
  O  O48  1  0.383002  0.384306  0.633492  1
  O  O49  1  0.559311  0.219492  0.129650  1
  O  O50  1  0.610330  0.610680  0.034554  1
  O  O51  1  0.449391  0.780179  0.546745  1
  O  O52  1  0.396479  0.395871  0.944153  1
  O  O53  1  0.556550  0.232168  0.465481  1
  O  O54  1  0.619295  0.606745  0.367533  1
  O  O55  1  0.447748  0.776417  0.867905  1
  O  O56  1  0.724422  0.053247  0.292865  1
  O  O57  1  0.548060  0.215953  0.798213  1
  O  O58  1  0.785797  0.452079  0.200892  1
  O  O59  1  0.597906  0.597572  0.722030  1
  O  O60  1  0.720963  0.051968  0.625847  1
  O  O61  1  0.941560  0.281069  0.034438  1
  O  O62  1  0.785986  0.458249  0.538770  1
  O  O63  1  0.713228  0.047329  0.964671  1
  O  O64  1  0.889233  0.888157  0.130952  1
  O  O65  1  0.950176  0.280107  0.368311  1
  O  O66  1  0.777357  0.447625  0.867520  1
  O  O67  1  0.910510  0.902429  0.448588  1
  O  O68  1  0.944845  0.280605  0.703213  1
  O  O69  1  0.880374  0.881781  0.797947  1
