# generated using pymatgen
data_Li3(CrS2)4
_symmetry_space_group_name_H-M   'P 1'
_cell_length_a   7.63488525
_cell_length_b   7.63488525
_cell_length_c   7.63488525
_cell_angle_alpha   54.31367391
_cell_angle_beta   54.31367391
_cell_angle_gamma   54.31367391
_symmetry_Int_Tables_number   1
_chemical_formula_structural   Li3(CrS2)4
_chemical_formula_sum   'Li3 Cr4 S8'
_cell_volume   272.94837908
_cell_formula_units_Z   1
loop_
 _symmetry_equiv_pos_site_id
 _symmetry_equiv_pos_as_xyz
  1  'x, y, z'
loop_
 _atom_site_type_symbol
 _atom_site_label
 _atom_site_symmetry_multiplicity
 _atom_site_fract_x
 _atom_site_fract_y
 _atom_site_fract_z
 _atom_site_occupancy
  Li  Li0  1  0.137822  0.642442  0.642442  1
  Li  Li1  1  0.642442  0.137822  0.642442  1
  Li  Li2  1  0.642442  0.642442  0.137822  1
  Cr  Cr3  1  0.998615  0.998615  0.998615  1
  Cr  Cr4  1  0.487795  0.004609  0.487795  1
  Cr  Cr5  1  0.004609  0.487795  0.487795  1
  Cr  Cr6  1  0.487795  0.487795  0.004609  1
  S  S7  1  0.731473  0.731473  0.731473  1
  S  S8  1  0.233817  0.233817  0.729427  1
  S  S9  1  0.764614  0.263448  0.764614  1
  S  S10  1  0.263448  0.764614  0.764614  1
  S  S11  1  0.233817  0.729427  0.233817  1
  S  S12  1  0.729427  0.233817  0.233817  1
  S  S13  1  0.764614  0.764614  0.263448  1
  S  S14  1  0.259094  0.259094  0.259094  1
