# generated using pymatgen
data_LiVF5
_symmetry_space_group_name_H-M   'P 1'
_cell_length_a   5.99398192
_cell_length_b   5.99398192
_cell_length_c   10.87727709
_cell_angle_alpha   90.00000000
_cell_angle_beta   90.00000000
_cell_angle_gamma   98.87053586
_symmetry_Int_Tables_number   1
_chemical_formula_structural   LiVF5
_chemical_formula_sum   'Li4 V4 F20'
_cell_volume   386.12263874
_cell_formula_units_Z   4
loop_
 _symmetry_equiv_pos_site_id
 _symmetry_equiv_pos_as_xyz
  1  'x, y, z'
loop_
 _atom_site_type_symbol
 _atom_site_label
 _atom_site_symmetry_multiplicity
 _atom_site_fract_x
 _atom_site_fract_y
 _atom_site_fract_z
 _atom_site_occupancy
  Li  Li0  1  0.847088  0.152912  0.000000  1
  Li  Li1  1  0.652912  0.347088  0.500000  1
  Li  Li2  1  0.347088  0.652912  0.500000  1
  Li  Li3  1  0.152912  0.847088  0.000000  1
  V  V4  1  0.154443  0.154443  0.394059  1
  V  V5  1  0.345557  0.345557  0.894059  1
  V  V6  1  0.654443  0.654443  0.105941  1
  V  V7  1  0.845557  0.845557  0.605941  1
  F  F8  1  0.869044  0.130956  0.500000  1
  F  F9  1  0.996891  0.996891  0.732850  1
  F  F10  1  0.421214  0.079644  0.351546  1
  F  F11  1  0.420356  0.078786  0.851546  1
  F  F12  1  0.170874  0.170874  0.025573  1
  F  F13  1  0.630956  0.369044  0.000000  1
  F  F14  1  0.329126  0.329126  0.525573  1
  F  F15  1  0.079644  0.421214  0.351546  1
  F  F16  1  0.078786  0.420356  0.851546  1
  F  F17  1  0.503109  0.503109  0.232850  1
  F  F18  1  0.496891  0.496891  0.767150  1
  F  F19  1  0.921214  0.579644  0.148454  1
  F  F20  1  0.920356  0.578786  0.648454  1
  F  F21  1  0.670874  0.670874  0.474427  1
  F  F22  1  0.369044  0.630956  0.000000  1
  F  F23  1  0.829126  0.829126  0.974427  1
  F  F24  1  0.579644  0.921214  0.148454  1
  F  F25  1  0.578786  0.920356  0.648454  1
  F  F26  1  0.003109  0.003109  0.267150  1
  F  F27  1  0.130956  0.869044  0.500000  1
