# generated using pymatgen
data_Sb3O4F
_symmetry_space_group_name_H-M   'P 1'
_cell_length_a   9.31623076
_cell_length_b   9.31623076
_cell_length_c   5.66185790
_cell_angle_alpha   78.29979565
_cell_angle_beta   101.70020435
_cell_angle_gamma   145.95002080
_symmetry_Int_Tables_number   1
_chemical_formula_structural   Sb3O4F
_chemical_formula_sum   'Sb6 O8 F2'
_cell_volume   268.88615285
_cell_formula_units_Z   2
loop_
 _symmetry_equiv_pos_site_id
 _symmetry_equiv_pos_as_xyz
  1  'x, y, z'
loop_
 _atom_site_type_symbol
 _atom_site_label
 _atom_site_symmetry_multiplicity
 _atom_site_fract_x
 _atom_site_fract_y
 _atom_site_fract_z
 _atom_site_occupancy
  Sb  Sb0  1  0.366312  0.050347  0.285094  1
  Sb  Sb1  1  0.686212  0.688767  0.253182  1
  Sb  Sb2  1  0.949653  0.633688  0.785094  1
  Sb  Sb3  1  0.311233  0.313788  0.753182  1
  Sb  Sb4  1  0.038564  0.361428  0.215719  1
  Sb  Sb5  1  0.638572  0.961436  0.715719  1
  O  O6  1  0.477312  0.351169  0.132268  1
  O  O7  1  0.166051  0.944112  0.550378  1
  O  O8  1  0.939641  0.165169  0.949452  1
  O  O9  1  0.648831  0.522688  0.632268  1
  O  O10  1  0.348784  0.483564  0.372810  1
  O  O11  1  0.055888  0.833949  0.050378  1
  O  O12  1  0.834831  0.060359  0.449452  1
  O  O13  1  0.516436  0.651216  0.872810  1
  F  F14  1  0.000757  0.500962  0.498160  1
  F  F15  1  0.499038  0.999243  0.998160  1
