# generated using pymatgen
data_LiTiVO4
_symmetry_space_group_name_H-M   'P 1'
_cell_length_a   5.97380493
_cell_length_b   5.97380493
_cell_length_c   5.97380493
_cell_angle_alpha   120.52587770
_cell_angle_beta   119.50902194
_cell_angle_gamma   89.97203568
_symmetry_Int_Tables_number   1
_chemical_formula_structural   LiTiVO4
_chemical_formula_sum   'Li2 Ti2 V2 O8'
_cell_volume   150.68871175
_cell_formula_units_Z   2
loop_
 _symmetry_equiv_pos_site_id
 _symmetry_equiv_pos_as_xyz
  1  'x, y, z'
loop_
 _atom_site_type_symbol
 _atom_site_label
 _atom_site_symmetry_multiplicity
 _atom_site_fract_x
 _atom_site_fract_y
 _atom_site_fract_z
 _atom_site_occupancy
  Li  Li0  1  0.000000  0.500000  0.500000  1
  Li  Li1  1  0.000000  0.000000  0.000000  1
  Ti  Ti2  1  0.500000  0.000000  0.500000  1
  Ti  Ti3  1  0.500000  0.500000  0.000000  1
  V  V4  1  0.500000  0.500000  0.500000  1
  V  V5  1  0.000000  0.500000  0.000000  1
  O  O6  1  0.266149  0.740101  0.473952  1
  O  O7  1  0.730359  0.255154  0.975205  1
  O  O8  1  0.266149  0.292197  0.026048  1
  O  O9  1  0.279949  0.255154  0.524795  1
  O  O10  1  0.720051  0.744846  0.475205  1
  O  O11  1  0.733851  0.707803  0.973952  1
  O  O12  1  0.269641  0.744846  0.024795  1
  O  O13  1  0.733851  0.259899  0.526048  1
