# generated using pymatgen
data_Ba3Y2Br12
_symmetry_space_group_name_H-M   'P 1'
_cell_length_a   12.87532842
_cell_length_b   13.40670652
_cell_length_c   20.60916299
_cell_angle_alpha   90.00000000
_cell_angle_beta   124.60496013
_cell_angle_gamma   90.00000000
_symmetry_Int_Tables_number   1
_chemical_formula_structural   Ba3Y2Br12
_chemical_formula_sum   'Ba12 Y8 Br48'
_cell_volume   2928.10484855
_cell_formula_units_Z   4
loop_
 _symmetry_equiv_pos_site_id
 _symmetry_equiv_pos_as_xyz
  1  'x, y, z'
loop_
 _atom_site_type_symbol
 _atom_site_label
 _atom_site_symmetry_multiplicity
 _atom_site_fract_x
 _atom_site_fract_y
 _atom_site_fract_z
 _atom_site_occupancy
  Ba  Ba0  1  0.434216  0.204715  0.470923  1
  Ba  Ba1  1  0.716970  0.130086  0.847173  1
  Ba  Ba2  1  0.972799  0.339736  0.099402  1
  Ba  Ba3  1  0.283030  0.630086  0.652827  1
  Ba  Ba4  1  0.027201  0.839736  0.400598  1
  Ba  Ba5  1  0.565784  0.704715  0.029077  1
  Ba  Ba6  1  0.434216  0.295285  0.970923  1
  Ba  Ba7  1  0.972799  0.160264  0.599402  1
  Ba  Ba8  1  0.716970  0.369914  0.347173  1
  Ba  Ba9  1  0.027201  0.660264  0.900598  1
  Ba  Ba10  1  0.283030  0.869914  0.152827  1
  Ba  Ba11  1  0.565784  0.795285  0.529077  1
  Y  Y12  1  0.628236  0.479794  0.867860  1
  Y  Y13  1  0.371764  0.979794  0.632140  1
  Y  Y14  1  0.116301  0.525880  0.360505  1
  Y  Y15  1  0.883699  0.025880  0.139495  1
  Y  Y16  1  0.116301  0.974120  0.860505  1
  Y  Y17  1  0.883699  0.474120  0.639495  1
  Y  Y18  1  0.628236  0.020206  0.367860  1
  Y  Y19  1  0.371764  0.520206  0.132140  1
  Br  Br20  1  0.807210  0.629197  0.931771  1
  Br  Br21  1  0.344319  0.634992  0.457904  1
  Br  Br22  1  0.515590  0.800481  0.666366  1
  Br  Br23  1  0.109768  0.921608  0.213208  1
  Br  Br24  1  0.546117  0.122516  0.649202  1
  Br  Br25  1  0.827824  0.352792  0.903732  1
  Br  Br26  1  0.942134  0.107368  0.032877  1
  Br  Br27  1  0.158388  0.476498  0.247983  1
  Br  Br28  1  0.020800  0.191248  0.232085  1
  Br  Br29  1  0.238350  0.359411  0.456977  1
  Br  Br30  1  0.482879  0.988927  0.790816  1
  Br  Br31  1  0.685691  0.455568  0.025805  1
  Br  Br32  1  0.517121  0.488927  0.709184  1
  Br  Br33  1  0.314309  0.955568  0.474195  1
  Br  Br34  1  0.761650  0.859411  0.043023  1
  Br  Br35  1  0.979200  0.691248  0.267915  1
  Br  Br36  1  0.057866  0.607368  0.467123  1
  Br  Br37  1  0.172176  0.852792  0.596268  1
  Br  Br38  1  0.841612  0.976498  0.252017  1
  Br  Br39  1  0.453883  0.622516  0.850798  1
  Br  Br40  1  0.484410  0.300481  0.833634  1
  Br  Br41  1  0.192790  0.129197  0.568229  1
  Br  Br42  1  0.890232  0.421608  0.286792  1
  Br  Br43  1  0.655681  0.134992  0.042096  1
  Br  Br44  1  0.344319  0.865008  0.957904  1
  Br  Br45  1  0.109768  0.578392  0.713208  1
  Br  Br46  1  0.807210  0.870803  0.431771  1
  Br  Br47  1  0.515590  0.699519  0.166366  1
  Br  Br48  1  0.546117  0.377484  0.149202  1
  Br  Br49  1  0.158388  0.023502  0.747983  1
  Br  Br50  1  0.827824  0.147208  0.403732  1
  Br  Br51  1  0.942134  0.392632  0.532877  1
  Br  Br52  1  0.020800  0.308752  0.732085  1
  Br  Br53  1  0.238350  0.140589  0.956977  1
  Br  Br54  1  0.685691  0.044432  0.525805  1
  Br  Br55  1  0.482879  0.511073  0.290816  1
  Br  Br56  1  0.314309  0.544432  0.974195  1
  Br  Br57  1  0.517121  0.011073  0.209184  1
  Br  Br58  1  0.761650  0.640589  0.543023  1
  Br  Br59  1  0.979200  0.808752  0.767915  1
  Br  Br60  1  0.841612  0.523502  0.752017  1
  Br  Br61  1  0.057866  0.892632  0.967123  1
  Br  Br62  1  0.172176  0.647208  0.096268  1
  Br  Br63  1  0.453883  0.877484  0.350798  1
  Br  Br64  1  0.890232  0.078392  0.786792  1
  Br  Br65  1  0.484410  0.199519  0.333634  1
  Br  Br66  1  0.655681  0.365008  0.542096  1
  Br  Br67  1  0.192790  0.370803  0.068229  1
