# generated using pymatgen
data_Fe7(SiO6)2
_symmetry_space_group_name_H-M   'P 1'
_cell_length_a   5.94035961
_cell_length_b   5.94035961
_cell_length_c   13.39883522
_cell_angle_alpha   77.34186884
_cell_angle_beta   102.65813116
_cell_angle_gamma   90.02417826
_symmetry_Int_Tables_number   1
_chemical_formula_structural   Fe7(SiO6)2
_chemical_formula_sum   'Fe14 Si4 O24'
_cell_volume   449.54907705
_cell_formula_units_Z   2
loop_
 _symmetry_equiv_pos_site_id
 _symmetry_equiv_pos_as_xyz
  1  'x, y, z'
loop_
 _atom_site_type_symbol
 _atom_site_label
 _atom_site_symmetry_multiplicity
 _atom_site_fract_x
 _atom_site_fract_y
 _atom_site_fract_z
 _atom_site_occupancy
  Fe  Fe0  1  0.000000  0.500000  0.000000  1
  Fe  Fe1  1  0.500000  0.500000  0.000000  1
  Fe  Fe2  1  0.166497  0.835100  0.836380  1
  Fe  Fe3  1  0.166790  0.327334  0.836760  1
  Fe  Fe4  1  0.626114  0.626114  0.750000  1
  Fe  Fe5  1  0.835100  0.166497  0.663620  1
  Fe  Fe6  1  0.327334  0.166790  0.663240  1
  Fe  Fe7  1  0.500000  0.500000  0.500000  1
  Fe  Fe8  1  0.500000  1.000000  0.500000  1
  Fe  Fe9  1  0.672666  0.833210  0.336760  1
  Fe  Fe10  1  0.164900  0.833503  0.336380  1
  Fe  Fe11  1  0.373886  0.373886  0.250000  1
  Fe  Fe12  1  0.833503  0.164900  0.163620  1
  Fe  Fe13  1  0.833210  0.672666  0.163240  1
  Si  Si14  1  0.297373  0.956858  0.086184  1
  Si  Si15  1  0.702627  0.043142  0.913816  1
  Si  Si16  1  0.043142  0.702627  0.586184  1
  Si  Si17  1  0.956858  0.297373  0.413816  1
  O  O18  1  0.263057  0.763815  0.009599  1
  O  O19  1  0.263200  0.226274  0.009883  1
  O  O20  1  0.736943  0.236185  0.990401  1
  O  O21  1  0.736800  0.773726  0.990117  1
  O  O22  1  0.435360  0.081463  0.837281  1
  O  O23  1  0.898063  0.080373  0.839386  1
  O  O24  1  0.417344  0.577804  0.844449  1
  O  O25  1  0.926644  0.580020  0.839773  1
  O  O26  1  0.580020  0.926644  0.660227  1
  O  O27  1  0.577804  0.417344  0.655551  1
  O  O28  1  0.080373  0.898063  0.660614  1
  O  O29  1  0.081463  0.435360  0.662719  1
  O  O30  1  0.236185  0.736943  0.509599  1
  O  O31  1  0.773726  0.736800  0.509883  1
  O  O32  1  0.226274  0.263200  0.490117  1
  O  O33  1  0.763815  0.263057  0.490401  1
  O  O34  1  0.919627  0.101937  0.339386  1
  O  O35  1  0.918537  0.564640  0.337281  1
  O  O36  1  0.419980  0.073356  0.339773  1
  O  O37  1  0.422196  0.582656  0.344449  1
  O  O38  1  0.582656  0.422196  0.155551  1
  O  O39  1  0.073356  0.419980  0.160227  1
  O  O40  1  0.564640  0.918537  0.162719  1
  O  O41  1  0.101937  0.919627  0.160614  1
