# generated using pymatgen
data_Li3VCrP2(O4F)2
_symmetry_space_group_name_H-M   'P 1'
_cell_length_a   5.29097318
_cell_length_b   5.38054453
_cell_length_c   7.50869210
_cell_angle_alpha   106.17910277
_cell_angle_beta   108.26640854
_cell_angle_gamma   97.01602196
_symmetry_Int_Tables_number   1
_chemical_formula_structural   Li3VCrP2(O4F)2
_chemical_formula_sum   'Li3 V1 Cr1 P2 O8 F2'
_cell_volume   189.73659634
_cell_formula_units_Z   1
loop_
 _symmetry_equiv_pos_site_id
 _symmetry_equiv_pos_as_xyz
  1  'x, y, z'
loop_
 _atom_site_type_symbol
 _atom_site_label
 _atom_site_symmetry_multiplicity
 _atom_site_fract_x
 _atom_site_fract_y
 _atom_site_fract_z
 _atom_site_occupancy
  Li  Li0  1  0.760386  0.420335  0.854854  1
  Li  Li1  1  0.493584  0.028810  0.507979  1
  Li  Li2  1  0.256533  0.590163  0.160049  1
  V  V3  1  0.000107  0.999829  0.999282  1
  Cr  Cr4  1  0.993942  0.997535  0.499596  1
  P  P5  1  0.665619  0.360154  0.240395  1
  P  P6  1  0.333057  0.638153  0.757397  1
  O  O7  1  0.871484  0.332192  0.125080  1
  O  O8  1  0.724148  0.211864  0.390896  1
  O  O9  1  0.675153  0.656760  0.338658  1
  O  O10  1  0.368241  0.247654  0.082330  1
  O  O11  1  0.631408  0.749757  0.914268  1
  O  O12  1  0.320756  0.340306  0.657055  1
  O  O13  1  0.271593  0.788850  0.608615  1
  O  O14  1  0.130694  0.666606  0.875938  1
  F  F15  1  0.835691  0.089543  0.750001  1
  F  F16  1  0.160265  0.915070  0.250887  1
