# generated using pymatgen
data_CaLaVFeO6
_symmetry_space_group_name_H-M   'P 1'
_cell_length_a   5.46313222
_cell_length_b   5.46571987
_cell_length_c   12.52339598
_cell_angle_alpha   102.33646050
_cell_angle_beta   102.35625511
_cell_angle_gamma   90.93108739
_symmetry_Int_Tables_number   1
_chemical_formula_structural   CaLaVFeO6
_chemical_formula_sum   'Ca3 La3 V3 Fe3 O18'
_cell_volume   356.09810363
_cell_formula_units_Z   3
loop_
 _symmetry_equiv_pos_site_id
 _symmetry_equiv_pos_as_xyz
  1  'x, y, z'
loop_
 _atom_site_type_symbol
 _atom_site_label
 _atom_site_symmetry_multiplicity
 _atom_site_fract_x
 _atom_site_fract_y
 _atom_site_fract_z
 _atom_site_occupancy
  Ca  Ca0  1  0.920657  0.405445  0.833995  1
  Ca  Ca1  1  0.588620  0.070542  0.167330  1
  Ca  Ca2  1  0.254643  0.741443  0.501822  1
  La  La3  1  0.743991  0.253415  0.497024  1
  La  La4  1  0.412397  0.921947  0.831189  1
  La  La5  1  0.079198  0.586773  0.164678  1
  V  V6  1  0.000097  0.999168  0.999807  1
  V  V7  1  0.831618  0.831363  0.665832  1
  V  V8  1  0.165277  0.165295  0.333482  1
  Fe  Fe9  1  0.664748  0.664319  0.332121  1
  Fe  Fe10  1  0.332876  0.332224  0.666175  1
  Fe  Fe11  1  0.499637  0.498604  0.999390  1
  O  O12  1  0.346177  0.456634  0.324465  1
  O  O13  1  0.472043  0.975562  0.336544  1
  O  O14  1  0.013585  0.121914  0.655721  1
  O  O15  1  0.736061  0.718479  0.501056  1
  O  O16  1  0.927611  0.948278  0.833988  1
  O  O17  1  0.139770  0.643615  0.668653  1
  O  O18  1  0.184595  0.693688  0.992467  1
  O  O19  1  0.696023  0.809842  0.990226  1
  O  O20  1  0.593351  0.613673  0.166376  1
  O  O21  1  0.402703  0.384709  0.831793  1
  O  O22  1  0.304364  0.188176  0.011734  1
  O  O23  1  0.810944  0.302319  0.002959  1
  O  O24  1  0.856874  0.352332  0.326477  1
  O  O25  1  0.068682  0.052675  0.165790  1
  O  O26  1  0.260630  0.280698  0.498552  1
  O  O27  1  0.989086  0.875105  0.346489  1
  O  O28  1  0.525349  0.019505  0.658976  1
  O  O29  1  0.656516  0.541287  0.678623  1
