# generated using pymatgen
data_Li3CrSi2O7
_symmetry_space_group_name_H-M   'P 1'
_cell_length_a   5.01808421
_cell_length_b   8.89585120
_cell_length_c   12.47548482
_cell_angle_alpha   90.00000000
_cell_angle_beta   90.00000000
_cell_angle_gamma   90.00000000
_symmetry_Int_Tables_number   1
_chemical_formula_structural   Li3CrSi2O7
_chemical_formula_sum   'Li12 Cr4 Si8 O28'
_cell_volume   556.90726968
_cell_formula_units_Z   4
loop_
 _symmetry_equiv_pos_site_id
 _symmetry_equiv_pos_as_xyz
  1  'x, y, z'
loop_
 _atom_site_type_symbol
 _atom_site_label
 _atom_site_symmetry_multiplicity
 _atom_site_fract_x
 _atom_site_fract_y
 _atom_site_fract_z
 _atom_site_occupancy
  Li  Li0  1  0.036216  0.342079  0.089609  1
  Li  Li1  1  0.036216  0.342079  0.410391  1
  Li  Li2  1  0.032137  0.015113  0.250000  1
  Li  Li3  1  0.467863  0.515113  0.250000  1
  Li  Li4  1  0.463784  0.842079  0.089609  1
  Li  Li5  1  0.463784  0.842079  0.410391  1
  Li  Li6  1  0.536216  0.157921  0.589609  1
  Li  Li7  1  0.536216  0.157921  0.910391  1
  Li  Li8  1  0.532137  0.484887  0.750000  1
  Li  Li9  1  0.967863  0.984887  0.750000  1
  Li  Li10  1  0.963784  0.657921  0.910391  1
  Li  Li11  1  0.963784  0.657921  0.589609  1
  Cr  Cr12  1  0.000000  0.000000  0.000000  1
  Cr  Cr13  1  0.000000  0.000000  0.500000  1
  Cr  Cr14  1  0.500000  0.500000  0.500000  1
  Cr  Cr15  1  0.500000  0.500000  0.000000  1
  Si  Si16  1  0.012644  0.317368  0.630255  1
  Si  Si17  1  0.012644  0.317368  0.869745  1
  Si  Si18  1  0.487356  0.817368  0.630255  1
  Si  Si19  1  0.487356  0.817368  0.869745  1
  Si  Si20  1  0.512644  0.182632  0.130255  1
  Si  Si21  1  0.512644  0.182632  0.369745  1
  Si  Si22  1  0.987356  0.682632  0.130255  1
  Si  Si23  1  0.987356  0.682632  0.369745  1
  O  O24  1  0.062903  0.862117  0.128647  1
  O  O25  1  0.062903  0.862117  0.371353  1
  O  O26  1  0.081441  0.614191  0.250000  1
  O  O27  1  0.163002  0.600272  0.039118  1
  O  O28  1  0.163002  0.600272  0.460882  1
  O  O29  1  0.169952  0.853052  0.886879  1
  O  O30  1  0.169952  0.853052  0.613121  1
  O  O31  1  0.330048  0.353052  0.613121  1
  O  O32  1  0.330048  0.353052  0.886879  1
  O  O33  1  0.336998  0.100272  0.039118  1
  O  O34  1  0.336998  0.100272  0.460882  1
  O  O35  1  0.418559  0.114191  0.250000  1
  O  O36  1  0.437097  0.362117  0.128647  1
  O  O37  1  0.437097  0.362117  0.371353  1
  O  O38  1  0.562903  0.637883  0.628647  1
  O  O39  1  0.562903  0.637883  0.871353  1
  O  O40  1  0.581441  0.885809  0.750000  1
  O  O41  1  0.663002  0.899728  0.539118  1
  O  O42  1  0.663002  0.899728  0.960882  1
  O  O43  1  0.669952  0.646948  0.113121  1
  O  O44  1  0.669952  0.646948  0.386879  1
  O  O45  1  0.830048  0.146948  0.386879  1
  O  O46  1  0.830048  0.146948  0.113121  1
  O  O47  1  0.836998  0.399728  0.539118  1
  O  O48  1  0.836998  0.399728  0.960882  1
  O  O49  1  0.918559  0.385809  0.750000  1
  O  O50  1  0.937097  0.137883  0.628647  1
  O  O51  1  0.937097  0.137883  0.871353  1
