# generated using pymatgen
data_Li3Mn2OF5
_symmetry_space_group_name_H-M   'P 1'
_cell_length_a   10.15510221
_cell_length_b   9.70776518
_cell_length_c   5.29466485
_cell_angle_alpha   79.26495035
_cell_angle_beta   69.92089042
_cell_angle_gamma   30.81415923
_symmetry_Int_Tables_number   1
_chemical_formula_structural   Li3Mn2OF5
_chemical_formula_sum   'Li6 Mn4 O2 F10'
_cell_volume   244.64877845
_cell_formula_units_Z   2
loop_
 _symmetry_equiv_pos_site_id
 _symmetry_equiv_pos_as_xyz
  1  'x, y, z'
loop_
 _atom_site_type_symbol
 _atom_site_label
 _atom_site_symmetry_multiplicity
 _atom_site_fract_x
 _atom_site_fract_y
 _atom_site_fract_z
 _atom_site_occupancy
  Li  Li0  1  0.174870  0.174870  0.825130  1
  Li  Li1  1  0.569344  0.569344  0.930656  1
  Li  Li2  1  0.930656  0.930656  0.569344  1
  Li  Li3  1  0.500000  0.500000  0.500000  1
  Li  Li4  1  0.825130  0.825130  0.174870  1
  Li  Li5  1  0.250000  0.250000  0.250000  1
  Mn  Mn6  1  0.669957  0.669957  0.330043  1
  Mn  Mn7  1  0.000000  0.000000  0.000000  1
  Mn  Mn8  1  0.330043  0.330043  0.669957  1
  Mn  Mn9  1  0.750000  0.750000  0.750000  1
  O  O10  1  0.997064  0.502936  0.997064  1
  O  O11  1  0.502936  0.997064  0.502936  1
  F  F12  1  0.363652  0.793892  0.682877  1
  F  F13  1  0.923074  0.411255  0.590208  1
  F  F14  1  0.411255  0.923074  0.075463  1
  F  F15  1  0.682877  0.159578  0.363652  1
  F  F16  1  0.793892  0.363652  0.159578  1
  F  F17  1  0.243964  0.756036  0.243964  1
  F  F18  1  0.590208  0.075463  0.923074  1
  F  F19  1  0.756036  0.243964  0.756036  1
  F  F20  1  0.159578  0.682877  0.793892  1
  F  F21  1  0.075463  0.590208  0.411255  1
