# generated using pymatgen
data_LiV4CuO12
_symmetry_space_group_name_H-M   'P 1'
_cell_length_a   6.70401765
_cell_length_b   6.70401765
_cell_length_c   5.91961222
_cell_angle_alpha   74.72988804
_cell_angle_beta   105.27011196
_cell_angle_gamma   96.33116560
_symmetry_Int_Tables_number   1
_chemical_formula_structural   LiV4CuO12
_chemical_formula_sum   'Li1 V4 Cu1 O12'
_cell_volume   247.35660051
_cell_formula_units_Z   1
loop_
 _symmetry_equiv_pos_site_id
 _symmetry_equiv_pos_as_xyz
  1  'x, y, z'
loop_
 _atom_site_type_symbol
 _atom_site_label
 _atom_site_symmetry_multiplicity
 _atom_site_fract_x
 _atom_site_fract_y
 _atom_site_fract_z
 _atom_site_occupancy
  Li  Li0  1  0.911375  0.911375  0.000000  1
  V  V1  1  0.383936  0.800666  0.001265  1
  V  V2  1  0.207477  0.611137  0.515093  1
  V  V3  1  0.800666  0.383936  0.998735  1
  V  V4  1  0.611137  0.207477  0.484907  1
  Cu  Cu5  1  0.086259  0.086259  0.500000  1
  O  O6  1  0.191347  0.974812  0.857601  1
  O  O7  1  0.615732  0.921108  0.025553  1
  O  O8  1  0.031518  0.800616  0.425201  1
  O  O9  1  0.365156  0.630664  0.804215  1
  O  O10  1  0.921108  0.615732  0.974447  1
  O  O11  1  0.360098  0.653620  0.300211  1
  O  O12  1  0.630664  0.365156  0.195785  1
  O  O13  1  0.081907  0.372573  0.537691  1
  O  O14  1  0.653620  0.360098  0.699789  1
  O  O15  1  0.974812  0.191347  0.142399  1
  O  O16  1  0.372573  0.081907  0.462309  1
  O  O17  1  0.800616  0.031518  0.574799  1
