# generated using pymatgen
data_LiTa3O8
_symmetry_space_group_name_H-M   'P 1'
_cell_length_a   3.91094843
_cell_length_b   8.98583872
_cell_length_c   17.16204233
_cell_angle_alpha   90.00000000
_cell_angle_beta   90.00000000
_cell_angle_gamma   90.00000000
_symmetry_Int_Tables_number   1
_chemical_formula_structural   LiTa3O8
_chemical_formula_sum   'Li4 Ta12 O32'
_cell_volume   603.12825879
_cell_formula_units_Z   4
loop_
 _symmetry_equiv_pos_site_id
 _symmetry_equiv_pos_as_xyz
  1  'x, y, z'
loop_
 _atom_site_type_symbol
 _atom_site_label
 _atom_site_symmetry_multiplicity
 _atom_site_fract_x
 _atom_site_fract_y
 _atom_site_fract_z
 _atom_site_occupancy
  Li  Li0  1  0.000000  0.065588  0.386445  1
  Li  Li1  1  0.000000  0.934412  0.613555  1
  Li  Li2  1  0.000000  0.065588  0.113555  1
  Li  Li3  1  0.000000  0.934412  0.886445  1
  Ta  Ta4  1  0.500000  0.807973  0.440667  1
  Ta  Ta5  1  0.500000  0.192027  0.559333  1
  Ta  Ta6  1  0.500000  0.807973  0.059333  1
  Ta  Ta7  1  0.500000  0.192027  0.940667  1
  Ta  Ta8  1  0.500000  0.687902  0.250000  1
  Ta  Ta9  1  0.500000  0.312098  0.750000  1
  Ta  Ta10  1  0.500000  0.396951  0.367549  1
  Ta  Ta11  1  0.500000  0.603049  0.632451  1
  Ta  Ta12  1  0.500000  0.396951  0.132451  1
  Ta  Ta13  1  0.500000  0.603049  0.867549  1
  Ta  Ta14  1  0.500000  0.054093  0.250000  1
  Ta  Ta15  1  0.500000  0.945907  0.750000  1
  O  O16  1  0.500000  0.178918  0.341830  1
  O  O17  1  0.500000  0.821082  0.658170  1
  O  O18  1  0.500000  0.178918  0.158170  1
  O  O19  1  0.500000  0.821082  0.841830  1
  O  O20  1  0.500000  0.454036  0.250000  1
  O  O21  1  0.500000  0.545964  0.750000  1
  O  O22  1  0.000000  0.842566  0.433295  1
  O  O23  1  0.000000  0.157434  0.566705  1
  O  O24  1  0.000000  0.842566  0.066705  1
  O  O25  1  0.000000  0.157434  0.933295  1
  O  O26  1  0.000000  0.693082  0.250000  1
  O  O27  1  0.000000  0.306918  0.750000  1
  O  O28  1  0.500000  0.620749  0.369136  1
  O  O29  1  0.500000  0.379251  0.630864  1
  O  O30  1  0.500000  0.620749  0.130864  1
  O  O31  1  0.500000  0.379251  0.869136  1
  O  O32  1  0.000000  0.393468  0.367875  1
  O  O33  1  0.000000  0.606532  0.632125  1
  O  O34  1  0.000000  0.393468  0.132125  1
  O  O35  1  0.000000  0.606532  0.867875  1
  O  O36  1  0.000000  0.059963  0.250000  1
  O  O37  1  0.000000  0.940037  0.750000  1
  O  O38  1  0.500000  0.877528  0.323638  1
  O  O39  1  0.500000  0.122472  0.676362  1
  O  O40  1  0.500000  0.877528  0.176362  1
  O  O41  1  0.500000  0.122472  0.823638  1
  O  O42  1  0.500000  0.330473  0.477066  1
  O  O43  1  0.500000  0.669527  0.522934  1
  O  O44  1  0.500000  0.330473  0.022934  1
  O  O45  1  0.500000  0.669527  0.977066  1
  O  O46  1  0.500000  0.000000  0.500000  1
  O  O47  1  0.500000  0.000000  0.000000  1
