# generated using pymatgen
data_Sr2WO5
_symmetry_space_group_name_H-M   'P 1'
_cell_length_a   5.61578403
_cell_length_b   7.38261573
_cell_length_c   11.09988547
_cell_angle_alpha   90.00000000
_cell_angle_beta   90.00000000
_cell_angle_gamma   90.00000000
_symmetry_Int_Tables_number   1
_chemical_formula_structural   Sr2WO5
_chemical_formula_sum   'Sr8 W4 O20'
_cell_volume   460.19209991
_cell_formula_units_Z   4
loop_
 _symmetry_equiv_pos_site_id
 _symmetry_equiv_pos_as_xyz
  1  'x, y, z'
loop_
 _atom_site_type_symbol
 _atom_site_label
 _atom_site_symmetry_multiplicity
 _atom_site_fract_x
 _atom_site_fract_y
 _atom_site_fract_z
 _atom_site_occupancy
  Sr  Sr0  1  0.750000  0.487050  0.276178  1
  Sr  Sr1  1  0.750000  0.987050  0.223822  1
  Sr  Sr2  1  0.250000  0.512950  0.723822  1
  Sr  Sr3  1  0.250000  0.012950  0.776178  1
  Sr  Sr4  1  0.750000  0.176122  0.582352  1
  Sr  Sr5  1  0.750000  0.676122  0.917648  1
  Sr  Sr6  1  0.250000  0.823878  0.417648  1
  Sr  Sr7  1  0.250000  0.323878  0.082352  1
  W  W8  1  0.750000  0.182671  0.936636  1
  W  W9  1  0.750000  0.682671  0.563364  1
  W  W10  1  0.250000  0.817329  0.063364  1
  W  W11  1  0.250000  0.317329  0.436636  1
  O  O12  1  0.001158  0.162520  0.391269  1
  O  O13  1  0.498842  0.662520  0.108731  1
  O  O14  1  0.501158  0.837480  0.608731  1
  O  O15  1  0.998842  0.337480  0.891269  1
  O  O16  1  0.998842  0.837480  0.608731  1
  O  O17  1  0.501158  0.337480  0.891269  1
  O  O18  1  0.498842  0.162520  0.391269  1
  O  O19  1  0.001158  0.662520  0.108731  1
  O  O20  1  0.000000  0.500000  0.500000  1
  O  O21  1  0.500000  0.000000  0.000000  1
  O  O22  1  0.500000  0.500000  0.500000  1
  O  O23  1  0.000000  0.000000  0.000000  1
  O  O24  1  0.750000  0.272114  0.105695  1
  O  O25  1  0.750000  0.772114  0.394305  1
  O  O26  1  0.250000  0.727886  0.894305  1
  O  O27  1  0.250000  0.227886  0.605695  1
  O  O28  1  0.750000  0.043013  0.792669  1
  O  O29  1  0.750000  0.543013  0.707331  1
  O  O30  1  0.250000  0.956987  0.207331  1
  O  O31  1  0.250000  0.456987  0.292669  1
