# generated using pymatgen
data_Li3CrPCO7
_symmetry_space_group_name_H-M   'P 1'
_cell_length_a   8.55502228
_cell_length_b   6.48494146
_cell_length_c   9.98871112
_cell_angle_alpha   90.00000000
_cell_angle_beta   95.08795651
_cell_angle_gamma   90.00000000
_symmetry_Int_Tables_number   1
_chemical_formula_structural   Li3CrPCO7
_chemical_formula_sum   'Li12 Cr4 P4 C4 O28'
_cell_volume   551.97834529
_cell_formula_units_Z   4
loop_
 _symmetry_equiv_pos_site_id
 _symmetry_equiv_pos_as_xyz
  1  'x, y, z'
loop_
 _atom_site_type_symbol
 _atom_site_label
 _atom_site_symmetry_multiplicity
 _atom_site_fract_x
 _atom_site_fract_y
 _atom_site_fract_z
 _atom_site_occupancy
  Li  Li0  1  0.893110  0.746310  0.384962  1
  Li  Li1  1  0.893110  0.753690  0.884962  1
  Li  Li2  1  0.707488  0.980541  0.116411  1
  Li  Li3  1  0.707488  0.519459  0.616411  1
  Li  Li4  1  0.645705  0.258228  0.388872  1
  Li  Li5  1  0.645705  0.241772  0.888872  1
  Li  Li6  1  0.354295  0.758228  0.111128  1
  Li  Li7  1  0.354295  0.741772  0.611128  1
  Li  Li8  1  0.292512  0.480541  0.383589  1
  Li  Li9  1  0.292512  0.019459  0.883589  1
  Li  Li10  1  0.106890  0.246310  0.115038  1
  Li  Li11  1  0.106890  0.253690  0.615038  1
  Cr  Cr12  1  0.738249  0.489920  0.124380  1
  Cr  Cr13  1  0.738249  0.010080  0.624380  1
  Cr  Cr14  1  0.261751  0.989920  0.375620  1
  Cr  Cr15  1  0.261751  0.510080  0.875620  1
  P  P16  1  0.589543  0.753432  0.360998  1
  P  P17  1  0.589543  0.746568  0.860998  1
  P  P18  1  0.410457  0.253432  0.139002  1
  P  P19  1  0.410457  0.246568  0.639002  1
  C  C20  1  0.961852  0.250481  0.352810  1
  C  C21  1  0.961852  0.249519  0.852810  1
  C  C22  1  0.038148  0.750481  0.147190  1
  C  C23  1  0.038148  0.749519  0.647190  1
  O  O24  1  0.935364  0.246693  0.476458  1
  O  O25  1  0.892385  0.734074  0.182253  1
  O  O26  1  0.935364  0.253307  0.976458  1
  O  O27  1  0.850241  0.267636  0.257340  1
  O  O28  1  0.892385  0.765926  0.682253  1
  O  O29  1  0.850241  0.232364  0.757340  1
  O  O30  1  0.688307  0.943003  0.416568  1
  O  O31  1  0.685937  0.564010  0.413612  1
  O  O32  1  0.685937  0.935990  0.913612  1
  O  O33  1  0.688307  0.556997  0.916568  1
  O  O34  1  0.578270  0.251751  0.088855  1
  O  O35  1  0.573652  0.761509  0.205191  1
  O  O36  1  0.578270  0.248249  0.588855  1
  O  O37  1  0.573652  0.738491  0.705191  1
  O  O38  1  0.426348  0.261509  0.294809  1
  O  O39  1  0.421730  0.751751  0.411145  1
  O  O40  1  0.426348  0.238491  0.794809  1
  O  O41  1  0.421730  0.748249  0.911145  1
  O  O42  1  0.314063  0.064010  0.086388  1
  O  O43  1  0.311693  0.443003  0.083432  1
  O  O44  1  0.314063  0.435990  0.586388  1
  O  O45  1  0.311693  0.056997  0.583432  1
  O  O46  1  0.149759  0.767636  0.242660  1
  O  O47  1  0.107615  0.234074  0.317747  1
  O  O48  1  0.149759  0.732364  0.742660  1
  O  O49  1  0.064636  0.746693  0.023542  1
  O  O50  1  0.107615  0.265926  0.817747  1
  O  O51  1  0.064636  0.753307  0.523542  1
