# generated using pymatgen
data_Sn2N2O
_symmetry_space_group_name_H-M   'P 1'
_cell_length_a   8.81708071
_cell_length_b   8.81982961
_cell_length_c   8.86583694
_cell_angle_alpha   109.43993215
_cell_angle_beta   109.41713761
_cell_angle_gamma   109.14561116
_symmetry_Int_Tables_number   1
_chemical_formula_structural   Sn2N2O
_chemical_formula_sum   'Sn16 N16 O8'
_cell_volume   533.41296718
_cell_formula_units_Z   8
loop_
 _symmetry_equiv_pos_site_id
 _symmetry_equiv_pos_as_xyz
  1  'x, y, z'
loop_
 _atom_site_type_symbol
 _atom_site_label
 _atom_site_symmetry_multiplicity
 _atom_site_fract_x
 _atom_site_fract_y
 _atom_site_fract_z
 _atom_site_occupancy
  Sn  Sn0  1  0.973024  0.222741  0.260541  1
  Sn  Sn1  1  0.996431  0.996886  0.491465  1
  Sn  Sn2  1  0.731607  0.754040  0.969022  1
  Sn  Sn3  1  0.777538  0.238994  0.527520  1
  Sn  Sn4  1  0.244185  0.528010  0.779710  1
  Sn  Sn5  1  0.252935  0.031075  0.286276  1
  Sn  Sn6  1  0.463585  0.713647  0.254725  1
  Sn  Sn7  1  0.488471  0.996253  0.990289  1
  Sn  Sn8  1  0.006588  0.503535  0.010208  1
  Sn  Sn9  1  0.531678  0.281415  0.748897  1
  Sn  Sn10  1  0.515396  0.505135  0.500746  1
  Sn  Sn11  1  0.751176  0.473675  0.209772  1
  Sn  Sn12  1  0.737129  0.953537  0.703719  1
  Sn  Sn13  1  0.296135  0.256020  0.031851  1
  Sn  Sn14  1  0.214007  0.748462  0.468958  1
  Sn  Sn15  1  0.034885  0.786142  0.752271  1
  N  N16  1  0.037725  0.277331  0.538840  1
  N  N17  1  0.231773  0.459298  0.988849  1
  N  N18  1  0.546549  0.272033  0.503475  1
  N  N19  1  0.271371  0.043486  0.545676  1
  N  N20  1  0.779815  0.738386  0.742088  1
  N  N21  1  0.502132  0.227134  0.955538  1
  N  N22  1  0.995866  0.450532  0.230948  1
  N  N23  1  0.724340  0.959848  0.455941  1
  N  N24  1  0.233907  0.770283  0.227787  1
  N  N25  1  0.261531  0.002983  0.040036  1
  N  N26  1  0.769793  0.539388  0.994188  1
  N  N27  1  0.456466  0.726935  0.508972  1
  N  N28  1  0.265408  0.755333  0.734101  1
  N  N29  1  0.963312  0.967063  0.222184  1
  N  N30  1  0.544951  0.502919  0.270132  1
  N  N31  1  0.956654  0.730735  0.465486  1
  O  O32  1  0.454866  0.498619  0.730423  1
  O  O33  1  0.038123  0.053971  0.774727  1
  O  O34  1  0.714744  0.211811  0.261947  1
  O  O35  1  0.723576  0.006105  0.953395  1
  O  O36  1  0.773790  0.222615  0.777618  1
  O  O37  1  0.978973  0.531379  0.765988  1
  O  O38  1  0.237058  0.285110  0.279510  1
  O  O39  1  0.522499  0.777133  0.046176  1
