# generated using pymatgen
data_Na4V2C4SO16
_symmetry_space_group_name_H-M   'P 1'
_cell_length_a   9.96776404
_cell_length_b   9.89419524
_cell_length_c   9.89242832
_cell_angle_alpha   60.49851090
_cell_angle_beta   59.75951812
_cell_angle_gamma   59.74197098
_symmetry_Int_Tables_number   1
_chemical_formula_structural   Na4V2C4SO16
_chemical_formula_sum   'Na8 V4 C8 S2 O32'
_cell_volume   689.78945579
_cell_formula_units_Z   2
loop_
 _symmetry_equiv_pos_site_id
 _symmetry_equiv_pos_as_xyz
  1  'x, y, z'
loop_
 _atom_site_type_symbol
 _atom_site_label
 _atom_site_symmetry_multiplicity
 _atom_site_fract_x
 _atom_site_fract_y
 _atom_site_fract_z
 _atom_site_occupancy
  Na  Na0  1  0.045220  0.454780  0.454780  1
  Na  Na1  1  0.786333  0.213667  0.213667  1
  Na  Na2  1  0.213814  0.213814  0.786186  1
  Na  Na3  1  0.788137  0.211863  0.788137  1
  Na  Na4  1  0.211863  0.788137  0.211863  1
  Na  Na5  1  0.786186  0.786186  0.213814  1
  Na  Na6  1  0.454780  0.045220  0.045220  1
  Na  Na7  1  0.213667  0.786333  0.786333  1
  V  V8  1  0.622410  0.625690  0.626936  1
  V  V9  1  0.124964  0.626936  0.625690  1
  V  V10  1  0.625690  0.622410  0.124964  1
  V  V11  1  0.626936  0.124964  0.622410  1
  C  C12  1  0.840259  0.834375  0.482363  1
  C  C13  1  0.843003  0.482363  0.834375  1
  C  C14  1  0.482363  0.843003  0.840259  1
  C  C15  1  0.834375  0.840259  0.843003  1
  C  C16  1  0.763738  0.410014  0.412822  1
  C  C17  1  0.413426  0.412822  0.410014  1
  C  C18  1  0.412822  0.413426  0.763738  1
  C  C19  1  0.410014  0.763738  0.413426  1
  S  S20  1  0.000000  1.000000  1.000000  1
  S  S21  1  0.250000  0.250000  0.250000  1
  O  O22  1  0.061968  0.060991  0.815218  1
  O  O23  1  0.061823  0.815218  0.060991  1
  O  O24  1  0.815218  0.061823  0.061968  1
  O  O25  1  0.060991  0.061968  0.061823  1
  O  O26  1  0.986346  0.723283  0.475995  1
  O  O27  1  0.814377  0.475995  0.723283  1
  O  O28  1  0.731553  0.800383  0.480309  1
  O  O29  1  0.987754  0.480309  0.800383  1
  O  O30  1  0.733182  0.481321  0.978571  1
  O  O31  1  0.806926  0.978571  0.481321  1
  O  O32  1  0.481321  0.733182  0.806926  1
  O  O33  1  0.978571  0.806926  0.733182  1
  O  O34  1  0.759977  0.436408  0.273664  1
  O  O35  1  0.529951  0.273664  0.436408  1
  O  O36  1  0.480309  0.987754  0.731553  1
  O  O37  1  0.800383  0.731553  0.987754  1
  O  O38  1  0.762996  0.269349  0.528545  1
  O  O39  1  0.439110  0.528545  0.269349  1
  O  O40  1  0.723283  0.986346  0.814377  1
  O  O41  1  0.475995  0.814377  0.986346  1
  O  O42  1  0.266908  0.438409  0.522732  1
  O  O43  1  0.771951  0.522732  0.438409  1
  O  O44  1  0.438409  0.266908  0.771951  1
  O  O45  1  0.522732  0.771951  0.266908  1
  O  O46  1  0.528545  0.439110  0.762996  1
  O  O47  1  0.269349  0.762996  0.439110  1
  O  O48  1  0.273664  0.529951  0.759977  1
  O  O49  1  0.436408  0.759977  0.529951  1
  O  O50  1  0.192173  0.186153  0.186352  1
  O  O51  1  0.435322  0.186352  0.186153  1
  O  O52  1  0.186153  0.192173  0.435322  1
  O  O53  1  0.186352  0.435322  0.192173  1
