# generated using pymatgen
data_Na4NiO4
_symmetry_space_group_name_H-M   'P 1'
_cell_length_a   5.70572210
_cell_length_b   5.71073774
_cell_length_c   8.67682569
_cell_angle_alpha   71.67221981
_cell_angle_beta   80.66237245
_cell_angle_gamma   68.22670782
_symmetry_Int_Tables_number   1
_chemical_formula_structural   Na4NiO4
_chemical_formula_sum   'Na8 Ni2 O8'
_cell_volume   248.90236567
_cell_formula_units_Z   2
loop_
 _symmetry_equiv_pos_site_id
 _symmetry_equiv_pos_as_xyz
  1  'x, y, z'
loop_
 _atom_site_type_symbol
 _atom_site_label
 _atom_site_symmetry_multiplicity
 _atom_site_fract_x
 _atom_site_fract_y
 _atom_site_fract_z
 _atom_site_occupancy
  Na  Na0  1  0.765676  0.020536  0.927654  1
  Na  Na1  1  0.256951  0.549793  0.898036  1
  Na  Na2  1  0.234324  0.979464  0.072346  1
  Na  Na3  1  0.743049  0.450207  0.101964  1
  Na  Na4  1  0.750913  0.905009  0.320917  1
  Na  Na5  1  0.246468  0.740050  0.482936  1
  Na  Na6  1  0.753532  0.259950  0.517064  1
  Na  Na7  1  0.249087  0.094991  0.679083  1
  Ni  Ni8  1  0.218648  0.348969  0.255422  1
  Ni  Ni9  1  0.781352  0.651031  0.744578  1
  O  O10  1  0.523476  0.792544  0.884142  1
  O  O11  1  0.978409  0.331567  0.860833  1
  O  O12  1  0.021591  0.668433  0.139167  1
  O  O13  1  0.476524  0.207456  0.115858  1
  O  O14  1  0.024643  0.134946  0.303405  1
  O  O15  1  0.356497  0.341846  0.429256  1
  O  O16  1  0.975357  0.865054  0.696595  1
  O  O17  1  0.643503  0.658154  0.570744  1
