# generated using pymatgen
data_Ba3YF9
_symmetry_space_group_name_H-M   'P 1'
_cell_length_a   6.08865233
_cell_length_b   10.31785451
_cell_length_c   15.81337223
_cell_angle_alpha   90.00000000
_cell_angle_beta   90.00000000
_cell_angle_gamma   90.00000000
_symmetry_Int_Tables_number   1
_chemical_formula_structural   Ba3YF9
_chemical_formula_sum   'Ba12 Y4 F36'
_cell_volume   993.42496461
_cell_formula_units_Z   4
loop_
 _symmetry_equiv_pos_site_id
 _symmetry_equiv_pos_as_xyz
  1  'x, y, z'
loop_
 _atom_site_type_symbol
 _atom_site_label
 _atom_site_symmetry_multiplicity
 _atom_site_fract_x
 _atom_site_fract_y
 _atom_site_fract_z
 _atom_site_occupancy
  Ba  Ba0  1  0.250000  0.946055  0.908887  1
  Ba  Ba1  1  0.250000  0.833609  0.472763  1
  Ba  Ba2  1  0.750000  0.758445  0.671543  1
  Ba  Ba3  1  0.250000  0.741555  0.171543  1
  Ba  Ba4  1  0.750000  0.666391  0.972763  1
  Ba  Ba5  1  0.750000  0.553945  0.408887  1
  Ba  Ba6  1  0.250000  0.446055  0.591113  1
  Ba  Ba7  1  0.250000  0.333609  0.027237  1
  Ba  Ba8  1  0.750000  0.258445  0.828457  1
  Ba  Ba9  1  0.250000  0.241555  0.328457  1
  Ba  Ba10  1  0.750000  0.166391  0.527237  1
  Ba  Ba11  1  0.750000  0.053945  0.091113  1
  Y  Y12  1  0.750000  0.961769  0.317001  1
  Y  Y13  1  0.250000  0.538231  0.817001  1
  Y  Y14  1  0.750000  0.461769  0.182999  1
  Y  Y15  1  0.250000  0.038231  0.682999  1
  F  F16  1  0.503940  0.954768  0.596320  1
  F  F17  1  0.996060  0.954768  0.596320  1
  F  F18  1  0.991868  0.928717  0.219715  1
  F  F19  1  0.508132  0.928717  0.219715  1
  F  F20  1  0.250000  0.842145  0.737165  1
  F  F21  1  0.750000  0.789296  0.836634  1
  F  F22  1  0.502598  0.854628  0.037088  1
  F  F23  1  0.997402  0.854628  0.037088  1
  F  F24  1  0.750000  0.811025  0.412346  1
  F  F25  1  0.250000  0.688975  0.912346  1
  F  F26  1  0.002598  0.645372  0.537088  1
  F  F27  1  0.497402  0.645372  0.537088  1
  F  F28  1  0.250000  0.710704  0.336634  1
  F  F29  1  0.750000  0.657855  0.237165  1
  F  F30  1  0.008132  0.571283  0.719715  1
  F  F31  1  0.491868  0.571283  0.719715  1
  F  F32  1  0.003940  0.545232  0.096320  1
  F  F33  1  0.496060  0.545232  0.096320  1
  F  F34  1  0.503940  0.454768  0.903680  1
  F  F35  1  0.996060  0.454768  0.903680  1
  F  F36  1  0.991868  0.428717  0.280285  1
  F  F37  1  0.508132  0.428717  0.280285  1
  F  F38  1  0.250000  0.342145  0.762835  1
  F  F39  1  0.750000  0.289296  0.663366  1
  F  F40  1  0.502598  0.354628  0.462912  1
  F  F41  1  0.997402  0.354628  0.462912  1
  F  F42  1  0.750000  0.311025  0.087654  1
  F  F43  1  0.250000  0.188975  0.587654  1
  F  F44  1  0.002598  0.145372  0.962912  1
  F  F45  1  0.497402  0.145372  0.962912  1
  F  F46  1  0.250000  0.210704  0.163366  1
  F  F47  1  0.750000  0.157855  0.262835  1
  F  F48  1  0.491868  0.071283  0.780285  1
  F  F49  1  0.008132  0.071283  0.780285  1
  F  F50  1  0.003940  0.045232  0.403680  1
  F  F51  1  0.496060  0.045232  0.403680  1
