# generated using pymatgen
data_K2H2OsCCl5O2
_symmetry_space_group_name_H-M   'P 1'
_cell_length_a   13.81117943
_cell_length_b   7.21945624
_cell_length_c   22.47010342
_cell_angle_alpha   90.00000000
_cell_angle_beta   98.77679655
_cell_angle_gamma   90.00000000
_symmetry_Int_Tables_number   1
_chemical_formula_structural   K2H2OsCCl5O2
_chemical_formula_sum   'K16 H16 Os8 C8 Cl40 O16'
_cell_volume   2214.24075838
_cell_formula_units_Z   8
loop_
 _symmetry_equiv_pos_site_id
 _symmetry_equiv_pos_as_xyz
  1  'x, y, z'
loop_
 _atom_site_type_symbol
 _atom_site_label
 _atom_site_symmetry_multiplicity
 _atom_site_fract_x
 _atom_site_fract_y
 _atom_site_fract_z
 _atom_site_occupancy
  K  K0  1  0.139797  0.593604  0.792015  1
  K  K1  1  0.151921  0.879394  0.503939  1
  K  K2  1  0.139797  0.906396  0.292015  1
  K  K3  1  0.321716  0.087830  0.783813  1
  K  K4  1  0.151921  0.620606  0.003939  1
  K  K5  1  0.356691  0.355092  0.508566  1
  K  K6  1  0.321716  0.412170  0.283813  1
  K  K7  1  0.356691  0.144908  0.008566  1
  K  K8  1  0.643309  0.855092  0.991434  1
  K  K9  1  0.678284  0.587830  0.716187  1
  K  K10  1  0.643309  0.644908  0.491434  1
  K  K11  1  0.848079  0.379394  0.996061  1
  K  K12  1  0.678284  0.912170  0.216187  1
  K  K13  1  0.860203  0.093604  0.707985  1
  K  K14  1  0.848079  0.120606  0.496061  1
  K  K15  1  0.860203  0.406396  0.207985  1
  H  H16  1  0.138559  0.908524  0.696324  1
  H  H17  1  0.226747  0.785144  0.686877  1
  H  H18  1  0.138559  0.591476  0.196324  1
  H  H19  1  0.274471  0.429089  0.694329  1
  H  H20  1  0.350938  0.505303  0.745139  1
  H  H21  1  0.226747  0.714856  0.186877  1
  H  H22  1  0.274471  0.070911  0.194329  1
  H  H23  1  0.350938  0.994697  0.245139  1
  H  H24  1  0.649062  0.005303  0.754861  1
  H  H25  1  0.725529  0.929089  0.805671  1
  H  H26  1  0.773253  0.285144  0.813123  1
  H  H27  1  0.649062  0.494697  0.254861  1
  H  H28  1  0.725529  0.570911  0.305671  1
  H  H29  1  0.861441  0.408524  0.803676  1
  H  H30  1  0.773253  0.214856  0.313123  1
  H  H31  1  0.861441  0.091476  0.303676  1
  Os  Os32  1  0.082986  0.158754  0.889624  1
  Os  Os33  1  0.082986  0.341246  0.389624  1
  Os  Os34  1  0.425391  0.840382  0.612855  1
  Os  Os35  1  0.574609  0.340382  0.887145  1
  Os  Os36  1  0.425391  0.659618  0.112855  1
  Os  Os37  1  0.574609  0.159618  0.387145  1
  Os  Os38  1  0.917014  0.658754  0.610376  1
  Os  Os39  1  0.917014  0.841246  0.110376  1
  C  C40  1  0.024726  0.505620  0.623977  1
  C  C41  1  0.024726  0.994380  0.123977  1
  C  C42  1  0.471430  0.503600  0.874884  1
  C  C43  1  0.528570  0.003600  0.625116  1
  C  C44  1  0.471430  0.996400  0.374884  1
  C  C45  1  0.528570  0.496400  0.125116  1
  C  C46  1  0.975274  0.005620  0.876023  1
  C  C47  1  0.975274  0.494380  0.376023  1
  Cl  Cl48  1  0.098860  0.166375  0.995614  1
  Cl  Cl49  1  0.008686  0.942924  0.612016  1
  Cl  Cl50  1  0.077482  0.174622  0.782598  1
  Cl  Cl51  1  0.192188  0.901550  0.894811  1
  Cl  Cl52  1  0.098860  0.333625  0.495614  1
  Cl  Cl53  1  0.008686  0.557076  0.112016  1
  Cl  Cl54  1  0.077482  0.325378  0.282598  1
  Cl  Cl55  1  0.232670  0.356211  0.899765  1
  Cl  Cl56  1  0.192188  0.598450  0.394811  1
  Cl  Cl57  1  0.278474  0.630139  0.602915  1
  Cl  Cl58  1  0.232670  0.143789  0.399765  1
  Cl  Cl59  1  0.314183  0.088791  0.619900  1
  Cl  Cl60  1  0.278474  0.869861  0.102915  1
  Cl  Cl61  1  0.478702  0.069171  0.899157  1
  Cl  Cl62  1  0.393947  0.862627  0.506653  1
  Cl  Cl63  1  0.448570  0.785609  0.719034  1
  Cl  Cl64  1  0.314183  0.411209  0.119900  1
  Cl  Cl65  1  0.551430  0.285609  0.780966  1
  Cl  Cl66  1  0.606053  0.362627  0.993347  1
  Cl  Cl67  1  0.521298  0.569171  0.600843  1
  Cl  Cl68  1  0.478702  0.430829  0.399157  1
  Cl  Cl69  1  0.393947  0.637373  0.006653  1
  Cl  Cl70  1  0.448570  0.714391  0.219034  1
  Cl  Cl71  1  0.685817  0.588791  0.880100  1
  Cl  Cl72  1  0.551430  0.214391  0.280966  1
  Cl  Cl73  1  0.606053  0.137373  0.493347  1
  Cl  Cl74  1  0.521298  0.930829  0.100843  1
  Cl  Cl75  1  0.721526  0.130139  0.897085  1
  Cl  Cl76  1  0.685817  0.911209  0.380100  1
  Cl  Cl77  1  0.767330  0.856211  0.600235  1
  Cl  Cl78  1  0.721526  0.369861  0.397085  1
  Cl  Cl79  1  0.807812  0.401550  0.605189  1
  Cl  Cl80  1  0.767330  0.643789  0.100235  1
  Cl  Cl81  1  0.922518  0.674622  0.717402  1
  Cl  Cl82  1  0.991314  0.442924  0.887984  1
  Cl  Cl83  1  0.901140  0.666375  0.504386  1
  Cl  Cl84  1  0.807812  0.098450  0.105189  1
  Cl  Cl85  1  0.922518  0.825378  0.217402  1
  Cl  Cl86  1  0.991314  0.057076  0.387984  1
  Cl  Cl87  1  0.901140  0.833625  0.004386  1
  O  O88  1  0.090178  0.403835  0.638307  1
  O  O89  1  0.195468  0.844544  0.718467  1
  O  O90  1  0.090178  0.096165  0.138307  1
  O  O91  1  0.290911  0.430940  0.738333  1
  O  O92  1  0.195468  0.655456  0.218467  1
  O  O93  1  0.408808  0.612688  0.862156  1
  O  O94  1  0.290911  0.069060  0.238333  1
  O  O95  1  0.408808  0.887312  0.362156  1
  O  O96  1  0.591192  0.112688  0.637844  1
  O  O97  1  0.709089  0.930940  0.761667  1
  O  O98  1  0.591192  0.387312  0.137844  1
  O  O99  1  0.804532  0.344544  0.781533  1
  O  O100  1  0.709089  0.569060  0.261667  1
  O  O101  1  0.909822  0.903835  0.861693  1
  O  O102  1  0.804532  0.155456  0.281533  1
  O  O103  1  0.909822  0.596165  0.361693  1
