# generated using pymatgen
data_Li3V3P8O29
_symmetry_space_group_name_H-M   'P 1'
_cell_length_a   9.77576162
_cell_length_b   9.78616503
_cell_length_c   14.42803041
_cell_angle_alpha   89.87442111
_cell_angle_beta   90.99895872
_cell_angle_gamma   119.87471608
_symmetry_Int_Tables_number   1
_chemical_formula_structural   Li3V3P8O29
_chemical_formula_sum   'Li6 V6 P16 O58'
_cell_volume   1196.65654000
_cell_formula_units_Z   2
loop_
 _symmetry_equiv_pos_site_id
 _symmetry_equiv_pos_as_xyz
  1  'x, y, z'
loop_
 _atom_site_type_symbol
 _atom_site_label
 _atom_site_symmetry_multiplicity
 _atom_site_fract_x
 _atom_site_fract_y
 _atom_site_fract_z
 _atom_site_occupancy
  Li  Li0  1  0.708013  0.783691  0.949112  1
  Li  Li1  1  0.692306  0.921519  0.433447  1
  Li  Li2  1  0.080691  0.307387  0.943586  1
  Li  Li3  1  0.779330  0.691615  0.546251  1
  Li  Li4  1  0.300594  0.083543  0.555209  1
  Li  Li5  1  0.316958  0.222481  0.062417  1
  V  V6  1  0.427856  0.434126  0.255944  1
  V  V7  1  0.569719  0.007532  0.244048  1
  V  V8  1  0.995021  0.433634  0.745446  1
  V  V9  1  0.001257  0.566645  0.250435  1
  V  V10  1  0.430183  0.993654  0.754399  1
  V  V11  1  0.567235  0.566092  0.750184  1
  P  P12  1  0.675970  0.766108  0.160463  1
  P  P13  1  0.677040  0.910272  0.655168  1
  P  P14  1  0.226011  0.315932  0.662796  1
  P  P15  1  0.339597  0.675258  0.369258  1
  P  P16  1  0.335708  0.662297  0.867614  1
  P  P17  1  0.085030  0.316032  0.158912  1
  P  P18  1  0.918088  0.229469  0.339282  1
  P  P19  1  0.223574  0.910098  0.163808  1
  P  P20  1  0.774349  0.086981  0.833891  1
  P  P21  1  0.082888  0.771348  0.662888  1
  P  P22  1  0.918491  0.686010  0.844335  1
  P  P23  1  0.662855  0.337871  0.131387  1
  P  P24  1  0.657776  0.329987  0.632715  1
  P  P25  1  0.772877  0.680748  0.336647  1
  P  P26  1  0.320754  0.086444  0.341987  1
  P  P27  1  0.320321  0.231800  0.841129  1
  O  O28  1  0.762834  0.760221  0.423057  1
  O  O29  1  0.661292  0.743916  0.666575  1
  O  O30  1  0.796162  0.014794  0.738004  1
  O  O31  1  0.767217  0.991025  0.914919  1
  O  O32  1  0.517698  0.615672  0.180759  1
  O  O33  1  0.653137  0.911537  0.171072  1
  O  O34  1  0.486116  0.666037  0.824082  1
  O  O35  1  0.380797  0.476934  0.679823  1
  O  O36  1  0.251516  0.242556  0.930622  1
  O  O37  1  0.254411  0.337587  0.167279  1
  O  O38  1  0.488690  0.822748  0.330589  1
  O  O39  1  0.340669  0.523739  0.325083  1
  O  O40  1  0.518800  0.902505  0.679866  1
  O  O41  1  0.343736  0.667630  0.471888  1
  O  O42  1  0.351147  0.669236  0.970046  1
  O  O43  1  0.380581  0.905231  0.177869  1
  O  O44  1  0.184726  0.513903  0.828695  1
  O  O45  1  0.336041  0.812808  0.823418  1
  O  O46  1  0.084662  0.345343  0.667917  1
  O  O47  1  0.992411  0.205306  0.244053  1
  O  O48  1  0.013283  0.246761  0.067097  1
  O  O49  1  0.003284  0.230085  0.424120  1
  O  O50  1  0.094332  0.476585  0.178379  1
  O  O51  1  0.188324  0.667065  0.324473  1
  O  O52  1  0.253576  0.914389  0.664110  1
  O  O53  1  0.917626  0.256741  0.836022  1
  O  O54  1  0.092234  0.617231  0.677944  1
  O  O55  1  0.737578  0.977019  0.563045  1
  O  O56  1  0.255535  0.017319  0.432752  1
  O  O57  1  0.911644  0.384066  0.320969  1
  O  O58  1  0.084581  0.739569  0.167185  1
  O  O59  1  0.202687  0.986152  0.258702  1
  O  O60  1  0.745206  0.086388  0.333200  1
  O  O61  1  0.810062  0.333160  0.677020  1
  O  O62  1  0.911145  0.525995  0.820334  1
  O  O63  1  0.996862  0.760941  0.932466  1
  O  O64  1  0.990502  0.763555  0.578789  1
  O  O65  1  0.006464  0.793974  0.755049  1
  O  O66  1  0.916714  0.657072  0.334062  1
  O  O67  1  0.661378  0.185584  0.175686  1
  O  O68  1  0.618946  0.095374  0.820144  1
  O  O69  1  0.813573  0.480089  0.176669  1
  O  O70  1  0.661795  0.343423  0.530322  1
  O  O71  1  0.660360  0.328150  0.028689  1
  O  O72  1  0.480350  0.096346  0.320677  1
  O  O73  1  0.663779  0.482202  0.676657  1
  O  O74  1  0.510907  0.180021  0.670755  1
  O  O75  1  0.746372  0.659679  0.834295  1
  O  O76  1  0.790891  0.787045  0.247951  1
  O  O77  1  0.747508  0.762105  0.072115  1
  O  O78  1  0.619692  0.519103  0.321681  1
  O  O79  1  0.512499  0.335763  0.168983  1
  O  O80  1  0.342868  0.086531  0.830648  1
  O  O81  1  0.480690  0.382075  0.821476  1
  O  O82  1  0.228828  0.004695  0.082423  1
  O  O83  1  0.344664  0.255336  0.328434  1
  O  O84  1  0.233304  0.229683  0.581170  1
  O  O85  1  0.203667  0.215282  0.757115  1
