# generated using pymatgen
data_Zr2N2O
_symmetry_space_group_name_H-M   'P 1'
_cell_length_a   8.86061477
_cell_length_b   8.86832324
_cell_length_c   8.88495976
_cell_angle_alpha   109.44340535
_cell_angle_beta   109.38128313
_cell_angle_gamma   109.44530651
_symmetry_Int_Tables_number   1
_chemical_formula_structural   Zr2N2O
_chemical_formula_sum   'Zr16 N16 O8'
_cell_volume   538.40173642
_cell_formula_units_Z   8
loop_
 _symmetry_equiv_pos_site_id
 _symmetry_equiv_pos_as_xyz
  1  'x, y, z'
loop_
 _atom_site_type_symbol
 _atom_site_label
 _atom_site_symmetry_multiplicity
 _atom_site_fract_x
 _atom_site_fract_y
 _atom_site_fract_z
 _atom_site_occupancy
  Zr  Zr0  1  0.511680  0.498475  0.500817  1
  Zr  Zr1  1  0.211517  0.757734  0.463266  1
  Zr  Zr2  1  0.963275  0.213369  0.258468  1
  Zr  Zr3  1  0.469339  0.719978  0.247154  1
  Zr  Zr4  1  0.293164  0.248056  0.035622  1
  Zr  Zr5  1  0.253026  0.030430  0.287075  1
  Zr  Zr6  1  0.245006  0.535852  0.786060  1
  Zr  Zr7  1  0.747292  0.964499  0.705966  1
  Zr  Zr8  1  0.500410  0.008150  0.010567  1
  Zr  Zr9  1  0.991014  0.503220  0.994894  1
  Zr  Zr10  1  0.744092  0.464322  0.214646  1
  Zr  Zr11  1  0.999989  0.996479  0.489666  1
  Zr  Zr12  1  0.717382  0.750603  0.967789  1
  Zr  Zr13  1  0.540205  0.283146  0.750109  1
  Zr  Zr14  1  0.028281  0.780827  0.748902  1
  Zr  Zr15  1  0.787257  0.249678  0.537042  1
  N  N16  1  0.769626  0.728975  0.736112  1
  N  N17  1  0.539085  0.509727  0.272264  1
  N  N18  1  0.507587  0.767799  0.039524  1
  N  N19  1  0.239977  0.768292  0.228998  1
  N  N20  1  0.957912  0.726834  0.469283  1
  N  N21  1  0.727435  0.235151  0.268613  1
  N  N22  1  0.051689  0.275657  0.535866  1
  N  N23  1  0.763439  0.226380  0.777618  1
  N  N24  1  0.965810  0.958218  0.226998  1
  N  N25  1  0.259770  0.989958  0.031304  1
  N  N26  1  0.484696  0.225755  0.952925  1
  N  N27  1  0.773583  0.546428  0.011199  1
  N  N28  1  0.995605  0.538100  0.767333  1
  N  N29  1  0.727186  0.963044  0.457692  1
  N  N30  1  0.273455  0.032295  0.546513  1
  N  N31  1  0.534247  0.265598  0.488723  1
  O  O32  1  0.276756  0.758876  0.724477  1
  O  O33  1  0.226352  0.278302  0.264487  1
  O  O34  1  0.463409  0.739385  0.518815  1
  O  O35  1  0.033405  0.051304  0.776296  1
  O  O36  1  0.737318  0.011007  0.964419  1
  O  O37  1  0.222959  0.446698  0.981823  1
  O  O38  1  0.012240  0.461683  0.235970  1
  O  O39  1  0.453536  0.489721  0.724706  1
