# generated using pymatgen
data_LiCr2(PO4)2
_symmetry_space_group_name_H-M   'P 1'
_cell_length_a   5.64231551
_cell_length_b   10.85783104
_cell_length_c   10.25799984
_cell_angle_alpha   90.00000000
_cell_angle_beta   92.32653117
_cell_angle_gamma   90.00000000
_symmetry_Int_Tables_number   1
_chemical_formula_structural   LiCr2(PO4)2
_chemical_formula_sum   'Li4 Cr8 P8 O32'
_cell_volume   627.92098902
_cell_formula_units_Z   4
loop_
 _symmetry_equiv_pos_site_id
 _symmetry_equiv_pos_as_xyz
  1  'x, y, z'
loop_
 _atom_site_type_symbol
 _atom_site_label
 _atom_site_symmetry_multiplicity
 _atom_site_fract_x
 _atom_site_fract_y
 _atom_site_fract_z
 _atom_site_occupancy
  Li  Li0  1  0.119985  0.874687  0.903546  1
  Li  Li1  1  0.119985  0.625313  0.403546  1
  Li  Li2  1  0.880015  0.374687  0.596454  1
  Li  Li3  1  0.880015  0.125313  0.096454  1
  Cr  Cr4  1  0.130635  0.098630  0.732644  1
  Cr  Cr5  1  0.130635  0.401370  0.232644  1
  Cr  Cr6  1  0.339271  0.628312  0.983304  1
  Cr  Cr7  1  0.339271  0.871688  0.483304  1
  Cr  Cr8  1  0.660729  0.128312  0.516696  1
  Cr  Cr9  1  0.660729  0.371688  0.016696  1
  Cr  Cr10  1  0.869365  0.598630  0.767356  1
  Cr  Cr11  1  0.869365  0.901370  0.267356  1
  P  P12  1  0.118208  0.359684  0.911564  1
  P  P13  1  0.118208  0.140316  0.411564  1
  P  P14  1  0.362009  0.607281  0.661358  1
  P  P15  1  0.362009  0.892719  0.161358  1
  P  P16  1  0.637991  0.107281  0.838642  1
  P  P17  1  0.637991  0.392719  0.338642  1
  P  P18  1  0.881792  0.859684  0.588436  1
  P  P19  1  0.881792  0.640316  0.088436  1
  O  O20  1  0.059777  0.192016  0.549290  1
  O  O21  1  0.108424  0.935699  0.632599  1
  O  O22  1  0.059777  0.307984  0.049290  1
  O  O23  1  0.108424  0.564301  0.132599  1
  O  O24  1  0.125059  0.528446  0.647544  1
  O  O25  1  0.164355  0.262965  0.809176  1
  O  O26  1  0.125059  0.971554  0.147544  1
  O  O27  1  0.164355  0.237035  0.309176  1
  O  O28  1  0.335298  0.445783  0.927241  1
  O  O29  1  0.335298  0.054217  0.427241  1
  O  O30  1  0.354503  0.680016  0.791717  1
  O  O31  1  0.354503  0.819984  0.291717  1
  O  O32  1  0.359000  0.694754  0.542078  1
  O  O33  1  0.408374  0.026724  0.837215  1
  O  O34  1  0.359000  0.805246  0.042078  1
  O  O35  1  0.408374  0.473276  0.337215  1
  O  O36  1  0.591626  0.526724  0.662785  1
  O  O37  1  0.641000  0.194754  0.957922  1
  O  O38  1  0.591626  0.973276  0.162785  1
  O  O39  1  0.641000  0.305246  0.457922  1
  O  O40  1  0.645497  0.180016  0.708283  1
  O  O41  1  0.645497  0.319984  0.208283  1
  O  O42  1  0.664702  0.945783  0.572759  1
  O  O43  1  0.664702  0.554217  0.072759  1
  O  O44  1  0.835645  0.762965  0.690824  1
  O  O45  1  0.874941  0.028446  0.852456  1
  O  O46  1  0.835645  0.737035  0.190824  1
  O  O47  1  0.874941  0.471554  0.352456  1
  O  O48  1  0.891576  0.435699  0.867401  1
  O  O49  1  0.940223  0.692016  0.950710  1
  O  O50  1  0.891576  0.064301  0.367401  1
  O  O51  1  0.940223  0.807984  0.450710  1
