# generated using pymatgen
data_Li5CoO4
_symmetry_space_group_name_H-M   'P 1'
_cell_length_a   6.68264947
_cell_length_b   7.08101468
_cell_length_c   7.99330916
_cell_angle_alpha   90.00000000
_cell_angle_beta   90.00000000
_cell_angle_gamma   90.00000000
_symmetry_Int_Tables_number   1
_chemical_formula_structural   Li5CoO4
_chemical_formula_sum   'Li20 Co4 O16'
_cell_volume   378.24290185
_cell_formula_units_Z   4
loop_
 _symmetry_equiv_pos_site_id
 _symmetry_equiv_pos_as_xyz
  1  'x, y, z'
loop_
 _atom_site_type_symbol
 _atom_site_label
 _atom_site_symmetry_multiplicity
 _atom_site_fract_x
 _atom_site_fract_y
 _atom_site_fract_z
 _atom_site_occupancy
  Li  Li0  1  0.756620  0.500000  0.000000  1
  Li  Li1  1  0.243380  0.500000  0.000000  1
  Li  Li2  1  0.500000  0.256024  0.902226  1
  Li  Li3  1  0.744883  0.022057  0.844476  1
  Li  Li4  1  0.255117  0.022057  0.844476  1
  Li  Li5  1  0.500000  0.757904  0.796191  1
  Li  Li6  1  0.000000  0.257904  0.703809  1
  Li  Li7  1  0.755117  0.522057  0.655524  1
  Li  Li8  1  0.244883  0.522057  0.655524  1
  Li  Li9  1  0.000000  0.756024  0.597774  1
  Li  Li10  1  0.256620  0.000000  0.500000  1
  Li  Li11  1  0.743380  0.000000  0.500000  1
  Li  Li12  1  0.000000  0.243976  0.402226  1
  Li  Li13  1  0.755117  0.477943  0.344476  1
  Li  Li14  1  0.244883  0.477943  0.344476  1
  Li  Li15  1  0.000000  0.742096  0.296191  1
  Li  Li16  1  0.500000  0.242096  0.203809  1
  Li  Li17  1  0.744883  0.977943  0.155524  1
  Li  Li18  1  0.255117  0.977943  0.155524  1
  Li  Li19  1  0.500000  0.743976  0.097774  1
  Co  Co20  1  0.000000  0.767656  0.897195  1
  Co  Co21  1  0.500000  0.267656  0.602805  1
  Co  Co22  1  0.500000  0.732344  0.397195  1
  Co  Co23  1  0.000000  0.232344  0.102805  1
  O  O24  1  0.740428  0.782414  0.975979  1
  O  O25  1  0.259572  0.782414  0.975979  1
  O  O26  1  0.000000  0.531486  0.783816  1
  O  O27  1  0.500000  0.476760  0.763092  1
  O  O28  1  0.000000  0.976760  0.736908  1
  O  O29  1  0.500000  0.031486  0.716184  1
  O  O30  1  0.759572  0.282414  0.524021  1
  O  O31  1  0.240428  0.282414  0.524021  1
  O  O32  1  0.759572  0.717586  0.475979  1
  O  O33  1  0.240428  0.717586  0.475979  1
  O  O34  1  0.500000  0.968514  0.283816  1
  O  O35  1  0.000000  0.023240  0.263092  1
  O  O36  1  0.500000  0.523240  0.236908  1
  O  O37  1  0.000000  0.468514  0.216184  1
  O  O38  1  0.740428  0.217586  0.024021  1
  O  O39  1  0.259572  0.217586  0.024021  1
