# generated using pymatgen
data_LiZrPCO7
_symmetry_space_group_name_H-M   'P 1'
_cell_length_a   5.68270669
_cell_length_b   6.63093014
_cell_length_c   8.89924143
_cell_angle_alpha   90.00000000
_cell_angle_beta   91.61368196
_cell_angle_gamma   90.00000000
_symmetry_Int_Tables_number   1
_chemical_formula_structural   LiZrPCO7
_chemical_formula_sum   'Li2 Zr2 P2 C2 O14'
_cell_volume   335.20494346
_cell_formula_units_Z   2
loop_
 _symmetry_equiv_pos_site_id
 _symmetry_equiv_pos_as_xyz
  1  'x, y, z'
loop_
 _atom_site_type_symbol
 _atom_site_label
 _atom_site_symmetry_multiplicity
 _atom_site_fract_x
 _atom_site_fract_y
 _atom_site_fract_z
 _atom_site_occupancy
  Li  Li0  1  0.745871  0.432383  0.156441  1
  Li  Li1  1  0.254129  0.932383  0.843559  1
  Zr  Zr2  1  0.203927  0.254638  0.341624  1
  Zr  Zr3  1  0.796073  0.754638  0.658376  1
  P  P4  1  0.278641  0.758233  0.448174  1
  P  P5  1  0.721359  0.258233  0.551826  1
  C  C6  1  0.261646  0.256052  0.052450  1
  C  C7  1  0.738354  0.756052  0.947550  1
  O  O8  1  0.705985  0.706657  0.078819  1
  O  O9  1  0.051430  0.273607  0.115402  1
  O  O10  1  0.436305  0.285347  0.156342  1
  O  O11  1  0.213792  0.942348  0.349673  1
  O  O12  1  0.197793  0.568039  0.363751  1
  O  O13  1  0.849142  0.273548  0.399208  1
  O  O14  1  0.546140  0.751296  0.483157  1
  O  O15  1  0.453860  0.251296  0.516843  1
  O  O16  1  0.150858  0.773548  0.600792  1
  O  O17  1  0.802207  0.068039  0.636249  1
  O  O18  1  0.786208  0.442348  0.650327  1
  O  O19  1  0.563695  0.785347  0.843658  1
  O  O20  1  0.948570  0.773607  0.884598  1
  O  O21  1  0.294015  0.206657  0.921181  1
