# generated using pymatgen
data_Li2Mn3(BO3)3
_symmetry_space_group_name_H-M   'P 1'
_cell_length_a   6.21169427
_cell_length_b   7.81726753
_cell_length_c   9.04031011
_cell_angle_alpha   109.71767677
_cell_angle_beta   106.68361453
_cell_angle_gamma   100.26336937
_symmetry_Int_Tables_number   1
_chemical_formula_structural   Li2Mn3(BO3)3
_chemical_formula_sum   'Li4 Mn6 B6 O18'
_cell_volume   376.98736395
_cell_formula_units_Z   2
loop_
 _symmetry_equiv_pos_site_id
 _symmetry_equiv_pos_as_xyz
  1  'x, y, z'
loop_
 _atom_site_type_symbol
 _atom_site_label
 _atom_site_symmetry_multiplicity
 _atom_site_fract_x
 _atom_site_fract_y
 _atom_site_fract_z
 _atom_site_occupancy
  Li  Li0  1  0.321320  0.005265  0.380206  1
  Li  Li1  1  0.663624  0.322588  0.052114  1
  Li  Li2  1  0.336376  0.677412  0.947886  1
  Li  Li3  1  0.678680  0.994735  0.619794  1
  Mn  Mn4  1  0.350919  0.596008  0.592303  1
  Mn  Mn5  1  0.268157  0.014337  0.722643  1
  Mn  Mn6  1  0.059671  0.295309  0.959322  1
  Mn  Mn7  1  0.940329  0.704691  0.040678  1
  Mn  Mn8  1  0.731843  0.985663  0.277357  1
  Mn  Mn9  1  0.649081  0.403992  0.407697  1
  B  B10  1  0.697128  0.951804  0.934284  1
  B  B11  1  0.601276  0.349128  0.717579  1
  B  B12  1  0.964638  0.691671  0.371309  1
  B  B13  1  0.035362  0.308329  0.628691  1
  B  B14  1  0.398724  0.650872  0.282421  1
  B  B15  1  0.302872  0.048196  0.065716  1
  O  O16  1  0.568479  0.880340  0.760672  1
  O  O17  1  0.393284  0.525317  0.366752  1
  O  O18  1  0.840846  0.135684  0.027518  1
  O  O19  1  0.337052  0.166806  0.981634  1
  O  O20  1  0.749324  0.419188  0.885493  1
  O  O21  1  0.118435  0.731908  0.534799  1
  O  O22  1  0.463663  0.163921  0.624672  1
  O  O23  1  0.788112  0.520096  0.279437  1
  O  O24  1  0.997002  0.827957  0.306685  1
  O  O25  1  0.002998  0.172043  0.693315  1
  O  O26  1  0.211888  0.479904  0.720563  1
  O  O27  1  0.536337  0.836079  0.375328  1
  O  O28  1  0.881565  0.268092  0.465201  1
  O  O29  1  0.250676  0.580812  0.114507  1
  O  O30  1  0.662948  0.833194  0.018366  1
  O  O31  1  0.159154  0.864316  0.972482  1
  O  O32  1  0.606716  0.474683  0.633248  1
  O  O33  1  0.431521  0.119660  0.239328  1
