# generated using pymatgen
data_LiMnPCO7
_symmetry_space_group_name_H-M   'P 1'
_cell_length_a   8.42103575
_cell_length_b   6.24013448
_cell_length_c   10.25736961
_cell_angle_alpha   90.00000000
_cell_angle_beta   94.15507265
_cell_angle_gamma   90.00000000
_symmetry_Int_Tables_number   1
_chemical_formula_structural   LiMnPCO7
_chemical_formula_sum   'Li4 Mn4 P4 C4 O28'
_cell_volume   537.59158600
_cell_formula_units_Z   4
loop_
 _symmetry_equiv_pos_site_id
 _symmetry_equiv_pos_as_xyz
  1  'x, y, z'
loop_
 _atom_site_type_symbol
 _atom_site_label
 _atom_site_symmetry_multiplicity
 _atom_site_fract_x
 _atom_site_fract_y
 _atom_site_fract_z
 _atom_site_occupancy
  Li  Li0  1  0.742465  0.971163  0.374108  1
  Li  Li1  1  0.742465  0.528837  0.874108  1
  Li  Li2  1  0.257535  0.028837  0.625892  1
  Li  Li3  1  0.257535  0.471163  0.125892  1
  Mn  Mn4  1  0.669663  0.250133  0.645669  1
  Mn  Mn5  1  0.669663  0.249867  0.145669  1
  Mn  Mn6  1  0.330337  0.749867  0.354331  1
  Mn  Mn7  1  0.330337  0.750133  0.854331  1
  P  P8  1  0.574088  0.756684  0.612351  1
  P  P9  1  0.574088  0.743316  0.112351  1
  P  P10  1  0.425912  0.243316  0.387649  1
  P  P11  1  0.425912  0.256684  0.887649  1
  C  C12  1  0.949074  0.245143  0.604722  1
  C  C13  1  0.949074  0.254857  0.104722  1
  C  C14  1  0.050926  0.754857  0.395278  1
  C  C15  1  0.050926  0.745143  0.895278  1
  O  O16  1  0.893989  0.262225  0.721468  1
  O  O17  1  0.909857  0.767780  0.418314  1
  O  O18  1  0.893989  0.237775  0.221468  1
  O  O19  1  0.828041  0.241215  0.513193  1
  O  O20  1  0.909857  0.732220  0.918314  1
  O  O21  1  0.828041  0.258785  0.013193  1
  O  O22  1  0.686206  0.946218  0.651632  1
  O  O23  1  0.675232  0.559471  0.657754  1
  O  O24  1  0.675232  0.940529  0.157754  1
  O  O25  1  0.686206  0.553782  0.151632  1
  O  O26  1  0.584360  0.231461  0.321176  1
  O  O27  1  0.535059  0.760934  0.461268  1
  O  O28  1  0.584360  0.268539  0.821176  1
  O  O29  1  0.535059  0.739066  0.961268  1
  O  O30  1  0.464941  0.239066  0.538732  1
  O  O31  1  0.415640  0.768539  0.678824  1
  O  O32  1  0.464941  0.260934  0.038732  1
  O  O33  1  0.415640  0.731461  0.178824  1
  O  O34  1  0.313794  0.053782  0.348368  1
  O  O35  1  0.324768  0.440529  0.342246  1
  O  O36  1  0.313794  0.446218  0.848368  1
  O  O37  1  0.324768  0.059471  0.842246  1
  O  O38  1  0.171959  0.758785  0.486807  1
  O  O39  1  0.090143  0.232220  0.581686  1
  O  O40  1  0.171959  0.741215  0.986807  1
  O  O41  1  0.106011  0.737775  0.278532  1
  O  O42  1  0.090143  0.267780  0.081686  1
  O  O43  1  0.106011  0.762225  0.778532  1
