# generated using pymatgen
data_SbOF3
_symmetry_space_group_name_H-M   'P 1'
_cell_length_a   9.31184995
_cell_length_b   9.31184995
_cell_length_c   3.77577835
_cell_angle_alpha   90.00000000
_cell_angle_beta   90.00000000
_cell_angle_gamma   90.00000000
_symmetry_Int_Tables_number   1
_chemical_formula_structural   SbOF3
_chemical_formula_sum   'Sb4 O4 F12'
_cell_volume   327.39981549
_cell_formula_units_Z   4
loop_
 _symmetry_equiv_pos_site_id
 _symmetry_equiv_pos_as_xyz
  1  'x, y, z'
loop_
 _atom_site_type_symbol
 _atom_site_label
 _atom_site_symmetry_multiplicity
 _atom_site_fract_x
 _atom_site_fract_y
 _atom_site_fract_z
 _atom_site_occupancy
  Sb  Sb0  1  0.630135  0.130135  0.757506  1
  Sb  Sb1  1  0.869865  0.630135  0.242494  1
  Sb  Sb2  1  0.130135  0.369865  0.242494  1
  Sb  Sb3  1  0.369865  0.869865  0.757506  1
  O  O4  1  0.610811  0.110811  0.257522  1
  O  O5  1  0.889189  0.610811  0.742478  1
  O  O6  1  0.110811  0.389189  0.742478  1
  O  O7  1  0.389189  0.889189  0.257522  1
  F  F8  1  0.593554  0.906446  0.757602  1
  F  F9  1  0.606884  0.331048  0.756052  1
  F  F10  1  0.668952  0.606884  0.243948  1
  F  F11  1  0.831048  0.106884  0.756052  1
  F  F12  1  0.893116  0.831048  0.243948  1
  F  F13  1  0.906446  0.406446  0.242398  1
  F  F14  1  0.093554  0.593554  0.242398  1
  F  F15  1  0.106884  0.168952  0.243948  1
  F  F16  1  0.168952  0.893116  0.756052  1
  F  F17  1  0.331048  0.393116  0.243948  1
  F  F18  1  0.393116  0.668952  0.756052  1
  F  F19  1  0.406446  0.093554  0.757602  1
