# generated using pymatgen
data_Mn6OF11
_symmetry_space_group_name_H-M   'P 1'
_cell_length_a   4.98339771
_cell_length_b   5.90852266
_cell_length_c   16.13599565
_cell_angle_alpha   90.94732509
_cell_angle_beta   90.11820172
_cell_angle_gamma   91.01494586
_symmetry_Int_Tables_number   1
_chemical_formula_structural   Mn6OF11
_chemical_formula_sum   'Mn12 O2 F22'
_cell_volume   474.97582878
_cell_formula_units_Z   2
loop_
 _symmetry_equiv_pos_site_id
 _symmetry_equiv_pos_as_xyz
  1  'x, y, z'
loop_
 _atom_site_type_symbol
 _atom_site_label
 _atom_site_symmetry_multiplicity
 _atom_site_fract_x
 _atom_site_fract_y
 _atom_site_fract_z
 _atom_site_occupancy
  Mn  Mn0  1  0.001329  0.831767  0.584685  1
  Mn  Mn1  1  0.003770  0.172106  0.757544  1
  Mn  Mn2  1  0.980751  0.815473  0.923873  1
  Mn  Mn3  1  0.996230  0.827894  0.242456  1
  Mn  Mn4  1  0.998671  0.168233  0.415315  1
  Mn  Mn5  1  0.019249  0.184527  0.076127  1
  Mn  Mn6  1  0.495136  0.671782  0.415741  1
  Mn  Mn7  1  0.503373  0.641989  0.075324  1
  Mn  Mn8  1  0.494996  0.672738  0.752034  1
  Mn  Mn9  1  0.496627  0.358011  0.924676  1
  Mn  Mn10  1  0.504864  0.328218  0.584259  1
  Mn  Mn11  1  0.505004  0.327262  0.247966  1
  O  O12  1  0.295556  0.398392  0.025128  1
  O  O13  1  0.704444  0.601608  0.974872  1
  F  F14  1  0.232341  0.900607  0.695295  1
  F  F15  1  0.224625  0.890677  0.356072  1
  F  F16  1  0.223765  0.890592  0.028928  1
  F  F17  1  0.246151  0.129528  0.868646  1
  F  F18  1  0.231749  0.103121  0.524878  1
  F  F19  1  0.216619  0.110293  0.191410  1
  F  F20  1  0.248928  0.614835  0.856218  1
  F  F21  1  0.267709  0.392482  0.694191  1
  F  F22  1  0.271205  0.603845  0.527162  1
  F  F23  1  0.269323  0.393750  0.356305  1
  F  F24  1  0.291127  0.614826  0.183426  1
  F  F25  1  0.708873  0.385174  0.816574  1
  F  F26  1  0.730677  0.606250  0.643695  1
  F  F27  1  0.728795  0.396155  0.472838  1
  F  F28  1  0.751072  0.385165  0.143782  1
  F  F29  1  0.732291  0.607518  0.305809  1
  F  F30  1  0.783381  0.889707  0.808590  1
  F  F31  1  0.768251  0.896879  0.475122  1
  F  F32  1  0.775375  0.109323  0.643928  1
  F  F33  1  0.776235  0.109408  0.971072  1
  F  F34  1  0.753849  0.870472  0.131354  1
  F  F35  1  0.767659  0.099393  0.304705  1
