# generated using pymatgen
data_Li4Fe5Cu3O16
_symmetry_space_group_name_H-M   'P 1'
_cell_length_a   5.91406801
_cell_length_b   5.91406801
_cell_length_c   9.50225351
_cell_angle_alpha   89.23218333
_cell_angle_beta   90.76781667
_cell_angle_gamma   120.71428452
_symmetry_Int_Tables_number   1
_chemical_formula_structural   Li4Fe5Cu3O16
_chemical_formula_sum   'Li4 Fe5 Cu3 O16'
_cell_volume   285.69796660
_cell_formula_units_Z   1
loop_
 _symmetry_equiv_pos_site_id
 _symmetry_equiv_pos_as_xyz
  1  'x, y, z'
loop_
 _atom_site_type_symbol
 _atom_site_label
 _atom_site_symmetry_multiplicity
 _atom_site_fract_x
 _atom_site_fract_y
 _atom_site_fract_z
 _atom_site_occupancy
  Li  Li0  1  0.660100  0.339900  0.104637  1
  Li  Li1  1  0.000253  0.999747  0.003077  1
  Li  Li2  1  0.006438  0.993562  0.507014  1
  Li  Li3  1  0.336859  0.663141  0.606594  1
  Fe  Fe4  1  0.671073  0.328927  0.508860  1
  Fe  Fe5  1  0.828551  0.171449  0.785587  1
  Fe  Fe6  1  0.327840  0.672160  0.009457  1
  Fe  Fe7  1  0.661586  0.830415  0.284446  1
  Fe  Fe8  1  0.169585  0.338414  0.284446  1
  Cu  Cu9  1  0.829290  0.660013  0.787128  1
  Cu  Cu10  1  0.339987  0.170710  0.787128  1
  Cu  Cu11  1  0.171175  0.828825  0.288550  1
  O  O12  1  0.833885  0.666821  0.403624  1
  O  O13  1  0.522387  0.477613  0.658966  1
  O  O14  1  0.661323  0.338677  0.892722  1
  O  O15  1  0.004320  0.995680  0.697356  1
  O  O16  1  0.007776  0.992224  0.192042  1
  O  O17  1  0.333179  0.166115  0.403624  1
  O  O18  1  0.965868  0.472658  0.657399  1
  O  O19  1  0.527342  0.034132  0.657399  1
  O  O20  1  0.159564  0.840436  0.900858  1
  O  O21  1  0.839619  0.160381  0.399762  1
  O  O22  1  0.482129  0.967155  0.157142  1
  O  O23  1  0.032845  0.517871  0.157142  1
  O  O24  1  0.331554  0.668446  0.396176  1
  O  O25  1  0.665176  0.849026  0.901293  1
  O  O26  1  0.480302  0.519698  0.158213  1
  O  O27  1  0.150974  0.334824  0.901293  1
