# generated using pymatgen
data_Li2AlFeO4
_symmetry_space_group_name_H-M   'P 1'
_cell_length_a   5.30138548
_cell_length_b   10.37409777
_cell_length_c   13.81865502
_cell_angle_alpha   90.00000000
_cell_angle_beta   90.00000000
_cell_angle_gamma   90.00000000
_symmetry_Int_Tables_number   1
_chemical_formula_structural   Li2AlFeO4
_chemical_formula_sum   'Li16 Al8 Fe8 O32'
_cell_volume   759.98583158
_cell_formula_units_Z   8
loop_
 _symmetry_equiv_pos_site_id
 _symmetry_equiv_pos_as_xyz
  1  'x, y, z'
loop_
 _atom_site_type_symbol
 _atom_site_label
 _atom_site_symmetry_multiplicity
 _atom_site_fract_x
 _atom_site_fract_y
 _atom_site_fract_z
 _atom_site_occupancy
  Li  Li0  1  0.993198  0.027599  0.555126  1
  Li  Li1  1  0.498499  0.023897  0.945809  1
  Li  Li2  1  0.122028  0.791755  0.210144  1
  Li  Li3  1  0.628019  0.792897  0.288750  1
  Li  Li4  1  0.122028  0.708245  0.710144  1
  Li  Li5  1  0.628019  0.707103  0.788750  1
  Li  Li6  1  0.498499  0.476103  0.445809  1
  Li  Li7  1  0.993198  0.472401  0.055126  1
  Li  Li8  1  0.501501  0.523897  0.945809  1
  Li  Li9  1  0.006802  0.527599  0.555126  1
  Li  Li10  1  0.371981  0.292897  0.288750  1
  Li  Li11  1  0.877972  0.291755  0.210144  1
  Li  Li12  1  0.371981  0.207103  0.788750  1
  Li  Li13  1  0.877972  0.208245  0.710144  1
  Li  Li14  1  0.006802  0.972401  0.055126  1
  Li  Li15  1  0.501501  0.976103  0.445809  1
  Al  Al16  1  0.995047  0.967458  0.809532  1
  Al  Al17  1  0.505953  0.785998  0.064812  1
  Al  Al18  1  0.505953  0.714002  0.564812  1
  Al  Al19  1  0.995047  0.532542  0.309532  1
  Al  Al20  1  0.004953  0.467458  0.809532  1
  Al  Al21  1  0.494047  0.285998  0.064812  1
  Al  Al22  1  0.494047  0.214002  0.564812  1
  Al  Al23  1  0.004953  0.032542  0.309532  1
  Fe  Fe24  1  0.495977  0.967428  0.689024  1
  Fe  Fe25  1  0.004940  0.786163  0.436772  1
  Fe  Fe26  1  0.004940  0.713837  0.936772  1
  Fe  Fe27  1  0.495977  0.532572  0.189024  1
  Fe  Fe28  1  0.504023  0.467428  0.689024  1
  Fe  Fe29  1  0.995060  0.286163  0.436772  1
  Fe  Fe30  1  0.995060  0.213837  0.936772  1
  Fe  Fe31  1  0.504023  0.032572  0.189024  1
  O  O32  1  0.680535  0.982193  0.304120  1
  O  O33  1  0.158736  0.979791  0.200608  1
  O  O34  1  0.647813  0.939115  0.084509  1
  O  O35  1  0.140642  0.951536  0.410623  1
  O  O36  1  0.943114  0.797115  0.814121  1
  O  O37  1  0.443625  0.784979  0.680849  1
  O  O38  1  0.690349  0.822989  0.496891  1
  O  O39  1  0.213726  0.824052  0.008773  1
  O  O40  1  0.690349  0.677011  0.996891  1
  O  O41  1  0.213726  0.675948  0.508773  1
  O  O42  1  0.443625  0.715021  0.180849  1
  O  O43  1  0.943114  0.702885  0.314121  1
  O  O44  1  0.647813  0.560885  0.584509  1
  O  O45  1  0.140642  0.548464  0.910623  1
  O  O46  1  0.680535  0.517807  0.804120  1
  O  O47  1  0.158736  0.520209  0.700608  1
  O  O48  1  0.841264  0.479791  0.200608  1
  O  O49  1  0.319465  0.482193  0.304120  1
  O  O50  1  0.859358  0.451536  0.410623  1
  O  O51  1  0.352187  0.439115  0.084509  1
  O  O52  1  0.556375  0.284979  0.680849  1
  O  O53  1  0.056886  0.297115  0.814121  1
  O  O54  1  0.786274  0.324052  0.008773  1
  O  O55  1  0.309651  0.322989  0.496891  1
  O  O56  1  0.786274  0.175948  0.508773  1
  O  O57  1  0.309651  0.177011  0.996891  1
  O  O58  1  0.556375  0.215021  0.180849  1
  O  O59  1  0.056886  0.202885  0.314121  1
  O  O60  1  0.859358  0.048464  0.910623  1
  O  O61  1  0.352187  0.060885  0.584509  1
  O  O62  1  0.841264  0.020209  0.700608  1
  O  O63  1  0.319465  0.017807  0.804120  1
