# generated using pymatgen
data_Ca(ClO3)2
_symmetry_space_group_name_H-M   'P 1'
_cell_length_a   6.85535543
_cell_length_b   6.85535543
_cell_length_c   7.88822513
_cell_angle_alpha   58.24215437
_cell_angle_beta   121.75784563
_cell_angle_gamma   112.92462291
_symmetry_Int_Tables_number   1
_chemical_formula_structural   Ca(ClO3)2
_chemical_formula_sum   'Ca2 Cl4 O12'
_cell_volume   264.75314271
_cell_formula_units_Z   2
loop_
 _symmetry_equiv_pos_site_id
 _symmetry_equiv_pos_as_xyz
  1  'x, y, z'
loop_
 _atom_site_type_symbol
 _atom_site_label
 _atom_site_symmetry_multiplicity
 _atom_site_fract_x
 _atom_site_fract_y
 _atom_site_fract_z
 _atom_site_occupancy
  Ca  Ca0  1  0.837015  0.837015  0.750000  1
  Ca  Ca1  1  0.162985  0.162985  0.250000  1
  Cl  Cl2  1  0.700504  0.305756  0.188433  1
  Cl  Cl3  1  0.694244  0.299496  0.688433  1
  Cl  Cl4  1  0.305756  0.700504  0.311567  1
  Cl  Cl5  1  0.299496  0.694244  0.811567  1
  O  O6  1  0.813031  0.087054  0.348739  1
  O  O7  1  0.444225  0.230531  0.092309  1
  O  O8  1  0.784151  0.407829  0.009316  1
  O  O9  1  0.912946  0.186969  0.848739  1
  O  O10  1  0.769469  0.555775  0.592309  1
  O  O11  1  0.592171  0.215849  0.509316  1
  O  O12  1  0.407829  0.784151  0.490684  1
  O  O13  1  0.230531  0.444225  0.407691  1
  O  O14  1  0.087054  0.813031  0.151261  1
  O  O15  1  0.215849  0.592171  0.990684  1
  O  O16  1  0.555775  0.769469  0.907691  1
  O  O17  1  0.186969  0.912946  0.651261  1
