# generated using pymatgen
data_CaZrS3
_symmetry_space_group_name_H-M   'P 1'
_cell_length_a   6.58769980
_cell_length_b   7.08233364
_cell_length_c   9.66205382
_cell_angle_alpha   90.00000000
_cell_angle_beta   90.00000000
_cell_angle_gamma   90.00000000
_symmetry_Int_Tables_number   1
_chemical_formula_structural   CaZrS3
_chemical_formula_sum   'Ca4 Zr4 S12'
_cell_volume   450.79556477
_cell_formula_units_Z   4
loop_
 _symmetry_equiv_pos_site_id
 _symmetry_equiv_pos_as_xyz
  1  'x, y, z'
loop_
 _atom_site_type_symbol
 _atom_site_label
 _atom_site_symmetry_multiplicity
 _atom_site_fract_x
 _atom_site_fract_y
 _atom_site_fract_z
 _atom_site_occupancy
  Ca  Ca0  1  0.033387  0.092780  0.250000  1
  Ca  Ca1  1  0.533387  0.407220  0.750000  1
  Ca  Ca2  1  0.466613  0.592780  0.250000  1
  Ca  Ca3  1  0.966613  0.907220  0.750000  1
  Zr  Zr4  1  0.500000  0.000000  0.000000  1
  Zr  Zr5  1  0.000000  0.500000  0.000000  1
  Zr  Zr6  1  0.000000  0.500000  0.500000  1
  Zr  Zr7  1  0.500000  0.000000  0.500000  1
  S  S8  1  0.816615  0.190566  0.564110  1
  S  S9  1  0.316615  0.309434  0.435890  1
  S  S10  1  0.683385  0.690566  0.935890  1
  S  S11  1  0.183385  0.809434  0.064110  1
  S  S12  1  0.183385  0.809434  0.435890  1
  S  S13  1  0.683385  0.690566  0.564110  1
  S  S14  1  0.316615  0.309434  0.064110  1
  S  S15  1  0.816615  0.190566  0.935890  1
  S  S16  1  0.625417  0.965508  0.250000  1
  S  S17  1  0.125417  0.534492  0.750000  1
  S  S18  1  0.874583  0.465508  0.250000  1
  S  S19  1  0.374583  0.034492  0.750000  1
