# generated using pymatgen
data_Li3Fe8(BO3)8
_symmetry_space_group_name_H-M   'P 1'
_cell_length_a   5.30433379
_cell_length_b   9.03189160
_cell_length_c   11.38136108
_cell_angle_alpha   113.18123771
_cell_angle_beta   102.61676875
_cell_angle_gamma   89.38910248
_symmetry_Int_Tables_number   1
_chemical_formula_structural   Li3Fe8(BO3)8
_chemical_formula_sum   'Li3 Fe8 B8 O24'
_cell_volume   487.40752714
_cell_formula_units_Z   1
loop_
 _symmetry_equiv_pos_site_id
 _symmetry_equiv_pos_as_xyz
  1  'x, y, z'
loop_
 _atom_site_type_symbol
 _atom_site_label
 _atom_site_symmetry_multiplicity
 _atom_site_fract_x
 _atom_site_fract_y
 _atom_site_fract_z
 _atom_site_occupancy
  Li  Li0  1  0.165200  0.838258  0.652900  1
  Li  Li1  1  0.602414  0.950310  0.913815  1
  Li  Li2  1  0.673906  0.335482  0.654579  1
  Fe  Fe3  1  0.403121  0.731165  0.133627  1
  Fe  Fe4  1  0.091450  0.774544  0.886388  1
  Fe  Fe5  1  0.852519  0.855220  0.377539  1
  Fe  Fe6  1  0.650373  0.649445  0.623834  1
  Fe  Fe7  1  0.349292  0.348784  0.367008  1
  Fe  Fe8  1  0.149142  0.158025  0.625917  1
  Fe  Fe9  1  0.910779  0.226013  0.132011  1
  Fe  Fe10  1  0.594942  0.275070  0.879992  1
  B  B11  1  0.655059  0.983952  0.631916  1
  B  B12  1  0.885553  0.892009  0.127316  1
  B  B13  1  0.140360  0.488973  0.624563  1
  B  B14  1  0.403218  0.397311  0.127573  1
  B  B15  1  0.860450  0.522716  0.384194  1
  B  B16  1  0.591041  0.606079  0.872191  1
  B  B17  1  0.355095  0.019482  0.380510  1
  B  B18  1  0.104969  0.103375  0.870626  1
  O  O19  1  0.119312  0.851673  0.091558  1
  O  O20  1  0.476566  0.875614  0.339338  1
  O  O21  1  0.220335  0.962954  0.860093  1
  O  O22  1  0.527187  0.855009  0.638259  1
  O  O23  1  0.882223  0.961976  0.586785  1
  O  O24  1  0.781914  0.797379  0.180984  1
  O  O25  1  0.299572  0.538416  0.139310  1
  O  O26  1  0.033964  0.640015  0.660128  1
  O  O27  1  0.691119  0.710361  0.823702  1
  O  O28  1  0.632855  0.521786  0.430263  1
  O  O29  1  0.959512  0.661579  0.387293  1
  O  O30  1  0.402012  0.658941  0.940636  1
  O  O31  1  0.612826  0.348159  0.068965  1
  O  O32  1  0.380636  0.477232  0.588005  1
  O  O33  1  0.305292  0.295827  0.176865  1
  O  O34  1  0.979868  0.380103  0.342438  1
  O  O35  1  0.681945  0.456878  0.845578  1
  O  O36  1  0.221595  0.213859  0.837109  1
  O  O37  1  0.128835  0.017384  0.422538  1
  O  O38  1  0.459527  0.159673  0.386142  1
  O  O39  1  0.014969  0.362252  0.627482  1
  O  O40  1  0.758894  0.011426  0.101824  1
  O  O41  1  0.557190  0.135249  0.671639  1
  O  O42  1  0.868261  0.131424  0.907972  1
