# generated using pymatgen
data_Li2VSi4O11
_symmetry_space_group_name_H-M   'P 1'
_cell_length_a   8.45068080
_cell_length_b   8.45068080
_cell_length_c   8.45068080
_cell_angle_alpha   102.34342206
_cell_angle_beta   102.34342206
_cell_angle_gamma   124.92183785
_symmetry_Int_Tables_number   1
_chemical_formula_structural   Li2VSi4O11
_chemical_formula_sum   'Li4 V2 Si8 O22'
_cell_volume   438.76143035
_cell_formula_units_Z   2
loop_
 _symmetry_equiv_pos_site_id
 _symmetry_equiv_pos_as_xyz
  1  'x, y, z'
loop_
 _atom_site_type_symbol
 _atom_site_label
 _atom_site_symmetry_multiplicity
 _atom_site_fract_x
 _atom_site_fract_y
 _atom_site_fract_z
 _atom_site_occupancy
  Li  Li0  1  0.619019  0.351737  0.970756  1
  Li  Li1  1  0.648263  0.619019  0.267282  1
  Li  Li2  1  0.351737  0.380981  0.732718  1
  Li  Li3  1  0.380981  0.648263  0.029244  1
  V  V4  1  0.238207  0.238207  0.000000  1
  V  V5  1  0.761793  0.761793  0.000000  1
  Si  Si6  1  0.171401  0.888856  0.672805  1
  Si  Si7  1  0.783949  0.501404  0.672805  1
  Si  Si8  1  0.888856  0.216051  0.717455  1
  Si  Si9  1  0.501404  0.828599  0.717455  1
  Si  Si10  1  0.111144  0.783949  0.282545  1
  Si  Si11  1  0.498596  0.171401  0.282545  1
  Si  Si12  1  0.828599  0.111144  0.327195  1
  Si  Si13  1  0.216051  0.498596  0.327195  1
  O  O14  1  0.000000  0.000000  0.000000  1
  O  O15  1  0.500000  0.500000  0.000000  1
  O  O16  1  0.204379  0.101466  0.758267  1
  O  O17  1  0.656801  0.553888  0.758267  1
  O  O18  1  0.032788  0.709331  0.742119  1
  O  O19  1  0.405515  0.952082  0.733315  1
  O  O20  1  0.781233  0.327800  0.733315  1
  O  O21  1  0.047918  0.781233  0.453433  1
  O  O22  1  0.672200  0.405515  0.453433  1
  O  O23  1  0.101466  0.343199  0.897087  1
  O  O24  1  0.553888  0.795621  0.897087  1
  O  O25  1  0.290669  0.032788  0.323458  1
  O  O26  1  0.709331  0.967212  0.676542  1
  O  O27  1  0.446112  0.204379  0.102913  1
  O  O28  1  0.898534  0.656801  0.102913  1
  O  O29  1  0.327800  0.594485  0.546567  1
  O  O30  1  0.952082  0.218767  0.546567  1
  O  O31  1  0.594485  0.047918  0.266685  1
  O  O32  1  0.218767  0.672200  0.266685  1
  O  O33  1  0.967212  0.290669  0.257881  1
  O  O34  1  0.343199  0.446112  0.241733  1
  O  O35  1  0.795621  0.898534  0.241733  1
