# generated using pymatgen
data_Li4Cr7(PO4)6
_symmetry_space_group_name_H-M   'P 1'
_cell_length_a   9.04317964
_cell_length_b   9.04317964
_cell_length_c   6.50679087
_cell_angle_alpha   81.24553674
_cell_angle_beta   98.75446326
_cell_angle_gamma   77.67673463
_symmetry_Int_Tables_number   1
_chemical_formula_structural   Li4Cr7(PO4)6
_chemical_formula_sum   'Li4 Cr7 P6 O24'
_cell_volume   504.31648058
_cell_formula_units_Z   1
loop_
 _symmetry_equiv_pos_site_id
 _symmetry_equiv_pos_as_xyz
  1  'x, y, z'
loop_
 _atom_site_type_symbol
 _atom_site_label
 _atom_site_symmetry_multiplicity
 _atom_site_fract_x
 _atom_site_fract_y
 _atom_site_fract_z
 _atom_site_occupancy
  Li  Li0  1  0.994753  0.005247  0.512051  1
  Li  Li1  1  0.639099  0.360901  0.426885  1
  Li  Li2  1  0.555668  0.673873  0.480035  1
  Li  Li3  1  0.326127  0.444332  0.480035  1
  Cr  Cr4  1  0.354653  0.011846  0.814638  1
  Cr  Cr5  1  0.988154  0.645347  0.814638  1
  Cr  Cr6  1  0.998589  0.001411  0.005323  1
  Cr  Cr7  1  0.338528  0.347744  0.993959  1
  Cr  Cr8  1  0.652256  0.661472  0.993959  1
  Cr  Cr9  1  0.641642  0.001110  0.179756  1
  Cr  Cr10  1  0.998890  0.358358  0.179756  1
  P  P11  1  0.291062  0.103026  0.302124  1
  P  P12  1  0.896974  0.708938  0.302124  1
  P  P13  1  0.682406  0.317594  0.916080  1
  P  P14  1  0.312464  0.687536  0.082293  1
  P  P15  1  0.703865  0.917743  0.693988  1
  P  P16  1  0.082257  0.296135  0.693988  1
  O  O17  1  0.656236  0.034496  0.484560  1
  O  O18  1  0.965504  0.343764  0.484560  1
  O  O19  1  0.951585  0.619261  0.127254  1
  O  O20  1  0.380739  0.048415  0.127254  1
  O  O21  1  0.813841  0.186159  0.894479  1
  O  O22  1  0.748528  0.424907  0.055307  1
  O  O23  1  0.575093  0.251472  0.055307  1
  O  O24  1  0.879732  0.888242  0.240024  1
  O  O25  1  0.111758  0.120268  0.240024  1
  O  O26  1  0.312443  0.271096  0.304148  1
  O  O27  1  0.728904  0.687557  0.304148  1
  O  O28  1  0.589945  0.410055  0.697422  1
  O  O29  1  0.409791  0.590209  0.297911  1
  O  O30  1  0.673044  0.754453  0.686525  1
  O  O31  1  0.245547  0.326956  0.686525  1
  O  O32  1  0.884872  0.888064  0.760781  1
  O  O33  1  0.111936  0.115128  0.760781  1
  O  O34  1  0.182330  0.817670  0.108204  1
  O  O35  1  0.612070  0.976519  0.863575  1
  O  O36  1  0.023481  0.387930  0.863575  1
  O  O37  1  0.241503  0.578611  0.952968  1
  O  O38  1  0.421389  0.758497  0.952968  1
  O  O39  1  0.350405  0.986986  0.509629  1
  O  O40  1  0.013014  0.649595  0.509629  1
