# generated using pymatgen
data_Fe5O7F3
_symmetry_space_group_name_H-M   'P 1'
_cell_length_a   4.67802803
_cell_length_b   4.67802803
_cell_length_c   15.20995193
_cell_angle_alpha   89.92339939
_cell_angle_beta   90.07660061
_cell_angle_gamma   88.43943473
_symmetry_Int_Tables_number   1
_chemical_formula_structural   Fe5O7F3
_chemical_formula_sum   'Fe10 O14 F6'
_cell_volume   332.72970286
_cell_formula_units_Z   2
loop_
 _symmetry_equiv_pos_site_id
 _symmetry_equiv_pos_as_xyz
  1  'x, y, z'
loop_
 _atom_site_type_symbol
 _atom_site_label
 _atom_site_symmetry_multiplicity
 _atom_site_fract_x
 _atom_site_fract_y
 _atom_site_fract_z
 _atom_site_occupancy
  Fe  Fe0  1  0.993871  0.003978  0.200874  1
  Fe  Fe1  1  0.031310  0.982436  0.405975  1
  Fe  Fe2  1  0.982436  0.031310  0.594025  1
  Fe  Fe3  1  0.003978  0.993871  0.799126  1
  Fe  Fe4  1  0.989812  0.989812  0.000000  1
  Fe  Fe5  1  0.459469  0.479699  0.293465  1
  Fe  Fe6  1  0.479699  0.459469  0.706535  1
  Fe  Fe7  1  0.505893  0.505893  0.500000  1
  Fe  Fe8  1  0.524996  0.523053  0.901249  1
  Fe  Fe9  1  0.523053  0.524996  0.098751  1
  O  O10  1  0.803856  0.803856  0.500000  1
  O  O11  1  0.821388  0.815772  0.897518  1
  O  O12  1  0.815772  0.821388  0.102482  1
  O  O13  1  0.691648  0.307319  0.197995  1
  O  O14  1  0.676450  0.317645  0.600060  1
  O  O15  1  0.702072  0.301330  0.803906  1
  O  O16  1  0.704390  0.319512  0.999924  1
  O  O17  1  0.301330  0.702072  0.196094  1
  O  O18  1  0.317645  0.676450  0.399940  1
  O  O19  1  0.307319  0.691648  0.802005  1
  O  O20  1  0.319512  0.704390  0.000076  1
  O  O21  1  0.181838  0.173746  0.298952  1
  O  O22  1  0.173746  0.181838  0.701048  1
  O  O23  1  0.202577  0.202577  0.500000  1
  F  F24  1  0.801900  0.786301  0.303357  1
  F  F25  1  0.786301  0.801900  0.696643  1
  F  F26  1  0.699672  0.288467  0.396291  1
  F  F27  1  0.288467  0.699672  0.603709  1
  F  F28  1  0.201515  0.208082  0.098353  1
  F  F29  1  0.208082  0.201515  0.901647  1
