# generated using pymatgen
data_Li2Cu2F5
_symmetry_space_group_name_H-M   'P 1'
_cell_length_a   3.00633185
_cell_length_b   6.93589545
_cell_length_c   10.14976472
_cell_angle_alpha   93.18906452
_cell_angle_beta   90.03107945
_cell_angle_gamma   97.00646911
_symmetry_Int_Tables_number   1
_chemical_formula_structural   Li2Cu2F5
_chemical_formula_sum   'Li4 Cu4 F10'
_cell_volume   209.72739973
_cell_formula_units_Z   2
loop_
 _symmetry_equiv_pos_site_id
 _symmetry_equiv_pos_as_xyz
  1  'x, y, z'
loop_
 _atom_site_type_symbol
 _atom_site_label
 _atom_site_symmetry_multiplicity
 _atom_site_fract_x
 _atom_site_fract_y
 _atom_site_fract_z
 _atom_site_occupancy
  Li  Li0  1  0.308069  0.804043  0.684549  1
  Li  Li1  1  0.239249  0.413181  0.109329  1
  Li  Li2  1  0.760751  0.586819  0.890671  1
  Li  Li3  1  0.691931  0.195957  0.315451  1
  Cu  Cu4  1  0.246795  0.904161  0.113594  1
  Cu  Cu5  1  0.238333  0.348335  0.615377  1
  Cu  Cu6  1  0.761667  0.651665  0.384623  1
  Cu  Cu7  1  0.753205  0.095839  0.886406  1
  F  F8  1  0.167939  0.151225  0.180074  1
  F  F9  1  0.290978  0.666398  0.024642  1
  F  F10  1  0.235534  0.523668  0.762336  1
  F  F11  1  0.211326  0.268287  0.437999  1
  F  F12  1  0.545304  0.866341  0.292517  1
  F  F13  1  0.454696  0.133659  0.707483  1
  F  F14  1  0.788674  0.731713  0.562001  1
  F  F15  1  0.764466  0.476332  0.237664  1
  F  F16  1  0.709022  0.333602  0.975358  1
  F  F17  1  0.832061  0.848775  0.819926  1
