# generated using pymatgen
data_LiMnPCO7
_symmetry_space_group_name_H-M   'P 1'
_cell_length_a   8.37365919
_cell_length_b   6.23225445
_cell_length_c   10.22981889
_cell_angle_alpha   90.00000000
_cell_angle_beta   94.19406686
_cell_angle_gamma   90.00000000
_symmetry_Int_Tables_number   1
_chemical_formula_structural   LiMnPCO7
_chemical_formula_sum   'Li4 Mn4 P4 C4 O28'
_cell_volume   532.43160327
_cell_formula_units_Z   4
loop_
 _symmetry_equiv_pos_site_id
 _symmetry_equiv_pos_as_xyz
  1  'x, y, z'
loop_
 _atom_site_type_symbol
 _atom_site_label
 _atom_site_symmetry_multiplicity
 _atom_site_fract_x
 _atom_site_fract_y
 _atom_site_fract_z
 _atom_site_occupancy
  Li  Li0  1  0.743300  0.530570  0.623475  1
  Li  Li1  1  0.743300  0.969430  0.123475  1
  Li  Li2  1  0.256700  0.030570  0.876525  1
  Li  Li3  1  0.256700  0.469430  0.376525  1
  Mn  Mn4  1  0.670044  0.252270  0.897091  1
  Mn  Mn5  1  0.670044  0.247730  0.397091  1
  Mn  Mn6  1  0.329956  0.752270  0.602909  1
  Mn  Mn7  1  0.329956  0.747730  0.102909  1
  P  P8  1  0.573799  0.753192  0.862161  1
  P  P9  1  0.573799  0.746808  0.362161  1
  P  P10  1  0.426201  0.253192  0.637839  1
  P  P11  1  0.426201  0.246808  0.137839  1
  C  C12  1  0.949378  0.250486  0.855073  1
  C  C13  1  0.949378  0.249514  0.355073  1
  C  C14  1  0.050622  0.750487  0.644927  1
  C  C15  1  0.050622  0.749514  0.144927  1
  O  O16  1  0.894796  0.243561  0.972522  1
  O  O17  1  0.909458  0.735645  0.669457  1
  O  O18  1  0.894796  0.256439  0.472522  1
  O  O19  1  0.827792  0.272457  0.764619  1
  O  O20  1  0.909458  0.764355  0.169457  1
  O  O21  1  0.827792  0.227543  0.264619  1
  O  O22  1  0.687988  0.942329  0.902236  1
  O  O23  1  0.672329  0.556037  0.909103  1
  O  O24  1  0.672329  0.943963  0.409103  1
  O  O25  1  0.687988  0.557671  0.402236  1
  O  O26  1  0.585356  0.277297  0.571560  1
  O  O27  1  0.534471  0.740831  0.710975  1
  O  O28  1  0.585356  0.222703  0.071560  1
  O  O29  1  0.534471  0.759169  0.210975  1
  O  O30  1  0.465529  0.240831  0.789025  1
  O  O31  1  0.414644  0.777297  0.928440  1
  O  O32  1  0.465529  0.259169  0.289025  1
  O  O33  1  0.414644  0.722703  0.428440  1
  O  O34  1  0.327671  0.056037  0.590897  1
  O  O35  1  0.312012  0.442329  0.597764  1
  O  O36  1  0.327671  0.443963  0.090897  1
  O  O37  1  0.312012  0.057671  0.097764  1
  O  O38  1  0.172208  0.772457  0.735381  1
  O  O39  1  0.090542  0.235645  0.830543  1
  O  O40  1  0.172208  0.727543  0.235381  1
  O  O41  1  0.105204  0.743561  0.527478  1
  O  O42  1  0.090542  0.264355  0.330543  1
  O  O43  1  0.105204  0.756439  0.027478  1
