# generated using pymatgen
data_Y2O3
_symmetry_space_group_name_H-M   'P 1'
_cell_length_a   6.10017445
_cell_length_b   6.10017445
_cell_length_c   6.10017445
_cell_angle_alpha   57.07797657
_cell_angle_beta   57.07797657
_cell_angle_gamma   57.07797657
_symmetry_Int_Tables_number   1
_chemical_formula_structural   Y2O3
_chemical_formula_sum   'Y4 O6'
_cell_volume   149.70313450
_cell_formula_units_Z   2
loop_
 _symmetry_equiv_pos_site_id
 _symmetry_equiv_pos_as_xyz
  1  'x, y, z'
loop_
 _atom_site_type_symbol
 _atom_site_label
 _atom_site_symmetry_multiplicity
 _atom_site_fract_x
 _atom_site_fract_y
 _atom_site_fract_z
 _atom_site_occupancy
  Y  Y0  1  0.141943  0.141943  0.141943  1
  Y  Y1  1  0.358057  0.358057  0.358057  1
  Y  Y2  1  0.641943  0.641943  0.641943  1
  Y  Y3  1  0.858057  0.858057  0.858057  1
  O  O4  1  0.250000  0.542976  0.957024  1
  O  O5  1  0.042976  0.750000  0.457024  1
  O  O6  1  0.457024  0.042976  0.750000  1
  O  O7  1  0.542976  0.957024  0.250000  1
  O  O8  1  0.957024  0.250000  0.542976  1
  O  O9  1  0.750000  0.457024  0.042976  1
