# generated using pymatgen
data_Ni(TeO3)4
_symmetry_space_group_name_H-M   'P 1'
_cell_length_a   5.12219638
_cell_length_b   5.57622974
_cell_length_c   7.61665668
_cell_angle_alpha   84.86680782
_cell_angle_beta   89.73344210
_cell_angle_gamma   89.45027334
_symmetry_Int_Tables_number   1
_chemical_formula_structural   Ni(TeO3)4
_chemical_formula_sum   'Ni1 Te4 O12'
_cell_volume   216.66703445
_cell_formula_units_Z   1
loop_
 _symmetry_equiv_pos_site_id
 _symmetry_equiv_pos_as_xyz
  1  'x, y, z'
loop_
 _atom_site_type_symbol
 _atom_site_label
 _atom_site_symmetry_multiplicity
 _atom_site_fract_x
 _atom_site_fract_y
 _atom_site_fract_z
 _atom_site_occupancy
  Ni  Ni0  1  0.992673  0.594984  0.289112  1
  Te  Te1  1  0.003695  0.984384  0.983291  1
  Te  Te2  1  0.503381  0.471810  0.500610  1
  Te  Te3  1  0.015458  0.999826  0.507327  1
  Te  Te4  1  0.493422  0.471342  0.985555  1
  O  O5  1  0.684212  0.754196  0.414661  1
  O  O6  1  0.869099  0.989411  0.749850  1
  O  O7  1  0.693851  0.173521  0.055075  1
  O  O8  1  0.815330  0.304827  0.416564  1
  O  O9  1  0.193382  0.282131  0.917768  1
  O  O10  1  0.629393  0.485436  0.742082  1
  O  O11  1  0.355373  0.454612  0.231763  1
  O  O12  1  0.804044  0.659447  0.051060  1
  O  O13  1  0.176514  0.625581  0.528838  1
  O  O14  1  0.301540  0.772601  0.911610  1
  O  O15  1  0.113593  0.938503  0.220997  1
  O  O16  1  0.355041  0.155989  0.553139  1
