# generated using pymatgen
data_Li2MnSiO4
_symmetry_space_group_name_H-M   'P 1'
_cell_length_a   5.04874061
_cell_length_b   5.04874061
_cell_length_c   11.82991474
_cell_angle_alpha   90.00000000
_cell_angle_beta   90.00000000
_cell_angle_gamma   120.00000000
_symmetry_Int_Tables_number   1
_chemical_formula_structural   Li2MnSiO4
_chemical_formula_sum   'Li6 Mn3 Si3 O12'
_cell_volume   261.14298469
_cell_formula_units_Z   3
loop_
 _symmetry_equiv_pos_site_id
 _symmetry_equiv_pos_as_xyz
  1  'x, y, z'
loop_
 _atom_site_type_symbol
 _atom_site_label
 _atom_site_symmetry_multiplicity
 _atom_site_fract_x
 _atom_site_fract_y
 _atom_site_fract_z
 _atom_site_occupancy
  Li  Li0  1  0.329649  0.892421  0.585920  1
  Li  Li1  1  0.107579  0.437228  0.919254  1
  Li  Li2  1  0.562772  0.670351  0.252587  1
  Li  Li3  1  0.437228  0.107579  0.080746  1
  Li  Li4  1  0.670351  0.562772  0.747413  1
  Li  Li5  1  0.892421  0.329649  0.414080  1
  Mn  Mn6  1  0.000000  0.452666  0.166667  1
  Mn  Mn7  1  0.547334  0.547334  0.500000  1
  Mn  Mn8  1  0.452666  0.000000  0.833333  1
  Si  Si9  1  0.000000  0.204356  0.666667  1
  Si  Si10  1  0.204356  0.000000  0.333333  1
  Si  Si11  1  0.795644  0.795644  0.000000  1
  O  O12  1  0.134899  0.840940  0.967389  1
  O  O13  1  0.101533  0.442828  0.558356  1
  O  O14  1  0.341295  0.898467  0.225023  1
  O  O15  1  0.159060  0.293959  0.300722  1
  O  O16  1  0.293959  0.159060  0.699278  1
  O  O17  1  0.706041  0.865101  0.634056  1
  O  O18  1  0.557172  0.658705  0.891690  1
  O  O19  1  0.658705  0.557172  0.108310  1
  O  O20  1  0.442828  0.101533  0.441644  1
  O  O21  1  0.865101  0.706041  0.365944  1
  O  O22  1  0.840940  0.134899  0.032611  1
  O  O23  1  0.898467  0.341295  0.774977  1
