# generated using pymatgen
data_Li3CrF6
_symmetry_space_group_name_H-M   'P 1'
_cell_length_a   4.85087862
_cell_length_b   4.85087862
_cell_length_c   8.90933874
_cell_angle_alpha   90.00000000
_cell_angle_beta   90.00000000
_cell_angle_gamma   90.00000000
_symmetry_Int_Tables_number   1
_chemical_formula_structural   Li3CrF6
_chemical_formula_sum   'Li6 Cr2 F12'
_cell_volume   209.64585863
_cell_formula_units_Z   2
loop_
 _symmetry_equiv_pos_site_id
 _symmetry_equiv_pos_as_xyz
  1  'x, y, z'
loop_
 _atom_site_type_symbol
 _atom_site_label
 _atom_site_symmetry_multiplicity
 _atom_site_fract_x
 _atom_site_fract_y
 _atom_site_fract_z
 _atom_site_occupancy
  Li  Li0  1  0.500000  0.000000  0.400849  1
  Li  Li1  1  0.000000  0.000000  0.000000  1
  Li  Li2  1  0.000000  0.500000  0.599151  1
  Li  Li3  1  0.500000  0.500000  0.500000  1
  Li  Li4  1  0.000000  0.500000  0.900849  1
  Li  Li5  1  0.500000  0.000000  0.099151  1
  Cr  Cr6  1  0.500000  0.000000  0.750000  1
  Cr  Cr7  1  0.000000  0.500000  0.250000  1
  F  F8  1  0.317425  0.201424  0.587955  1
  F  F9  1  0.298576  0.182575  0.912045  1
  F  F10  1  0.285812  0.214188  0.250000  1
  F  F11  1  0.785812  0.285812  0.750000  1
  F  F12  1  0.798576  0.317425  0.412045  1
  F  F13  1  0.817425  0.298576  0.087955  1
  F  F14  1  0.201424  0.682575  0.412045  1
  F  F15  1  0.182575  0.701424  0.087955  1
  F  F16  1  0.214188  0.714188  0.750000  1
  F  F17  1  0.714188  0.785812  0.250000  1
  F  F18  1  0.682575  0.798576  0.587955  1
  F  F19  1  0.701424  0.817425  0.912045  1
