# generated using pymatgen
data_LiFeF3
_symmetry_space_group_name_H-M   'P 1'
_cell_length_a   8.81151880
_cell_length_b   8.81151880
_cell_length_c   6.20339192
_cell_angle_alpha   90.00000000
_cell_angle_beta   90.00000000
_cell_angle_gamma   90.00000000
_symmetry_Int_Tables_number   1
_chemical_formula_structural   LiFeF3
_chemical_formula_sum   'Li8 Fe8 F24'
_cell_volume   481.64911247
_cell_formula_units_Z   8
loop_
 _symmetry_equiv_pos_site_id
 _symmetry_equiv_pos_as_xyz
  1  'x, y, z'
loop_
 _atom_site_type_symbol
 _atom_site_label
 _atom_site_symmetry_multiplicity
 _atom_site_fract_x
 _atom_site_fract_y
 _atom_site_fract_z
 _atom_site_occupancy
  Li  Li0  1  0.000000  0.000000  0.000000  1
  Li  Li1  1  0.000000  0.000000  0.500000  1
  Li  Li2  1  0.250000  0.250000  0.750000  1
  Li  Li3  1  0.750000  0.250000  0.250000  1
  Li  Li4  1  0.500000  0.500000  0.000000  1
  Li  Li5  1  0.500000  0.500000  0.500000  1
  Li  Li6  1  0.250000  0.750000  0.250000  1
  Li  Li7  1  0.750000  0.750000  0.750000  1
  Fe  Fe8  1  0.335668  0.909074  0.716218  1
  Fe  Fe9  1  0.409074  0.164332  0.216218  1
  Fe  Fe10  1  0.090926  0.335668  0.283782  1
  Fe  Fe11  1  0.164332  0.590926  0.783782  1
  Fe  Fe12  1  0.835668  0.409074  0.783782  1
  Fe  Fe13  1  0.909074  0.664332  0.283782  1
  Fe  Fe14  1  0.590926  0.835668  0.216218  1
  Fe  Fe15  1  0.664332  0.090926  0.716218  1
  F  F16  1  0.162552  0.049424  0.671257  1
  F  F17  1  0.632961  0.054017  0.296740  1
  F  F18  1  0.195215  0.185528  0.067639  1
  F  F19  1  0.445983  0.132961  0.796740  1
  F  F20  1  0.950576  0.162552  0.328743  1
  F  F21  1  0.814472  0.195215  0.932361  1
  F  F22  1  0.685528  0.304785  0.567639  1
  F  F23  1  0.549424  0.337448  0.171257  1
  F  F24  1  0.054017  0.367039  0.703260  1
  F  F25  1  0.304785  0.314472  0.432361  1
  F  F26  1  0.867039  0.445983  0.203260  1
  F  F27  1  0.337448  0.450576  0.828743  1
  F  F28  1  0.662552  0.549424  0.828743  1
  F  F29  1  0.132961  0.554017  0.203260  1
  F  F30  1  0.695215  0.685528  0.432361  1
  F  F31  1  0.945983  0.632961  0.703260  1
  F  F32  1  0.450576  0.662552  0.171257  1
  F  F33  1  0.314472  0.695215  0.567639  1
  F  F34  1  0.185528  0.804785  0.932361  1
  F  F35  1  0.049424  0.837448  0.328743  1
  F  F36  1  0.554017  0.867039  0.796740  1
  F  F37  1  0.804785  0.814472  0.067639  1
  F  F38  1  0.367039  0.945983  0.296740  1
  F  F39  1  0.837448  0.950576  0.671257  1
