# generated using pymatgen
data_Li2MnP2O7
_symmetry_space_group_name_H-M   'P 1'
_cell_length_a   5.09198130
_cell_length_b   8.53406192
_cell_length_c   7.21884506
_cell_angle_alpha   90.00000000
_cell_angle_beta   109.82910865
_cell_angle_gamma   90.00000000
_symmetry_Int_Tables_number   1
_chemical_formula_structural   Li2MnP2O7
_chemical_formula_sum   'Li4 Mn2 P4 O14'
_cell_volume   295.09741399
_cell_formula_units_Z   2
loop_
 _symmetry_equiv_pos_site_id
 _symmetry_equiv_pos_as_xyz
  1  'x, y, z'
loop_
 _atom_site_type_symbol
 _atom_site_label
 _atom_site_symmetry_multiplicity
 _atom_site_fract_x
 _atom_site_fract_y
 _atom_site_fract_z
 _atom_site_occupancy
  Li  Li0  1  0.816958  0.852563  0.346734  1
  Li  Li1  1  0.344734  0.676018  0.084552  1
  Li  Li2  1  0.655266  0.176018  0.915448  1
  Li  Li3  1  0.183042  0.352563  0.653266  1
  Mn  Mn4  1  0.805938  0.492832  0.279152  1
  Mn  Mn5  1  0.194062  0.992832  0.720848  1
  P  P6  1  0.610637  0.186501  0.481428  1
  P  P7  1  0.787303  0.794192  0.917377  1
  P  P8  1  0.212697  0.294192  0.082623  1
  P  P9  1  0.389363  0.686501  0.518572  1
  O  O10  1  0.923371  0.312820  0.102299  1
  O  O11  1  0.802767  0.705973  0.106422  1
  O  O12  1  0.785927  0.037177  0.504314  1
  O  O13  1  0.785058  0.335674  0.501187  1
  O  O14  1  0.561805  0.690212  0.380424  1
  O  O15  1  0.368343  0.449450  0.095307  1
  O  O16  1  0.394939  0.177417  0.256061  1
  O  O17  1  0.605061  0.677417  0.743939  1
  O  O18  1  0.631657  0.949450  0.904693  1
  O  O19  1  0.438195  0.190212  0.619576  1
  O  O20  1  0.214942  0.835674  0.498813  1
  O  O21  1  0.214073  0.537177  0.495686  1
  O  O22  1  0.197233  0.205973  0.893578  1
  O  O23  1  0.076629  0.812820  0.897701  1
