# generated using pymatgen
data_MnFe3(PO4)4
_symmetry_space_group_name_H-M   'P 1'
_cell_length_a   7.72642524
_cell_length_b   9.93721403
_cell_length_c   7.73878074
_cell_angle_alpha   90.00000000
_cell_angle_beta   101.27660782
_cell_angle_gamma   90.00000000
_symmetry_Int_Tables_number   1
_chemical_formula_structural   MnFe3(PO4)4
_chemical_formula_sum   'Mn2 Fe6 P8 O32'
_cell_volume   582.70610168
_cell_formula_units_Z   2
loop_
 _symmetry_equiv_pos_site_id
 _symmetry_equiv_pos_as_xyz
  1  'x, y, z'
loop_
 _atom_site_type_symbol
 _atom_site_label
 _atom_site_symmetry_multiplicity
 _atom_site_fract_x
 _atom_site_fract_y
 _atom_site_fract_z
 _atom_site_occupancy
  Mn  Mn0  1  0.840230  0.464831  0.595474  1
  Mn  Mn1  1  0.340230  0.535169  0.595474  1
  Fe  Fe2  1  0.362822  0.475758  0.105146  1
  Fe  Fe3  1  0.862822  0.524242  0.105146  1
  Fe  Fe4  1  0.640714  0.976983  0.390408  1
  Fe  Fe5  1  0.139373  0.976222  0.890158  1
  Fe  Fe6  1  0.140714  0.023017  0.390408  1
  Fe  Fe7  1  0.639373  0.023778  0.890158  1
  P  P8  1  0.583611  0.348573  0.836236  1
  P  P9  1  0.087755  0.349682  0.334930  1
  P  P10  1  0.587755  0.650318  0.334930  1
  P  P11  1  0.083611  0.651427  0.836236  1
  P  P12  1  0.915214  0.848341  0.165946  1
  P  P13  1  0.414795  0.847165  0.664703  1
  P  P14  1  0.415214  0.151659  0.165946  1
  P  P15  1  0.914795  0.152835  0.664703  1
  O  O16  1  0.949403  0.303991  0.698526  1
  O  O17  1  0.448752  0.301606  0.202520  1
  O  O18  1  0.740583  0.369532  0.988854  1
  O  O19  1  0.240836  0.371626  0.491825  1
  O  O20  1  0.914222  0.423205  0.360263  1
  O  O21  1  0.611282  0.422233  0.663613  1
  O  O22  1  0.116283  0.422688  0.162593  1
  O  O23  1  0.412611  0.419584  0.869346  1
  O  O24  1  0.616283  0.577312  0.162593  1
  O  O25  1  0.912611  0.580416  0.869346  1
  O  O26  1  0.111282  0.577767  0.663613  1
  O  O27  1  0.414222  0.576795  0.360263  1
  O  O28  1  0.740836  0.628374  0.491825  1
  O  O29  1  0.240583  0.630468  0.988854  1
  O  O30  1  0.948752  0.698394  0.202520  1
  O  O31  1  0.449403  0.696009  0.698526  1
  O  O32  1  0.556982  0.800902  0.305080  1
  O  O33  1  0.052328  0.802657  0.802156  1
  O  O34  1  0.260346  0.868225  0.510843  1
  O  O35  1  0.761486  0.870616  0.011656  1
  O  O36  1  0.887321  0.924215  0.338096  1
  O  O37  1  0.587892  0.920763  0.636685  1
  O  O38  1  0.087996  0.922878  0.137660  1
  O  O39  1  0.387162  0.921023  0.837282  1
  O  O40  1  0.387321  0.075785  0.338096  1
  O  O41  1  0.087892  0.079237  0.636685  1
  O  O42  1  0.587996  0.077122  0.137660  1
  O  O43  1  0.887162  0.078977  0.837282  1
  O  O44  1  0.261486  0.129384  0.011656  1
  O  O45  1  0.760346  0.131775  0.510843  1
  O  O46  1  0.056982  0.199098  0.305080  1
  O  O47  1  0.552328  0.197343  0.802156  1
