# generated using pymatgen
data_LiMnP3HO10
_symmetry_space_group_name_H-M   'P 1'
_cell_length_a   8.70299464
_cell_length_b   4.90900765
_cell_length_c   11.56032160
_cell_angle_alpha   90.00000000
_cell_angle_beta   126.10765717
_cell_angle_gamma   90.00000000
_symmetry_Int_Tables_number   1
_chemical_formula_structural   LiMnP3HO10
_chemical_formula_sum   'Li2 Mn2 P6 H2 O20'
_cell_volume   399.02116751
_cell_formula_units_Z   2
loop_
 _symmetry_equiv_pos_site_id
 _symmetry_equiv_pos_as_xyz
  1  'x, y, z'
loop_
 _atom_site_type_symbol
 _atom_site_label
 _atom_site_symmetry_multiplicity
 _atom_site_fract_x
 _atom_site_fract_y
 _atom_site_fract_z
 _atom_site_occupancy
  Li  Li0  1  0.500000  0.560035  0.250000  1
  Li  Li1  1  0.500000  0.439965  0.750000  1
  Mn  Mn2  1  0.000000  0.500000  0.000000  1
  Mn  Mn3  1  0.000000  0.500000  0.500000  1
  P  P4  1  0.724751  0.999050  0.462274  1
  P  P5  1  0.000000  0.768207  0.750000  1
  P  P6  1  0.275249  0.999050  0.037726  1
  P  P7  1  0.724751  0.000950  0.962274  1
  P  P8  1  0.000000  0.231793  0.250000  1
  P  P9  1  0.275249  0.000950  0.537726  1
  H  H10  1  0.500000  0.000000  0.500000  1
  H  H11  1  0.500000  0.000000  0.000000  1
  O  O12  1  0.182978  0.809286  0.086631  1
  O  O13  1  0.273106  0.296020  0.072137  1
  O  O14  1  0.527581  0.901276  0.414495  1
  O  O15  1  0.472419  0.901276  0.085505  1
  O  O16  1  0.918329  0.594758  0.810025  1
  O  O17  1  0.849288  0.977311  0.636350  1
  O  O18  1  0.726894  0.296020  0.427863  1
  O  O19  1  0.817022  0.809286  0.413369  1
  O  O20  1  0.150712  0.977311  0.863650  1
  O  O21  1  0.081671  0.594758  0.689975  1
  O  O22  1  0.918329  0.405242  0.310025  1
  O  O23  1  0.849288  0.022689  0.136350  1
  O  O24  1  0.182978  0.190714  0.586631  1
  O  O25  1  0.273106  0.703980  0.572137  1
  O  O26  1  0.150712  0.022689  0.363650  1
  O  O27  1  0.081671  0.405242  0.189975  1
  O  O28  1  0.527581  0.098724  0.914495  1
  O  O29  1  0.472419  0.098724  0.585505  1
  O  O30  1  0.726894  0.703980  0.927863  1
  O  O31  1  0.817022  0.190714  0.913369  1
