# generated using pymatgen
data_Li4Ti3Cr3(CoO8)2
_symmetry_space_group_name_H-M   'P 1'
_cell_length_a   5.90237344
_cell_length_b   5.91197091
_cell_length_c   9.58197952
_cell_angle_alpha   90.49907626
_cell_angle_beta   89.97056739
_cell_angle_gamma   119.76653971
_symmetry_Int_Tables_number   1
_chemical_formula_structural   Li4Ti3Cr3(CoO8)2
_chemical_formula_sum   'Li4 Ti3 Cr3 Co2 O16'
_cell_volume   290.22916968
_cell_formula_units_Z   1
loop_
 _symmetry_equiv_pos_site_id
 _symmetry_equiv_pos_as_xyz
  1  'x, y, z'
loop_
 _atom_site_type_symbol
 _atom_site_label
 _atom_site_symmetry_multiplicity
 _atom_site_fract_x
 _atom_site_fract_y
 _atom_site_fract_z
 _atom_site_occupancy
  Li  Li0  1  0.333263  0.663781  0.892870  1
  Li  Li1  1  0.991056  0.995450  0.994510  1
  Li  Li2  1  0.001405  0.999522  0.497460  1
  Li  Li3  1  0.664536  0.332967  0.395317  1
  Ti  Ti4  1  0.171088  0.834908  0.212718  1
  Ti  Ti5  1  0.168573  0.339692  0.215100  1
  Ti  Ti6  1  0.348744  0.168086  0.719712  1
  Cr  Cr7  1  0.657082  0.829019  0.214115  1
  Cr  Cr8  1  0.830537  0.659228  0.713779  1
  Cr  Cr9  1  0.839645  0.171247  0.708447  1
  Co  Co10  1  0.329288  0.675381  0.488593  1
  Co  Co11  1  0.678382  0.336788  0.988295  1
  O  O12  1  0.173008  0.838429  0.598498  1
  O  O13  1  0.034552  0.519198  0.334635  1
  O  O14  1  0.322632  0.659024  0.102954  1
  O  O15  1  0.000448  0.003214  0.310982  1
  O  O16  1  0.007240  0.004240  0.808895  1
  O  O17  1  0.159065  0.326966  0.605325  1
  O  O18  1  0.472724  0.963161  0.337307  1
  O  O19  1  0.470056  0.517246  0.342856  1
  O  O20  1  0.326934  0.163596  0.104166  1
  O  O21  1  0.676754  0.849365  0.605776  1
  O  O22  1  0.517924  0.473101  0.842836  1
  O  O23  1  0.522623  0.036151  0.835202  1
  O  O24  1  0.658968  0.326887  0.602941  1
  O  O25  1  0.843847  0.672868  0.101171  1
  O  O26  1  0.960183  0.469166  0.833144  1
  O  O27  1  0.839444  0.171621  0.100234  1
