# generated using pymatgen
data_Li7Mn(OF)3
_symmetry_space_group_name_H-M   'P 1'
_cell_length_a   5.51956358
_cell_length_b   6.07508258
_cell_length_c   9.77562586
_cell_angle_alpha   104.73081547
_cell_angle_beta   87.02534514
_cell_angle_gamma   116.97177767
_symmetry_Int_Tables_number   1
_chemical_formula_structural   Li7Mn(OF)3
_chemical_formula_sum   'Li14 Mn2 O6 F6'
_cell_volume   281.77169849
_cell_formula_units_Z   2
loop_
 _symmetry_equiv_pos_site_id
 _symmetry_equiv_pos_as_xyz
  1  'x, y, z'
loop_
 _atom_site_type_symbol
 _atom_site_label
 _atom_site_symmetry_multiplicity
 _atom_site_fract_x
 _atom_site_fract_y
 _atom_site_fract_z
 _atom_site_occupancy
  Li  Li0  1  0.529089  0.366804  0.746636  1
  Li  Li1  1  0.532505  0.348688  0.058043  1
  Li  Li2  1  0.562811  0.090690  0.207085  1
  Li  Li3  1  0.913628  0.940688  0.316222  1
  Li  Li4  1  0.947421  0.603238  0.443576  1
  Li  Li5  1  0.003375  0.632175  0.753727  1
  Li  Li6  1  0.003844  0.631529  0.099581  1
  Li  Li7  1  0.988458  0.357339  0.885133  1
  Li  Li8  1  0.051905  0.367247  0.238977  1
  Li  Li9  1  0.028712  0.354599  0.551591  1
  Li  Li10  1  0.018116  0.034449  0.673617  1
  Li  Li11  1  0.454218  0.999286  0.820362  1
  Li  Li12  1  0.451331  0.652690  0.951392  1
  Li  Li13  1  0.496812  0.644180  0.602652  1
  Mn  Mn14  1  0.017631  0.016524  0.991416  1
  Mn  Mn15  1  0.521663  0.026847  0.509882  1
  O  O16  1  0.299916  0.268391  0.885094  1
  O  O17  1  0.805807  0.220662  0.377985  1
  O  O18  1  0.791725  0.244609  0.702292  1
  O  O19  1  0.818078  0.247743  0.059408  1
  O  O20  1  0.172520  0.748394  0.939848  1
  O  O21  1  0.220097  0.752308  0.604696  1
  F  F22  1  0.283138  0.206313  0.198762  1
  F  F23  1  0.317509  0.282133  0.574147  1
  F  F24  1  0.143102  0.737939  0.289314  1
  F  F25  1  0.759670  0.793458  0.482636  1
  F  F26  1  0.698347  0.736267  0.782070  1
  F  F27  1  0.697909  0.724454  0.121226  1
