# generated using pymatgen
data_Ba3(YI6)2
_symmetry_space_group_name_H-M   'P 1'
_cell_length_a   14.27478153
_cell_length_b   14.33525071
_cell_length_c   22.84820415
_cell_angle_alpha   90.00000000
_cell_angle_beta   126.48395337
_cell_angle_gamma   90.00000000
_symmetry_Int_Tables_number   1
_chemical_formula_structural   Ba3(YI6)2
_chemical_formula_sum   'Ba12 Y8 I48'
_cell_volume   3759.20086741
_cell_formula_units_Z   4
loop_
 _symmetry_equiv_pos_site_id
 _symmetry_equiv_pos_as_xyz
  1  'x, y, z'
loop_
 _atom_site_type_symbol
 _atom_site_label
 _atom_site_symmetry_multiplicity
 _atom_site_fract_x
 _atom_site_fract_y
 _atom_site_fract_z
 _atom_site_occupancy
  Ba  Ba0  1  0.447995  0.208510  0.473039  1
  Ba  Ba1  1  0.720465  0.120455  0.839639  1
  Ba  Ba2  1  0.981374  0.339707  0.094334  1
  Ba  Ba3  1  0.279535  0.620455  0.660361  1
  Ba  Ba4  1  0.018626  0.839707  0.405666  1
  Ba  Ba5  1  0.552005  0.708510  0.026961  1
  Ba  Ba6  1  0.447995  0.291490  0.973039  1
  Ba  Ba7  1  0.981374  0.160293  0.594334  1
  Ba  Ba8  1  0.720465  0.379545  0.339639  1
  Ba  Ba9  1  0.018626  0.660293  0.905666  1
  Ba  Ba10  1  0.279535  0.879545  0.160361  1
  Ba  Ba11  1  0.552005  0.791490  0.526961  1
  Y  Y12  1  0.626511  0.471760  0.872654  1
  Y  Y13  1  0.373489  0.971760  0.627346  1
  Y  Y14  1  0.120927  0.525034  0.362051  1
  Y  Y15  1  0.879073  0.025034  0.137949  1
  Y  Y16  1  0.120927  0.974966  0.862051  1
  Y  Y17  1  0.879073  0.474966  0.637949  1
  Y  Y18  1  0.626511  0.028240  0.372654  1
  Y  Y19  1  0.373489  0.528240  0.127346  1
  I  I20  1  0.804193  0.626544  0.931569  1
  I  I21  1  0.360181  0.615619  0.456601  1
  I  I22  1  0.532827  0.801003  0.670352  1
  I  I23  1  0.105404  0.918117  0.212222  1
  I  I24  1  0.545971  0.114992  0.643088  1
  I  I25  1  0.820075  0.345893  0.897827  1
  I  I26  1  0.924784  0.102568  0.027196  1
  I  I27  1  0.149146  0.481375  0.245192  1
  I  I28  1  0.016611  0.196693  0.224016  1
  I  I29  1  0.236001  0.346256  0.450751  1
  I  I30  1  0.480423  0.993370  0.785623  1
  I  I31  1  0.702766  0.440869  0.031322  1
  I  I32  1  0.519577  0.493370  0.714377  1
  I  I33  1  0.297234  0.940869  0.468678  1
  I  I34  1  0.763999  0.846256  0.049249  1
  I  I35  1  0.983389  0.696693  0.275984  1
  I  I36  1  0.075216  0.602568  0.472804  1
  I  I37  1  0.179925  0.845893  0.602173  1
  I  I38  1  0.850854  0.981375  0.254808  1
  I  I39  1  0.454029  0.614992  0.856912  1
  I  I40  1  0.467173  0.301003  0.829648  1
  I  I41  1  0.195807  0.126544  0.568431  1
  I  I42  1  0.894596  0.418117  0.287778  1
  I  I43  1  0.639819  0.115619  0.043399  1
  I  I44  1  0.360181  0.884381  0.956601  1
  I  I45  1  0.105404  0.581883  0.712222  1
  I  I46  1  0.804193  0.873456  0.431569  1
  I  I47  1  0.532827  0.698997  0.170352  1
  I  I48  1  0.545971  0.385008  0.143088  1
  I  I49  1  0.149146  0.018625  0.745192  1
  I  I50  1  0.820075  0.154107  0.397827  1
  I  I51  1  0.924784  0.397432  0.527196  1
  I  I52  1  0.016611  0.303307  0.724016  1
  I  I53  1  0.236001  0.153744  0.950751  1
  I  I54  1  0.702766  0.059131  0.531322  1
  I  I55  1  0.480423  0.506630  0.285623  1
  I  I56  1  0.297234  0.559131  0.968678  1
  I  I57  1  0.519577  0.006630  0.214377  1
  I  I58  1  0.763999  0.653744  0.549249  1
  I  I59  1  0.983389  0.803307  0.775984  1
  I  I60  1  0.850854  0.518625  0.754808  1
  I  I61  1  0.075216  0.897432  0.972804  1
  I  I62  1  0.179925  0.654107  0.102173  1
  I  I63  1  0.454029  0.885008  0.356912  1
  I  I64  1  0.894596  0.081883  0.787778  1
  I  I65  1  0.467173  0.198997  0.329648  1
  I  I66  1  0.639819  0.384381  0.543399  1
  I  I67  1  0.195807  0.373456  0.068431  1
