# generated using pymatgen
data_TmAlO3
_symmetry_space_group_name_H-M   'P 1'
_cell_length_a   5.15524352
_cell_length_b   5.37670552
_cell_length_c   7.38990158
_cell_angle_alpha   90.00000000
_cell_angle_beta   90.00000000
_cell_angle_gamma   90.00000000
_symmetry_Int_Tables_number   1
_chemical_formula_structural   TmAlO3
_chemical_formula_sum   'Tm4 Al4 O12'
_cell_volume   204.83496426
_cell_formula_units_Z   4
loop_
 _symmetry_equiv_pos_site_id
 _symmetry_equiv_pos_as_xyz
  1  'x, y, z'
loop_
 _atom_site_type_symbol
 _atom_site_label
 _atom_site_symmetry_multiplicity
 _atom_site_fract_x
 _atom_site_fract_y
 _atom_site_fract_z
 _atom_site_occupancy
  Tm  Tm0  1  0.015817  0.938584  0.750000  1
  Tm  Tm1  1  0.484183  0.438584  0.750000  1
  Tm  Tm2  1  0.515817  0.561416  0.250000  1
  Tm  Tm3  1  0.984183  0.061416  0.250000  1
  Al  Al4  1  0.000000  0.500000  0.000000  1
  Al  Al5  1  0.000000  0.500000  0.500000  1
  Al  Al6  1  0.500000  0.000000  0.000000  1
  Al  Al7  1  0.500000  0.000000  0.500000  1
  O  O8  1  0.096674  0.471102  0.250000  1
  O  O9  1  0.200862  0.202214  0.550686  1
  O  O10  1  0.200862  0.202214  0.949314  1
  O  O11  1  0.299138  0.702214  0.949314  1
  O  O12  1  0.299138  0.702214  0.550686  1
  O  O13  1  0.403326  0.971102  0.250000  1
  O  O14  1  0.596674  0.028898  0.750000  1
  O  O15  1  0.700862  0.297786  0.050686  1
  O  O16  1  0.700862  0.297786  0.449314  1
  O  O17  1  0.799138  0.797786  0.050686  1
  O  O18  1  0.799138  0.797786  0.449314  1
  O  O19  1  0.903326  0.528898  0.750000  1
