# generated using pymatgen
data_Li2Cr3O6
_symmetry_space_group_name_H-M   'P 1'
_cell_length_a   5.13248985
_cell_length_b   5.13248985
_cell_length_c   10.10035515
_cell_angle_alpha   90.00000000
_cell_angle_beta   90.00000000
_cell_angle_gamma   119.92834239
_symmetry_Int_Tables_number   1
_chemical_formula_structural   Li2Cr3O6
_chemical_formula_sum   'Li4 Cr6 O12'
_cell_volume   230.58795276
_cell_formula_units_Z   2
loop_
 _symmetry_equiv_pos_site_id
 _symmetry_equiv_pos_as_xyz
  1  'x, y, z'
loop_
 _atom_site_type_symbol
 _atom_site_label
 _atom_site_symmetry_multiplicity
 _atom_site_fract_x
 _atom_site_fract_y
 _atom_site_fract_z
 _atom_site_occupancy
  Li  Li0  1  0.158135  0.658135  0.750000  1
  Li  Li1  1  0.341865  0.841865  0.250000  1
  Li  Li2  1  0.658135  0.158135  0.750000  1
  Li  Li3  1  0.841865  0.341865  0.250000  1
  Cr  Cr4  1  0.000000  0.000000  0.000000  1
  Cr  Cr5  1  0.500000  0.500000  0.500000  1
  Cr  Cr6  1  0.334734  0.665266  1.000000  1
  Cr  Cr7  1  0.834734  0.165266  0.500000  1
  Cr  Cr8  1  0.165266  0.834734  0.500000  1
  Cr  Cr9  1  0.665266  0.334734  1.000000  1
  O  O10  1  0.169500  0.169500  0.594233  1
  O  O11  1  0.330500  0.330500  0.094233  1
  O  O12  1  0.669500  0.669500  0.905767  1
  O  O13  1  0.993302  0.336331  0.893321  1
  O  O14  1  0.830500  0.830500  0.405767  1
  O  O15  1  0.163669  0.506698  0.393321  1
  O  O16  1  0.493302  0.836331  0.606679  1
  O  O17  1  0.663669  0.006698  0.106679  1
  O  O18  1  0.006698  0.663669  0.106679  1
  O  O19  1  0.336331  0.993302  0.893321  1
  O  O20  1  0.506698  0.163669  0.393321  1
  O  O21  1  0.836331  0.493302  0.606679  1
