# generated using pymatgen
data_Li2SnP2O7
_symmetry_space_group_name_H-M   'P 1'
_cell_length_a   10.44555781
_cell_length_b   10.27695806
_cell_length_c   12.03035320
_cell_angle_alpha   90.00000000
_cell_angle_beta   104.86523124
_cell_angle_gamma   90.00000000
_symmetry_Int_Tables_number   1
_chemical_formula_structural   Li2SnP2O7
_chemical_formula_sum   'Li16 Sn8 P16 O56'
_cell_volume   1248.21905499
_cell_formula_units_Z   8
loop_
 _symmetry_equiv_pos_site_id
 _symmetry_equiv_pos_as_xyz
  1  'x, y, z'
loop_
 _atom_site_type_symbol
 _atom_site_label
 _atom_site_symmetry_multiplicity
 _atom_site_fract_x
 _atom_site_fract_y
 _atom_site_fract_z
 _atom_site_occupancy
  Li  Li0  1  0.587944  0.730010  0.423105  1
  Li  Li1  1  0.678076  0.418002  0.563979  1
  Li  Li2  1  0.569403  0.111011  0.026198  1
  Li  Li3  1  0.858254  0.903220  0.961268  1
  Li  Li4  1  0.641746  0.403220  0.038732  1
  Li  Li5  1  0.930597  0.611011  0.973802  1
  Li  Li6  1  0.821924  0.918002  0.436021  1
  Li  Li7  1  0.912056  0.230010  0.576895  1
  Li  Li8  1  0.087944  0.769990  0.423105  1
  Li  Li9  1  0.178076  0.081998  0.563979  1
  Li  Li10  1  0.069403  0.388989  0.026198  1
  Li  Li11  1  0.358254  0.596780  0.961268  1
  Li  Li12  1  0.141746  0.096780  0.038732  1
  Li  Li13  1  0.430597  0.888989  0.973802  1
  Li  Li14  1  0.321924  0.581998  0.436021  1
  Li  Li15  1  0.412056  0.269990  0.576895  1
  Sn  Sn16  1  0.703472  0.901086  0.670129  1
  Sn  Sn17  1  0.756428  0.224059  0.830082  1
  Sn  Sn18  1  0.743572  0.724059  0.169918  1
  Sn  Sn19  1  0.796528  0.401086  0.329871  1
  Sn  Sn20  1  0.203472  0.598914  0.670129  1
  Sn  Sn21  1  0.256428  0.275941  0.830082  1
  Sn  Sn22  1  0.243572  0.775941  0.169918  1
  Sn  Sn23  1  0.296528  0.098914  0.329871  1
  P  P24  1  0.530958  0.466779  0.771069  1
  P  P25  1  0.634195  0.697911  0.906015  1
  P  P26  1  0.552264  0.953166  0.252815  1
  P  P27  1  0.626667  0.146540  0.450148  1
  P  P28  1  0.873333  0.646540  0.549852  1
  P  P29  1  0.947736  0.453166  0.747185  1
  P  P30  1  0.030958  0.033221  0.771069  1
  P  P31  1  0.865805  0.197911  0.093985  1
  P  P32  1  0.134195  0.802089  0.906015  1
  P  P33  1  0.969042  0.966779  0.228931  1
  P  P34  1  0.052264  0.546834  0.252815  1
  P  P35  1  0.126667  0.353460  0.450148  1
  P  P36  1  0.373333  0.853460  0.549852  1
  P  P37  1  0.447736  0.046834  0.747185  1
  P  P38  1  0.365805  0.302089  0.093985  1
  P  P39  1  0.469042  0.533221  0.228931  1
  O  O40  1  0.537962  0.419461  0.652468  1
  O  O41  1  0.499495  0.846039  0.509511  1
  O  O42  1  0.590292  0.083465  0.741601  1
  O  O43  1  0.608572  0.378529  0.869534  1
  O  O44  1  0.601144  0.609865  0.788109  1
  O  O45  1  0.695472  0.822877  0.876200  1
  O  O46  1  0.739649  0.618131  0.997057  1
  O  O47  1  0.492298  0.284006  0.054915  1
  O  O48  1  0.583613  0.096231  0.314937  1
  O  O49  1  0.561396  0.967755  0.129348  1
  O  O50  1  0.610657  0.513655  0.214426  1
  O  O51  1  0.685679  0.282685  0.446318  1
  O  O52  1  0.653538  0.858799  0.325895  1
  O  O53  1  0.735587  0.054016  0.518050  1
  O  O54  1  0.764413  0.554016  0.481950  1
  O  O55  1  0.846462  0.358799  0.674105  1
  O  O56  1  0.814321  0.782685  0.553682  1
  O  O57  1  0.889343  0.013655  0.785574  1
  O  O58  1  0.916387  0.596231  0.685063  1
  O  O59  1  0.938604  0.467755  0.870652  1
  O  O60  1  0.007702  0.784006  0.945085  1
  O  O61  1  0.760351  0.118131  0.002943  1
  O  O62  1  0.804528  0.322877  0.123800  1
  O  O63  1  0.898856  0.109865  0.211891  1
  O  O64  1  0.909708  0.583465  0.258399  1
  O  O65  1  0.891428  0.878529  0.130466  1
  O  O66  1  0.037962  0.080539  0.652468  1
  O  O67  1  0.000505  0.346039  0.490489  1
  O  O68  1  0.999495  0.653961  0.509511  1
  O  O69  1  0.962038  0.919461  0.347532  1
  O  O70  1  0.108572  0.121471  0.869534  1
  O  O71  1  0.090292  0.416535  0.741601  1
  O  O72  1  0.101144  0.890135  0.788109  1
  O  O73  1  0.195472  0.677123  0.876200  1
  O  O74  1  0.239649  0.881869  0.997057  1
  O  O75  1  0.992298  0.215994  0.054915  1
  O  O76  1  0.061396  0.532245  0.129348  1
  O  O77  1  0.083613  0.403769  0.314937  1
  O  O78  1  0.110657  0.986345  0.214426  1
  O  O79  1  0.185679  0.217315  0.446318  1
  O  O80  1  0.153538  0.641201  0.325895  1
  O  O81  1  0.235587  0.445984  0.518050  1
  O  O82  1  0.264413  0.945984  0.481950  1
  O  O83  1  0.346462  0.141201  0.674105  1
  O  O84  1  0.314321  0.717315  0.553682  1
  O  O85  1  0.389343  0.486345  0.785574  1
  O  O86  1  0.438604  0.032245  0.870652  1
  O  O87  1  0.416387  0.903769  0.685063  1
  O  O88  1  0.507702  0.715994  0.945085  1
  O  O89  1  0.260351  0.381869  0.002943  1
  O  O90  1  0.304528  0.177123  0.123800  1
  O  O91  1  0.398856  0.390135  0.211891  1
  O  O92  1  0.391428  0.621471  0.130466  1
  O  O93  1  0.409708  0.916535  0.258399  1
  O  O94  1  0.500505  0.153961  0.490489  1
  O  O95  1  0.462038  0.580539  0.347532  1
