# generated using pymatgen
data_LiFe2(PO4)2
_symmetry_space_group_name_H-M   'P 1'
_cell_length_a   8.53724962
_cell_length_b   5.24550402
_cell_length_c   8.77398802
_cell_angle_alpha   90.00000000
_cell_angle_beta   108.80863827
_cell_angle_gamma   90.00000000
_symmetry_Int_Tables_number   1
_chemical_formula_structural   LiFe2(PO4)2
_chemical_formula_sum   'Li2 Fe4 P4 O16'
_cell_volume   371.93670983
_cell_formula_units_Z   2
loop_
 _symmetry_equiv_pos_site_id
 _symmetry_equiv_pos_as_xyz
  1  'x, y, z'
loop_
 _atom_site_type_symbol
 _atom_site_label
 _atom_site_symmetry_multiplicity
 _atom_site_fract_x
 _atom_site_fract_y
 _atom_site_fract_z
 _atom_site_occupancy
  Li  Li0  1  0.094371  0.824332  0.967702  1
  Li  Li1  1  0.594371  0.175668  0.967702  1
  Fe  Fe2  1  0.338462  0.806101  0.733067  1
  Fe  Fe3  1  0.502453  0.316941  0.257012  1
  Fe  Fe4  1  0.838462  0.193899  0.733067  1
  Fe  Fe5  1  0.002453  0.683059  0.257012  1
  P  P6  1  0.231516  0.311077  0.874675  1
  P  P7  1  0.359264  0.813666  0.361366  1
  P  P8  1  0.731516  0.688923  0.874675  1
  P  P9  1  0.859264  0.186334  0.361366  1
  O  O10  1  0.076260  0.183740  0.896617  1
  O  O11  1  0.998241  0.348671  0.331228  1
  O  O12  1  0.202534  0.601523  0.844703  1
  O  O13  1  0.286394  0.185238  0.742557  1
  O  O14  1  0.199549  0.784077  0.208809  1
  O  O15  1  0.307850  0.725580  0.503741  1
  O  O16  1  0.418118  0.094451  0.379059  1
  O  O17  1  0.576260  0.816260  0.896617  1
  O  O18  1  0.380956  0.272508  0.035861  1
  O  O19  1  0.498241  0.651329  0.331228  1
  O  O20  1  0.702534  0.398477  0.844703  1
  O  O21  1  0.786394  0.814762  0.742557  1
  O  O22  1  0.699549  0.215923  0.208809  1
  O  O23  1  0.807850  0.274420  0.503741  1
  O  O24  1  0.918118  0.905549  0.379059  1
  O  O25  1  0.880956  0.727492  0.035861  1
