# generated using pymatgen
data_V4OF11
_symmetry_space_group_name_H-M   'P 1'
_cell_length_a   5.46479863
_cell_length_b   5.46479863
_cell_length_c   17.70099413
_cell_angle_alpha   79.40612915
_cell_angle_beta   100.59387085
_cell_angle_gamma   122.49954289
_symmetry_Int_Tables_number   1
_chemical_formula_structural   V4OF11
_chemical_formula_sum   'V8 O2 F22'
_cell_volume   435.92576685
_cell_formula_units_Z   2
loop_
 _symmetry_equiv_pos_site_id
 _symmetry_equiv_pos_as_xyz
  1  'x, y, z'
loop_
 _atom_site_type_symbol
 _atom_site_label
 _atom_site_symmetry_multiplicity
 _atom_site_fract_x
 _atom_site_fract_y
 _atom_site_fract_z
 _atom_site_occupancy
  V  V0  1  0.603869  0.482500  0.194247  1
  V  V1  1  0.131707  0.008388  0.688653  1
  V  V2  1  0.238707  0.862503  0.063096  1
  V  V3  1  0.756160  0.380841  0.562458  1
  V  V4  1  0.862503  0.238707  0.936904  1
  V  V5  1  0.380841  0.756160  0.437542  1
  V  V6  1  0.008388  0.131707  0.311347  1
  V  V7  1  0.482500  0.603869  0.805753  1
  O  O8  1  0.339122  0.377649  0.733910  1
  O  O9  1  0.377649  0.339122  0.266090  1
  F  F10  1  0.832777  0.883000  0.223510  1
  F  F11  1  0.913294  0.416619  0.250581  1
  F  F12  1  0.416619  0.913294  0.749419  1
  F  F13  1  0.338800  0.579290  0.122946  1
  F  F14  1  0.627754  0.076392  0.023968  1
  F  F15  1  0.144571  0.589097  0.525256  1
  F  F16  1  0.416090  0.109078  0.149712  1
  F  F17  1  0.919712  0.621953  0.649833  1
  F  F18  1  0.109078  0.416090  0.850288  1
  F  F19  1  0.149938  0.149938  0.000000  1
  F  F20  1  0.840666  0.091851  0.625348  1
  F  F21  1  0.076392  0.627754  0.976032  1
  F  F22  1  0.883000  0.832777  0.776490  1
  F  F23  1  0.589097  0.144571  0.474744  1
  F  F24  1  0.621953  0.919712  0.350167  1
  F  F25  1  0.655382  0.851791  0.893700  1
  F  F26  1  0.851791  0.655382  0.106300  1
  F  F27  1  0.366269  0.171239  0.599569  1
  F  F28  1  0.671761  0.671761  0.500000  1
  F  F29  1  0.091851  0.840666  0.374652  1
  F  F30  1  0.579290  0.338800  0.877054  1
  F  F31  1  0.171239  0.366269  0.400431  1
