# generated using pymatgen
data_V3CuO8
_symmetry_space_group_name_H-M   'P 1'
_cell_length_a   6.24297690
_cell_length_b   6.24297690
_cell_length_c   6.71806752
_cell_angle_alpha   74.29528904
_cell_angle_beta   105.70471096
_cell_angle_gamma   145.02749725
_symmetry_Int_Tables_number   1
_chemical_formula_structural   V3CuO8
_chemical_formula_sum   'V3 Cu1 O8'
_cell_volume   143.90900089
_cell_formula_units_Z   1
loop_
 _symmetry_equiv_pos_site_id
 _symmetry_equiv_pos_as_xyz
  1  'x, y, z'
loop_
 _atom_site_type_symbol
 _atom_site_label
 _atom_site_symmetry_multiplicity
 _atom_site_fract_x
 _atom_site_fract_y
 _atom_site_fract_z
 _atom_site_occupancy
  V  V0  1  0.604034  0.395966  0.738306  1
  V  V1  1  0.393000  0.607000  0.272701  1
  V  V2  1  0.697821  0.302179  0.311147  1
  Cu  Cu3  1  0.298574  0.701426  0.701727  1
  O  O4  1  0.868175  0.131825  0.316486  1
  O  O5  1  0.753039  0.246961  0.630568  1
  O  O6  1  0.639683  0.360317  0.003507  1
  O  O7  1  0.553695  0.446305  0.344639  1
  O  O8  1  0.453629  0.546371  0.648132  1
  O  O9  1  0.369421  0.630579  0.021038  1
  O  O10  1  0.235638  0.764362  0.310241  1
  O  O11  1  0.133293  0.866707  0.701507  1
