# generated using pymatgen
data_LiMnVP2(HO5)2
_symmetry_space_group_name_H-M   'P 1'
_cell_length_a   5.22392816
_cell_length_b   5.34525038
_cell_length_c   7.35147125
_cell_angle_alpha   110.79571532
_cell_angle_beta   103.58289208
_cell_angle_gamma   100.14947919
_symmetry_Int_Tables_number   1
_chemical_formula_structural   LiMnVP2(HO5)2
_chemical_formula_sum   'Li1 Mn1 V1 P2 H2 O10'
_cell_volume   178.76219155
_cell_formula_units_Z   1
loop_
 _symmetry_equiv_pos_site_id
 _symmetry_equiv_pos_as_xyz
  1  'x, y, z'
loop_
 _atom_site_type_symbol
 _atom_site_label
 _atom_site_symmetry_multiplicity
 _atom_site_fract_x
 _atom_site_fract_y
 _atom_site_fract_z
 _atom_site_occupancy
  Li  Li0  1  0.774578  0.408511  0.152279  1
  Mn  Mn1  1  0.000626  0.005097  0.996516  1
  V  V2  1  0.998072  0.997445  0.504622  1
  P  P3  1  0.319167  0.641991  0.231405  1
  P  P4  1  0.673640  0.357276  0.773438  1
  H  H5  1  0.644045  0.938946  0.342771  1
  H  H6  1  0.353317  0.036605  0.662231  1
  O  O7  1  0.142450  0.975724  0.718533  1
  O  O8  1  0.283203  0.810709  0.380763  1
  O  O9  1  0.722294  0.658230  0.646685  1
  O  O10  1  0.633427  0.746897  0.071394  1
  O  O11  1  0.105434  0.652421  0.135396  1
  O  O12  1  0.868598  0.345195  0.886083  1
  O  O13  1  0.362782  0.243474  0.930878  1
  O  O14  1  0.291963  0.342106  0.346465  1
  O  O15  1  0.726763  0.195604  0.618486  1
  O  O16  1  0.848595  0.045604  0.277526  1
