# generated using pymatgen
data_Li10Co4O9
_symmetry_space_group_name_H-M   'P 1'
_cell_length_a   7.57874160
_cell_length_b   7.75333416
_cell_length_c   9.81032708
_cell_angle_alpha   91.41943224
_cell_angle_beta   103.93655333
_cell_angle_gamma   119.01709425
_symmetry_Int_Tables_number   1
_chemical_formula_structural   Li10Co4O9
_chemical_formula_sum   'Li20 Co8 O18'
_cell_volume   482.40345221
_cell_formula_units_Z   2
loop_
 _symmetry_equiv_pos_site_id
 _symmetry_equiv_pos_as_xyz
  1  'x, y, z'
loop_
 _atom_site_type_symbol
 _atom_site_label
 _atom_site_symmetry_multiplicity
 _atom_site_fract_x
 _atom_site_fract_y
 _atom_site_fract_z
 _atom_site_occupancy
  Li  Li0  1  0.651139  0.080844  0.127370  1
  Li  Li1  1  0.130430  0.288419  0.142246  1
  Li  Li2  1  0.494607  0.390592  0.098666  1
  Li  Li3  1  0.399075  0.664161  0.150389  1
  Li  Li4  1  0.959212  0.132647  0.343621  1
  Li  Li5  1  0.807014  0.845894  0.128955  1
  Li  Li6  1  0.849580  0.379089  0.393712  1
  Li  Li7  1  0.238772  0.531646  0.371897  1
  Li  Li8  1  0.488934  0.073670  0.623009  1
  Li  Li9  1  0.863775  0.185055  0.615596  1
  Li  Li10  1  0.136225  0.814945  0.384404  1
  Li  Li11  1  0.511066  0.926330  0.376991  1
  Li  Li12  1  0.761228  0.468354  0.628103  1
  Li  Li13  1  0.150420  0.620911  0.606288  1
  Li  Li14  1  0.192986  0.154106  0.871045  1
  Li  Li15  1  0.040788  0.867353  0.656379  1
  Li  Li16  1  0.600925  0.335839  0.849611  1
  Li  Li17  1  0.505393  0.609408  0.901334  1
  Li  Li18  1  0.869570  0.711581  0.857754  1
  Li  Li19  1  0.348861  0.919156  0.872630  1
  Co  Co20  1  0.929669  0.528374  0.131779  1
  Co  Co21  1  0.410064  0.244966  0.365916  1
  Co  Co22  1  0.242124  0.960882  0.141485  1
  Co  Co23  1  0.712101  0.693006  0.370482  1
  Co  Co24  1  0.287899  0.306994  0.629518  1
  Co  Co25  1  0.757876  0.039118  0.858515  1
  Co  Co26  1  0.589936  0.755034  0.634084  1
  Co  Co27  1  0.070331  0.471626  0.868221  1
  O  O28  1  0.389968  0.108572  0.028088  1
  O  O29  1  0.119839  0.045370  0.258202  1
  O  O30  1  0.736365  0.577286  0.018323  1
  O  O31  1  0.927147  0.321775  0.221201  1
  O  O32  1  0.422582  0.467038  0.283641  1
  O  O33  1  0.223357  0.737762  0.225588  1
  O  O34  1  0.615692  0.206676  0.472113  1
  O  O35  1  0.684366  0.886999  0.278944  1
  O  O36  1  0.078981  0.341058  0.521410  1
  O  O37  1  0.921019  0.658942  0.478590  1
  O  O38  1  0.315634  0.113001  0.721056  1
  O  O39  1  0.384308  0.793324  0.527887  1
  O  O40  1  0.776643  0.262238  0.774412  1
  O  O41  1  0.577418  0.532962  0.716359  1
  O  O42  1  0.072853  0.678225  0.778799  1
  O  O43  1  0.263635  0.422714  0.981677  1
  O  O44  1  0.880161  0.954630  0.741798  1
  O  O45  1  0.610032  0.891428  0.971912  1
