# generated using pymatgen
data_CoH20S2N6ClO4
_symmetry_space_group_name_H-M   'P 1'
_cell_length_a   7.19798674
_cell_length_b   13.87590212
_cell_length_c   12.88922948
_cell_angle_alpha   90.00000000
_cell_angle_beta   90.46625947
_cell_angle_gamma   90.00000000
_symmetry_Int_Tables_number   1
_chemical_formula_structural   CoH20S2N6ClO4
_chemical_formula_sum   'Co4 H80 S8 N24 Cl4 O16'
_cell_volume   1287.31504773
_cell_formula_units_Z   4
loop_
 _symmetry_equiv_pos_site_id
 _symmetry_equiv_pos_as_xyz
  1  'x, y, z'
loop_
 _atom_site_type_symbol
 _atom_site_label
 _atom_site_symmetry_multiplicity
 _atom_site_fract_x
 _atom_site_fract_y
 _atom_site_fract_z
 _atom_site_occupancy
  Co  Co0  1  0.000000  0.000000  0.500000  1
  Co  Co1  1  0.000000  0.500000  0.000000  1
  Co  Co2  1  0.500000  0.500000  0.500000  1
  Co  Co3  1  0.500000  0.000000  0.000000  1
  H  H4  1  0.022138  0.929623  0.679585  1
  H  H5  1  0.977862  0.429623  0.820415  1
  H  H6  1  0.977862  0.070377  0.320415  1
  H  H7  1  0.022138  0.570377  0.179585  1
  H  H8  1  0.129904  0.855673  0.597427  1
  H  H9  1  0.870096  0.355673  0.902573  1
  H  H10  1  0.870096  0.144327  0.402573  1
  H  H11  1  0.129904  0.644327  0.097427  1
  H  H12  1  0.900014  0.853398  0.607142  1
  H  H13  1  0.099986  0.353398  0.892858  1
  H  H14  1  0.099986  0.146602  0.392858  1
  H  H15  1  0.900014  0.646602  0.107142  1
  H  H16  1  0.303524  0.019916  0.600742  1
  H  H17  1  0.696476  0.519916  0.899258  1
  H  H18  1  0.696476  0.980084  0.399258  1
  H  H19  1  0.303524  0.480084  0.100742  1
  H  H20  1  0.273194  0.114033  0.523261  1
  H  H21  1  0.726806  0.614033  0.976739  1
  H  H22  1  0.726806  0.885967  0.476739  1
  H  H23  1  0.273194  0.385967  0.023261  1
  H  H24  1  0.156687  0.108424  0.631613  1
  H  H25  1  0.843313  0.608424  0.868387  1
  H  H26  1  0.843313  0.891576  0.368387  1
  H  H27  1  0.156687  0.391576  0.131613  1
  H  H28  1  0.747466  0.119706  0.547475  1
  H  H29  1  0.252534  0.619706  0.952525  1
  H  H30  1  0.252534  0.880294  0.452525  1
  H  H31  1  0.747466  0.380294  0.047475  1
  H  H32  1  0.864240  0.087534  0.655110  1
  H  H33  1  0.135760  0.587534  0.844890  1
  H  H34  1  0.135760  0.912466  0.344890  1
  H  H35  1  0.864240  0.412466  0.155110  1
  H  H36  1  0.708806  0.014125  0.604699  1
  H  H37  1  0.291194  0.514125  0.895301  1
  H  H38  1  0.291194  0.985875  0.395301  1
  H  H39  1  0.708806  0.485875  0.104699  1
  H  H40  1  0.500748  0.480359  0.698115  1
  H  H41  1  0.499252  0.980359  0.801885  1
  H  H42  1  0.499252  0.519641  0.301885  1
  H  H43  1  0.500748  0.019641  0.198115  1
  H  H44  1  0.664993  0.555003  0.662052  1
  H  H45  1  0.335007  0.055003  0.837948  1
  H  H46  1  0.335007  0.444997  0.337948  1
  H  H47  1  0.664993  0.944997  0.162052  1
  H  H48  1  0.449010  0.593586  0.670804  1
  H  H49  1  0.550990  0.093586  0.829196  1
  H  H50  1  0.550990  0.406414  0.329196  1
  H  H51  1  0.449010  0.906414  0.170804  1
  H  H52  1  0.191465  0.581029  0.539991  1
  H  H53  1  0.808535  0.081029  0.960009  1
  H  H54  1  0.808535  0.418971  0.460009  1
  H  H55  1  0.191465  0.918971  0.039991  1
  H  H56  1  0.335957  0.662462  0.495267  1
  H  H57  1  0.664043  0.162462  0.004733  1
  H  H58  1  0.664043  0.337538  0.504733  1
  H  H59  1  0.335957  0.837538  0.995267  1
  H  H60  1  0.229586  0.586180  0.413947  1
  H  H61  1  0.770414  0.086180  0.086053  1
  H  H62  1  0.770414  0.413820  0.586053  1
  H  H63  1  0.229586  0.913820  0.913947  1
  H  H64  1  0.707472  0.648940  0.520174  1
  H  H65  1  0.292528  0.148940  0.979826  1
  H  H66  1  0.292528  0.351060  0.479826  1
  H  H67  1  0.707472  0.851060  0.020174  1
  H  H68  1  0.620910  0.646065  0.402210  1
  H  H69  1  0.379090  0.146065  0.097790  1
  H  H70  1  0.379090  0.353935  0.597790  1
  H  H71  1  0.620910  0.853935  0.902210  1
  H  H72  1  0.795765  0.573914  0.432315  1
  H  H73  1  0.204235  0.073914  0.067685  1
  H  H74  1  0.204235  0.426086  0.567685  1
  H  H75  1  0.795765  0.926086  0.932315  1
  H  H76  1  0.064455  0.756964  0.795714  1
  H  H77  1  0.935545  0.256964  0.704286  1
  H  H78  1  0.935545  0.243036  0.204286  1
  H  H79  1  0.064455  0.743036  0.295714  1
  H  H80  1  0.858883  0.731134  0.771200  1
  H  H81  1  0.141117  0.231134  0.728800  1
  H  H82  1  0.141117  0.268866  0.228800  1
  H  H83  1  0.858883  0.768866  0.271200  1
  S  S84  1  0.421605  0.758736  0.773980  1
  S  S85  1  0.578395  0.258736  0.726020  1
  S  S86  1  0.578395  0.241264  0.226020  1
  S  S87  1  0.421605  0.741264  0.273980  1
  S  S88  1  0.501326  0.815502  0.637394  1
  S  S89  1  0.498674  0.315502  0.862606  1
  S  S90  1  0.498674  0.184498  0.362606  1
  S  S91  1  0.501326  0.684498  0.137394  1
  N  N92  1  0.014177  0.898448  0.607017  1
  N  N93  1  0.985823  0.398448  0.892983  1
  N  N94  1  0.985823  0.101552  0.392983  1
  N  N95  1  0.014177  0.601552  0.107017  1
  N  N96  1  0.205990  0.067283  0.571780  1
  N  N97  1  0.794010  0.567283  0.928220  1
  N  N98  1  0.794010  0.932717  0.428220  1
  N  N99  1  0.205990  0.432717  0.071780  1
  N  N100  1  0.810459  0.063250  0.585821  1
  N  N101  1  0.189541  0.563250  0.914179  1
  N  N102  1  0.189541  0.936750  0.414179  1
  N  N103  1  0.810459  0.436750  0.085821  1
  N  N104  1  0.528599  0.535939  0.647691  1
  N  N105  1  0.471401  0.035939  0.852309  1
  N  N106  1  0.471401  0.464061  0.352309  1
  N  N107  1  0.528599  0.964061  0.147691  1
  N  N108  1  0.293134  0.592283  0.485138  1
  N  N109  1  0.706866  0.092283  0.014862  1
  N  N110  1  0.706866  0.407717  0.514862  1
  N  N111  1  0.293134  0.907717  0.985138  1
  N  N112  1  0.674637  0.602853  0.460267  1
  N  N113  1  0.325363  0.102853  0.039733  1
  N  N114  1  0.325363  0.397147  0.539733  1
  N  N115  1  0.674637  0.897147  0.960267  1
  Cl  Cl116  1  0.992145  0.537286  0.675819  1
  Cl  Cl117  1  0.007855  0.037286  0.824181  1
  Cl  Cl118  1  0.007855  0.462714  0.324181  1
  Cl  Cl119  1  0.992145  0.962714  0.175819  1
  O  O120  1  0.513551  0.922865  0.646430  1
  O  O121  1  0.486449  0.422865  0.853570  1
  O  O122  1  0.486449  0.077135  0.353570  1
  O  O123  1  0.513551  0.577135  0.146430  1
  O  O124  1  0.361200  0.789955  0.555603  1
  O  O125  1  0.638800  0.289955  0.944397  1
  O  O126  1  0.638800  0.210045  0.444397  1
  O  O127  1  0.361200  0.710045  0.055603  1
  O  O128  1  0.686022  0.774609  0.609106  1
  O  O129  1  0.313978  0.274609  0.890894  1
  O  O130  1  0.313978  0.225391  0.390894  1
  O  O131  1  0.686022  0.725391  0.109106  1
  O  O132  1  0.941636  0.749428  0.828026  1
  O  O133  1  0.058364  0.249428  0.671974  1
  O  O134  1  0.058364  0.250572  0.171974  1
  O  O135  1  0.941636  0.750572  0.328026  1
