# generated using pymatgen
data_Li4VCr(WO6)2
_symmetry_space_group_name_H-M   'P 1'
_cell_length_a   5.17253940
_cell_length_b   5.42201789
_cell_length_c   7.44162589
_cell_angle_alpha   86.21422292
_cell_angle_beta   89.97030743
_cell_angle_gamma   89.88452090
_symmetry_Int_Tables_number   1
_chemical_formula_structural   Li4VCr(WO6)2
_chemical_formula_sum   'Li4 V1 Cr1 W2 O12'
_cell_volume   208.24901639
_cell_formula_units_Z   1
loop_
 _symmetry_equiv_pos_site_id
 _symmetry_equiv_pos_as_xyz
  1  'x, y, z'
loop_
 _atom_site_type_symbol
 _atom_site_label
 _atom_site_symmetry_multiplicity
 _atom_site_fract_x
 _atom_site_fract_y
 _atom_site_fract_z
 _atom_site_occupancy
  Li  Li0  1  0.999197  0.520704  0.251466  1
  Li  Li1  1  0.504576  0.062960  0.796335  1
  Li  Li2  1  0.004648  0.567598  0.794271  1
  Li  Li3  1  0.493636  0.971398  0.226585  1
  V  V4  1  0.499949  0.461042  0.487305  1
  Cr  Cr5  1  0.999799  0.013702  0.004534  1
  W  W6  1  0.989827  0.972164  0.502986  1
  W  W7  1  0.507410  0.509017  0.986042  1
  O  O8  1  0.690207  0.808890  0.438936  1
  O  O9  1  0.890769  0.005064  0.746235  1
  O  O10  1  0.681870  0.203312  0.055715  1
  O  O11  1  0.798172  0.315100  0.441589  1
  O  O12  1  0.203377  0.318598  0.946012  1
  O  O13  1  0.618320  0.503189  0.743887  1
  O  O14  1  0.386139  0.505851  0.261254  1
  O  O15  1  0.803784  0.695209  0.055323  1
  O  O16  1  0.190320  0.691141  0.561120  1
  O  O17  1  0.307749  0.806752  0.950550  1
  O  O18  1  0.113612  0.010156  0.261916  1
  O  O19  1  0.316636  0.200553  0.559137  1
