# generated using pymatgen
data_Li3(NiO2)4
_symmetry_space_group_name_H-M   'P 1'
_cell_length_a   5.77330100
_cell_length_b   5.77330100
_cell_length_c   5.76925773
_cell_angle_alpha   60.35654544
_cell_angle_beta   119.64345456
_cell_angle_gamma   122.26651786
_symmetry_Int_Tables_number   1
_chemical_formula_structural   Li3(NiO2)4
_chemical_formula_sum   'Li3 Ni4 O8'
_cell_volume   134.18434227
_cell_formula_units_Z   1
loop_
 _symmetry_equiv_pos_site_id
 _symmetry_equiv_pos_as_xyz
  1  'x, y, z'
loop_
 _atom_site_type_symbol
 _atom_site_label
 _atom_site_symmetry_multiplicity
 _atom_site_fract_x
 _atom_site_fract_y
 _atom_site_fract_z
 _atom_site_occupancy
  Li  Li0  1  0.500000  0.500000  0.500000  1
  Li  Li1  1  0.000000  0.500000  0.500000  1
  Li  Li2  1  0.500000  0.000000  0.500000  1
  Ni  Ni3  1  0.500000  0.500000  0.000000  1
  Ni  Ni4  1  0.000000  0.500000  0.000000  1
  Ni  Ni5  1  0.000000  0.000000  0.000000  1
  Ni  Ni6  1  0.500000  0.000000  0.000000  1
  O  O7  1  0.251601  0.748399  0.221422  1
  O  O8  1  0.746675  0.745916  0.219950  1
  O  O9  1  0.745916  0.746675  0.780050  1
  O  O10  1  0.724124  0.275876  0.206765  1
  O  O11  1  0.275876  0.724124  0.793235  1
  O  O12  1  0.254084  0.253325  0.219950  1
  O  O13  1  0.253325  0.254084  0.780050  1
  O  O14  1  0.748399  0.251601  0.778578  1
