# generated using pymatgen
data_Ga2HgO4
_symmetry_space_group_name_H-M   'P 1'
_cell_length_a   3.02591459
_cell_length_b   9.32092921
_cell_length_c   10.96201446
_cell_angle_alpha   90.00000000
_cell_angle_beta   90.00000000
_cell_angle_gamma   90.00000000
_symmetry_Int_Tables_number   1
_chemical_formula_structural   Ga2HgO4
_chemical_formula_sum   'Ga8 Hg4 O16'
_cell_volume   309.17633566
_cell_formula_units_Z   4
loop_
 _symmetry_equiv_pos_site_id
 _symmetry_equiv_pos_as_xyz
  1  'x, y, z'
loop_
 _atom_site_type_symbol
 _atom_site_label
 _atom_site_symmetry_multiplicity
 _atom_site_fract_x
 _atom_site_fract_y
 _atom_site_fract_z
 _atom_site_occupancy
  Ga  Ga0  1  0.250000  0.919305  0.605658  1
  Ga  Ga1  1  0.250000  0.931752  0.111765  1
  Ga  Ga2  1  0.750000  0.568248  0.611765  1
  Ga  Ga3  1  0.750000  0.580695  0.105658  1
  Ga  Ga4  1  0.250000  0.419305  0.894342  1
  Ga  Ga5  1  0.250000  0.431752  0.388235  1
  Ga  Ga6  1  0.750000  0.068248  0.888235  1
  Ga  Ga7  1  0.750000  0.080695  0.394342  1
  Hg  Hg8  1  0.250000  0.756996  0.346830  1
  Hg  Hg9  1  0.750000  0.743004  0.846830  1
  Hg  Hg10  1  0.250000  0.256996  0.153170  1
  Hg  Hg11  1  0.750000  0.243004  0.653170  1
  O  O12  1  0.750000  0.977001  0.715452  1
  O  O13  1  0.250000  0.924936  0.928994  1
  O  O14  1  0.750000  0.887523  0.481660  1
  O  O15  1  0.750000  0.793741  0.149714  1
  O  O16  1  0.250000  0.706259  0.649714  1
  O  O17  1  0.250000  0.612477  0.981660  1
  O  O18  1  0.750000  0.575064  0.428994  1
  O  O19  1  0.250000  0.522999  0.215452  1
  O  O20  1  0.750000  0.477001  0.784548  1
  O  O21  1  0.250000  0.424936  0.571006  1
  O  O22  1  0.750000  0.387523  0.018340  1
  O  O23  1  0.750000  0.293741  0.350286  1
  O  O24  1  0.250000  0.206259  0.850286  1
  O  O25  1  0.250000  0.112477  0.518340  1
  O  O26  1  0.750000  0.075064  0.071006  1
  O  O27  1  0.250000  0.022999  0.284548  1
