# generated using pymatgen
data_NaBiCSO7
_symmetry_space_group_name_H-M   'P 1'
_cell_length_a   5.72711645
_cell_length_b   7.07063296
_cell_length_c   9.42468687
_cell_angle_alpha   90.00000000
_cell_angle_beta   90.52707748
_cell_angle_gamma   90.00000000
_symmetry_Int_Tables_number   1
_chemical_formula_structural   NaBiCSO7
_chemical_formula_sum   'Na2 Bi2 C2 S2 O14'
_cell_volume   381.63031054
_cell_formula_units_Z   2
loop_
 _symmetry_equiv_pos_site_id
 _symmetry_equiv_pos_as_xyz
  1  'x, y, z'
loop_
 _atom_site_type_symbol
 _atom_site_label
 _atom_site_symmetry_multiplicity
 _atom_site_fract_x
 _atom_site_fract_y
 _atom_site_fract_z
 _atom_site_occupancy
  Na  Na0  1  0.246659  0.491862  0.206153  1
  Na  Na1  1  0.753341  0.991862  0.793847  1
  Bi  Bi2  1  0.780148  0.763805  0.350888  1
  Bi  Bi3  1  0.219852  0.263805  0.649112  1
  C  C4  1  0.721613  0.734375  0.070832  1
  C  C5  1  0.278387  0.234375  0.929168  1
  S  S6  1  0.721991  0.259544  0.414555  1
  S  S7  1  0.278009  0.759544  0.585445  1
  O  O8  1  0.305818  0.251135  0.057734  1
  O  O9  1  0.932978  0.736503  0.136147  1
  O  O10  1  0.543979  0.717871  0.163140  1
  O  O11  1  0.789965  0.095306  0.324878  1
  O  O12  1  0.842150  0.428114  0.351707  1
  O  O13  1  0.196779  0.731130  0.434806  1
  O  O14  1  0.465540  0.288205  0.415007  1
  O  O15  1  0.534460  0.788205  0.584993  1
  O  O16  1  0.803221  0.231130  0.565194  1
  O  O17  1  0.157850  0.928114  0.648293  1
  O  O18  1  0.210035  0.595306  0.675122  1
  O  O19  1  0.456021  0.217871  0.836860  1
  O  O20  1  0.067022  0.236503  0.863853  1
  O  O21  1  0.694182  0.751135  0.942266  1
