# generated using pymatgen
data_LiSnP2O7
_symmetry_space_group_name_H-M   'P 1'
_cell_length_a   7.30353121
_cell_length_b   8.79381813
_cell_length_c   9.22538428
_cell_angle_alpha   90.00000000
_cell_angle_beta   112.84897248
_cell_angle_gamma   90.00000000
_symmetry_Int_Tables_number   1
_chemical_formula_structural   LiSnP2O7
_chemical_formula_sum   'Li4 Sn4 P8 O28'
_cell_volume   546.01561574
_cell_formula_units_Z   4
loop_
 _symmetry_equiv_pos_site_id
 _symmetry_equiv_pos_as_xyz
  1  'x, y, z'
loop_
 _atom_site_type_symbol
 _atom_site_label
 _atom_site_symmetry_multiplicity
 _atom_site_fract_x
 _atom_site_fract_y
 _atom_site_fract_z
 _atom_site_occupancy
  Li  Li0  1  0.287848  0.951679  0.173120  1
  Li  Li1  1  0.712152  0.451679  0.326880  1
  Li  Li2  1  0.287848  0.548321  0.673120  1
  Li  Li3  1  0.712152  0.048321  0.826880  1
  Sn  Sn4  1  0.250990  0.577566  0.117881  1
  Sn  Sn5  1  0.749010  0.077566  0.382119  1
  Sn  Sn6  1  0.250990  0.922434  0.617881  1
  Sn  Sn7  1  0.749010  0.422434  0.882119  1
  P  P8  1  0.535714  0.725559  0.470171  1
  P  P9  1  0.464286  0.225559  0.029829  1
  P  P10  1  0.933232  0.740104  0.752117  1
  P  P11  1  0.066768  0.240104  0.747883  1
  P  P12  1  0.933232  0.759896  0.252117  1
  P  P13  1  0.066768  0.259896  0.247883  1
  P  P14  1  0.535714  0.774441  0.970171  1
  P  P15  1  0.464286  0.274441  0.529829  1
  O  O16  1  0.493582  0.592663  0.351928  1
  O  O17  1  0.540670  0.880496  0.396157  1
  O  O18  1  0.387953  0.775170  0.053283  1
  O  O19  1  0.612047  0.275170  0.446717  1
  O  O20  1  0.459330  0.380496  0.103843  1
  O  O21  1  0.749639  0.677192  0.598516  1
  O  O22  1  0.506418  0.092663  0.148072  1
  O  O23  1  0.886526  0.240139  0.797096  1
  O  O24  1  0.880932  0.887109  0.805737  1
  O  O25  1  0.970686  0.602925  0.874089  1
  O  O26  1  0.749639  0.822808  0.098516  1
  O  O27  1  0.029314  0.102925  0.625911  1
  O  O28  1  0.886526  0.259861  0.297096  1
  O  O29  1  0.880932  0.612891  0.305737  1
  O  O30  1  0.119068  0.387109  0.694263  1
  O  O31  1  0.113474  0.740139  0.702904  1
  O  O32  1  0.970686  0.897075  0.374089  1
  O  O33  1  0.250361  0.177192  0.901484  1
  O  O34  1  0.029314  0.397075  0.125911  1
  O  O35  1  0.119068  0.112891  0.194263  1
  O  O36  1  0.113474  0.759861  0.202904  1
  O  O37  1  0.493582  0.907337  0.851928  1
  O  O38  1  0.250361  0.322808  0.401484  1
  O  O39  1  0.540670  0.619504  0.896157  1
  O  O40  1  0.387953  0.724830  0.553283  1
  O  O41  1  0.612047  0.224830  0.946717  1
  O  O42  1  0.459330  0.119504  0.603843  1
  O  O43  1  0.506418  0.407337  0.648072  1
