# generated using pymatgen
data_LiMn2Cr2O8
_symmetry_space_group_name_H-M   'P 1'
_cell_length_a   5.86255355
_cell_length_b   10.11933056
_cell_length_c   10.29680076
_cell_angle_alpha   109.17082742
_cell_angle_beta   90.07533121
_cell_angle_gamma   90.38480205
_symmetry_Int_Tables_number   1
_chemical_formula_structural   LiMn2Cr2O8
_chemical_formula_sum   'Li4 Mn8 Cr8 O32'
_cell_volume   576.96591401
_cell_formula_units_Z   4
loop_
 _symmetry_equiv_pos_site_id
 _symmetry_equiv_pos_as_xyz
  1  'x, y, z'
loop_
 _atom_site_type_symbol
 _atom_site_label
 _atom_site_symmetry_multiplicity
 _atom_site_fract_x
 _atom_site_fract_y
 _atom_site_fract_z
 _atom_site_occupancy
  Li  Li0  1  0.500658  0.248902  0.251191  1
  Li  Li1  1  0.736956  0.995304  0.752740  1
  Li  Li2  1  0.000093  0.502056  0.001454  1
  Li  Li3  1  0.001004  0.997216  0.489636  1
  Mn  Mn4  1  0.006253  0.500640  0.497073  1
  Mn  Mn5  1  0.998366  0.999894  0.003922  1
  Mn  Mn6  1  0.246430  0.750733  0.502149  1
  Mn  Mn7  1  0.249150  0.245073  0.995710  1
  Mn  Mn8  1  0.499675  0.999817  0.497151  1
  Mn  Mn9  1  0.498687  0.501708  0.000688  1
  Mn  Mn10  1  0.750209  0.751801  0.999616  1
  Mn  Mn11  1  0.748736  0.248762  0.999537  1
  Cr  Cr12  1  0.255367  0.757386  0.001353  1
  Cr  Cr13  1  0.251513  0.253846  0.502648  1
  Cr  Cr14  1  0.497496  0.750330  0.249834  1
  Cr  Cr15  1  0.498006  0.252201  0.751966  1
  Cr  Cr16  1  0.741198  0.740143  0.497474  1
  Cr  Cr17  1  0.751902  0.257245  0.505678  1
  Cr  Cr18  1  0.004418  0.746864  0.750134  1
  Cr  Cr19  1  0.001378  0.249291  0.249310  1
  O  O20  1  0.003138  0.372819  0.601349  1
  O  O21  1  0.996300  0.871491  0.103642  1
  O  O22  1  0.991063  0.128323  0.895650  1
  O  O23  1  0.223045  0.631063  0.611818  1
  O  O24  1  0.218865  0.872684  0.891590  1
  O  O25  1  0.274464  0.627310  0.108799  1
  O  O26  1  0.228518  0.367053  0.385235  1
  O  O27  1  0.273295  0.871764  0.389177  1
  O  O28  1  0.226005  0.133128  0.114552  1
  O  O29  1  0.273711  0.370762  0.889977  1
  O  O30  1  0.275217  0.128907  0.609549  1
  O  O31  1  0.504210  0.631523  0.898600  1
  O  O32  1  0.500406  0.871017  0.604097  1
  O  O33  1  0.497529  0.359986  0.102841  1
  O  O34  1  0.500063  0.850475  0.111512  1
  O  O35  1  0.494513  0.650368  0.389145  1
  O  O36  1  0.505113  0.349262  0.613789  1
  O  O37  1  0.501935  0.136262  0.396155  1
  O  O38  1  0.504312  0.143698  0.883496  1
  O  O39  1  0.724680  0.629860  0.110978  1
  O  O40  1  0.724484  0.871751  0.390774  1
  O  O41  1  0.785068  0.627769  0.608384  1
  O  O42  1  0.782043  0.872187  0.884683  1
  O  O43  1  0.724883  0.372727  0.891874  1
  O  O44  1  0.722773  0.124340  0.615705  1
  O  O45  1  0.778255  0.367610  0.385036  1
  O  O46  1  0.771848  0.133996  0.115867  1
  O  O47  1  0.991980  0.855703  0.612089  1
  O  O48  1  0.000902  0.647411  0.893397  1
  O  O49  1  0.004965  0.631615  0.396722  1
  O  O50  1  0.003786  0.352494  0.106383  1
  O  O51  1  0.997809  0.148388  0.392770  1
