# generated using pymatgen
data_ZrO2
_symmetry_space_group_name_H-M   'P 1'
_cell_length_a   3.48076023
_cell_length_b   5.50550846
_cell_length_c   7.75979350
_cell_angle_alpha   90.00000000
_cell_angle_beta   90.00000000
_cell_angle_gamma   90.00000000
_symmetry_Int_Tables_number   1
_chemical_formula_structural   ZrO2
_chemical_formula_sum   'Zr4 O8'
_cell_volume   148.70367674
_cell_formula_units_Z   4
loop_
 _symmetry_equiv_pos_site_id
 _symmetry_equiv_pos_as_xyz
  1  'x, y, z'
loop_
 _atom_site_type_symbol
 _atom_site_label
 _atom_site_symmetry_multiplicity
 _atom_site_fract_x
 _atom_site_fract_y
 _atom_site_fract_z
 _atom_site_occupancy
  Zr  Zr0  1  0.250000  0.635917  0.828305  1
  Zr  Zr1  1  0.250000  0.864083  0.328305  1
  Zr  Zr2  1  0.750000  0.135917  0.671695  1
  Zr  Zr3  1  0.750000  0.364083  0.171695  1
  O  O4  1  0.250000  0.614891  0.108718  1
  O  O5  1  0.750000  0.640220  0.355255  1
  O  O6  1  0.750000  0.859780  0.855255  1
  O  O7  1  0.250000  0.885109  0.608718  1
  O  O8  1  0.750000  0.114891  0.391282  1
  O  O9  1  0.250000  0.140220  0.144745  1
  O  O10  1  0.250000  0.359780  0.644745  1
  O  O11  1  0.750000  0.385109  0.891282  1
