# generated using pymatgen
data_LiCu2PO4
_symmetry_space_group_name_H-M   'P 1'
_cell_length_a   5.16790269
_cell_length_b   5.53605936
_cell_length_c   6.20900151
_cell_angle_alpha   89.38329269
_cell_angle_beta   89.97272598
_cell_angle_gamma   89.67054849
_symmetry_Int_Tables_number   1
_chemical_formula_structural   LiCu2PO4
_chemical_formula_sum   'Li2 Cu4 P2 O8'
_cell_volume   177.62514928
_cell_formula_units_Z   2
loop_
 _symmetry_equiv_pos_site_id
 _symmetry_equiv_pos_as_xyz
  1  'x, y, z'
loop_
 _atom_site_type_symbol
 _atom_site_label
 _atom_site_symmetry_multiplicity
 _atom_site_fract_x
 _atom_site_fract_y
 _atom_site_fract_z
 _atom_site_occupancy
  Li  Li0  1  0.503172  0.155679  0.999972  1
  Li  Li1  1  0.003872  0.329368  0.248050  1
  Cu  Cu2  1  0.501478  0.656227  0.264764  1
  Cu  Cu3  1  0.014901  0.805163  0.500680  1
  Cu  Cu4  1  0.511691  0.655393  0.733590  1
  Cu  Cu5  1  0.999744  0.335229  0.748740  1
  P  P6  1  0.998185  0.838306  0.004836  1
  P  P7  1  0.501403  0.181380  0.495397  1
  O  O8  1  0.113409  0.097312  0.012416  1
  O  O9  1  0.697793  0.847253  0.000846  1
  O  O10  1  0.092440  0.683826  0.203495  1
  O  O11  1  0.616047  0.305982  0.289232  1
  O  O12  1  0.201320  0.188644  0.488233  1
  O  O13  1  0.603465  0.916014  0.498597  1
  O  O14  1  0.596487  0.301730  0.709602  1
  O  O15  1  0.102002  0.702491  0.801550  1
