# generated using pymatgen
data_Li3TiCr3O8
_symmetry_space_group_name_H-M   'P 1'
_cell_length_a   5.97420343
_cell_length_b   5.97420343
_cell_length_c   5.97420343
_cell_angle_alpha   59.50260476
_cell_angle_beta   59.50260476
_cell_angle_gamma   59.50260476
_symmetry_Int_Tables_number   1
_chemical_formula_structural   Li3TiCr3O8
_chemical_formula_sum   'Li3 Ti1 Cr3 O8'
_cell_volume   149.06796400
_cell_formula_units_Z   1
loop_
 _symmetry_equiv_pos_site_id
 _symmetry_equiv_pos_as_xyz
  1  'x, y, z'
loop_
 _atom_site_type_symbol
 _atom_site_label
 _atom_site_symmetry_multiplicity
 _atom_site_fract_x
 _atom_site_fract_y
 _atom_site_fract_z
 _atom_site_occupancy
  Li  Li0  1  0.000000  0.000000  0.500000  1
  Li  Li1  1  0.500000  0.000000  1.000000  1
  Li  Li2  1  1.000000  0.500000  0.000000  1
  Ti  Ti3  1  0.000000  0.000000  0.000000  1
  Cr  Cr4  1  0.500000  0.500000  0.000000  1
  Cr  Cr5  1  0.000000  0.500000  0.500000  1
  Cr  Cr6  1  0.500000  0.000000  0.500000  1
  O  O7  1  0.259460  0.259460  0.259460  1
  O  O8  1  0.765808  0.765808  0.250801  1
  O  O9  1  0.250801  0.765808  0.765808  1
  O  O10  1  0.740540  0.740540  0.740540  1
  O  O11  1  0.765808  0.250801  0.765808  1
  O  O12  1  0.234192  0.234192  0.749199  1
  O  O13  1  0.749199  0.234192  0.234192  1
  O  O14  1  0.234192  0.749199  0.234192  1
