# generated using pymatgen
data_Li3(CoO2)4
_symmetry_space_group_name_H-M   'P 1'
_cell_length_a   5.66820615
_cell_length_b   5.69874662
_cell_length_c   5.74022808
_cell_angle_alpha   118.04383221
_cell_angle_beta   91.59198861
_cell_angle_gamma   118.95784613
_symmetry_Int_Tables_number   1
_chemical_formula_structural   Li3(CoO2)4
_chemical_formula_sum   'Li3 Co4 O8'
_cell_volume   135.13027938
_cell_formula_units_Z   1
loop_
 _symmetry_equiv_pos_site_id
 _symmetry_equiv_pos_as_xyz
  1  'x, y, z'
loop_
 _atom_site_type_symbol
 _atom_site_label
 _atom_site_symmetry_multiplicity
 _atom_site_fract_x
 _atom_site_fract_y
 _atom_site_fract_z
 _atom_site_occupancy
  Li  Li0  1  0.500000  0.000000  0.000000  1
  Li  Li1  1  0.500000  0.500000  0.500000  1
  Li  Li2  1  0.500569  0.507405  0.007263  1
  Co  Co3  1  0.500000  0.000000  0.500000  1
  Co  Co4  1  0.000000  0.000000  0.000000  1
  Co  Co5  1  0.000000  0.000000  0.500000  1
  Co  Co6  1  0.000000  0.500000  0.500000  1
  O  O7  1  0.540601  0.782567  0.715787  1
  O  O8  1  0.999826  0.771695  0.281992  1
  O  O9  1  0.023352  0.758636  0.717421  1
  O  O10  1  0.483915  0.764042  0.280329  1
  O  O11  1  0.516085  0.235958  0.719671  1
  O  O12  1  0.976648  0.241364  0.282579  1
  O  O13  1  0.000174  0.228305  0.718008  1
  O  O14  1  0.459399  0.217433  0.284213  1
