# generated using pymatgen
data_Li5FeS4
_symmetry_space_group_name_H-M   'P 1'
_cell_length_a   5.87095913
_cell_length_b   7.83056882
_cell_length_c   7.94245630
_cell_angle_alpha   90.00000000
_cell_angle_beta   90.00000000
_cell_angle_gamma   90.00000000
_symmetry_Int_Tables_number   1
_chemical_formula_structural   Li5FeS4
_chemical_formula_sum   'Li10 Fe2 S8'
_cell_volume   365.13814244
_cell_formula_units_Z   2
loop_
 _symmetry_equiv_pos_site_id
 _symmetry_equiv_pos_as_xyz
  1  'x, y, z'
loop_
 _atom_site_type_symbol
 _atom_site_label
 _atom_site_symmetry_multiplicity
 _atom_site_fract_x
 _atom_site_fract_y
 _atom_site_fract_z
 _atom_site_occupancy
  Li  Li0  1  0.253335  0.742519  0.712364  1
  Li  Li1  1  0.253335  0.257481  0.712364  1
  Li  Li2  1  0.796213  0.000000  0.500000  1
  Li  Li3  1  0.253335  0.742519  0.287636  1
  Li  Li4  1  0.253335  0.257481  0.287636  1
  Li  Li5  1  0.746665  0.757481  0.212364  1
  Li  Li6  1  0.746665  0.242519  0.212364  1
  Li  Li7  1  0.203787  0.500000  0.000000  1
  Li  Li8  1  0.746665  0.757481  0.787636  1
  Li  Li9  1  0.746665  0.242519  0.787636  1
  Fe  Fe10  1  0.771445  0.500000  0.500000  1
  Fe  Fe11  1  0.228555  0.000000  0.000000  1
  S  S12  1  0.984045  0.500000  0.739260  1
  S  S13  1  0.557087  0.744107  0.500000  1
  S  S14  1  0.557087  0.255893  0.500000  1
  S  S15  1  0.984045  0.500000  0.260740  1
  S  S16  1  0.015955  0.000000  0.239260  1
  S  S17  1  0.442913  0.755893  0.000000  1
  S  S18  1  0.442913  0.244107  0.000000  1
  S  S19  1  0.015955  0.000000  0.760740  1
