# generated using pymatgen
data_Li3MnV(PO4)3
_symmetry_space_group_name_H-M   'P 1'
_cell_length_a   12.03685710
_cell_length_b   10.44740629
_cell_length_c   10.31825631
_cell_angle_alpha   70.84901890
_cell_angle_beta   55.07645052
_cell_angle_gamma   54.07453058
_symmetry_Int_Tables_number   1
_chemical_formula_structural   Li3MnV(PO4)3
_chemical_formula_sum   'Li12 Mn4 V4 P12 O48'
_cell_volume   861.45954821
_cell_formula_units_Z   4
loop_
 _symmetry_equiv_pos_site_id
 _symmetry_equiv_pos_as_xyz
  1  'x, y, z'
loop_
 _atom_site_type_symbol
 _atom_site_label
 _atom_site_symmetry_multiplicity
 _atom_site_fract_x
 _atom_site_fract_y
 _atom_site_fract_z
 _atom_site_occupancy
  Li  Li0  1  0.004791  0.368482  0.872920  1
  Li  Li1  1  0.377080  0.496192  0.245209  1
  Li  Li2  1  0.500000  0.500000  0.500000  1
  Li  Li3  1  0.368482  0.004791  0.753808  1
  Li  Li4  1  0.250000  0.250000  0.250000  1
  Li  Li5  1  0.496192  0.377080  0.881518  1
  Li  Li6  1  0.753808  0.872920  0.368482  1
  Li  Li7  1  0.000000  0.000000  0.000000  1
  Li  Li8  1  0.881518  0.245209  0.496192  1
  Li  Li9  1  0.750000  0.750000  0.750000  1
  Li  Li10  1  0.872920  0.753808  0.004791  1
  Li  Li11  1  0.245209  0.881518  0.377080  1
  Mn  Mn12  1  0.125000  0.625000  0.125000  1
  Mn  Mn13  1  0.125000  0.125000  0.125000  1
  Mn  Mn14  1  0.625000  0.125000  0.125000  1
  Mn  Mn15  1  0.125000  0.125000  0.625000  1
  V  V16  1  0.125000  0.625000  0.625000  1
  V  V17  1  0.625000  0.625000  0.125000  1
  V  V18  1  0.625000  0.625000  0.625000  1
  V  V19  1  0.625000  0.125000  0.625000  1
  P  P20  1  0.999132  0.500868  0.500868  1
  P  P21  1  0.872500  0.501923  0.252002  1
  P  P22  1  0.373576  0.252002  0.501923  1
  P  P23  1  0.252002  0.373576  0.872500  1
  P  P24  1  0.748077  0.377500  0.876424  1
  P  P25  1  0.749132  0.250868  0.250868  1
  P  P26  1  0.500868  0.999132  0.999132  1
  P  P27  1  0.997998  0.876424  0.377500  1
  P  P28  1  0.501923  0.872500  0.373576  1
  P  P29  1  0.876424  0.997998  0.748077  1
  P  P30  1  0.377500  0.748077  0.997998  1
  P  P31  1  0.250868  0.749132  0.749132  1
  O  O32  1  0.739642  0.516380  0.920143  1
  O  O33  1  0.126509  0.509500  0.332790  1
  O  O34  1  0.340631  0.618570  0.031477  1
  O  O35  1  0.006640  0.538770  0.631590  1
  O  O36  1  0.827280  0.533359  0.122529  1
  O  O37  1  0.122529  0.516832  0.827280  1
  O  O38  1  0.329857  0.426166  0.510358  1
  O  O39  1  0.240677  0.218523  0.631430  1
  O  O40  1  0.414360  0.244727  0.331725  1
  O  O41  1  0.618570  0.340631  0.009323  1
  O  O42  1  0.009188  0.331725  0.244727  1
  O  O43  1  0.427000  0.618410  0.711230  1
  O  O44  1  0.618410  0.427000  0.243360  1
  O  O45  1  0.244727  0.414360  0.009188  1
  O  O46  1  0.218523  0.240677  0.909369  1
  O  O47  1  0.426166  0.329857  0.733620  1
  O  O48  1  0.031202  0.332790  0.509500  1
  O  O49  1  0.733620  0.510358  0.426166  1
  O  O50  1  0.516832  0.122529  0.533359  1
  O  O51  1  0.918275  0.240812  0.835640  1
  O  O52  1  0.740500  0.123491  0.218798  1
  O  O53  1  0.711230  0.243360  0.427000  1
  O  O54  1  0.332790  0.031202  0.126509  1
  O  O55  1  0.716641  0.422720  0.733168  1
  O  O56  1  0.533359  0.827280  0.516832  1
  O  O57  1  0.917210  0.218798  0.123491  1
  O  O58  1  0.538770  0.006640  0.823000  1
  O  O59  1  0.509500  0.126509  0.031202  1
  O  O60  1  0.331725  0.009188  0.414360  1
  O  O61  1  0.733168  0.127471  0.716641  1
  O  O62  1  0.516380  0.739642  0.823834  1
  O  O63  1  0.218798  0.917210  0.740500  1
  O  O64  1  0.823834  0.920143  0.516380  1
  O  O65  1  0.031477  0.009323  0.340631  1
  O  O66  1  0.005273  0.835640  0.240812  1
  O  O67  1  0.631590  0.823000  0.006640  1
  O  O68  1  0.823000  0.631590  0.538770  1
  O  O69  1  0.240812  0.918275  0.005273  1
  O  O70  1  0.631430  0.909369  0.240677  1
  O  O71  1  0.835640  0.005273  0.918275  1
  O  O72  1  0.009323  0.031477  0.618570  1
  O  O73  1  0.920143  0.823834  0.739642  1
  O  O74  1  0.127471  0.733168  0.422720  1
  O  O75  1  0.422720  0.716641  0.127471  1
  O  O76  1  0.243360  0.711230  0.618410  1
  O  O77  1  0.909369  0.631430  0.218523  1
  O  O78  1  0.123491  0.740500  0.917210  1
  O  O79  1  0.510358  0.733620  0.329857  1
