# generated using pymatgen
data_Na5(WO3)6
_symmetry_space_group_name_H-M   'P 1'
_cell_length_a   6.83660895
_cell_length_b   6.83660895
_cell_length_c   16.87793102
_cell_angle_alpha   90.00000000
_cell_angle_beta   90.00000000
_cell_angle_gamma   109.62993429
_symmetry_Int_Tables_number   1
_chemical_formula_structural   Na5(WO3)6
_chemical_formula_sum   'Na10 W12 O36'
_cell_volume   743.01437261
_cell_formula_units_Z   2
loop_
 _symmetry_equiv_pos_site_id
 _symmetry_equiv_pos_as_xyz
  1  'x, y, z'
loop_
 _atom_site_type_symbol
 _atom_site_label
 _atom_site_symmetry_multiplicity
 _atom_site_fract_x
 _atom_site_fract_y
 _atom_site_fract_z
 _atom_site_occupancy
  Na  Na0  1  0.125373  0.874627  0.416327  1
  Na  Na1  1  0.874627  0.125373  0.916327  1
  Na  Na2  1  0.874992  0.125008  0.250000  1
  Na  Na3  1  0.125373  0.874627  0.083673  1
  Na  Na4  1  0.125008  0.874992  0.750000  1
  Na  Na5  1  0.874627  0.125373  0.583673  1
  Na  Na6  1  0.375331  0.624669  0.583811  1
  Na  Na7  1  0.375331  0.624669  0.916189  1
  Na  Na8  1  0.624669  0.375331  0.416189  1
  Na  Na9  1  0.624669  0.375331  0.083811  1
  W  W10  1  0.873838  0.623740  0.915061  1
  W  W11  1  0.873838  0.623740  0.584939  1
  W  W12  1  0.874883  0.625182  0.250000  1
  W  W13  1  0.376260  0.126162  0.584939  1
  W  W14  1  0.623740  0.873838  0.415061  1
  W  W15  1  0.126162  0.376260  0.415061  1
  W  W16  1  0.625182  0.874883  0.750000  1
  W  W17  1  0.374818  0.125117  0.250000  1
  W  W18  1  0.126162  0.376260  0.084939  1
  W  W19  1  0.376260  0.126162  0.915061  1
  W  W20  1  0.623740  0.873838  0.084939  1
  W  W21  1  0.125117  0.374818  0.750000  1
  O  O22  1  0.749698  0.749698  0.500000  1
  O  O23  1  0.753238  0.752239  0.664197  1
  O  O24  1  0.753238  0.752239  0.835803  1
  O  O25  1  0.749698  0.749698  0.000000  1
  O  O26  1  0.997840  0.496691  0.335887  1
  O  O27  1  0.000000  0.500000  0.500000  1
  O  O28  1  0.752239  0.753238  0.335803  1
  O  O29  1  0.000000  0.500000  0.000000  1
  O  O30  1  0.752239  0.753238  0.164197  1
  O  O31  1  0.002160  0.503309  0.664113  1
  O  O32  1  0.002160  0.503309  0.835887  1
  O  O33  1  0.997840  0.496691  0.164113  1
  O  O34  1  0.874970  0.125030  0.416494  1
  O  O35  1  0.877709  0.122291  0.750000  1
  O  O36  1  0.874970  0.125030  0.083506  1
  O  O37  1  0.125030  0.874970  0.916494  1
  O  O38  1  0.372271  0.627729  0.750000  1
  O  O39  1  0.375012  0.624988  0.081801  1
  O  O40  1  0.125030  0.874970  0.583506  1
  O  O41  1  0.375012  0.624988  0.418199  1
  O  O42  1  0.122291  0.877709  0.250000  1
  O  O43  1  0.500000  0.000000  0.500000  1
  O  O44  1  0.247761  0.246762  0.835803  1
  O  O45  1  0.246762  0.247761  0.164197  1
  O  O46  1  0.246762  0.247761  0.335803  1
  O  O47  1  0.250302  0.250302  0.500000  1
  O  O48  1  0.503309  0.002160  0.335887  1
  O  O49  1  0.250302  0.250302  0.000000  1
  O  O50  1  0.496691  0.997840  0.835887  1
  O  O51  1  0.500000  0.000000  0.000000  1
  O  O52  1  0.503309  0.002160  0.164113  1
  O  O53  1  0.247761  0.246762  0.664197  1
  O  O54  1  0.496691  0.997840  0.664113  1
  O  O55  1  0.624988  0.375012  0.581801  1
  O  O56  1  0.627729  0.372271  0.250000  1
  O  O57  1  0.624988  0.375012  0.918199  1
