# generated using pymatgen
data_Yb2TiO5
_symmetry_space_group_name_H-M   'P 1'
_cell_length_a   3.67788843
_cell_length_b   10.92997052
_cell_length_c   11.09841994
_cell_angle_alpha   90.00000000
_cell_angle_beta   90.00000000
_cell_angle_gamma   90.00000000
_symmetry_Int_Tables_number   1
_chemical_formula_structural   Yb2TiO5
_chemical_formula_sum   'Yb8 Ti4 O20'
_cell_volume   446.14773732
_cell_formula_units_Z   4
loop_
 _symmetry_equiv_pos_site_id
 _symmetry_equiv_pos_as_xyz
  1  'x, y, z'
loop_
 _atom_site_type_symbol
 _atom_site_label
 _atom_site_symmetry_multiplicity
 _atom_site_fract_x
 _atom_site_fract_y
 _atom_site_fract_z
 _atom_site_occupancy
  Yb  Yb0  1  0.250000  0.107200  0.282060  1
  Yb  Yb1  1  0.250000  0.140185  0.938125  1
  Yb  Yb2  1  0.750000  0.359815  0.438125  1
  Yb  Yb3  1  0.750000  0.392800  0.782060  1
  Yb  Yb4  1  0.250000  0.607200  0.217940  1
  Yb  Yb5  1  0.250000  0.640185  0.561875  1
  Yb  Yb6  1  0.750000  0.859815  0.061875  1
  Yb  Yb7  1  0.750000  0.892800  0.717940  1
  Ti  Ti8  1  0.250000  0.174695  0.625289  1
  Ti  Ti9  1  0.750000  0.325305  0.125289  1
  Ti  Ti10  1  0.250000  0.674695  0.874711  1
  Ti  Ti11  1  0.750000  0.825305  0.374711  1
  O  O12  1  0.750000  0.007120  0.906766  1
  O  O13  1  0.250000  0.017410  0.663279  1
  O  O14  1  0.250000  0.222478  0.457790  1
  O  O15  1  0.750000  0.235079  0.612860  1
  O  O16  1  0.750000  0.238573  0.270187  1
  O  O17  1  0.250000  0.261427  0.770187  1
  O  O18  1  0.250000  0.264921  0.112860  1
  O  O19  1  0.750000  0.277522  0.957790  1
  O  O20  1  0.750000  0.482590  0.163279  1
  O  O21  1  0.250000  0.492880  0.406766  1
  O  O22  1  0.750000  0.507120  0.593234  1
  O  O23  1  0.250000  0.517410  0.836721  1
  O  O24  1  0.250000  0.722478  0.042210  1
  O  O25  1  0.750000  0.735079  0.887140  1
  O  O26  1  0.750000  0.738573  0.229813  1
  O  O27  1  0.250000  0.761427  0.729813  1
  O  O28  1  0.250000  0.764921  0.387140  1
  O  O29  1  0.750000  0.777522  0.542210  1
  O  O30  1  0.750000  0.982590  0.336721  1
  O  O31  1  0.250000  0.992880  0.093234  1
