# generated using pymatgen
data_Ga2(WO4)3
_symmetry_space_group_name_H-M   'P 1'
_cell_length_a   9.39428537
_cell_length_b   9.47223530
_cell_length_c   13.05358322
_cell_angle_alpha   90.00000000
_cell_angle_beta   90.00000000
_cell_angle_gamma   90.00000000
_symmetry_Int_Tables_number   1
_chemical_formula_structural   Ga2(WO4)3
_chemical_formula_sum   'Ga8 W12 O48'
_cell_volume   1161.57155598
_cell_formula_units_Z   4
loop_
 _symmetry_equiv_pos_site_id
 _symmetry_equiv_pos_as_xyz
  1  'x, y, z'
loop_
 _atom_site_type_symbol
 _atom_site_label
 _atom_site_symmetry_multiplicity
 _atom_site_fract_x
 _atom_site_fract_y
 _atom_site_fract_z
 _atom_site_occupancy
  Ga  Ga0  1  0.249390  0.036956  0.621822  1
  Ga  Ga1  1  0.749390  0.036956  0.878178  1
  Ga  Ga2  1  0.749390  0.463044  0.121822  1
  Ga  Ga3  1  0.249390  0.463044  0.378178  1
  Ga  Ga4  1  0.250610  0.536956  0.878178  1
  Ga  Ga5  1  0.750610  0.536956  0.621822  1
  Ga  Ga6  1  0.250610  0.963044  0.121822  1
  Ga  Ga7  1  0.750610  0.963044  0.378178  1
  W  W8  1  0.396965  0.113914  0.355631  1
  W  W9  1  0.896965  0.113914  0.144369  1
  W  W10  1  0.469648  0.250000  0.000000  1
  W  W11  1  0.969648  0.250000  0.500000  1
  W  W12  1  0.396965  0.386086  0.644369  1
  W  W13  1  0.896965  0.386086  0.855631  1
  W  W14  1  0.103035  0.613914  0.144369  1
  W  W15  1  0.603035  0.613914  0.355631  1
  W  W16  1  0.530352  0.750000  0.000000  1
  W  W17  1  0.030352  0.750000  0.500000  1
  W  W18  1  0.103035  0.886086  0.855631  1
  W  W19  1  0.603035  0.886086  0.644369  1
  O  O20  1  0.181619  0.001777  0.760898  1
  O  O21  1  0.681619  0.001777  0.739102  1
  O  O22  1  0.825628  0.071467  0.019822  1
  O  O23  1  0.325628  0.071467  0.480178  1
  O  O24  1  0.088327  0.091080  0.145329  1
  O  O25  1  0.588327  0.091080  0.354671  1
  O  O26  1  0.360247  0.124503  0.068301  1
  O  O27  1  0.860247  0.124503  0.431699  1
  O  O28  1  0.582366  0.160138  0.908411  1
  O  O29  1  0.082366  0.160138  0.591589  1
  O  O30  1  0.857929  0.202421  0.828435  1
  O  O31  1  0.357929  0.202421  0.671565  1
  O  O32  1  0.857929  0.297579  0.171565  1
  O  O33  1  0.357929  0.297579  0.328435  1
  O  O34  1  0.582366  0.339862  0.091589  1
  O  O35  1  0.082366  0.339862  0.408411  1
  O  O36  1  0.860247  0.375497  0.568301  1
  O  O37  1  0.360247  0.375497  0.931699  1
  O  O38  1  0.588327  0.408920  0.645329  1
  O  O39  1  0.088327  0.408920  0.854671  1
  O  O40  1  0.325628  0.428533  0.519822  1
  O  O41  1  0.825628  0.428533  0.980178  1
  O  O42  1  0.681619  0.498223  0.260898  1
  O  O43  1  0.181619  0.498223  0.239102  1
  O  O44  1  0.318381  0.501777  0.739102  1
  O  O45  1  0.818381  0.501777  0.760898  1
  O  O46  1  0.174372  0.571467  0.019822  1
  O  O47  1  0.674372  0.571467  0.480178  1
  O  O48  1  0.411673  0.591080  0.354671  1
  O  O49  1  0.911673  0.591080  0.145329  1
  O  O50  1  0.639753  0.624503  0.068301  1
  O  O51  1  0.139753  0.624503  0.431699  1
  O  O52  1  0.417634  0.660138  0.908411  1
  O  O53  1  0.917634  0.660138  0.591589  1
  O  O54  1  0.642071  0.702421  0.671565  1
  O  O55  1  0.142071  0.702421  0.828435  1
  O  O56  1  0.142071  0.797579  0.171565  1
  O  O57  1  0.642071  0.797579  0.328435  1
  O  O58  1  0.917634  0.839862  0.408411  1
  O  O59  1  0.417634  0.839862  0.091589  1
  O  O60  1  0.639753  0.875497  0.931699  1
  O  O61  1  0.139753  0.875497  0.568301  1
  O  O62  1  0.911673  0.908920  0.854671  1
  O  O63  1  0.411673  0.908920  0.645329  1
  O  O64  1  0.174372  0.928533  0.980178  1
  O  O65  1  0.674372  0.928533  0.519822  1
  O  O66  1  0.818381  0.998223  0.239102  1
  O  O67  1  0.318381  0.998223  0.260898  1
