# generated using pymatgen
data_Li6V(SiO4)2
_symmetry_space_group_name_H-M   'P 1'
_cell_length_a   5.12876768
_cell_length_b   11.05407875
_cell_length_c   7.94498165
_cell_angle_alpha   90.00000000
_cell_angle_beta   128.52722393
_cell_angle_gamma   90.00000000
_symmetry_Int_Tables_number   1
_chemical_formula_structural   Li6V(SiO4)2
_chemical_formula_sum   'Li12 V2 Si4 O16'
_cell_volume   352.37787174
_cell_formula_units_Z   2
loop_
 _symmetry_equiv_pos_site_id
 _symmetry_equiv_pos_as_xyz
  1  'x, y, z'
loop_
 _atom_site_type_symbol
 _atom_site_label
 _atom_site_symmetry_multiplicity
 _atom_site_fract_x
 _atom_site_fract_y
 _atom_site_fract_z
 _atom_site_occupancy
  Li  Li0  1  0.126305  0.592853  0.981089  1
  Li  Li1  1  0.948894  0.813393  0.750571  1
  Li  Li2  1  0.107132  0.323552  0.761156  1
  Li  Li3  1  0.673340  0.443827  0.696455  1
  Li  Li4  1  0.805177  0.096593  0.494818  1
  Li  Li5  1  0.689732  0.597444  0.508936  1
  Li  Li6  1  0.126305  0.407147  0.481089  1
  Li  Li7  1  0.107132  0.676448  0.261156  1
  Li  Li8  1  0.948894  0.186607  0.250571  1
  Li  Li9  1  0.673340  0.556173  0.196455  1
  Li  Li10  1  0.805177  0.903407  0.994818  1
  Li  Li11  1  0.689732  0.402556  0.008936  1
  V  V12  1  0.305095  0.077406  0.003767  1
  V  V13  1  0.305095  0.922594  0.503767  1
  Si  Si14  1  0.421990  0.653250  0.751846  1
  Si  Si15  1  0.577267  0.173579  0.750337  1
  Si  Si16  1  0.577267  0.826421  0.250337  1
  Si  Si17  1  0.421990  0.346750  0.251846  1
  O  O18  1  0.741561  0.581770  0.973217  1
  O  O19  1  0.689999  0.093080  0.964873  1
  O  O20  1  0.471300  0.314493  0.748420  1
  O  O21  1  0.101676  0.657540  0.750225  1
  O  O22  1  0.544233  0.791073  0.745373  1
  O  O23  1  0.898221  0.174972  0.748447  1
  O  O24  1  0.328328  0.575254  0.540112  1
  O  O25  1  0.254696  0.103949  0.533526  1
  O  O26  1  0.689999  0.906920  0.464873  1
  O  O27  1  0.741561  0.418230  0.473217  1
  O  O28  1  0.898221  0.825028  0.248447  1
  O  O29  1  0.101676  0.342460  0.250225  1
  O  O30  1  0.471300  0.685507  0.248420  1
  O  O31  1  0.544233  0.208927  0.245373  1
  O  O32  1  0.254696  0.896051  0.033526  1
  O  O33  1  0.328328  0.424746  0.040112  1
