# generated using pymatgen
data_Li3Ni2SbO6
_symmetry_space_group_name_H-M   'P 1'
_cell_length_a   6.57915350
_cell_length_b   6.57915350
_cell_length_c   6.17275304
_cell_angle_alpha   76.99686991
_cell_angle_beta   103.00313009
_cell_angle_gamma   153.09552279
_symmetry_Int_Tables_number   1
_chemical_formula_structural   Li3Ni2SbO6
_chemical_formula_sum   'Li3 Ni2 Sb1 O6'
_cell_volume   117.62418969
_cell_formula_units_Z   1
loop_
 _symmetry_equiv_pos_site_id
 _symmetry_equiv_pos_as_xyz
  1  'x, y, z'
loop_
 _atom_site_type_symbol
 _atom_site_label
 _atom_site_symmetry_multiplicity
 _atom_site_fract_x
 _atom_site_fract_y
 _atom_site_fract_z
 _atom_site_occupancy
  Li  Li0  1  0.500000  0.500000  0.500000  1
  Li  Li1  1  0.176937  0.823063  0.802590  1
  Li  Li2  1  0.823063  0.176937  0.197410  1
  Ni  Ni3  1  0.171777  0.828223  0.352984  1
  Ni  Ni4  1  0.828223  0.171777  0.647016  1
  Sb  Sb5  1  0.500000  0.500000  0.000000  1
  O  O6  1  0.656335  0.343665  0.092081  1
  O  O7  1  0.336270  0.663730  0.427881  1
  O  O8  1  0.343665  0.656335  0.907919  1
  O  O9  1  0.003641  0.996359  0.778189  1
  O  O10  1  0.996359  0.003641  0.221811  1
  O  O11  1  0.663730  0.336270  0.572119  1
