# generated using pymatgen
data_Mn5Cr2O12
_symmetry_space_group_name_H-M   'P 1'
_cell_length_a   5.17274568
_cell_length_b   5.17274568
_cell_length_c   9.85755484
_cell_angle_alpha   83.22461361
_cell_angle_beta   96.77538639
_cell_angle_gamma   58.25659899
_symmetry_Int_Tables_number   1
_chemical_formula_structural   Mn5Cr2O12
_chemical_formula_sum   'Mn5 Cr2 O12'
_cell_volume   217.61828565
_cell_formula_units_Z   1
loop_
 _symmetry_equiv_pos_site_id
 _symmetry_equiv_pos_as_xyz
  1  'x, y, z'
loop_
 _atom_site_type_symbol
 _atom_site_label
 _atom_site_symmetry_multiplicity
 _atom_site_fract_x
 _atom_site_fract_y
 _atom_site_fract_z
 _atom_site_occupancy
  Mn  Mn0  1  0.326010  0.326010  0.500000  1
  Mn  Mn1  1  0.524120  0.524209  0.228675  1
  Mn  Mn2  1  0.524209  0.524120  0.771325  1
  Mn  Mn3  1  0.667789  0.667789  0.500000  1
  Mn  Mn4  1  0.320149  0.320149  0.000000  1
  Cr  Cr5  1  0.003199  0.003199  0.000000  1
  Cr  Cr6  1  0.996017  0.996017  0.500000  1
  O  O7  1  0.138925  0.596173  0.125596  1
  O  O8  1  0.596173  0.138925  0.874404  1
  O  O9  1  0.712028  0.307997  0.611433  1
  O  O10  1  0.307997  0.712028  0.388567  1
  O  O11  1  0.359622  0.953924  0.103153  1
  O  O12  1  0.953924  0.359622  0.896847  1
  O  O13  1  0.053019  0.607699  0.600082  1
  O  O14  1  0.607699  0.053019  0.399918  1
  O  O15  1  0.710953  0.222503  0.115735  1
  O  O16  1  0.222503  0.710953  0.884265  1
  O  O17  1  0.393599  0.910647  0.614384  1
  O  O18  1  0.910647  0.393599  0.385616  1
