# generated using pymatgen
data_Fe3Co3(TeO8)2
_symmetry_space_group_name_H-M   'P 1'
_cell_length_a   5.93063855
_cell_length_b   5.93573409
_cell_length_c   9.20579398
_cell_angle_alpha   88.67079504
_cell_angle_beta   87.94790002
_cell_angle_gamma   60.56699031
_symmetry_Int_Tables_number   1
_chemical_formula_structural   Fe3Co3(TeO8)2
_chemical_formula_sum   'Fe3 Co3 Te2 O16'
_cell_volume   282.05461707
_cell_formula_units_Z   1
loop_
 _symmetry_equiv_pos_site_id
 _symmetry_equiv_pos_as_xyz
  1  'x, y, z'
loop_
 _atom_site_type_symbol
 _atom_site_label
 _atom_site_symmetry_multiplicity
 _atom_site_fract_x
 _atom_site_fract_y
 _atom_site_fract_z
 _atom_site_occupancy
  Fe  Fe0  1  0.839675  0.827310  0.793529  1
  Fe  Fe1  1  0.667218  0.174291  0.291622  1
  Fe  Fe2  1  0.173024  0.668518  0.292081  1
  Co  Co3  1  0.845754  0.333796  0.794427  1
  Co  Co4  1  0.349549  0.828114  0.783758  1
  Co  Co5  1  0.176182  0.173334  0.283733  1
  Te  Te6  1  0.661598  0.668238  0.511440  1
  Te  Te7  1  0.336267  0.330648  0.010345  1
  O  O8  1  0.825006  0.347222  0.403407  1
  O  O9  1  0.497193  0.538814  0.659751  1
  O  O10  1  0.644182  0.673090  0.892202  1
  O  O11  1  0.028321  0.990190  0.703219  1
  O  O12  1  0.014725  0.012299  0.200005  1
  O  O13  1  0.344775  0.833563  0.399593  1
  O  O14  1  0.947723  0.520015  0.650946  1
  O  O15  1  0.507773  0.959299  0.657898  1
  O  O16  1  0.181032  0.166117  0.897293  1
  O  O17  1  0.823796  0.831060  0.402848  1
  O  O18  1  0.464317  0.039656  0.158247  1
  O  O19  1  0.041623  0.460809  0.158419  1
  O  O20  1  0.320436  0.324671  0.390728  1
  O  O21  1  0.658363  0.170260  0.899564  1
  O  O22  1  0.478655  0.474521  0.146714  1
  O  O23  1  0.173013  0.653968  0.902513  1
