# generated using pymatgen
data_Li4V2SiGeO10
_symmetry_space_group_name_H-M   'P 1'
_cell_length_a   4.55869398
_cell_length_b   9.20167409
_cell_length_c   9.20621989
_cell_angle_alpha   90.00000000
_cell_angle_beta   90.00000000
_cell_angle_gamma   90.00000000
_symmetry_Int_Tables_number   1
_chemical_formula_structural   Li4V2SiGeO10
_chemical_formula_sum   'Li8 V4 Si2 Ge2 O20'
_cell_volume   386.17897930
_cell_formula_units_Z   2
loop_
 _symmetry_equiv_pos_site_id
 _symmetry_equiv_pos_as_xyz
  1  'x, y, z'
loop_
 _atom_site_type_symbol
 _atom_site_label
 _atom_site_symmetry_multiplicity
 _atom_site_fract_x
 _atom_site_fract_y
 _atom_site_fract_z
 _atom_site_occupancy
  Li  Li0  1  0.000000  0.000000  0.000000  1
  Li  Li1  1  0.000000  0.500000  0.000000  1
  Li  Li2  1  0.000000  0.750000  0.253628  1
  Li  Li3  1  0.000000  0.000000  0.500000  1
  Li  Li4  1  0.000000  0.250000  0.253628  1
  Li  Li5  1  0.000000  0.500000  0.500000  1
  Li  Li6  1  0.000000  0.750000  0.746372  1
  Li  Li7  1  0.000000  0.250000  0.746372  1
  V  V8  1  0.590109  0.000000  0.254339  1
  V  V9  1  0.409891  0.500000  0.254339  1
  V  V10  1  0.409891  0.000000  0.745661  1
  V  V11  1  0.590109  0.500000  0.745661  1
  Si  Si12  1  0.500000  0.750000  0.500000  1
  Si  Si13  1  0.500000  0.250000  0.500000  1
  Ge  Ge14  1  0.500000  0.750000  0.000000  1
  Ge  Ge15  1  0.500000  0.250000  0.000000  1
  O  O16  1  0.221866  0.000000  0.251424  1
  O  O17  1  0.735276  0.856838  0.109309  1
  O  O18  1  0.264724  0.643162  0.109309  1
  O  O19  1  0.717178  0.852529  0.399522  1
  O  O20  1  0.264724  0.356838  0.109309  1
  O  O21  1  0.778134  0.500000  0.251424  1
  O  O22  1  0.282822  0.647471  0.399522  1
  O  O23  1  0.282822  0.852529  0.600478  1
  O  O24  1  0.778134  0.000000  0.748576  1
  O  O25  1  0.735276  0.143162  0.109309  1
  O  O26  1  0.717178  0.647471  0.600478  1
  O  O27  1  0.282822  0.352529  0.399522  1
  O  O28  1  0.264724  0.856838  0.890691  1
  O  O29  1  0.717178  0.147471  0.399522  1
  O  O30  1  0.717178  0.352529  0.600478  1
  O  O31  1  0.221866  0.500000  0.748576  1
  O  O32  1  0.735276  0.643162  0.890691  1
  O  O33  1  0.282822  0.147471  0.600478  1
  O  O34  1  0.735276  0.356838  0.890691  1
  O  O35  1  0.264724  0.143162  0.890691  1
