# generated using pymatgen
data_Ti3Cu2Ni(PO4)6
_symmetry_space_group_name_H-M   'P 1'
_cell_length_a   8.56691948
_cell_length_b   8.56691948
_cell_length_c   8.56691948
_cell_angle_alpha   60.42681061
_cell_angle_beta   60.42681061
_cell_angle_gamma   60.42681061
_symmetry_Int_Tables_number   1
_chemical_formula_structural   Ti3Cu2Ni(PO4)6
_chemical_formula_sum   'Ti3 Cu2 Ni1 P6 O24'
_cell_volume   448.87985002
_cell_formula_units_Z   1
loop_
 _symmetry_equiv_pos_site_id
 _symmetry_equiv_pos_as_xyz
  1  'x, y, z'
loop_
 _atom_site_type_symbol
 _atom_site_label
 _atom_site_symmetry_multiplicity
 _atom_site_fract_x
 _atom_site_fract_y
 _atom_site_fract_z
 _atom_site_occupancy
  Ti  Ti0  1  0.857041  0.857041  0.857041  1
  Ti  Ti1  1  0.643930  0.643930  0.643930  1
  Ti  Ti2  1  0.355639  0.355639  0.355639  1
  Cu  Cu3  1  0.003047  0.003047  0.003047  1
  Cu  Cu4  1  0.500898  0.500898  0.500898  1
  Ni  Ni5  1  0.142584  0.142584  0.142584  1
  P  P6  1  0.751090  0.455117  0.043455  1
  P  P7  1  0.455117  0.043455  0.751090  1
  P  P8  1  0.043455  0.751090  0.455117  1
  P  P9  1  0.957315  0.248020  0.541093  1
  P  P10  1  0.541093  0.957315  0.248020  1
  P  P11  1  0.248020  0.541093  0.957315  1
  O  O12  1  0.881063  0.684874  0.505539  1
  O  O13  1  0.684874  0.505539  0.881063  1
  O  O14  1  0.944163  0.085008  0.738763  1
  O  O15  1  0.505539  0.881063  0.684874  1
  O  O16  1  0.987390  0.191927  0.386053  1
  O  O17  1  0.762902  0.414161  0.565747  1
  O  O18  1  0.738763  0.944163  0.085008  1
  O  O19  1  0.565747  0.762902  0.414161  1
  O  O20  1  0.809250  0.621555  0.999230  1
  O  O21  1  0.414161  0.565747  0.762902  1
  O  O22  1  0.911077  0.263434  0.053216  1
  O  O23  1  0.621555  0.999230  0.809250  1
  O  O24  1  0.386053  0.987390  0.191927  1
  O  O25  1  0.085008  0.738763  0.944163  1
  O  O26  1  0.583824  0.445480  0.236099  1
  O  O27  1  0.191927  0.386053  0.987390  1
  O  O28  1  0.445480  0.236099  0.583824  1
  O  O29  1  0.263434  0.053216  0.911077  1
  O  O30  1  0.236099  0.583824  0.445480  1
  O  O31  1  0.999230  0.809250  0.621555  1
  O  O32  1  0.499582  0.122063  0.308372  1
  O  O33  1  0.053216  0.911077  0.263434  1
  O  O34  1  0.308372  0.499582  0.122063  1
  O  O35  1  0.122063  0.308372  0.499582  1
