# generated using pymatgen
data_La2(SiO3)3
_symmetry_space_group_name_H-M   'P 1'
_cell_length_a   6.84247194
_cell_length_b   6.84247194
_cell_length_c   10.25570498
_cell_angle_alpha   90.00000000
_cell_angle_beta   90.00000000
_cell_angle_gamma   120.00000000
_symmetry_Int_Tables_number   1
_chemical_formula_structural   La2(SiO3)3
_chemical_formula_sum   'La4 Si6 O18'
_cell_volume   415.83611190
_cell_formula_units_Z   2
loop_
 _symmetry_equiv_pos_site_id
 _symmetry_equiv_pos_as_xyz
  1  'x, y, z'
loop_
 _atom_site_type_symbol
 _atom_site_label
 _atom_site_symmetry_multiplicity
 _atom_site_fract_x
 _atom_site_fract_y
 _atom_site_fract_z
 _atom_site_occupancy
  La  La0  1  0.333333  0.666667  0.978924  1
  La  La1  1  0.333333  0.666667  0.521076  1
  La  La2  1  0.666667  0.333333  0.478924  1
  La  La3  1  0.666667  0.333333  0.021076  1
  Si  Si4  1  0.237035  0.966148  0.250000  1
  Si  Si5  1  0.033852  0.270887  0.250000  1
  Si  Si6  1  0.270887  0.237035  0.750000  1
  Si  Si7  1  0.729113  0.762965  0.250000  1
  Si  Si8  1  0.966148  0.729113  0.750000  1
  Si  Si9  1  0.762965  0.033852  0.750000  1
  O  O10  1  0.209048  0.970960  0.750000  1
  O  O11  1  0.367535  0.963982  0.117309  1
  O  O12  1  0.367535  0.963982  0.382691  1
  O  O13  1  0.036018  0.403553  0.382691  1
  O  O14  1  0.036018  0.403553  0.117309  1
  O  O15  1  0.029040  0.238088  0.750000  1
  O  O16  1  0.238088  0.209048  0.250000  1
  O  O17  1  0.596447  0.632465  0.117309  1
  O  O18  1  0.596447  0.632465  0.382691  1
  O  O19  1  0.403553  0.367535  0.617309  1
  O  O20  1  0.403553  0.367535  0.882691  1
  O  O21  1  0.761912  0.790952  0.750000  1
  O  O22  1  0.970960  0.761912  0.250000  1
  O  O23  1  0.963982  0.596447  0.617309  1
  O  O24  1  0.963982  0.596447  0.882691  1
  O  O25  1  0.632465  0.036018  0.617309  1
  O  O26  1  0.632465  0.036018  0.882691  1
  O  O27  1  0.790952  0.029040  0.250000  1
