# generated using pymatgen
data_Li2FeCSO7
_symmetry_space_group_name_H-M   'P 1'
_cell_length_a   5.06524390
_cell_length_b   6.44217512
_cell_length_c   8.77959920
_cell_angle_alpha   90.00000000
_cell_angle_beta   92.19734131
_cell_angle_gamma   90.00000000
_symmetry_Int_Tables_number   1
_chemical_formula_structural   Li2FeCSO7
_chemical_formula_sum   'Li4 Fe2 C2 S2 O14'
_cell_volume   286.27809789
_cell_formula_units_Z   2
loop_
 _symmetry_equiv_pos_site_id
 _symmetry_equiv_pos_as_xyz
  1  'x, y, z'
loop_
 _atom_site_type_symbol
 _atom_site_label
 _atom_site_symmetry_multiplicity
 _atom_site_fract_x
 _atom_site_fract_y
 _atom_site_fract_z
 _atom_site_occupancy
  Li  Li0  1  0.768838  0.478947  0.191762  1
  Li  Li1  1  0.768838  0.021053  0.191762  1
  Li  Li2  1  0.231162  0.521053  0.808238  1
  Li  Li3  1  0.231162  0.978947  0.808238  1
  Fe  Fe4  1  0.223375  0.250000  0.351475  1
  Fe  Fe5  1  0.776625  0.750000  0.648525  1
  C  C6  1  0.270565  0.250000  0.059677  1
  C  C7  1  0.729435  0.750000  0.940323  1
  S  S8  1  0.285332  0.750000  0.419354  1
  S  S9  1  0.714668  0.250000  0.580646  1
  O  O10  1  0.711746  0.750000  0.084999  1
  O  O11  1  0.040153  0.250000  0.124618  1
  O  O12  1  0.480123  0.250000  0.153548  1
  O  O13  1  0.184125  0.934032  0.333849  1
  O  O14  1  0.184125  0.565968  0.333849  1
  O  O15  1  0.811237  0.250000  0.421599  1
  O  O16  1  0.581240  0.750000  0.427337  1
  O  O17  1  0.418760  0.250000  0.572663  1
  O  O18  1  0.188763  0.750000  0.578401  1
  O  O19  1  0.815875  0.434032  0.666151  1
  O  O20  1  0.815875  0.065968  0.666151  1
  O  O21  1  0.519877  0.750000  0.846452  1
  O  O22  1  0.959847  0.750000  0.875382  1
  O  O23  1  0.288254  0.250000  0.915001  1
