# generated using pymatgen
data_Al2O3
_symmetry_space_group_name_H-M   'P 1'
_cell_length_a   7.11443813
_cell_length_b   2.91370935
_cell_length_c   13.84234104
_cell_angle_alpha   90.00000000
_cell_angle_beta   102.87767100
_cell_angle_gamma   90.00000000
_symmetry_Int_Tables_number   1
_chemical_formula_structural   Al2O3
_chemical_formula_sum   'Al12 O18'
_cell_volume   279.72632483
_cell_formula_units_Z   6
loop_
 _symmetry_equiv_pos_site_id
 _symmetry_equiv_pos_as_xyz
  1  'x, y, z'
loop_
 _atom_site_type_symbol
 _atom_site_label
 _atom_site_symmetry_multiplicity
 _atom_site_fract_x
 _atom_site_fract_y
 _atom_site_fract_z
 _atom_site_occupancy
  Al  Al0  1  0.826098  0.250000  0.972156  1
  Al  Al1  1  0.438270  0.250000  0.887257  1
  Al  Al2  1  0.802379  0.750000  0.787267  1
  Al  Al3  1  0.186830  0.750000  0.702388  1
  Al  Al4  1  0.466660  0.250000  0.587734  1
  Al  Al5  1  0.848664  0.250000  0.602430  1
  Al  Al6  1  0.151336  0.750000  0.397570  1
  Al  Al7  1  0.533340  0.750000  0.412266  1
  Al  Al8  1  0.813170  0.250000  0.297612  1
  Al  Al9  1  0.197621  0.250000  0.212733  1
  Al  Al10  1  0.561730  0.750000  0.112743  1
  Al  Al11  1  0.173902  0.750000  0.027844  1
  O  O12  1  0.657900  0.750000  0.997916  1
  O  O13  1  0.314697  0.750000  0.832223  1
  O  O14  1  0.958971  0.750000  0.922350  1
  O  O15  1  0.667046  0.250000  0.839698  1
  O  O16  1  0.305129  0.250000  0.670155  1
  O  O17  1  0.945418  0.250000  0.743202  1
  O  O18  1  0.642237  0.750000  0.654992  1
  O  O19  1  0.986738  0.750000  0.593227  1
  O  O20  1  0.353904  0.750000  0.504384  1
  O  O21  1  0.646096  0.250000  0.495616  1
  O  O22  1  0.013262  0.250000  0.406773  1
  O  O23  1  0.357763  0.250000  0.345008  1
  O  O24  1  0.054582  0.750000  0.256798  1
  O  O25  1  0.694871  0.750000  0.329845  1
  O  O26  1  0.332954  0.750000  0.160302  1
  O  O27  1  0.041029  0.250000  0.077650  1
  O  O28  1  0.685303  0.250000  0.167777  1
  O  O29  1  0.342100  0.250000  0.002084  1
