# generated using pymatgen
data_Mg(GaO2)2
_symmetry_space_group_name_H-M   'P 1'
_cell_length_a   5.94650229
_cell_length_b   5.94650229
_cell_length_c   5.94650229
_cell_angle_alpha   60.15490456
_cell_angle_beta   60.15490456
_cell_angle_gamma   60.15490456
_symmetry_Int_Tables_number   1
_chemical_formula_structural   Mg(GaO2)2
_chemical_formula_sum   'Mg2 Ga4 O8'
_cell_volume   149.20757943
_cell_formula_units_Z   2
loop_
 _symmetry_equiv_pos_site_id
 _symmetry_equiv_pos_as_xyz
  1  'x, y, z'
loop_
 _atom_site_type_symbol
 _atom_site_label
 _atom_site_symmetry_multiplicity
 _atom_site_fract_x
 _atom_site_fract_y
 _atom_site_fract_z
 _atom_site_occupancy
  Mg  Mg0  1  0.121301  0.121301  0.121301  1
  Mg  Mg1  1  0.498086  0.498086  0.498086  1
  Ga  Ga2  1  0.010235  0.497064  0.497064  1
  Ga  Ga3  1  0.497064  0.497064  0.010235  1
  Ga  Ga4  1  0.497064  0.010235  0.497064  1
  Ga  Ga5  1  0.880123  0.880123  0.880123  1
  O  O6  1  0.254921  0.254921  0.718354  1
  O  O7  1  0.254921  0.718354  0.254921  1
  O  O8  1  0.718354  0.254921  0.254921  1
  O  O9  1  0.258064  0.258064  0.258064  1
  O  O10  1  0.744931  0.744931  0.744931  1
  O  O11  1  0.272773  0.746084  0.746084  1
  O  O12  1  0.746084  0.272773  0.746084  1
  O  O13  1  0.746084  0.746084  0.272773  1
