# generated using pymatgen
data_Li2CuPO4
_symmetry_space_group_name_H-M   'P 1'
_cell_length_a   4.96467826
_cell_length_b   4.96467826
_cell_length_c   12.02971246
_cell_angle_alpha   90.00000000
_cell_angle_beta   90.00000000
_cell_angle_gamma   120.00000000
_symmetry_Int_Tables_number   1
_chemical_formula_structural   Li2CuPO4
_chemical_formula_sum   'Li6 Cu3 P3 O12'
_cell_volume   256.78408042
_cell_formula_units_Z   3
loop_
 _symmetry_equiv_pos_site_id
 _symmetry_equiv_pos_as_xyz
  1  'x, y, z'
loop_
 _atom_site_type_symbol
 _atom_site_label
 _atom_site_symmetry_multiplicity
 _atom_site_fract_x
 _atom_site_fract_y
 _atom_site_fract_z
 _atom_site_occupancy
  Li  Li0  1  0.338044  0.913375  0.584044  1
  Li  Li1  1  0.086625  0.424669  0.917377  1
  Li  Li2  1  0.575331  0.661956  0.250710  1
  Li  Li3  1  0.424669  0.086625  0.082623  1
  Li  Li4  1  0.661956  0.575331  0.749290  1
  Li  Li5  1  0.913375  0.338044  0.415956  1
  Cu  Cu6  1  0.000000  0.320644  0.166667  1
  Cu  Cu7  1  0.679356  0.679356  0.500000  1
  Cu  Cu8  1  0.320644  0.000000  0.833333  1
  P  P9  1  0.000000  0.232445  0.666667  1
  P  P10  1  0.232445  0.000000  0.333333  1
  P  P11  1  0.767555  0.767555  0.000000  1
  O  O12  1  0.099494  0.814005  0.972586  1
  O  O13  1  0.086497  0.451264  0.565215  1
  O  O14  1  0.364768  0.913503  0.231882  1
  O  O15  1  0.185995  0.285489  0.305919  1
  O  O16  1  0.285489  0.185995  0.694081  1
  O  O17  1  0.714511  0.900506  0.639253  1
  O  O18  1  0.548736  0.635232  0.898548  1
  O  O19  1  0.635232  0.548736  0.101452  1
  O  O20  1  0.451264  0.086497  0.434785  1
  O  O21  1  0.900506  0.714511  0.360747  1
  O  O22  1  0.814005  0.099494  0.027414  1
  O  O23  1  0.913503  0.364768  0.768118  1
