# generated using pymatgen
data_Li4Y3FeO8
_symmetry_space_group_name_H-M   'P 1'
_cell_length_a   5.93115785
_cell_length_b   5.93115785
_cell_length_c   6.19738318
_cell_angle_alpha   90.00000000
_cell_angle_beta   90.00000000
_cell_angle_gamma   117.13806398
_symmetry_Int_Tables_number   1
_chemical_formula_structural   Li4Y3FeO8
_chemical_formula_sum   'Li4 Y3 Fe1 O8'
_cell_volume   194.01414186
_cell_formula_units_Z   1
loop_
 _symmetry_equiv_pos_site_id
 _symmetry_equiv_pos_as_xyz
  1  'x, y, z'
loop_
 _atom_site_type_symbol
 _atom_site_label
 _atom_site_symmetry_multiplicity
 _atom_site_fract_x
 _atom_site_fract_y
 _atom_site_fract_z
 _atom_site_occupancy
  Li  Li0  1  0.000000  0.500000  0.748611  1
  Li  Li1  1  0.000000  0.000000  0.500000  1
  Li  Li2  1  0.500000  0.000000  0.251389  1
  Li  Li3  1  0.500000  0.500000  0.000000  1
  Y  Y4  1  0.500000  0.500000  0.500000  1
  Y  Y5  1  0.500000  0.000000  0.757440  1
  Y  Y6  1  0.000000  0.500000  0.242560  1
  Fe  Fe7  1  0.000000  0.000000  0.000000  1
  O  O8  1  0.259639  0.224524  0.762111  1
  O  O9  1  0.723440  0.276560  0.500000  1
  O  O10  1  0.740361  0.775476  0.762111  1
  O  O11  1  0.775476  0.740361  0.237889  1
  O  O12  1  0.208574  0.791426  1.000000  1
  O  O13  1  0.276560  0.723440  0.500000  1
  O  O14  1  0.224524  0.259639  0.237889  1
  O  O15  1  0.791426  0.208574  1.000000  1
