# generated using pymatgen
data_Ti5Pb5O14
_symmetry_space_group_name_H-M   'P 1'
_cell_length_a   6.02632876
_cell_length_b   7.14360912
_cell_length_c   8.61570240
_cell_angle_alpha   77.50986335
_cell_angle_beta   72.32465185
_cell_angle_gamma   83.51281404
_symmetry_Int_Tables_number   1
_chemical_formula_structural   Ti5Pb5O14
_chemical_formula_sum   'Ti5 Pb5 O14'
_cell_volume   344.58387274
_cell_formula_units_Z   1
loop_
 _symmetry_equiv_pos_site_id
 _symmetry_equiv_pos_as_xyz
  1  'x, y, z'
loop_
 _atom_site_type_symbol
 _atom_site_label
 _atom_site_symmetry_multiplicity
 _atom_site_fract_x
 _atom_site_fract_y
 _atom_site_fract_z
 _atom_site_occupancy
  Ti  Ti0  1  0.776689  0.697641  0.401151  1
  Ti  Ti1  1  0.163620  0.310240  0.596743  1
  Ti  Ti2  1  0.384857  0.088407  0.205099  1
  Ti  Ti3  1  0.986983  0.480560  0.010195  1
  Ti  Ti4  1  0.607458  0.868187  0.814053  1
  Pb  Pb5  1  0.358270  0.570667  0.208254  1
  Pb  Pb6  1  0.174031  0.783434  0.615204  1
  Pb  Pb7  1  0.551259  0.347336  0.799933  1
  Pb  Pb8  1  0.731121  0.174056  0.437360  1
  Pb  Pb9  1  0.971791  0.974242  0.016878  1
  O  O10  1  0.153611  0.931844  0.281527  1
  O  O11  1  0.240266  0.322926  0.085348  1
  O  O12  1  0.633010  0.926686  0.288390  1
  O  O13  1  0.026219  0.529190  0.485542  1
  O  O14  1  0.536719  0.548060  0.476125  1
  O  O15  1  0.750527  0.331359  0.087076  1
  O  O16  1  0.147826  0.425829  0.783601  1
  O  O17  1  0.346778  0.743399  0.878832  1
  O  O18  1  0.344116  0.231414  0.387411  1
  O  O19  1  0.947663  0.633689  0.183154  1
  O  O20  1  0.740271  0.835637  0.585667  1
  O  O21  1  0.851449  0.722071  0.888123  1
  O  O22  1  0.969598  0.120571  0.689075  1
  O  O23  1  0.543966  0.027954  0.982558  1
