# generated using pymatgen
data_LiVBO4
_symmetry_space_group_name_H-M   'P 1'
_cell_length_a   8.02472564
_cell_length_b   4.97740324
_cell_length_c   8.20211832
_cell_angle_alpha   90.00000000
_cell_angle_beta   107.01622767
_cell_angle_gamma   90.00000000
_symmetry_Int_Tables_number   1
_chemical_formula_structural   LiVBO4
_chemical_formula_sum   'Li4 V4 B4 O16'
_cell_volume   313.26923030
_cell_formula_units_Z   4
loop_
 _symmetry_equiv_pos_site_id
 _symmetry_equiv_pos_as_xyz
  1  'x, y, z'
loop_
 _atom_site_type_symbol
 _atom_site_label
 _atom_site_symmetry_multiplicity
 _atom_site_fract_x
 _atom_site_fract_y
 _atom_site_fract_z
 _atom_site_occupancy
  Li  Li0  1  0.099625  0.815384  0.974171  1
  Li  Li1  1  0.252656  0.305021  0.499003  1
  Li  Li2  1  0.599625  0.184616  0.974171  1
  Li  Li3  1  0.752656  0.694979  0.499003  1
  V  V4  1  0.991584  0.685204  0.253119  1
  V  V5  1  0.349263  0.809286  0.738567  1
  V  V6  1  0.491584  0.314796  0.253119  1
  V  V7  1  0.849263  0.190714  0.738567  1
  B  B8  1  0.230327  0.314995  0.868591  1
  B  B9  1  0.361672  0.810002  0.366805  1
  B  B10  1  0.730327  0.685005  0.868591  1
  B  B11  1  0.861672  0.189998  0.366805  1
  O  O12  1  0.067111  0.196035  0.887244  1
  O  O13  1  0.006957  0.340868  0.332506  1
  O  O14  1  0.200943  0.601710  0.819206  1
  O  O15  1  0.286571  0.165255  0.733014  1
  O  O16  1  0.201126  0.784891  0.223613  1
  O  O17  1  0.320951  0.695524  0.520461  1
  O  O18  1  0.567111  0.803965  0.887244  1
  O  O19  1  0.412244  0.095785  0.394362  1
  O  O20  1  0.372769  0.290896  0.028138  1
  O  O21  1  0.506957  0.659132  0.332506  1
  O  O22  1  0.700943  0.398290  0.819206  1
  O  O23  1  0.786571  0.834745  0.733014  1
  O  O24  1  0.701126  0.215109  0.223613  1
  O  O25  1  0.820951  0.304476  0.520461  1
  O  O26  1  0.912244  0.904215  0.394362  1
  O  O27  1  0.872769  0.709104  0.028138  1
