# generated using pymatgen
data_Dy2TiO5
_symmetry_space_group_name_H-M   'P 1'
_cell_length_a   3.63551305
_cell_length_b   7.45812197
_cell_length_c   15.56606465
_cell_angle_alpha   90.00000000
_cell_angle_beta   90.00000000
_cell_angle_gamma   90.00000000
_symmetry_Int_Tables_number   1
_chemical_formula_structural   Dy2TiO5
_chemical_formula_sum   'Dy8 Ti4 O20'
_cell_volume   422.05982964
_cell_formula_units_Z   4
loop_
 _symmetry_equiv_pos_site_id
 _symmetry_equiv_pos_as_xyz
  1  'x, y, z'
loop_
 _atom_site_type_symbol
 _atom_site_label
 _atom_site_symmetry_multiplicity
 _atom_site_fract_x
 _atom_site_fract_y
 _atom_site_fract_z
 _atom_site_occupancy
  Dy  Dy0  1  0.750000  0.892072  0.083438  1
  Dy  Dy1  1  0.750000  0.850928  0.738154  1
  Dy  Dy2  1  0.250000  0.649072  0.238154  1
  Dy  Dy3  1  0.250000  0.607928  0.583438  1
  Dy  Dy4  1  0.750000  0.392072  0.416562  1
  Dy  Dy5  1  0.750000  0.350928  0.761846  1
  Dy  Dy6  1  0.250000  0.149072  0.261846  1
  Dy  Dy7  1  0.250000  0.107928  0.916562  1
  Ti  Ti8  1  0.750000  0.880067  0.423551  1
  Ti  Ti9  1  0.250000  0.619933  0.923551  1
  Ti  Ti10  1  0.750000  0.380067  0.076449  1
  Ti  Ti11  1  0.250000  0.119933  0.576449  1
  O  O12  1  0.250000  0.916839  0.174010  1
  O  O13  1  0.250000  0.920911  0.453575  1
  O  O14  1  0.250000  0.890319  0.649170  1
  O  O15  1  0.250000  0.844434  0.995120  1
  O  O16  1  0.750000  0.739644  0.324913  1
  O  O17  1  0.250000  0.760356  0.824913  1
  O  O18  1  0.750000  0.655566  0.495120  1
  O  O19  1  0.750000  0.609681  0.149170  1
  O  O20  1  0.750000  0.579089  0.953575  1
  O  O21  1  0.750000  0.583161  0.674010  1
  O  O22  1  0.250000  0.416839  0.325990  1
  O  O23  1  0.250000  0.420911  0.046425  1
  O  O24  1  0.250000  0.390319  0.850830  1
  O  O25  1  0.250000  0.344434  0.504880  1
  O  O26  1  0.750000  0.239644  0.175087  1
  O  O27  1  0.250000  0.260356  0.675087  1
  O  O28  1  0.750000  0.155566  0.004880  1
  O  O29  1  0.750000  0.109681  0.350830  1
  O  O30  1  0.750000  0.079089  0.546425  1
  O  O31  1  0.750000  0.083161  0.825990  1
