# generated using pymatgen
data_Li4Mn3Nb2Co3O16
_symmetry_space_group_name_H-M   'P 1'
_cell_length_a   5.87162093
_cell_length_b   5.96553168
_cell_length_c   9.70678849
_cell_angle_alpha   91.31807421
_cell_angle_beta   89.77522369
_cell_angle_gamma   119.28327274
_symmetry_Int_Tables_number   1
_chemical_formula_structural   Li4Mn3Nb2Co3O16
_chemical_formula_sum   'Li4 Mn3 Nb2 Co3 O16'
_cell_volume   296.46578459
_cell_formula_units_Z   1
loop_
 _symmetry_equiv_pos_site_id
 _symmetry_equiv_pos_as_xyz
  1  'x, y, z'
loop_
 _atom_site_type_symbol
 _atom_site_label
 _atom_site_symmetry_multiplicity
 _atom_site_fract_x
 _atom_site_fract_y
 _atom_site_fract_z
 _atom_site_occupancy
  Li  Li0  1  0.339721  0.684206  0.100002  1
  Li  Li1  1  0.004470  0.009163  0.007168  1
  Li  Li2  1  0.995069  0.984039  0.510069  1
  Li  Li3  1  0.661217  0.325946  0.597199  1
  Mn  Mn4  1  0.174500  0.345971  0.784636  1
  Mn  Mn5  1  0.336436  0.166742  0.283412  1
  Mn  Mn6  1  0.830786  0.166195  0.284002  1
  Nb  Nb7  1  0.331143  0.662695  0.508757  1
  Nb  Nb8  1  0.687922  0.371757  0.006279  1
  Co  Co9  1  0.175868  0.837454  0.786453  1
  Co  Co10  1  0.661594  0.839592  0.784738  1
  Co  Co11  1  0.826968  0.653134  0.285252  1
  O  O12  1  0.136020  0.789733  0.407636  1
  O  O13  1  0.465087  0.955348  0.647431  1
  O  O14  1  0.323407  0.668730  0.886426  1
  O  O15  1  0.014633  0.007438  0.699658  1
  O  O16  1  0.992293  0.982297  0.196133  1
  O  O17  1  0.654634  0.792770  0.409890  1
  O  O18  1  0.028903  0.489844  0.661942  1
  O  O19  1  0.460721  0.492845  0.660669  1
  O  O20  1  0.852157  0.683681  0.903365  1
  O  O21  1  0.153018  0.307265  0.404979  1
  O  O22  1  0.538106  0.508446  0.156055  1
  O  O23  1  0.969531  0.506233  0.156765  1
  O  O24  1  0.666907  0.335038  0.384586  1
  O  O25  1  0.339822  0.193917  0.908800  1
  O  O26  1  0.523678  0.045614  0.160213  1
  O  O27  1  0.855091  0.193910  0.909648  1
