# generated using pymatgen
data_Li5TaO5
_symmetry_space_group_name_H-M   'P 1'
_cell_length_a   5.49199124
_cell_length_b   5.49199124
_cell_length_c   9.09551738
_cell_angle_alpha   82.38589281
_cell_angle_beta   97.61410719
_cell_angle_gamma   62.98283057
_symmetry_Int_Tables_number   1
_chemical_formula_structural   Li5TaO5
_chemical_formula_sum   'Li10 Ta2 O10'
_cell_volume   236.40725749
_cell_formula_units_Z   2
loop_
 _symmetry_equiv_pos_site_id
 _symmetry_equiv_pos_as_xyz
  1  'x, y, z'
loop_
 _atom_site_type_symbol
 _atom_site_label
 _atom_site_symmetry_multiplicity
 _atom_site_fract_x
 _atom_site_fract_y
 _atom_site_fract_z
 _atom_site_occupancy
  Li  Li0  1  0.543116  0.223992  0.040781  1
  Li  Li1  1  0.698251  0.953816  0.439545  1
  Li  Li2  1  0.776008  0.456884  0.540781  1
  Li  Li3  1  0.046184  0.301749  0.939545  1
  Li  Li4  1  0.673030  0.673030  0.250000  1
  Li  Li5  1  0.326970  0.326970  0.750000  1
  Li  Li6  1  0.953816  0.698251  0.060455  1
  Li  Li7  1  0.223992  0.543116  0.459219  1
  Li  Li8  1  0.301749  0.046184  0.560455  1
  Li  Li9  1  0.456884  0.776008  0.959219  1
  Ta  Ta10  1  0.088353  0.088353  0.250000  1
  Ta  Ta11  1  0.911647  0.911647  0.750000  1
  O  O12  1  0.800100  0.426563  0.089511  1
  O  O13  1  0.325877  0.012903  0.106345  1
  O  O14  1  0.573437  0.199900  0.589511  1
  O  O15  1  0.886756  0.886756  0.250000  1
  O  O16  1  0.987097  0.674123  0.606345  1
  O  O17  1  0.012903  0.325877  0.393655  1
  O  O18  1  0.113244  0.113244  0.750000  1
  O  O19  1  0.426563  0.800100  0.410489  1
  O  O20  1  0.674123  0.987097  0.893655  1
  O  O21  1  0.199900  0.573437  0.910489  1
