# generated using pymatgen
data_Zr2N2O
_symmetry_space_group_name_H-M   'P 1'
_cell_length_a   8.85125480
_cell_length_b   8.87131987
_cell_length_c   8.89195739
_cell_angle_alpha   109.58615852
_cell_angle_beta   109.33021017
_cell_angle_gamma   109.32674502
_symmetry_Int_Tables_number   1
_chemical_formula_structural   Zr2N2O
_chemical_formula_sum   'Zr16 N16 O8'
_cell_volume   538.61334396
_cell_formula_units_Z   8
loop_
 _symmetry_equiv_pos_site_id
 _symmetry_equiv_pos_as_xyz
  1  'x, y, z'
loop_
 _atom_site_type_symbol
 _atom_site_label
 _atom_site_symmetry_multiplicity
 _atom_site_fract_x
 _atom_site_fract_y
 _atom_site_fract_z
 _atom_site_occupancy
  Zr  Zr0  1  0.512480  0.500285  0.499870  1
  Zr  Zr1  1  0.213253  0.455357  0.251589  1
  Zr  Zr2  1  0.967664  0.254892  0.783572  1
  Zr  Zr3  1  0.471441  0.247885  0.280895  1
  Zr  Zr4  1  0.288668  0.031523  0.757554  1
  Zr  Zr5  1  0.003834  0.499994  0.989771  1
  Zr  Zr6  1  0.241300  0.785502  0.464953  1
  Zr  Zr7  1  0.491679  0.000395  0.002890  1
  Zr  Zr8  1  0.992646  0.002496  0.497755  1
  Zr  Zr9  1  0.757632  0.711087  0.029524  1
  Zr  Zr10  1  0.743413  0.204808  0.538599  1
  Zr  Zr11  1  0.251199  0.289458  0.971311  1
  Zr  Zr12  1  0.718248  0.969646  0.247564  1
  Zr  Zr13  1  0.029563  0.756001  0.210206  1
  Zr  Zr14  1  0.535387  0.746967  0.718862  1
  Zr  Zr15  1  0.785475  0.545100  0.748276  1
  N  N16  1  0.768412  0.737909  0.271648  1
  N  N17  1  0.546151  0.275965  0.486370  1
  N  N18  1  0.242244  0.228013  0.229731  1
  N  N19  1  0.506851  0.038515  0.230678  1
  N  N20  1  0.008855  0.239654  0.535859  1
  N  N21  1  0.035362  0.773740  0.950706  1
  N  N22  1  0.966467  0.225627  0.042483  1
  N  N23  1  0.726006  0.455635  0.036040  1
  N  N24  1  0.049001  0.532934  0.724576  1
  N  N25  1  0.993976  0.764575  0.462947  1
  N  N26  1  0.761359  0.775044  0.772575  1
  N  N27  1  0.770116  0.011565  0.453991  1
  N  N28  1  0.261743  0.032874  0.011914  1
  N  N29  1  0.490995  0.957793  0.774723  1
  N  N30  1  0.271966  0.546146  0.969848  1
  N  N31  1  0.536095  0.487804  0.733395  1
  O  O32  1  0.276172  0.726348  0.235735  1
  O  O33  1  0.227354  0.262895  0.725050  1
  O  O34  1  0.460341  0.514864  0.264736  1
  O  O35  1  0.227151  0.983993  0.549025  1
  O  O36  1  0.723773  0.266603  0.772506  1
  O  O37  1  0.957913  0.470112  0.274186  1
  O  O38  1  0.737091  0.966867  0.985654  1
  O  O39  1  0.450726  0.723124  0.512432  1
