# generated using pymatgen
data_Co(CuO2)4
_symmetry_space_group_name_H-M   'P 1'
_cell_length_a   5.46630156
_cell_length_b   5.69646763
_cell_length_c   6.08722204
_cell_angle_alpha   117.70847395
_cell_angle_beta   106.77108574
_cell_angle_gamma   90.20508725
_symmetry_Int_Tables_number   1
_chemical_formula_structural   Co(CuO2)4
_chemical_formula_sum   'Co1 Cu4 O8'
_cell_volume   158.53781369
_cell_formula_units_Z   1
loop_
 _symmetry_equiv_pos_site_id
 _symmetry_equiv_pos_as_xyz
  1  'x, y, z'
loop_
 _atom_site_type_symbol
 _atom_site_label
 _atom_site_symmetry_multiplicity
 _atom_site_fract_x
 _atom_site_fract_y
 _atom_site_fract_z
 _atom_site_occupancy
  Co  Co0  1  0.000000  0.500000  0.000000  1
  Cu  Cu1  1  0.500000  0.500000  0.000000  1
  Cu  Cu2  1  0.000000  0.000000  0.000000  1
  Cu  Cu3  1  0.000000  0.500000  0.500000  1
  Cu  Cu4  1  0.000000  0.000000  0.500000  1
  O  O5  1  0.846369  0.309634  0.624918  1
  O  O6  1  0.768052  0.728602  0.019635  1
  O  O7  1  0.762791  0.299482  0.038341  1
  O  O8  1  0.857126  0.814637  0.630147  1
  O  O9  1  0.142874  0.185363  0.369853  1
  O  O10  1  0.237209  0.700518  0.961659  1
  O  O11  1  0.231948  0.271398  0.980365  1
  O  O12  1  0.153631  0.690366  0.375082  1
