# generated using pymatgen
data_Li2CoH8(SO6)2
_symmetry_space_group_name_H-M   'P 1'
_cell_length_a   5.44875278
_cell_length_b   8.15334917
_cell_length_c   10.62741288
_cell_angle_alpha   90.00000000
_cell_angle_beta   99.76717772
_cell_angle_gamma   90.00000000
_symmetry_Int_Tables_number   1
_chemical_formula_structural   Li2CoH8(SO6)2
_chemical_formula_sum   'Li4 Co2 H16 S4 O24'
_cell_volume   465.28562723
_cell_formula_units_Z   2
loop_
 _symmetry_equiv_pos_site_id
 _symmetry_equiv_pos_as_xyz
  1  'x, y, z'
loop_
 _atom_site_type_symbol
 _atom_site_label
 _atom_site_symmetry_multiplicity
 _atom_site_fract_x
 _atom_site_fract_y
 _atom_site_fract_z
 _atom_site_occupancy
  Li  Li0  1  0.895599  0.563707  0.134517  1
  Li  Li1  1  0.104401  0.063707  0.365483  1
  Li  Li2  1  0.895599  0.936293  0.634517  1
  Li  Li3  1  0.104401  0.436293  0.865483  1
  Co  Co4  1  0.000000  0.000000  0.000000  1
  Co  Co5  1  0.000000  0.500000  0.500000  1
  H  H6  1  0.235069  0.715435  0.015590  1
  H  H7  1  0.777523  0.140339  0.163411  1
  H  H8  1  0.776508  0.944196  0.187050  1
  H  H9  1  0.327939  0.801629  0.144246  1
  H  H10  1  0.672061  0.301629  0.355754  1
  H  H11  1  0.223492  0.444196  0.312950  1
  H  H12  1  0.222477  0.640339  0.336589  1
  H  H13  1  0.764931  0.215435  0.484410  1
  H  H14  1  0.235069  0.784565  0.515590  1
  H  H15  1  0.777523  0.359661  0.663411  1
  H  H16  1  0.776508  0.555804  0.687050  1
  H  H17  1  0.327939  0.698371  0.644246  1
  H  H18  1  0.672061  0.198371  0.855754  1
  H  H19  1  0.223492  0.055804  0.812950  1
  H  H20  1  0.222477  0.859661  0.836589  1
  H  H21  1  0.764931  0.284565  0.984410  1
  S  S22  1  0.371287  0.289889  0.133005  1
  S  S23  1  0.628713  0.789889  0.366995  1
  S  S24  1  0.371287  0.210111  0.633005  1
  S  S25  1  0.628713  0.710111  0.866995  1
  O  O26  1  0.328001  0.127878  0.068675  1
  O  O27  1  0.196319  0.415235  0.068983  1
  O  O28  1  0.173315  0.778995  0.083127  1
  O  O29  1  0.636736  0.338574  0.129958  1
  O  O30  1  0.885075  0.041334  0.175098  1
  O  O31  1  0.657105  0.773366  0.229076  1
  O  O32  1  0.342895  0.273366  0.270924  1
  O  O33  1  0.114925  0.541334  0.324902  1
  O  O34  1  0.363264  0.838574  0.370042  1
  O  O35  1  0.826685  0.278995  0.416873  1
  O  O36  1  0.803681  0.915235  0.431017  1
  O  O37  1  0.671999  0.627878  0.431325  1
  O  O38  1  0.328001  0.372122  0.568675  1
  O  O39  1  0.196319  0.084765  0.568983  1
  O  O40  1  0.173315  0.721005  0.583127  1
  O  O41  1  0.636736  0.161426  0.629958  1
  O  O42  1  0.885075  0.458666  0.675098  1
  O  O43  1  0.657105  0.726634  0.729076  1
  O  O44  1  0.342895  0.226634  0.770924  1
  O  O45  1  0.114925  0.958666  0.824902  1
  O  O46  1  0.363264  0.661426  0.870042  1
  O  O47  1  0.826685  0.221005  0.916873  1
  O  O48  1  0.803681  0.584765  0.931017  1
  O  O49  1  0.671999  0.872122  0.931325  1
