# generated using pymatgen
data_FeOF
_symmetry_space_group_name_H-M   'P 1'
_cell_length_a   3.09482870
_cell_length_b   4.72220165
_cell_length_c   4.76335394
_cell_angle_alpha   90.00000000
_cell_angle_beta   90.00000000
_cell_angle_gamma   90.00000000
_symmetry_Int_Tables_number   1
_chemical_formula_structural   FeOF
_chemical_formula_sum   'Fe2 O2 F2'
_cell_volume   69.61358456
_cell_formula_units_Z   2
loop_
 _symmetry_equiv_pos_site_id
 _symmetry_equiv_pos_as_xyz
  1  'x, y, z'
loop_
 _atom_site_type_symbol
 _atom_site_label
 _atom_site_symmetry_multiplicity
 _atom_site_fract_x
 _atom_site_fract_y
 _atom_site_fract_z
 _atom_site_occupancy
  Fe  Fe0  1  0.000000  0.711291  0.004886  1
  Fe  Fe1  1  0.500000  0.288709  0.504886  1
  O  O2  1  0.000000  0.443723  0.692884  1
  O  O3  1  0.500000  0.556277  0.192884  1
  F  F4  1  0.500000  0.946222  0.802225  1
  F  F5  1  0.000000  0.053778  0.302225  1
