# generated using pymatgen
data_Mn6OF11
_symmetry_space_group_name_H-M   'P 1'
_cell_length_a   5.88326584
_cell_length_b   4.96707036
_cell_length_c   16.21804843
_cell_angle_alpha   90.00000000
_cell_angle_beta   90.39379787
_cell_angle_gamma   90.00000000
_symmetry_Int_Tables_number   1
_chemical_formula_structural   Mn6OF11
_chemical_formula_sum   'Mn12 O2 F22'
_cell_volume   473.92227276
_cell_formula_units_Z   2
loop_
 _symmetry_equiv_pos_site_id
 _symmetry_equiv_pos_as_xyz
  1  'x, y, z'
loop_
 _atom_site_type_symbol
 _atom_site_label
 _atom_site_symmetry_multiplicity
 _atom_site_fract_x
 _atom_site_fract_y
 _atom_site_fract_z
 _atom_site_occupancy
  Mn  Mn0  1  0.085038  0.015113  0.756804  1
  Mn  Mn1  1  0.396779  0.016392  0.917919  1
  Mn  Mn2  1  0.059676  0.978702  0.087242  1
  Mn  Mn3  1  0.078451  0.003268  0.414574  1
  Mn  Mn4  1  0.417002  0.999429  0.583651  1
  Mn  Mn5  1  0.420581  0.997130  0.247796  1
  Mn  Mn6  1  0.921549  0.503268  0.585426  1
  Mn  Mn7  1  0.914962  0.515113  0.243196  1
  Mn  Mn8  1  0.940324  0.478702  0.912758  1
  Mn  Mn9  1  0.603221  0.516392  0.082081  1
  Mn  Mn10  1  0.579419  0.497130  0.752204  1
  Mn  Mn11  1  0.582998  0.499429  0.416349  1
  O  O12  1  0.164930  0.212325  0.866965  1
  O  O13  1  0.835070  0.712325  0.133035  1
  F  F14  1  0.142970  0.231455  0.525565  1
  F  F15  1  0.133813  0.212767  0.191680  1
  F  F16  1  0.377839  0.247815  0.030195  1
  F  F17  1  0.354776  0.235449  0.691940  1
  F  F18  1  0.358870  0.225703  0.358312  1
  F  F19  1  0.856536  0.279110  0.025502  1
  F  F20  1  0.643081  0.256724  0.863939  1
  F  F21  1  0.854118  0.268109  0.695149  1
  F  F22  1  0.647147  0.268680  0.526027  1
  F  F23  1  0.859391  0.278919  0.353822  1
  F  F24  1  0.631343  0.272911  0.187466  1
  F  F25  1  0.622161  0.747815  0.969805  1
  F  F26  1  0.866187  0.712767  0.808320  1
  F  F27  1  0.641130  0.725703  0.641688  1
  F  F28  1  0.645224  0.735449  0.308060  1
  F  F29  1  0.857030  0.731455  0.474435  1
  F  F30  1  0.143464  0.779110  0.974498  1
  F  F31  1  0.140609  0.778919  0.646178  1
  F  F32  1  0.368657  0.772911  0.812534  1
  F  F33  1  0.356919  0.756724  0.136061  1
  F  F34  1  0.145882  0.768109  0.304851  1
  F  F35  1  0.352853  0.768680  0.473973  1
