# generated using pymatgen
data_Al2O3
_symmetry_space_group_name_H-M   'P 1'
_cell_length_a   6.14151150
_cell_length_b   6.14151150
_cell_length_c   5.67051513
_cell_angle_alpha   76.38655809
_cell_angle_beta   103.61344191
_cell_angle_gamma   152.29395338
_symmetry_Int_Tables_number   1
_chemical_formula_structural   Al2O3
_chemical_formula_sum   'Al4 O6'
_cell_volume   96.47483662
_cell_formula_units_Z   2
loop_
 _symmetry_equiv_pos_site_id
 _symmetry_equiv_pos_as_xyz
  1  'x, y, z'
loop_
 _atom_site_type_symbol
 _atom_site_label
 _atom_site_symmetry_multiplicity
 _atom_site_fract_x
 _atom_site_fract_y
 _atom_site_fract_z
 _atom_site_occupancy
  Al  Al0  1  0.909879  0.090121  0.204389  1
  Al  Al1  1  0.090121  0.909879  0.795611  1
  Al  Al2  1  0.657850  0.342150  0.316777  1
  Al  Al3  1  0.342150  0.657850  0.683223  1
  O  O4  1  0.839794  0.160206  0.891047  1
  O  O5  1  0.160206  0.839794  0.108953  1
  O  O6  1  0.504979  0.495021  0.742558  1
  O  O7  1  0.495021  0.504979  0.257442  1
  O  O8  1  0.173605  0.826395  0.567412  1
  O  O9  1  0.826395  0.173605  0.432588  1
