# generated using pymatgen
data_Li2Co(Si2O5)2
_symmetry_space_group_name_H-M   'P 1'
_cell_length_a   6.94435217
_cell_length_b   9.98392125
_cell_length_c   14.86217653
_cell_angle_alpha   90.00000000
_cell_angle_beta   113.66308295
_cell_angle_gamma   90.00000000
_symmetry_Int_Tables_number   1
_chemical_formula_structural   Li2Co(Si2O5)2
_chemical_formula_sum   'Li8 Co4 Si16 O40'
_cell_volume   943.78593226
_cell_formula_units_Z   4
loop_
 _symmetry_equiv_pos_site_id
 _symmetry_equiv_pos_as_xyz
  1  'x, y, z'
loop_
 _atom_site_type_symbol
 _atom_site_label
 _atom_site_symmetry_multiplicity
 _atom_site_fract_x
 _atom_site_fract_y
 _atom_site_fract_z
 _atom_site_occupancy
  Li  Li0  1  0.029531  0.359307  0.919415  1
  Li  Li1  1  0.454839  0.590212  0.261176  1
  Li  Li2  1  0.545161  0.090212  0.238824  1
  Li  Li3  1  0.970469  0.859307  0.580585  1
  Li  Li4  1  0.029531  0.140693  0.419415  1
  Li  Li5  1  0.454839  0.909788  0.761176  1
  Li  Li6  1  0.545161  0.409788  0.738824  1
  Li  Li7  1  0.970469  0.640693  0.080585  1
  Co  Co8  1  0.210247  0.364454  0.161641  1
  Co  Co9  1  0.789753  0.864454  0.338359  1
  Co  Co10  1  0.210247  0.135546  0.661641  1
  Co  Co11  1  0.789753  0.635546  0.838359  1
  Si  Si12  1  0.352452  0.226620  0.364072  1
  Si  Si13  1  0.333996  0.947038  0.337746  1
  Si  Si14  1  0.914777  0.527696  0.668341  1
  Si  Si15  1  0.211723  0.765781  0.958464  1
  Si  Si16  1  0.788277  0.265781  0.541536  1
  Si  Si17  1  0.085223  0.027696  0.831659  1
  Si  Si18  1  0.352452  0.273380  0.864072  1
  Si  Si19  1  0.333996  0.552962  0.837746  1
  Si  Si20  1  0.666004  0.447038  0.162254  1
  Si  Si21  1  0.647548  0.726620  0.135928  1
  Si  Si22  1  0.914777  0.972304  0.168341  1
  Si  Si23  1  0.211723  0.734219  0.458464  1
  Si  Si24  1  0.788277  0.234219  0.041536  1
  Si  Si25  1  0.085223  0.472304  0.331659  1
  Si  Si26  1  0.666004  0.052962  0.662254  1
  Si  Si27  1  0.647548  0.773380  0.635928  1
  O  O28  1  0.829587  0.051025  0.779068  1
  O  O29  1  0.701849  0.196126  0.618548  1
  O  O30  1  0.021114  0.678460  0.965335  1
  O  O31  1  0.815647  0.488089  0.746794  1
  O  O32  1  0.720339  0.921632  0.605288  1
  O  O33  1  0.338002  0.218937  0.253096  1
  O  O34  1  0.823278  0.676945  0.618032  1
  O  O35  1  0.139764  0.919175  0.920713  1
  O  O36  1  0.588375  0.274977  0.435307  1
  O  O37  1  0.860236  0.419175  0.579287  1
  O  O38  1  0.176722  0.176945  0.881968  1
  O  O39  1  0.430879  0.472762  0.151496  1
  O  O40  1  0.569121  0.972762  0.348504  1
  O  O41  1  0.411625  0.774977  0.064693  1
  O  O42  1  0.279661  0.421632  0.894712  1
  O  O43  1  0.184353  0.988089  0.753206  1
  O  O44  1  0.978886  0.178460  0.534665  1
  O  O45  1  0.298151  0.696126  0.881452  1
  O  O46  1  0.170413  0.551025  0.720932  1
  O  O47  1  0.661998  0.718937  0.246904  1
  O  O48  1  0.338002  0.281063  0.753096  1
  O  O49  1  0.829587  0.448975  0.279068  1
  O  O50  1  0.701849  0.303874  0.118548  1
  O  O51  1  0.021114  0.821540  0.465335  1
  O  O52  1  0.815647  0.011911  0.246794  1
  O  O53  1  0.720339  0.578368  0.105288  1
  O  O54  1  0.588375  0.225023  0.935307  1
  O  O55  1  0.430879  0.027238  0.651496  1
  O  O56  1  0.569121  0.527238  0.848504  1
  O  O57  1  0.823278  0.823055  0.118032  1
  O  O58  1  0.139764  0.580825  0.420713  1
  O  O59  1  0.411625  0.725023  0.564693  1
  O  O60  1  0.860236  0.080825  0.079287  1
  O  O61  1  0.176722  0.323055  0.381968  1
  O  O62  1  0.661998  0.781063  0.746904  1
  O  O63  1  0.279661  0.078368  0.394712  1
  O  O64  1  0.184353  0.511911  0.253206  1
  O  O65  1  0.978886  0.321540  0.034665  1
  O  O66  1  0.298151  0.803874  0.381452  1
  O  O67  1  0.170413  0.948975  0.220932  1
