# generated using pymatgen
data_YNb2NO5
_symmetry_space_group_name_H-M   'P 1'
_cell_length_a   5.30567717
_cell_length_b   5.79674687
_cell_length_c   15.02838260
_cell_angle_alpha   89.72648547
_cell_angle_beta   89.72334335
_cell_angle_gamma   89.72591704
_symmetry_Int_Tables_number   1
_chemical_formula_structural   YNb2NO5
_chemical_formula_sum   'Y4 Nb8 N4 O20'
_cell_volume   462.19204614
_cell_formula_units_Z   4
loop_
 _symmetry_equiv_pos_site_id
 _symmetry_equiv_pos_as_xyz
  1  'x, y, z'
loop_
 _atom_site_type_symbol
 _atom_site_label
 _atom_site_symmetry_multiplicity
 _atom_site_fract_x
 _atom_site_fract_y
 _atom_site_fract_z
 _atom_site_occupancy
  Y  Y0  1  0.252232  0.726275  0.002037  1
  Y  Y1  1  0.756308  0.286425  0.002252  1
  Y  Y2  1  0.754538  0.760081  0.499366  1
  Y  Y3  1  0.255894  0.211984  0.501309  1
  Nb  Nb4  1  0.689301  0.823928  0.170287  1
  Nb  Nb5  1  0.205497  0.186092  0.169106  1
  Nb  Nb6  1  0.202087  0.686753  0.330856  1
  Nb  Nb7  1  0.720418  0.316708  0.340985  1
  Nb  Nb8  1  0.290491  0.684225  0.672595  1
  Nb  Nb9  1  0.804253  0.302697  0.665064  1
  Nb  Nb10  1  0.804329  0.814614  0.829879  1
  Nb  Nb11  1  0.301138  0.191961  0.839667  1
  N  N12  1  0.371671  0.875050  0.239459  1
  N  N13  1  0.995025  0.425030  0.406408  1
  N  N14  1  0.105600  0.866779  0.752886  1
  N  N15  1  0.408925  0.406514  0.917916  1
  O  O16  1  0.090410  0.414084  0.087361  1
  O  O17  1  0.591378  0.604622  0.085829  1
  O  O18  1  0.982856  0.947209  0.092224  1
  O  O19  1  0.489012  0.080977  0.090863  1
  O  O20  1  0.873457  0.135501  0.241208  1
  O  O21  1  0.367826  0.374007  0.256199  1
  O  O22  1  0.876049  0.638163  0.256668  1
  O  O23  1  0.496258  0.570413  0.403154  1
  O  O24  1  0.087821  0.902103  0.415700  1
  O  O25  1  0.589345  0.088398  0.418417  1
  O  O26  1  0.413715  0.887969  0.582198  1
  O  O27  1  0.915627  0.081769  0.583668  1
  O  O28  1  0.011047  0.558061  0.594040  1
  O  O29  1  0.522856  0.414095  0.592295  1
  O  O30  1  0.619367  0.626375  0.741529  1
  O  O31  1  0.125659  0.368512  0.738840  1
  O  O32  1  0.628054  0.132796  0.757081  1
  O  O33  1  0.496574  0.923877  0.902066  1
  O  O34  1  0.990277  0.080105  0.903896  1
  O  O35  1  0.914704  0.605845  0.916687  1
