# generated using pymatgen
data_Li3MnPCO7
_symmetry_space_group_name_H-M   'P 1'
_cell_length_a   4.97262948
_cell_length_b   8.58176526
_cell_length_c   13.19028739
_cell_angle_alpha   90.55544277
_cell_angle_beta   90.07959630
_cell_angle_gamma   94.53964684
_symmetry_Int_Tables_number   1
_chemical_formula_structural   Li3MnPCO7
_chemical_formula_sum   'Li12 Mn4 P4 C4 O28'
_cell_volume   561.08796973
_cell_formula_units_Z   4
loop_
 _symmetry_equiv_pos_site_id
 _symmetry_equiv_pos_as_xyz
  1  'x, y, z'
loop_
 _atom_site_type_symbol
 _atom_site_label
 _atom_site_symmetry_multiplicity
 _atom_site_fract_x
 _atom_site_fract_y
 _atom_site_fract_z
 _atom_site_occupancy
  Li  Li0  1  0.236284  0.093926  0.127994  1
  Li  Li1  1  0.235642  0.097791  0.628178  1
  Li  Li2  1  0.754291  0.274358  0.519386  1
  Li  Li3  1  0.752461  0.273023  0.243559  1
  Li  Li4  1  0.765125  0.279189  0.736371  1
  Li  Li5  1  0.222917  0.352324  0.865242  1
  Li  Li6  1  0.243645  0.719539  0.977438  1
  Li  Li7  1  0.245328  0.724392  0.267777  1
  Li  Li8  1  0.247947  0.727364  0.489268  1
  Li  Li9  1  0.245637  0.720527  0.766012  1
  Li  Li10  1  0.763045  0.905403  0.378104  1
  Li  Li11  1  0.765031  0.901159  0.869963  1
  Mn  Mn12  1  0.747716  0.258606  0.993514  1
  Mn  Mn13  1  0.223981  0.340627  0.376695  1
  Mn  Mn14  1  0.779202  0.658714  0.124548  1
  Mn  Mn15  1  0.776706  0.658489  0.625362  1
  P  P16  1  0.275788  0.408526  0.123666  1
  P  P17  1  0.276140  0.408845  0.627811  1
  P  P18  1  0.722699  0.590300  0.373887  1
  P  P19  1  0.718233  0.589599  0.875191  1
  C  C20  1  0.297011  0.033337  0.373538  1
  C  C21  1  0.292199  0.037906  0.880354  1
  C  C22  1  0.703314  0.966813  0.624660  1
  C  C23  1  0.702893  0.965639  0.125444  1
  O  O24  1  0.043958  0.069987  0.881250  1
  O  O25  1  0.049778  0.068057  0.373449  1
  O  O26  1  0.640892  0.112504  0.123167  1
  O  O27  1  0.640281  0.111000  0.625490  1
  O  O28  1  0.490370  0.145508  0.372546  1
  O  O29  1  0.485910  0.150243  0.882582  1
  O  O30  1  0.165286  0.310048  0.534378  1
  O  O31  1  0.172734  0.311134  0.029652  1
  O  O32  1  0.169601  0.310447  0.216079  1
  O  O33  1  0.173432  0.312978  0.719774  1
  O  O34  1  0.812161  0.421491  0.373069  1
  O  O35  1  0.821836  0.423794  0.873065  1
  O  O36  1  0.593072  0.423096  0.624999  1
  O  O37  1  0.594214  0.419653  0.123018  1
  O  O38  1  0.406904  0.577361  0.373661  1
  O  O39  1  0.406213  0.575151  0.875860  1
  O  O40  1  0.190376  0.578009  0.125978  1
  O  O41  1  0.187424  0.578900  0.625976  1
  O  O42  1  0.832370  0.689471  0.466351  1
  O  O43  1  0.831107  0.688950  0.282160  1
  O  O44  1  0.828832  0.689996  0.783997  1
  O  O45  1  0.830272  0.689590  0.967948  1
  O  O46  1  0.508497  0.856227  0.127574  1
  O  O47  1  0.511045  0.853549  0.623734  1
  O  O48  1  0.359729  0.888257  0.374706  1
  O  O49  1  0.358668  0.893365  0.875162  1
  O  O50  1  0.950080  0.932701  0.125377  1
  O  O51  1  0.951721  0.932140  0.625033  1
