# generated using pymatgen
data_Li4Fe3Sn3(TeO8)2
_symmetry_space_group_name_H-M   'P 1'
_cell_length_a   6.27779344
_cell_length_b   6.27779344
_cell_length_c   10.14802073
_cell_angle_alpha   89.38862314
_cell_angle_beta   90.61137686
_cell_angle_gamma   120.42859570
_symmetry_Int_Tables_number   1
_chemical_formula_structural   Li4Fe3Sn3(TeO8)2
_chemical_formula_sum   'Li4 Fe3 Sn3 Te2 O16'
_cell_volume   344.82703707
_cell_formula_units_Z   1
loop_
 _symmetry_equiv_pos_site_id
 _symmetry_equiv_pos_as_xyz
  1  'x, y, z'
loop_
 _atom_site_type_symbol
 _atom_site_label
 _atom_site_symmetry_multiplicity
 _atom_site_fract_x
 _atom_site_fract_y
 _atom_site_fract_z
 _atom_site_occupancy
  Li  Li0  1  0.326510  0.673490  0.101661  1
  Li  Li1  1  0.002952  0.997048  0.010106  1
  Li  Li2  1  0.001236  0.998764  0.503907  1
  Li  Li3  1  0.664832  0.335168  0.593327  1
  Fe  Fe4  1  0.165351  0.834649  0.790017  1
  Fe  Fe5  1  0.334582  0.172410  0.288540  1
  Fe  Fe6  1  0.827590  0.665418  0.288540  1
  Sn  Sn7  1  0.168660  0.340037  0.785130  1
  Sn  Sn8  1  0.659963  0.831340  0.785130  1
  Sn  Sn9  1  0.829778  0.170222  0.285232  1
  Te  Te10  1  0.320572  0.679428  0.511025  1
  Te  Te11  1  0.650102  0.349898  0.018044  1
  O  O12  1  0.158223  0.309819  0.394599  1
  O  O13  1  0.485964  0.514036  0.666861  1
  O  O14  1  0.335762  0.664238  0.894765  1
  O  O15  1  0.996777  0.003223  0.684092  1
  O  O16  1  0.001766  0.998234  0.190621  1
  O  O17  1  0.690181  0.841777  0.394599  1
  O  O18  1  0.040727  0.518368  0.651325  1
  O  O19  1  0.481632  0.959273  0.651325  1
  O  O20  1  0.846657  0.153343  0.895837  1
  O  O21  1  0.155779  0.844221  0.405729  1
  O  O22  1  0.507436  0.039388  0.168394  1
  O  O23  1  0.960612  0.492564  0.168394  1
  O  O24  1  0.661694  0.338306  0.390228  1
  O  O25  1  0.317200  0.174978  0.908423  1
  O  O26  1  0.516233  0.483767  0.156657  1
  O  O27  1  0.825022  0.682800  0.908423  1
