# generated using pymatgen
data_Ga3NO3
_symmetry_space_group_name_H-M   'P 1'
_cell_length_a   6.14117737
_cell_length_b   8.36532944
_cell_length_c   8.41894608
_cell_angle_alpha   60.49253262
_cell_angle_beta   89.46183630
_cell_angle_gamma   89.30409429
_symmetry_Int_Tables_number   1
_chemical_formula_structural   Ga3NO3
_chemical_formula_sum   'Ga12 N4 O12'
_cell_volume   376.37588966
_cell_formula_units_Z   4
loop_
 _symmetry_equiv_pos_site_id
 _symmetry_equiv_pos_as_xyz
  1  'x, y, z'
loop_
 _atom_site_type_symbol
 _atom_site_label
 _atom_site_symmetry_multiplicity
 _atom_site_fract_x
 _atom_site_fract_y
 _atom_site_fract_z
 _atom_site_occupancy
  Ga  Ga0  1  0.544165  0.906905  0.257905  1
  Ga  Ga1  1  0.851549  0.566694  0.504463  1
  Ga  Ga2  1  0.534116  0.260773  0.828409  1
  Ga  Ga3  1  0.848881  0.920864  0.572320  1
  Ga  Ga4  1  0.850617  0.502513  0.919869  1
  Ga  Ga5  1  0.043855  0.089669  0.166974  1
  Ga  Ga6  1  0.335791  0.424929  0.083729  1
  Ga  Ga7  1  0.540529  0.838280  0.905094  1
  Ga  Ga8  1  0.040095  0.743170  0.088743  1
  Ga  Ga9  1  0.329636  0.091225  0.492080  1
  Ga  Ga10  1  0.331938  0.488131  0.435094  1
  Ga  Ga11  1  0.053110  0.169805  0.744282  1
  N  N12  1  0.071891  0.342197  0.049162  1
  N  N13  1  0.069417  0.035436  0.620341  1
  N  N14  1  0.074643  0.621966  0.337788  1
  N  N15  1  0.298638  0.318287  0.681459  1
  O  O16  1  0.573921  0.652537  0.385569  1
  O  O17  1  0.796737  0.987919  0.321715  1
  O  O18  1  0.798639  0.321124  0.694395  1
  O  O19  1  0.548380  0.998385  0.003016  1
  O  O20  1  0.035437  0.998614  0.001713  1
  O  O21  1  0.866706  0.664293  0.665620  1
  O  O22  1  0.566244  0.955591  0.650732  1
  O  O23  1  0.575547  0.384947  0.963673  1
  O  O24  1  0.303253  0.003550  0.316643  1
  O  O25  1  0.795870  0.692781  0.983309  1
  O  O26  1  0.302548  0.684105  0.997112  1
  O  O27  1  0.421195  0.335309  0.328790  1
