# generated using pymatgen
data_VF5
_symmetry_space_group_name_H-M   'P 1'
_cell_length_a   6.58723642
_cell_length_b   6.58723642
_cell_length_c   4.65178936
_cell_angle_alpha   90.00000000
_cell_angle_beta   90.00000000
_cell_angle_gamma   90.00000000
_symmetry_Int_Tables_number   1
_chemical_formula_structural   VF5
_chemical_formula_sum   'V2 F10'
_cell_volume   201.84897233
_cell_formula_units_Z   2
loop_
 _symmetry_equiv_pos_site_id
 _symmetry_equiv_pos_as_xyz
  1  'x, y, z'
loop_
 _atom_site_type_symbol
 _atom_site_label
 _atom_site_symmetry_multiplicity
 _atom_site_fract_x
 _atom_site_fract_y
 _atom_site_fract_z
 _atom_site_occupancy
  V  V0  1  0.500000  0.000000  0.622078  1
  V  V1  1  0.000000  0.500000  0.377922  1
  F  F2  1  0.500000  0.000000  0.247937  1
  F  F3  1  0.242192  0.037420  0.717158  1
  F  F4  1  0.962580  0.242192  0.282842  1
  F  F5  1  0.537420  0.257808  0.717158  1
  F  F6  1  0.257808  0.462580  0.282842  1
  F  F7  1  0.000000  0.500000  0.752063  1
  F  F8  1  0.742192  0.537420  0.282842  1
  F  F9  1  0.462580  0.742192  0.717158  1
  F  F10  1  0.037420  0.757808  0.282842  1
  F  F11  1  0.757808  0.962580  0.717158  1
