# generated using pymatgen
data_CoP2H18(NF2)6
_symmetry_space_group_name_H-M   'P 1'
_cell_length_a   8.30361165
_cell_length_b   8.30806238
_cell_length_c   8.39367432
_cell_angle_alpha   118.78244953
_cell_angle_beta   118.81053912
_cell_angle_gamma   91.14752724
_symmetry_Int_Tables_number   1
_chemical_formula_structural   CoP2H18(NF2)6
_chemical_formula_sum   'Co1 P2 H18 N6 F12'
_cell_volume   420.05757253
_cell_formula_units_Z   1
loop_
 _symmetry_equiv_pos_site_id
 _symmetry_equiv_pos_as_xyz
  1  'x, y, z'
loop_
 _atom_site_type_symbol
 _atom_site_label
 _atom_site_symmetry_multiplicity
 _atom_site_fract_x
 _atom_site_fract_y
 _atom_site_fract_z
 _atom_site_occupancy
  Co  Co0  1  0.008756  0.998451  0.997641  1
  P  P1  1  0.752408  0.249302  0.500260  1
  P  P2  1  0.252627  0.748277  0.499643  1
  H  H3  1  0.882818  0.703426  0.008570  1
  H  H4  1  0.693527  0.754618  0.876902  1
  H  H5  1  0.735730  0.177111  0.853663  1
  H  H6  1  0.828619  0.886269  0.145868  1
  H  H7  1  0.871743  0.313121  0.123378  1
  H  H8  1  0.693228  0.116625  0.992161  1
  H  H9  1  0.248884  0.126894  0.405842  1
  H  H10  1  0.844006  0.866947  0.590045  1
  H  H11  1  0.124511  0.278159  0.395762  1
  H  H12  1  0.730546  0.711459  0.601016  1
  H  H13  1  0.308910  0.817930  0.973331  1
  H  H14  1  0.315223  0.173998  0.030578  1
  H  H15  1  0.117942  0.115038  0.800974  1
  H  H16  1  0.949779  0.723166  0.654715  1
  H  H17  1  0.328754  0.879978  0.199800  1
  H  H18  1  0.296292  0.280109  0.352389  1
  H  H19  1  0.170621  0.672966  0.972626  1
  H  H20  1  0.174451  0.310909  0.029776  1
  N  N21  1  0.834712  0.816241  0.010747  1
  N  N22  1  0.801570  0.172177  0.989341  1
  N  N23  1  0.862648  0.805621  0.675382  1
  N  N24  1  0.185437  0.190148  0.322961  1
  N  N25  1  0.173022  0.170002  0.962169  1
  N  N26  1  0.229850  0.815264  0.035120  1
  F  F27  1  0.878970  0.099388  0.492367  1
  F  F28  1  0.897071  0.378804  0.494647  1
  F  F29  1  0.611589  0.115942  0.230278  1
  F  F30  1  0.892828  0.382831  0.769906  1
  F  F31  1  0.623785  0.396618  0.505393  1
  F  F32  1  0.608992  0.119471  0.507588  1
  F  F33  1  0.385747  0.897440  0.502311  1
  F  F34  1  0.402170  0.621546  0.506290  1
  F  F35  1  0.122698  0.610527  0.229630  1
  F  F36  1  0.382551  0.882910  0.769930  1
  F  F37  1  0.103576  0.874406  0.492946  1
  F  F38  1  0.119210  0.599109  0.498049  1
