# generated using pymatgen
data_Ti2O3
_symmetry_space_group_name_H-M   'P 1'
_cell_length_a   7.66365959
_cell_length_b   3.00369070
_cell_length_c   13.33235886
_cell_angle_alpha   90.00000000
_cell_angle_beta   98.96210450
_cell_angle_gamma   90.00000000
_symmetry_Int_Tables_number   1
_chemical_formula_structural   Ti2O3
_chemical_formula_sum   'Ti12 O18'
_cell_volume   303.15430156
_cell_formula_units_Z   6
loop_
 _symmetry_equiv_pos_site_id
 _symmetry_equiv_pos_as_xyz
  1  'x, y, z'
loop_
 _atom_site_type_symbol
 _atom_site_label
 _atom_site_symmetry_multiplicity
 _atom_site_fract_x
 _atom_site_fract_y
 _atom_site_fract_z
 _atom_site_occupancy
  Ti  Ti0  1  0.806685  0.250000  0.981316  1
  Ti  Ti1  1  0.457182  0.250000  0.882523  1
  Ti  Ti2  1  0.840914  0.750000  0.780508  1
  Ti  Ti3  1  0.179796  0.750000  0.724834  1
  Ti  Ti4  1  0.510742  0.250000  0.600972  1
  Ti  Ti5  1  0.865918  0.250000  0.564173  1
  Ti  Ti6  1  0.134082  0.750000  0.435827  1
  Ti  Ti7  1  0.489258  0.750000  0.399028  1
  Ti  Ti8  1  0.820204  0.250000  0.275166  1
  Ti  Ti9  1  0.159086  0.250000  0.219492  1
  Ti  Ti10  1  0.542818  0.750000  0.117477  1
  Ti  Ti11  1  0.193315  0.750000  0.018684  1
  O  O12  1  0.614849  0.750000  0.966837  1
  O  O13  1  0.269799  0.750000  0.874881  1
  O  O14  1  0.949966  0.750000  0.924086  1
  O  O15  1  0.689936  0.250000  0.824157  1
  O  O16  1  0.360271  0.250000  0.715426  1
  O  O17  1  0.992273  0.250000  0.733958  1
  O  O18  1  0.053076  0.750000  0.578063  1
  O  O19  1  0.714523  0.750000  0.632684  1
  O  O20  1  0.368045  0.750000  0.528271  1
  O  O21  1  0.631955  0.250000  0.471729  1
  O  O22  1  0.285477  0.250000  0.367316  1
  O  O23  1  0.946924  0.250000  0.421937  1
  O  O24  1  0.007727  0.750000  0.266042  1
  O  O25  1  0.639729  0.750000  0.284574  1
  O  O26  1  0.310064  0.750000  0.175843  1
  O  O27  1  0.050034  0.250000  0.075914  1
  O  O28  1  0.730201  0.250000  0.125119  1
  O  O29  1  0.385151  0.250000  0.033163  1
