# generated using pymatgen
data_Li3BiS3
_symmetry_space_group_name_H-M   'P 1'
_cell_length_a   4.01150483
_cell_length_b   12.42914598
_cell_length_c   12.17459150
_cell_angle_alpha   90.00000000
_cell_angle_beta   103.96617271
_cell_angle_gamma   90.00000000
_symmetry_Int_Tables_number   1
_chemical_formula_structural   Li3BiS3
_chemical_formula_sum   'Li12 Bi4 S12'
_cell_volume   589.07551717
_cell_formula_units_Z   4
loop_
 _symmetry_equiv_pos_site_id
 _symmetry_equiv_pos_as_xyz
  1  'x, y, z'
loop_
 _atom_site_type_symbol
 _atom_site_label
 _atom_site_symmetry_multiplicity
 _atom_site_fract_x
 _atom_site_fract_y
 _atom_site_fract_z
 _atom_site_occupancy
  Li  Li0  1  0.120767  0.458062  0.619146  1
  Li  Li1  1  0.224891  0.969764  0.605079  1
  Li  Li2  1  0.511399  0.219230  0.026001  1
  Li  Li3  1  0.120767  0.041938  0.119146  1
  Li  Li4  1  0.224891  0.530236  0.105079  1
  Li  Li5  1  0.488601  0.719230  0.473999  1
  Li  Li6  1  0.511399  0.280770  0.526001  1
  Li  Li7  1  0.775109  0.469764  0.894921  1
  Li  Li8  1  0.879233  0.958062  0.880854  1
  Li  Li9  1  0.488601  0.780770  0.973999  1
  Li  Li10  1  0.775109  0.030236  0.394921  1
  Li  Li11  1  0.879233  0.541938  0.380854  1
  Bi  Bi12  1  0.883486  0.706931  0.750962  1
  Bi  Bi13  1  0.883486  0.793069  0.250962  1
  Bi  Bi14  1  0.116514  0.206931  0.749038  1
  Bi  Bi15  1  0.116514  0.293069  0.249038  1
  S  S16  1  0.068398  0.646388  0.569243  1
  S  S17  1  0.298888  0.593827  0.908449  1
  S  S18  1  0.068398  0.853612  0.069243  1
  S  S19  1  0.296046  0.876346  0.788099  1
  S  S20  1  0.298888  0.906173  0.408449  1
  S  S21  1  0.296046  0.623654  0.288099  1
  S  S22  1  0.703954  0.376346  0.711901  1
  S  S23  1  0.701112  0.093827  0.591551  1
  S  S24  1  0.703954  0.123654  0.211901  1
  S  S25  1  0.931602  0.146388  0.930757  1
  S  S26  1  0.701112  0.406173  0.091551  1
  S  S27  1  0.931602  0.353612  0.430757  1
