# generated using pymatgen
data_Mn3CoCu2(PO4)6
_symmetry_space_group_name_H-M   'P 1'
_cell_length_a   8.49044738
_cell_length_b   8.49044738
_cell_length_c   8.49044738
_cell_angle_alpha   59.86081600
_cell_angle_beta   59.86081600
_cell_angle_gamma   59.86081600
_symmetry_Int_Tables_number   1
_chemical_formula_structural   Mn3CoCu2(PO4)6
_chemical_formula_sum   'Mn3 Co1 Cu2 P6 O24'
_cell_volume   431.42258717
_cell_formula_units_Z   1
loop_
 _symmetry_equiv_pos_site_id
 _symmetry_equiv_pos_as_xyz
  1  'x, y, z'
loop_
 _atom_site_type_symbol
 _atom_site_label
 _atom_site_symmetry_multiplicity
 _atom_site_fract_x
 _atom_site_fract_y
 _atom_site_fract_z
 _atom_site_occupancy
  Mn  Mn0  1  0.642306  0.642306  0.642306  1
  Mn  Mn1  1  0.858267  0.858267  0.858267  1
  Mn  Mn2  1  0.357811  0.357811  0.357811  1
  Co  Co3  1  0.140636  0.140636  0.140636  1
  Cu  Cu4  1  0.001934  0.001934  0.001934  1
  Cu  Cu5  1  0.500231  0.500231  0.500231  1
  P  P6  1  0.249034  0.535161  0.962776  1
  P  P7  1  0.962776  0.249034  0.535161  1
  P  P8  1  0.535161  0.962776  0.249034  1
  P  P9  1  0.458962  0.039034  0.752803  1
  P  P10  1  0.039034  0.752803  0.458962  1
  P  P11  1  0.752803  0.458962  0.039034  1
  O  O12  1  0.123081  0.302684  0.510067  1
  O  O13  1  0.510067  0.123081  0.302684  1
  O  O14  1  0.302684  0.510067  0.123081  1
  O  O15  1  0.082125  0.736401  0.945518  1
  O  O16  1  0.197868  0.374193  0.989808  1
  O  O17  1  0.419563  0.554035  0.763450  1
  O  O18  1  0.945518  0.082125  0.736401  1
  O  O19  1  0.763450  0.419563  0.554035  1
  O  O20  1  0.623076  0.010378  0.802677  1
  O  O21  1  0.554035  0.763450  0.419563  1
  O  O22  1  0.261468  0.055664  0.920693  1
  O  O23  1  0.010378  0.802677  0.623076  1
  O  O24  1  0.989808  0.197868  0.374193  1
  O  O25  1  0.736401  0.945518  0.082125  1
  O  O26  1  0.445397  0.236601  0.581539  1
  O  O27  1  0.374193  0.989808  0.197868  1
  O  O28  1  0.236601  0.581539  0.445397  1
  O  O29  1  0.055664  0.920693  0.261468  1
  O  O30  1  0.581539  0.445397  0.236601  1
  O  O31  1  0.802677  0.623076  0.010378  1
  O  O32  1  0.920693  0.261468  0.055664  1
  O  O33  1  0.698257  0.489783  0.876670  1
  O  O34  1  0.489783  0.876670  0.698257  1
  O  O35  1  0.876670  0.698257  0.489782  1
