# generated using pymatgen
data_Li3VP3O11
_symmetry_space_group_name_H-M   'P 1'
_cell_length_a   6.04103934
_cell_length_b   8.27486592
_cell_length_c   9.57552396
_cell_angle_alpha   114.17832167
_cell_angle_beta   101.50579991
_cell_angle_gamma   95.63733965
_symmetry_Int_Tables_number   1
_chemical_formula_structural   Li3VP3O11
_chemical_formula_sum   'Li6 V2 P6 O22'
_cell_volume   419.14528737
_cell_formula_units_Z   2
loop_
 _symmetry_equiv_pos_site_id
 _symmetry_equiv_pos_as_xyz
  1  'x, y, z'
loop_
 _atom_site_type_symbol
 _atom_site_label
 _atom_site_symmetry_multiplicity
 _atom_site_fract_x
 _atom_site_fract_y
 _atom_site_fract_z
 _atom_site_occupancy
  Li  Li0  1  0.395021  0.106219  0.038251  1
  Li  Li1  1  0.614745  0.540289  0.884546  1
  Li  Li2  1  0.232092  0.545522  0.476580  1
  Li  Li3  1  0.767908  0.454478  0.523420  1
  Li  Li4  1  0.385255  0.459711  0.115454  1
  Li  Li5  1  0.604979  0.893781  0.961749  1
  V  V6  1  0.105425  0.025781  0.275703  1
  V  V7  1  0.894575  0.974219  0.724297  1
  P  P8  1  0.076075  0.568705  0.770056  1
  P  P9  1  0.855618  0.222924  0.892717  1
  P  P10  1  0.356988  0.091026  0.597062  1
  P  P11  1  0.643012  0.908974  0.402938  1
  P  P12  1  0.144382  0.777076  0.107283  1
  P  P13  1  0.923925  0.431295  0.229944  1
  O  O14  1  0.300694  0.489030  0.897772  1
  O  O15  1  0.631739  0.162189  0.936168  1
  O  O16  1  0.998513  0.739157  0.772096  1
  O  O17  1  0.862077  0.439691  0.838022  1
  O  O18  1  0.065521  0.574429  0.612899  1
  O  O19  1  0.928598  0.859307  0.964769  1
  O  O20  1  0.562128  0.959699  0.731634  1
  O  O21  1  0.176183  0.074252  0.692626  1
  O  O22  1  0.575392  0.715180  0.483568  1
  O  O23  1  0.248310  0.996483  0.487869  1
  O  O24  1  0.122721  0.790565  0.255296  1
  O  O25  1  0.877279  0.209435  0.744704  1
  O  O26  1  0.751690  0.003517  0.512131  1
  O  O27  1  0.424608  0.284820  0.516432  1
  O  O28  1  0.823817  0.925748  0.307374  1
  O  O29  1  0.437872  0.040301  0.268366  1
  O  O30  1  0.071402  0.140693  0.035231  1
  O  O31  1  0.934479  0.425571  0.387101  1
  O  O32  1  0.137923  0.560309  0.161978  1
  O  O33  1  0.001487  0.260843  0.227904  1
  O  O34  1  0.368261  0.837811  0.063832  1
  O  O35  1  0.699306  0.510970  0.102228  1
