# generated using pymatgen
data_Mg5H10(C2O9)2
_symmetry_space_group_name_H-M   'P 1'
_cell_length_a   8.40983511
_cell_length_b   9.20406468
_cell_length_c   10.15115518
_cell_angle_alpha   90.00000000
_cell_angle_beta   114.44390382
_cell_angle_gamma   90.00000000
_symmetry_Int_Tables_number   1
_chemical_formula_structural   Mg5H10(C2O9)2
_chemical_formula_sum   'Mg10 H20 C8 O36'
_cell_volume   715.31781630
_cell_formula_units_Z   2
loop_
 _symmetry_equiv_pos_site_id
 _symmetry_equiv_pos_as_xyz
  1  'x, y, z'
loop_
 _atom_site_type_symbol
 _atom_site_label
 _atom_site_symmetry_multiplicity
 _atom_site_fract_x
 _atom_site_fract_y
 _atom_site_fract_z
 _atom_site_occupancy
  Mg  Mg0  1  0.514796  0.430438  0.655354  1
  Mg  Mg1  1  0.985204  0.930438  0.344646  1
  Mg  Mg2  1  0.485204  0.569562  0.344646  1
  Mg  Mg3  1  0.014796  0.069562  0.655354  1
  Mg  Mg4  1  0.646172  0.068966  0.654525  1
  Mg  Mg5  1  0.853828  0.568966  0.345475  1
  Mg  Mg6  1  0.353828  0.931034  0.345475  1
  Mg  Mg7  1  0.146172  0.431034  0.654525  1
  Mg  Mg8  1  0.500000  0.500000  0.000000  1
  Mg  Mg9  1  0.000000  0.000000  0.000000  1
  H  H10  1  0.385434  0.622316  0.766335  1
  H  H11  1  0.114566  0.122316  0.233665  1
  H  H12  1  0.614566  0.377684  0.233665  1
  H  H13  1  0.885434  0.877684  0.766335  1
  H  H14  1  0.643917  0.873812  0.852500  1
  H  H15  1  0.856083  0.373812  0.147500  1
  H  H16  1  0.356083  0.126188  0.147500  1
  H  H17  1  0.143917  0.626188  0.852500  1
  H  H18  1  0.558079  0.803390  0.698491  1
  H  H19  1  0.941921  0.303390  0.301509  1
  H  H20  1  0.441921  0.196610  0.301509  1
  H  H21  1  0.058079  0.696610  0.698491  1
  H  H22  1  0.732924  0.595970  0.862997  1
  H  H23  1  0.767076  0.095970  0.137003  1
  H  H24  1  0.267076  0.404030  0.137003  1
  H  H25  1  0.232924  0.904030  0.862997  1
  H  H26  1  0.830317  0.584275  0.753812  1
  H  H27  1  0.669683  0.084275  0.246188  1
  H  H28  1  0.169683  0.415725  0.246188  1
  H  H29  1  0.330317  0.915725  0.753812  1
  C  C30  1  0.692390  0.233491  0.920178  1
  C  C31  1  0.807610  0.733491  0.079822  1
  C  C32  1  0.307610  0.766509  0.079822  1
  C  C33  1  0.192390  0.266509  0.920178  1
  C  C34  1  0.263587  0.167276  0.526119  1
  C  C35  1  0.236413  0.667276  0.473881  1
  C  C36  1  0.736413  0.832724  0.473881  1
  C  C37  1  0.763587  0.332724  0.526119  1
  O  O38  1  0.390046  0.516502  0.774168  1
  O  O39  1  0.109954  0.016502  0.225832  1
  O  O40  1  0.609954  0.483498  0.225832  1
  O  O41  1  0.890046  0.983498  0.774168  1
  O  O42  1  0.547671  0.887900  0.753590  1
  O  O43  1  0.952329  0.387900  0.246410  1
  O  O44  1  0.452329  0.112100  0.246410  1
  O  O45  1  0.047671  0.612100  0.753590  1
  O  O46  1  0.716794  0.576391  0.760093  1
  O  O47  1  0.783206  0.076391  0.239907  1
  O  O48  1  0.283206  0.423609  0.239907  1
  O  O49  1  0.216794  0.923609  0.760093  1
  O  O50  1  0.659006  0.331566  0.994824  1
  O  O51  1  0.840994  0.831566  0.005176  1
  O  O52  1  0.340994  0.668434  0.005176  1
  O  O53  1  0.159006  0.168434  0.994824  1
  O  O54  1  0.785898  0.122763  0.985551  1
  O  O55  1  0.714102  0.622763  0.014449  1
  O  O56  1  0.214102  0.877237  0.014449  1
  O  O57  1  0.285898  0.377237  0.985551  1
  O  O58  1  0.632476  0.243043  0.779013  1
  O  O59  1  0.867524  0.743043  0.220987  1
  O  O60  1  0.367524  0.756957  0.220987  1
  O  O61  1  0.132476  0.256957  0.779013  1
  O  O62  1  0.285792  0.300681  0.568758  1
  O  O63  1  0.214208  0.800681  0.431242  1
  O  O64  1  0.714208  0.699319  0.431242  1
  O  O65  1  0.785792  0.199319  0.568758  1
  O  O66  1  0.386594  0.099050  0.504749  1
  O  O67  1  0.113406  0.599050  0.495251  1
  O  O68  1  0.613406  0.900950  0.495251  1
  O  O69  1  0.886594  0.400950  0.504749  1
  O  O70  1  0.117277  0.102113  0.502402  1
  O  O71  1  0.382723  0.602113  0.497598  1
  O  O72  1  0.882723  0.897887  0.497598  1
  O  O73  1  0.617277  0.397887  0.502402  1
