# generated using pymatgen
data_Na3MnPCO7
_symmetry_space_group_name_H-M   'P 1'
_cell_length_a   5.33014408
_cell_length_b   6.70510983
_cell_length_c   9.09796293
_cell_angle_alpha   90.00000000
_cell_angle_beta   90.51786946
_cell_angle_gamma   90.00000000
_symmetry_Int_Tables_number   1
_chemical_formula_structural   Na3MnPCO7
_chemical_formula_sum   'Na6 Mn2 P2 C2 O14'
_cell_volume   325.14064829
_cell_formula_units_Z   2
loop_
 _symmetry_equiv_pos_site_id
 _symmetry_equiv_pos_as_xyz
  1  'x, y, z'
loop_
 _atom_site_type_symbol
 _atom_site_label
 _atom_site_symmetry_multiplicity
 _atom_site_fract_x
 _atom_site_fract_y
 _atom_site_fract_z
 _atom_site_occupancy
  Na  Na0  1  0.000635  0.511454  0.994608  1
  Na  Na1  1  0.539504  0.813496  0.832583  1
  Na  Na2  1  0.501283  0.515460  0.513354  1
  Na  Na3  1  0.498717  0.015460  0.486646  1
  Na  Na4  1  0.460496  0.313496  0.167417  1
  Na  Na5  1  0.999365  0.011454  0.005392  1
  Mn  Mn6  1  0.991487  0.253540  0.703579  1
  Mn  Mn7  1  0.008513  0.753540  0.296421  1
  P  P8  1  0.020122  0.759310  0.656362  1
  P  P9  1  0.979878  0.259310  0.343638  1
  C  C10  1  0.512213  0.259098  0.853691  1
  C  C11  1  0.487787  0.759098  0.146309  1
  O  O12  1  0.687665  0.260028  0.954227  1
  O  O13  1  0.276570  0.249207  0.894167  1
  O  O14  1  0.926305  0.939484  0.751649  1
  O  O15  1  0.962501  0.567263  0.746464  1
  O  O16  1  0.568151  0.263958  0.715751  1
  O  O17  1  0.302430  0.779198  0.626537  1
  O  O18  1  0.865752  0.753904  0.509390  1
  O  O19  1  0.134248  0.253904  0.490610  1
  O  O20  1  0.697570  0.279198  0.373463  1
  O  O21  1  0.431849  0.763958  0.284249  1
  O  O22  1  0.037499  0.067263  0.253536  1
  O  O23  1  0.073695  0.439484  0.248351  1
  O  O24  1  0.723430  0.749207  0.105833  1
  O  O25  1  0.312335  0.760028  0.045773  1
