# generated using pymatgen
data_Li4Ti3Nb2Cr3O16
_symmetry_space_group_name_H-M   'P 1'
_cell_length_a   5.99754191
_cell_length_b   5.99754191
_cell_length_c   9.74489855
_cell_angle_alpha   89.43938424
_cell_angle_beta   90.56061576
_cell_angle_gamma   120.18083111
_symmetry_Int_Tables_number   1
_chemical_formula_structural   Li4Ti3Nb2Cr3O16
_chemical_formula_sum   'Li4 Ti3 Nb2 Cr3 O16'
_cell_volume   302.99301734
_cell_formula_units_Z   1
loop_
 _symmetry_equiv_pos_site_id
 _symmetry_equiv_pos_as_xyz
  1  'x, y, z'
loop_
 _atom_site_type_symbol
 _atom_site_label
 _atom_site_symmetry_multiplicity
 _atom_site_fract_x
 _atom_site_fract_y
 _atom_site_fract_z
 _atom_site_occupancy
  Li  Li0  1  0.664580  0.335420  0.897841  1
  Li  Li1  1  0.999795  0.000205  0.992060  1
  Li  Li2  1  0.998424  0.001576  0.494927  1
  Li  Li3  1  0.332884  0.667116  0.401952  1
  Ti  Ti4  1  0.170971  0.829029  0.721005  1
  Ti  Ti5  1  0.341666  0.164682  0.218848  1
  Ti  Ti6  1  0.835318  0.658334  0.218848  1
  Nb  Nb7  1  0.666586  0.333414  0.493014  1
  Nb  Nb8  1  0.338327  0.661673  0.990731  1
  Cr  Cr9  1  0.831973  0.168027  0.210915  1
  Cr  Cr10  1  0.170425  0.338966  0.712688  1
  Cr  Cr11  1  0.661034  0.829575  0.712688  1
  O  O12  1  0.329565  0.161671  0.597250  1
  O  O13  1  0.518242  0.481758  0.339733  1
  O  O14  1  0.662043  0.337957  0.107711  1
  O  O15  1  0.001323  0.998677  0.308978  1
  O  O16  1  0.003550  0.996450  0.807042  1
  O  O17  1  0.838329  0.670435  0.597250  1
  O  O18  1  0.514014  0.038380  0.337619  1
  O  O19  1  0.961620  0.485986  0.337619  1
  O  O20  1  0.164397  0.835603  0.100281  1
  O  O21  1  0.832794  0.167206  0.593875  1
  O  O22  1  0.037481  0.524029  0.839538  1
  O  O23  1  0.475971  0.962519  0.839538  1
  O  O24  1  0.326338  0.673662  0.607395  1
  O  O25  1  0.171276  0.329513  0.094142  1
  O  O26  1  0.479635  0.520365  0.840318  1
  O  O27  1  0.670487  0.828724  0.094142  1
