# generated using pymatgen
data_Li3(FeS2)2
_symmetry_space_group_name_H-M   'P 1'
_cell_length_a   6.14444247
_cell_length_b   9.85472930
_cell_length_c   10.27912555
_cell_angle_alpha   90.00000000
_cell_angle_beta   90.00000000
_cell_angle_gamma   90.00000000
_symmetry_Int_Tables_number   1
_chemical_formula_structural   Li3(FeS2)2
_chemical_formula_sum   'Li12 Fe8 S16'
_cell_volume   622.41973163
_cell_formula_units_Z   4
loop_
 _symmetry_equiv_pos_site_id
 _symmetry_equiv_pos_as_xyz
  1  'x, y, z'
loop_
 _atom_site_type_symbol
 _atom_site_label
 _atom_site_symmetry_multiplicity
 _atom_site_fract_x
 _atom_site_fract_y
 _atom_site_fract_z
 _atom_site_occupancy
  Li  Li0  1  0.960749  0.347674  0.092388  1
  Li  Li1  1  0.960749  0.347674  0.407612  1
  Li  Li2  1  0.902033  0.735701  0.250000  1
  Li  Li3  1  0.597967  0.235701  0.750000  1
  Li  Li4  1  0.539251  0.847674  0.907612  1
  Li  Li5  1  0.539251  0.847674  0.592388  1
  Li  Li6  1  0.460749  0.152326  0.092388  1
  Li  Li7  1  0.460749  0.152326  0.407612  1
  Li  Li8  1  0.402033  0.764299  0.250000  1
  Li  Li9  1  0.097967  0.264299  0.750000  1
  Li  Li10  1  0.039251  0.652326  0.592388  1
  Li  Li11  1  0.039251  0.652326  0.907612  1
  Fe  Fe12  1  0.950714  0.026715  0.125784  1
  Fe  Fe13  1  0.950714  0.026715  0.374216  1
  Fe  Fe14  1  0.549286  0.526715  0.625784  1
  Fe  Fe15  1  0.549286  0.526715  0.874216  1
  Fe  Fe16  1  0.450714  0.473285  0.125784  1
  Fe  Fe17  1  0.450714  0.473285  0.374216  1
  Fe  Fe18  1  0.049286  0.973285  0.625784  1
  Fe  Fe19  1  0.049286  0.973285  0.874216  1
  S  S20  1  0.858694  0.826937  0.750000  1
  S  S21  1  0.813183  0.134205  0.550746  1
  S  S22  1  0.813183  0.134205  0.949254  1
  S  S23  1  0.825157  0.451816  0.750000  1
  S  S24  1  0.674843  0.951816  0.250000  1
  S  S25  1  0.686817  0.634205  0.050746  1
  S  S26  1  0.686817  0.634205  0.449254  1
  S  S27  1  0.641306  0.326937  0.250000  1
  S  S28  1  0.358694  0.673063  0.750000  1
  S  S29  1  0.313183  0.365795  0.550746  1
  S  S30  1  0.313183  0.365795  0.949254  1
  S  S31  1  0.325157  0.048184  0.750000  1
  S  S32  1  0.174843  0.548184  0.250000  1
  S  S33  1  0.186817  0.865795  0.050746  1
  S  S34  1  0.186817  0.865795  0.449254  1
  S  S35  1  0.141306  0.173063  0.250000  1
