# generated using pymatgen
data_Na5Cu(HO2)2
_symmetry_space_group_name_H-M   'P 1'
_cell_length_a   6.10900447
_cell_length_b   8.89518092
_cell_length_c   12.05800426
_cell_angle_alpha   90.00000000
_cell_angle_beta   90.00000000
_cell_angle_gamma   90.00000000
_symmetry_Int_Tables_number   1
_chemical_formula_structural   Na5Cu(HO2)2
_chemical_formula_sum   'Na20 Cu4 H8 O16'
_cell_volume   655.24039212
_cell_formula_units_Z   4
loop_
 _symmetry_equiv_pos_site_id
 _symmetry_equiv_pos_as_xyz
  1  'x, y, z'
loop_
 _atom_site_type_symbol
 _atom_site_label
 _atom_site_symmetry_multiplicity
 _atom_site_fract_x
 _atom_site_fract_y
 _atom_site_fract_z
 _atom_site_occupancy
  Na  Na0  1  0.552277  0.250000  0.041644  1
  Na  Na1  1  0.563412  0.750000  0.207538  1
  Na  Na2  1  0.586475  0.750000  0.729152  1
  Na  Na3  1  0.740979  0.005772  0.360674  1
  Na  Na4  1  0.740979  0.494228  0.360674  1
  Na  Na5  1  0.759021  0.505772  0.860674  1
  Na  Na6  1  0.759021  0.994228  0.860674  1
  Na  Na7  1  0.913525  0.250000  0.229152  1
  Na  Na8  1  0.936588  0.250000  0.707538  1
  Na  Na9  1  0.947723  0.750000  0.541644  1
  Na  Na10  1  0.052277  0.250000  0.458356  1
  Na  Na11  1  0.063412  0.750000  0.292462  1
  Na  Na12  1  0.086475  0.750000  0.770848  1
  Na  Na13  1  0.240979  0.005772  0.139326  1
  Na  Na14  1  0.240979  0.494228  0.139326  1
  Na  Na15  1  0.259021  0.505772  0.639326  1
  Na  Na16  1  0.259021  0.994228  0.639326  1
  Na  Na17  1  0.413525  0.250000  0.270848  1
  Na  Na18  1  0.436588  0.250000  0.792462  1
  Na  Na19  1  0.447723  0.750000  0.958356  1
  Cu  Cu20  1  0.502549  0.250000  0.524142  1
  Cu  Cu21  1  0.997451  0.750000  0.024142  1
  Cu  Cu22  1  0.002549  0.250000  0.975858  1
  Cu  Cu23  1  0.497451  0.750000  0.475858  1
  H  H24  1  0.726905  0.005593  0.123500  1
  H  H25  1  0.726905  0.494407  0.123500  1
  H  H26  1  0.773095  0.505593  0.623500  1
  H  H27  1  0.773095  0.994407  0.623500  1
  H  H28  1  0.226905  0.005593  0.376500  1
  H  H29  1  0.226905  0.494407  0.376500  1
  H  H30  1  0.273095  0.505593  0.876500  1
  H  H31  1  0.273095  0.994407  0.876500  1
  O  O32  1  0.621465  0.049096  0.175655  1
  O  O33  1  0.621465  0.450904  0.175655  1
  O  O34  1  0.694279  0.250000  0.411094  1
  O  O35  1  0.728661  0.750000  0.378744  1
  O  O36  1  0.771339  0.250000  0.878744  1
  O  O37  1  0.805721  0.750000  0.911094  1
  O  O38  1  0.878535  0.549096  0.675655  1
  O  O39  1  0.878535  0.950904  0.675655  1
  O  O40  1  0.121465  0.450904  0.324345  1
  O  O41  1  0.121465  0.049096  0.324345  1
  O  O42  1  0.194279  0.250000  0.088906  1
  O  O43  1  0.228661  0.750000  0.121256  1
  O  O44  1  0.271339  0.250000  0.621256  1
  O  O45  1  0.305721  0.750000  0.588906  1
  O  O46  1  0.378535  0.549096  0.824345  1
  O  O47  1  0.378535  0.950904  0.824345  1
