# generated using pymatgen
data_Na3GePCO7
_symmetry_space_group_name_H-M   'P 1'
_cell_length_a   5.48709517
_cell_length_b   6.88353591
_cell_length_c   9.25902658
_cell_angle_alpha   90.00000000
_cell_angle_beta   95.44407129
_cell_angle_gamma   90.00000000
_symmetry_Int_Tables_number   1
_chemical_formula_structural   Na3GePCO7
_chemical_formula_sum   'Na6 Ge2 P2 C2 O14'
_cell_volume   348.14165953
_cell_formula_units_Z   2
loop_
 _symmetry_equiv_pos_site_id
 _symmetry_equiv_pos_as_xyz
  1  'x, y, z'
loop_
 _atom_site_type_symbol
 _atom_site_label
 _atom_site_symmetry_multiplicity
 _atom_site_fract_x
 _atom_site_fract_y
 _atom_site_fract_z
 _atom_site_occupancy
  Na  Na0  1  0.999438  0.528554  0.984873  1
  Na  Na1  1  0.514883  0.816090  0.842113  1
  Na  Na2  1  0.484927  0.532180  0.499636  1
  Na  Na3  1  0.515073  0.032180  0.500364  1
  Na  Na4  1  0.485117  0.316090  0.157887  1
  Na  Na5  1  0.000562  0.028554  0.015127  1
  Ge  Ge6  1  0.080624  0.253790  0.672857  1
  Ge  Ge7  1  0.919376  0.753790  0.327143  1
  P  P8  1  0.013889  0.750318  0.670095  1
  P  P9  1  0.986111  0.250318  0.329905  1
  C  C10  1  0.485817  0.267766  0.863343  1
  C  C11  1  0.514183  0.767766  0.136657  1
  O  O12  1  0.696281  0.278286  0.933430  1
  O  O13  1  0.288457  0.243906  0.928365  1
  O  O14  1  0.918792  0.852990  0.799960  1
  O  O15  1  0.045756  0.529485  0.715358  1
  O  O16  1  0.455577  0.280054  0.718476  1
  O  O17  1  0.262381  0.823310  0.625982  1
  O  O18  1  0.811929  0.768670  0.536601  1
  O  O19  1  0.188071  0.268670  0.463399  1
  O  O20  1  0.737619  0.323310  0.374018  1
  O  O21  1  0.544423  0.780054  0.281524  1
  O  O22  1  0.954244  0.029485  0.284642  1
  O  O23  1  0.081208  0.352990  0.200040  1
  O  O24  1  0.711543  0.743906  0.071635  1
  O  O25  1  0.303719  0.778286  0.066570  1
