# generated using pymatgen
data_LiTiNiO4
_symmetry_space_group_name_H-M   'P 1'
_cell_length_a   5.82446874
_cell_length_b   5.82446874
_cell_length_c   5.82446874
_cell_angle_alpha   118.33410671
_cell_angle_beta   118.08249667
_cell_angle_gamma   93.13250949
_symmetry_Int_Tables_number   1
_chemical_formula_structural   LiTiNiO4
_chemical_formula_sum   'Li2 Ti2 Ni2 O8'
_cell_volume   143.26986876
_cell_formula_units_Z   2
loop_
 _symmetry_equiv_pos_site_id
 _symmetry_equiv_pos_as_xyz
  1  'x, y, z'
loop_
 _atom_site_type_symbol
 _atom_site_label
 _atom_site_symmetry_multiplicity
 _atom_site_fract_x
 _atom_site_fract_y
 _atom_site_fract_z
 _atom_site_occupancy
  Li  Li0  1  0.128072  0.878072  0.250000  1
  Li  Li1  1  0.871928  0.121928  0.750000  1
  Ti  Ti2  1  0.500000  0.500000  0.000000  1
  Ti  Ti3  1  0.000000  0.500000  0.500000  1
  Ni  Ni4  1  0.500000  0.000000  0.000000  1
  Ni  Ni5  1  0.500000  0.500000  0.500000  1
  O  O6  1  0.263084  0.736105  0.973021  1
  O  O7  1  0.716815  0.738423  0.978392  1
  O  O8  1  0.260031  0.738423  0.521608  1
  O  O9  1  0.263084  0.290063  0.526979  1
  O  O10  1  0.736916  0.709937  0.473021  1
  O  O11  1  0.283185  0.261577  0.021608  1
  O  O12  1  0.739969  0.261577  0.478392  1
  O  O13  1  0.736916  0.263895  0.026979  1
