# generated using pymatgen
data_LiV3P3(HO6)2
_symmetry_space_group_name_H-M   'P 1'
_cell_length_a   8.67155752
_cell_length_b   8.67155752
_cell_length_c   6.68507243
_cell_angle_alpha   72.71610430
_cell_angle_beta   107.28389570
_cell_angle_gamma   88.03752335
_symmetry_Int_Tables_number   1
_chemical_formula_structural   LiV3P3(HO6)2
_chemical_formula_sum   'Li2 V6 P6 H4 O24'
_cell_volume   454.15956476
_cell_formula_units_Z   2
loop_
 _symmetry_equiv_pos_site_id
 _symmetry_equiv_pos_as_xyz
  1  'x, y, z'
loop_
 _atom_site_type_symbol
 _atom_site_label
 _atom_site_symmetry_multiplicity
 _atom_site_fract_x
 _atom_site_fract_y
 _atom_site_fract_z
 _atom_site_occupancy
  Li  Li0  1  0.488893  0.488893  0.750000  1
  Li  Li1  1  0.511107  0.511107  0.250000  1
  V  V2  1  0.867898  0.457449  0.617048  1
  V  V3  1  0.542551  0.132102  0.117048  1
  V  V4  1  0.787079  0.787079  0.750000  1
  V  V5  1  0.212921  0.212921  0.250000  1
  V  V6  1  0.457449  0.867898  0.882952  1
  V  V7  1  0.132102  0.542551  0.382952  1
  P  P8  1  0.600003  0.179752  0.604069  1
  P  P9  1  0.820248  0.399997  0.104069  1
  P  P10  1  0.176286  0.176286  0.750000  1
  P  P11  1  0.823714  0.823714  0.250000  1
  P  P12  1  0.179752  0.600003  0.895931  1
  P  P13  1  0.399997  0.820248  0.395931  1
  H  H14  1  0.874835  0.121786  0.687443  1
  H  H15  1  0.878214  0.125165  0.187443  1
  H  H16  1  0.121786  0.874835  0.812557  1
  H  H17  1  0.125165  0.878214  0.312557  1
  O  O18  1  0.995118  0.210554  0.734728  1
  O  O19  1  0.763268  0.065362  0.647240  1
  O  O20  1  0.789446  0.004882  0.234728  1
  O  O21  1  0.934638  0.236732  0.147240  1
  O  O22  1  0.537077  0.110277  0.800023  1
  O  O23  1  0.635099  0.357388  0.575994  1
  O  O24  1  0.824424  0.522541  0.884215  1
  O  O25  1  0.889723  0.462923  0.300023  1
  O  O26  1  0.642612  0.364901  0.075994  1
  O  O27  1  0.477459  0.175576  0.384215  1
  O  O28  1  0.212331  0.282697  0.540854  1
  O  O29  1  0.282697  0.212331  0.959146  1
  O  O30  1  0.717303  0.787669  0.040854  1
  O  O31  1  0.787669  0.717303  0.459146  1
  O  O32  1  0.522541  0.824424  0.615785  1
  O  O33  1  0.357388  0.635099  0.924006  1
  O  O34  1  0.110277  0.537077  0.699977  1
  O  O35  1  0.175576  0.477459  0.115785  1
  O  O36  1  0.364901  0.642612  0.424006  1
  O  O37  1  0.462923  0.889723  0.199977  1
  O  O38  1  0.065362  0.763268  0.852760  1
  O  O39  1  0.210554  0.995118  0.765272  1
  O  O40  1  0.236732  0.934638  0.352760  1
  O  O41  1  0.004882  0.789446  0.265272  1
