# generated using pymatgen
data_Li4Mn3NbCr2(PO4)6
_symmetry_space_group_name_H-M   'P 1'
_cell_length_a   8.55347098
_cell_length_b   8.63033440
_cell_length_c   8.94375652
_cell_angle_alpha   62.20185730
_cell_angle_beta   62.78560901
_cell_angle_gamma   63.08126851
_symmetry_Int_Tables_number   1
_chemical_formula_structural   Li4Mn3NbCr2(PO4)6
_chemical_formula_sum   'Li4 Mn3 Nb1 Cr2 P6 O24'
_cell_volume   494.73371503
_cell_formula_units_Z   1
loop_
 _symmetry_equiv_pos_site_id
 _symmetry_equiv_pos_as_xyz
  1  'x, y, z'
loop_
 _atom_site_type_symbol
 _atom_site_label
 _atom_site_symmetry_multiplicity
 _atom_site_fract_x
 _atom_site_fract_y
 _atom_site_fract_z
 _atom_site_occupancy
  Li  Li0  1  0.256464  0.644344  0.844545  1
  Li  Li1  1  0.701359  0.357944  0.160790  1
  Li  Li2  1  0.360679  0.145802  0.695552  1
  Li  Li3  1  0.148766  0.704414  0.355678  1
  Mn  Mn4  1  0.847798  0.850927  0.846918  1
  Mn  Mn5  1  0.653591  0.649747  0.647004  1
  Mn  Mn6  1  0.341678  0.340289  0.341248  1
  Nb  Nb7  1  0.152176  0.151407  0.152777  1
  Cr  Cr8  1  0.992885  0.997260  0.999899  1
  Cr  Cr9  1  0.506374  0.498511  0.497721  1
  P  P10  1  0.253542  0.938604  0.557037  1
  P  P11  1  0.749878  0.059412  0.452849  1
  P  P12  1  0.430771  0.749206  0.045684  1
  P  P13  1  0.067540  0.450393  0.756332  1
  P  P14  1  0.940176  0.563699  0.254961  1
  P  P15  1  0.569353  0.250283  0.950116  1
  O  O16  1  0.902941  0.500853  0.700955  1
  O  O17  1  0.694459  0.904012  0.476237  1
  O  O18  1  0.940332  0.742267  0.093698  1
  O  O19  1  0.432831  0.702225  0.899695  1
  O  O20  1  0.003508  0.397703  0.187229  1
  O  O21  1  0.749284  0.565845  0.395408  1
  O  O22  1  0.756466  0.099318  0.924533  1
  O  O23  1  0.549311  0.409306  0.777333  1
  O  O24  1  0.817791  0.022403  0.598655  1
  O  O25  1  0.399797  0.745414  0.567113  1
  O  O26  1  0.899703  0.098616  0.258703  1
  O  O27  1  0.590557  0.817460  0.990219  1
  O  O28  1  0.402715  0.173277  0.011911  1
  O  O29  1  0.104630  0.914383  0.740642  1
  O  O30  1  0.593195  0.251580  0.431590  1
  O  O31  1  0.188273  0.992824  0.395787  1
  O  O32  1  0.423119  0.593432  0.230147  1
  O  O33  1  0.232663  0.902963  0.090816  1
  O  O34  1  0.255969  0.425913  0.600370  1
  O  O35  1  0.054305  0.586753  0.827033  1
  O  O36  1  0.540687  0.310360  0.099598  1
  O  O37  1  0.087651  0.248499  0.904687  1
  O  O38  1  0.323322  0.088405  0.528697  1
  O  O39  1  0.083464  0.530947  0.332835  1
