# generated using pymatgen
data_SrH2(SeO3)2
_symmetry_space_group_name_H-M   'P 1'
_cell_length_a   5.99367443
_cell_length_b   7.36203951
_cell_length_c   7.94990494
_cell_angle_alpha   97.21161768
_cell_angle_beta   104.05051292
_cell_angle_gamma   106.30467067
_symmetry_Int_Tables_number   1
_chemical_formula_structural   SrH2(SeO3)2
_chemical_formula_sum   'Sr2 H4 Se4 O12'
_cell_volume   319.46804562
_cell_formula_units_Z   2
loop_
 _symmetry_equiv_pos_site_id
 _symmetry_equiv_pos_as_xyz
  1  'x, y, z'
loop_
 _atom_site_type_symbol
 _atom_site_label
 _atom_site_symmetry_multiplicity
 _atom_site_fract_x
 _atom_site_fract_y
 _atom_site_fract_z
 _atom_site_occupancy
  Sr  Sr0  1  0.333146  0.720710  0.553528  1
  Sr  Sr1  1  0.666854  0.279290  0.446472  1
  H  H2  1  0.055317  0.946775  0.300276  1
  H  H3  1  0.252182  0.959432  0.046762  1
  H  H4  1  0.747818  0.040568  0.953238  1
  H  H5  1  0.944683  0.053225  0.699724  1
  Se  Se6  1  0.075722  0.296620  0.147273  1
  Se  Se7  1  0.354638  0.247529  0.769459  1
  Se  Se8  1  0.645362  0.752471  0.230541  1
  Se  Se9  1  0.924278  0.703380  0.852727  1
  O  O10  1  0.240363  0.863771  0.940722  1
  O  O11  1  0.023837  0.175886  0.662873  1
  O  O12  1  0.028767  0.411336  0.326195  1
  O  O13  1  0.449812  0.445857  0.684398  1
  O  O14  1  0.215476  0.133439  0.217984  1
  O  O15  1  0.560018  0.913461  0.350648  1
  O  O16  1  0.439982  0.086539  0.649352  1
  O  O17  1  0.784524  0.866561  0.782016  1
  O  O18  1  0.550188  0.554143  0.315602  1
  O  O19  1  0.971233  0.588664  0.673805  1
  O  O20  1  0.976163  0.824114  0.337127  1
  O  O21  1  0.759637  0.136229  0.059278  1
