# generated using pymatgen
data_Li(CuO)3
_symmetry_space_group_name_H-M   'P 1'
_cell_length_a   3.96486925
_cell_length_b   3.96486925
_cell_length_c   9.15589783
_cell_angle_alpha   90.00000000
_cell_angle_beta   90.00000000
_cell_angle_gamma   90.00000000
_symmetry_Int_Tables_number   1
_chemical_formula_structural   Li(CuO)3
_chemical_formula_sum   'Li2 Cu6 O6'
_cell_volume   143.93243642
_cell_formula_units_Z   2
loop_
 _symmetry_equiv_pos_site_id
 _symmetry_equiv_pos_as_xyz
  1  'x, y, z'
loop_
 _atom_site_type_symbol
 _atom_site_label
 _atom_site_symmetry_multiplicity
 _atom_site_fract_x
 _atom_site_fract_y
 _atom_site_fract_z
 _atom_site_occupancy
  Li  Li0  1  0.000000  0.500000  0.745135  1
  Li  Li1  1  0.500000  0.000000  0.254865  1
  Cu  Cu2  1  0.000000  0.000000  0.000000  1
  Cu  Cu3  1  0.000000  0.000000  0.500000  1
  Cu  Cu4  1  0.500000  0.000000  0.789489  1
  Cu  Cu5  1  0.000000  0.500000  0.210511  1
  Cu  Cu6  1  0.500000  0.500000  0.000000  1
  Cu  Cu7  1  0.500000  0.500000  0.500000  1
  O  O8  1  0.000000  0.000000  0.203162  1
  O  O9  1  0.000000  0.000000  0.796838  1
  O  O10  1  0.000000  0.500000  0.512293  1
  O  O11  1  0.500000  0.000000  0.487707  1
  O  O12  1  0.500000  0.500000  0.203162  1
  O  O13  1  0.500000  0.500000  0.796838  1
