# generated using pymatgen
data_La2Ti2CrO9
_symmetry_space_group_name_H-M   'P 1'
_cell_length_a   5.46354173
_cell_length_b   5.45221215
_cell_length_c   23.70554388
_cell_angle_alpha   90.00000000
_cell_angle_beta   90.03061508
_cell_angle_gamma   90.00000000
_symmetry_Int_Tables_number   1
_chemical_formula_structural   La2Ti2CrO9
_chemical_formula_sum   'La8 Ti8 Cr4 O36'
_cell_volume   706.14985232
_cell_formula_units_Z   4
loop_
 _symmetry_equiv_pos_site_id
 _symmetry_equiv_pos_as_xyz
  1  'x, y, z'
loop_
 _atom_site_type_symbol
 _atom_site_label
 _atom_site_symmetry_multiplicity
 _atom_site_fract_x
 _atom_site_fract_y
 _atom_site_fract_z
 _atom_site_occupancy
  La  La0  1  0.257377  0.990214  0.833268  1
  La  La1  1  0.742623  0.490214  0.166732  1
  La  La2  1  0.749467  0.502999  0.663908  1
  La  La3  1  0.749885  0.508991  0.998562  1
  La  La4  1  0.745731  0.504338  0.336132  1
  La  La5  1  0.254269  0.004338  0.663868  1
  La  La6  1  0.250533  0.002999  0.336092  1
  La  La7  1  0.250115  0.008991  0.001438  1
  Ti  Ti8  1  0.250927  0.501856  0.423733  1
  Ti  Ti9  1  0.251297  0.502286  0.576017  1
  Ti  Ti10  1  0.249287  0.498844  0.912330  1
  Ti  Ti11  1  0.249400  0.498945  0.247189  1
  Ti  Ti12  1  0.748703  0.002286  0.423983  1
  Ti  Ti13  1  0.750713  0.998844  0.087670  1
  Ti  Ti14  1  0.750600  0.998945  0.752811  1
  Ti  Ti15  1  0.749073  0.001856  0.576267  1
  Cr  Cr16  1  0.249631  0.497463  0.752783  1
  Cr  Cr17  1  0.250403  0.499747  0.084906  1
  Cr  Cr18  1  0.749597  0.999747  0.915094  1
  Cr  Cr19  1  0.750369  0.997463  0.247217  1
  O  O20  1  0.225553  0.501768  0.500023  1
  O  O21  1  0.208579  0.503144  0.835302  1
  O  O22  1  0.204137  0.504583  0.161778  1
  O  O23  1  0.498815  0.249866  0.410040  1
  O  O24  1  0.500542  0.251116  0.590118  1
  O  O25  1  0.468110  0.224097  0.758566  1
  O  O26  1  0.466671  0.221649  0.913129  1
  O  O27  1  0.495203  0.244319  0.086168  1
  O  O28  1  0.498447  0.243769  0.239944  1
  O  O29  1  0.499458  0.751116  0.409882  1
  O  O30  1  0.501185  0.749866  0.589960  1
  O  O31  1  0.501553  0.743769  0.760056  1
  O  O32  1  0.504797  0.744319  0.913832  1
  O  O33  1  0.533329  0.721649  0.086871  1
  O  O34  1  0.531890  0.724097  0.241434  1
  O  O35  1  0.774447  0.001768  0.499977  1
  O  O36  1  0.795863  0.004583  0.838222  1
  O  O37  1  0.791421  0.003144  0.164698  1
  O  O38  1  0.712990  0.997677  0.672846  1
  O  O39  1  0.707996  0.997921  0.326301  1
  O  O40  1  0.701654  0.997084  0.998406  1
  O  O41  1  0.999367  0.252354  0.598254  1
  O  O42  1  0.977443  0.270788  0.254939  1
  O  O43  1  0.986210  0.255751  0.930408  1
  O  O44  1  0.983109  0.267232  0.070931  1
  O  O45  1  0.989797  0.262652  0.743774  1
  O  O46  1  0.998802  0.251423  0.401720  1
  O  O47  1  0.001198  0.751423  0.598280  1
  O  O48  1  0.010203  0.762652  0.256226  1
  O  O49  1  0.016891  0.767232  0.929069  1
  O  O50  1  0.022557  0.770788  0.745061  1
  O  O51  1  0.013790  0.755751  0.069592  1
  O  O52  1  0.000633  0.752354  0.401746  1
  O  O53  1  0.292004  0.497921  0.673699  1
  O  O54  1  0.298346  0.497084  0.001594  1
  O  O55  1  0.287010  0.497677  0.327154  1
