# generated using pymatgen
data_Fe3P2H3O11
_symmetry_space_group_name_H-M   'P 1'
_cell_length_a   8.13736115
_cell_length_b   9.61858781
_cell_length_c   9.89886819
_cell_angle_alpha   90.00000000
_cell_angle_beta   90.00000000
_cell_angle_gamma   90.00000000
_symmetry_Int_Tables_number   1
_chemical_formula_structural   Fe3P2H3O11
_chemical_formula_sum   'Fe12 P8 H12 O44'
_cell_volume   774.78364867
_cell_formula_units_Z   4
loop_
 _symmetry_equiv_pos_site_id
 _symmetry_equiv_pos_as_xyz
  1  'x, y, z'
loop_
 _atom_site_type_symbol
 _atom_site_label
 _atom_site_symmetry_multiplicity
 _atom_site_fract_x
 _atom_site_fract_y
 _atom_site_fract_z
 _atom_site_occupancy
  Fe  Fe0  1  0.000000  0.000000  0.000000  1
  Fe  Fe1  1  0.500000  0.500000  0.000000  1
  Fe  Fe2  1  0.000000  0.000000  0.500000  1
  Fe  Fe3  1  0.500000  0.500000  0.500000  1
  Fe  Fe4  1  0.637033  0.049344  0.112411  1
  Fe  Fe5  1  0.137033  0.450656  0.887589  1
  Fe  Fe6  1  0.362967  0.049344  0.387589  1
  Fe  Fe7  1  0.862967  0.450656  0.612411  1
  Fe  Fe8  1  0.362967  0.950656  0.887589  1
  Fe  Fe9  1  0.862967  0.549344  0.112411  1
  Fe  Fe10  1  0.637033  0.950656  0.612411  1
  Fe  Fe11  1  0.137033  0.549344  0.387589  1
  P  P12  1  0.285788  0.208693  0.104983  1
  P  P13  1  0.785788  0.291307  0.895017  1
  P  P14  1  0.714212  0.208693  0.395017  1
  P  P15  1  0.214212  0.291307  0.604983  1
  P  P16  1  0.714212  0.791307  0.895017  1
  P  P17  1  0.214212  0.708693  0.104983  1
  P  P18  1  0.285788  0.791307  0.604983  1
  P  P19  1  0.785788  0.708693  0.395017  1
  H  H20  1  0.500000  0.847328  0.250000  1
  H  H21  1  0.000000  0.652672  0.750000  1
  H  H22  1  0.500000  0.152672  0.750000  1
  H  H23  1  0.000000  0.347328  0.250000  1
  H  H24  1  0.155461  0.870220  0.310650  1
  H  H25  1  0.655461  0.629780  0.689350  1
  H  H26  1  0.844539  0.870220  0.189350  1
  H  H27  1  0.344539  0.629780  0.810650  1
  H  H28  1  0.844539  0.129780  0.689350  1
  H  H29  1  0.344539  0.370220  0.310650  1
  H  H30  1  0.155461  0.129780  0.810650  1
  H  H31  1  0.655461  0.370220  0.189350  1
  O  O32  1  0.332011  0.211603  0.257539  1
  O  O33  1  0.832011  0.288397  0.742461  1
  O  O34  1  0.667989  0.211603  0.242461  1
  O  O35  1  0.167989  0.288397  0.757539  1
  O  O36  1  0.667989  0.788397  0.742461  1
  O  O37  1  0.167989  0.711603  0.257539  1
  O  O38  1  0.332011  0.788397  0.757539  1
  O  O39  1  0.832011  0.711603  0.242461  1
  O  O40  1  0.413940  0.112172  0.030060  1
  O  O41  1  0.913940  0.387828  0.969940  1
  O  O42  1  0.586060  0.112172  0.469940  1
  O  O43  1  0.086060  0.387828  0.530060  1
  O  O44  1  0.586060  0.887828  0.969940  1
  O  O45  1  0.086060  0.612172  0.030060  1
  O  O46  1  0.413940  0.887828  0.530060  1
  O  O47  1  0.913940  0.612172  0.469940  1
  O  O48  1  0.297480  0.358414  0.043397  1
  O  O49  1  0.797480  0.141586  0.956603  1
  O  O50  1  0.702520  0.358414  0.456603  1
  O  O51  1  0.202520  0.141586  0.543397  1
  O  O52  1  0.702520  0.641586  0.956603  1
  O  O53  1  0.202520  0.858414  0.043397  1
  O  O54  1  0.297480  0.641586  0.543397  1
  O  O55  1  0.797480  0.858414  0.456603  1
  O  O56  1  0.110163  0.156876  0.089128  1
  O  O57  1  0.610163  0.343124  0.910872  1
  O  O58  1  0.889837  0.156876  0.410872  1
  O  O59  1  0.389837  0.343124  0.589128  1
  O  O60  1  0.889837  0.843124  0.910872  1
  O  O61  1  0.389837  0.656876  0.089128  1
  O  O62  1  0.110163  0.843124  0.589128  1
  O  O63  1  0.610163  0.656876  0.410872  1
  O  O64  1  0.500000  0.948962  0.250000  1
  O  O65  1  0.000000  0.551038  0.750000  1
  O  O66  1  0.500000  0.051038  0.750000  1
  O  O67  1  0.000000  0.448962  0.250000  1
  O  O68  1  0.151567  0.967760  0.345523  1
  O  O69  1  0.651567  0.532240  0.654477  1
  O  O70  1  0.848433  0.967760  0.154477  1
  O  O71  1  0.348433  0.532240  0.845523  1
  O  O72  1  0.848433  0.032240  0.654477  1
  O  O73  1  0.348433  0.467760  0.345523  1
  O  O74  1  0.151567  0.032240  0.845523  1
  O  O75  1  0.651567  0.467760  0.154477  1
