# generated using pymatgen
data_Sb2P4H3O16
_symmetry_space_group_name_H-M   'P 1'
_cell_length_a   5.00506103
_cell_length_b   7.65471452
_cell_length_c   8.10931439
_cell_angle_alpha   91.28653058
_cell_angle_beta   91.92512386
_cell_angle_gamma   102.49542479
_symmetry_Int_Tables_number   1
_chemical_formula_structural   Sb2P4H3O16
_chemical_formula_sum   'Sb2 P4 H3 O16'
_cell_volume   303.01558762
_cell_formula_units_Z   1
loop_
 _symmetry_equiv_pos_site_id
 _symmetry_equiv_pos_as_xyz
  1  'x, y, z'
loop_
 _atom_site_type_symbol
 _atom_site_label
 _atom_site_symmetry_multiplicity
 _atom_site_fract_x
 _atom_site_fract_y
 _atom_site_fract_z
 _atom_site_occupancy
  Sb  Sb0  1  0.999234  0.496924  0.004216  1
  Sb  Sb1  1  0.502412  0.004019  0.498695  1
  P  P2  1  0.120582  0.255674  0.670457  1
  P  P3  1  0.383915  0.240621  0.152074  1
  P  P4  1  0.609858  0.751409  0.847435  1
  P  P5  1  0.883131  0.748613  0.330583  1
  H  H6  1  0.939398  0.971203  0.987174  1
  H  H7  1  0.440669  0.420830  0.554618  1
  H  H8  1  0.543033  0.568167  0.410087  1
  O  O9  1  0.117865  0.834054  0.449821  1
  O  O10  1  0.008830  0.301320  0.837703  1
  O  O11  1  0.213811  0.396529  0.172621  1
  O  O12  1  0.267102  0.439834  0.595098  1
  O  O13  1  0.344484  0.655383  0.927310  1
  O  O14  1  0.556689  0.800158  0.668597  1
  O  O15  1  0.231942  0.078742  0.056956  1
  O  O16  1  0.336013  0.140453  0.693328  1
  O  O17  1  0.665273  0.861822  0.306744  1
  O  O18  1  0.737572  0.919565  0.955102  1
  O  O19  1  0.454014  0.208632  0.337009  1
  O  O20  1  0.654406  0.336493  0.069509  1
  O  O21  1  0.737225  0.565739  0.409444  1
  O  O22  1  0.804767  0.614374  0.835125  1
  O  O23  1  0.989176  0.701744  0.161250  1
  O  O24  1  0.887477  0.169597  0.549145  1
