# generated using pymatgen
data_La10Bi8O27
_symmetry_space_group_name_H-M   'P 1'
_cell_length_a   8.19940862
_cell_length_b   10.58311508
_cell_length_c   10.60182354
_cell_angle_alpha   69.45627716
_cell_angle_beta   78.77228202
_cell_angle_gamma   78.76750075
_symmetry_Int_Tables_number   1
_chemical_formula_structural   La10Bi8O27
_chemical_formula_sum   'La10 Bi8 O27'
_cell_volume   836.93467319
_cell_formula_units_Z   1
loop_
 _symmetry_equiv_pos_site_id
 _symmetry_equiv_pos_as_xyz
  1  'x, y, z'
loop_
 _atom_site_type_symbol
 _atom_site_label
 _atom_site_symmetry_multiplicity
 _atom_site_fract_x
 _atom_site_fract_y
 _atom_site_fract_z
 _atom_site_occupancy
  La  La0  1  0.835674  0.665171  0.990248  1
  La  La1  1  0.161155  0.016452  0.335011  1
  La  La2  1  0.339373  0.670092  0.974512  1
  La  La3  1  0.663209  0.017916  0.330879  1
  La  La4  1  0.001713  0.009297  0.987574  1
  La  La5  1  0.499804  0.007146  0.990018  1
  La  La6  1  0.835867  0.978013  0.668790  1
  La  La7  1  0.336972  0.010043  0.658411  1
  La  La8  1  0.664477  0.338396  0.991453  1
  La  La9  1  0.164083  0.330022  0.021016  1
  Bi  Bi10  1  0.500683  0.318617  0.681951  1
  Bi  Bi11  1  0.999560  0.317974  0.681785  1
  Bi  Bi12  1  0.163783  0.677712  0.675772  1
  Bi  Bi13  1  0.662621  0.674398  0.674185  1
  Bi  Bi14  1  0.340758  0.325637  0.323501  1
  Bi  Bi15  1  0.833311  0.323339  0.322645  1
  Bi  Bi16  1  0.503007  0.676530  0.314195  1
  Bi  Bi17  1  0.001822  0.675082  0.313758  1
  O  O18  1  0.012428  0.104053  0.728228  1
  O  O19  1  0.429571  0.268900  0.895838  1
  O  O20  1  0.989181  0.269786  0.895450  1
  O  O21  1  0.570321  0.104529  0.729741  1
  O  O22  1  0.127739  0.583021  0.894917  1
  O  O23  1  0.370859  0.105590  0.403789  1
  O  O24  1  0.872105  0.100340  0.414425  1
  O  O25  1  0.631697  0.594994  0.893903  1
  O  O26  1  0.717687  0.398737  0.729089  1
  O  O27  1  0.282440  0.276589  0.597448  1
  O  O28  1  0.794127  0.901725  0.919780  1
  O  O29  1  0.887732  0.729137  0.731833  1
  O  O30  1  0.384218  0.729629  0.728841  1
  O  O31  1  0.205648  0.077842  0.098387  1
  O  O32  1  0.294651  0.923643  0.899222  1
  O  O33  1  0.706990  0.094220  0.079919  1
  O  O34  1  0.615969  0.267142  0.267737  1
  O  O35  1  0.113423  0.269945  0.270536  1
  O  O36  1  0.767164  0.617047  0.313036  1
  O  O37  1  0.135152  0.896670  0.583906  1
  O  O38  1  0.377111  0.419246  0.093594  1
  O  O39  1  0.622669  0.904689  0.582775  1
  O  O40  1  0.865103  0.414550  0.103300  1
  O  O41  1  0.464674  0.881081  0.295280  1
  O  O42  1  0.947383  0.879356  0.296795  1
  O  O43  1  0.060741  0.719440  0.104926  1
  O  O44  1  0.525499  0.721814  0.105450  1
