# generated using pymatgen
data_Na3IO
_symmetry_space_group_name_H-M   'P 1'
_cell_length_a   6.79788907
_cell_length_b   6.79788907
_cell_length_c   16.58140295
_cell_angle_alpha   90.00000000
_cell_angle_beta   90.00000000
_cell_angle_gamma   120.00000000
_symmetry_Int_Tables_number   1
_chemical_formula_structural   Na3IO
_chemical_formula_sum   'Na18 I6 O6'
_cell_volume   663.59033422
_cell_formula_units_Z   6
loop_
 _symmetry_equiv_pos_site_id
 _symmetry_equiv_pos_as_xyz
  1  'x, y, z'
loop_
 _atom_site_type_symbol
 _atom_site_label
 _atom_site_symmetry_multiplicity
 _atom_site_fract_x
 _atom_site_fract_y
 _atom_site_fract_z
 _atom_site_occupancy
  Na  Na0  1  0.166406  0.833594  0.920905  1
  Na  Na1  1  0.166406  0.833594  0.579095  1
  Na  Na2  1  0.057278  0.528639  0.750000  1
  Na  Na3  1  0.166406  0.332813  0.579095  1
  Na  Na4  1  0.166406  0.332813  0.920905  1
  Na  Na5  1  0.471361  0.942722  0.750000  1
  Na  Na6  1  0.471361  0.528639  0.750000  1
  Na  Na7  1  0.332813  0.166406  0.079095  1
  Na  Na8  1  0.332813  0.166406  0.420905  1
  Na  Na9  1  0.667187  0.833594  0.920905  1
  Na  Na10  1  0.667187  0.833594  0.579095  1
  Na  Na11  1  0.528639  0.471361  0.250000  1
  Na  Na12  1  0.528639  0.057278  0.250000  1
  Na  Na13  1  0.833594  0.667187  0.079095  1
  Na  Na14  1  0.833594  0.667187  0.420905  1
  Na  Na15  1  0.942722  0.471361  0.250000  1
  Na  Na16  1  0.833594  0.166406  0.079095  1
  Na  Na17  1  0.833594  0.166406  0.420905  1
  I  I18  1  0.333333  0.666667  0.099463  1
  I  I19  1  0.000000  0.000000  0.250000  1
  I  I20  1  0.333333  0.666667  0.400537  1
  I  I21  1  0.000000  0.000000  0.750000  1
  I  I22  1  0.666667  0.333333  0.599463  1
  I  I23  1  0.666667  0.333333  0.900537  1
  O  O24  1  0.333333  0.666667  0.850537  1
  O  O25  1  0.000000  0.000000  0.000000  1
  O  O26  1  0.000000  0.000000  0.500000  1
  O  O27  1  0.333333  0.666667  0.649463  1
  O  O28  1  0.666667  0.333333  0.350537  1
  O  O29  1  0.666667  0.333333  0.149463  1
