# generated using pymatgen
data_YSeO3
_symmetry_space_group_name_H-M   'P 1'
_cell_length_a   6.03688415
_cell_length_b   12.49395968
_cell_length_c   8.87688846
_cell_angle_alpha   90.00000000
_cell_angle_beta   106.30649565
_cell_angle_gamma   90.00000000
_symmetry_Int_Tables_number   1
_chemical_formula_structural   YSeO3
_chemical_formula_sum   'Y8 Se8 O24'
_cell_volume   642.60254944
_cell_formula_units_Z   8
loop_
 _symmetry_equiv_pos_site_id
 _symmetry_equiv_pos_as_xyz
  1  'x, y, z'
loop_
 _atom_site_type_symbol
 _atom_site_label
 _atom_site_symmetry_multiplicity
 _atom_site_fract_x
 _atom_site_fract_y
 _atom_site_fract_z
 _atom_site_occupancy
  Y  Y0  1  0.238632  0.559076  0.912500  1
  Y  Y1  1  0.238632  0.940924  0.412500  1
  Y  Y2  1  0.364450  0.240783  0.856877  1
  Y  Y3  1  0.364450  0.259217  0.356877  1
  Y  Y4  1  0.635550  0.740783  0.643123  1
  Y  Y5  1  0.635550  0.759217  0.143123  1
  Y  Y6  1  0.761368  0.059076  0.587500  1
  Y  Y7  1  0.761368  0.440924  0.087500  1
  Se  Se8  1  0.043653  0.840234  0.001815  1
  Se  Se9  1  0.043653  0.659766  0.501815  1
  Se  Se10  1  0.373762  0.984846  0.824443  1
  Se  Se11  1  0.373762  0.515154  0.324443  1
  Se  Se12  1  0.626238  0.484846  0.675557  1
  Se  Se13  1  0.626238  0.015154  0.175557  1
  Se  Se14  1  0.956347  0.340234  0.498185  1
  Se  Se15  1  0.956347  0.159766  0.998185  1
  O  O16  1  0.985340  0.171115  0.810243  1
  O  O17  1  0.985340  0.328885  0.310243  1
  O  O18  1  0.134913  0.981456  0.648462  1
  O  O19  1  0.212511  0.270774  0.587420  1
  O  O20  1  0.248923  0.755621  0.498777  1
  O  O21  1  0.134913  0.518544  0.148462  1
  O  O22  1  0.408075  0.404551  0.920399  1
  O  O23  1  0.212511  0.229226  0.087420  1
  O  O24  1  0.248923  0.744379  0.998777  1
  O  O25  1  0.448353  0.591934  0.717400  1
  O  O26  1  0.408075  0.095449  0.420399  1
  O  O27  1  0.551647  0.091934  0.782600  1
  O  O28  1  0.448353  0.908066  0.217400  1
  O  O29  1  0.591925  0.904551  0.579601  1
  O  O30  1  0.551647  0.408066  0.282600  1
  O  O31  1  0.751077  0.255621  0.001223  1
  O  O32  1  0.787489  0.770774  0.912580  1
  O  O33  1  0.591925  0.595449  0.079601  1
  O  O34  1  0.865087  0.481456  0.851538  1
  O  O35  1  0.751077  0.244379  0.501223  1
  O  O36  1  0.787489  0.729226  0.412580  1
  O  O37  1  0.865087  0.018544  0.351538  1
  O  O38  1  0.014660  0.671115  0.689757  1
  O  O39  1  0.014660  0.828885  0.189757  1
