# generated using pymatgen
data_Na7Li3V10O30
_symmetry_space_group_name_H-M   'P 1'
_cell_length_a   8.02983298
_cell_length_b   11.10118725
_cell_length_c   16.57240768
_cell_angle_alpha   94.01338711
_cell_angle_beta   103.48139650
_cell_angle_gamma   102.48741414
_symmetry_Int_Tables_number   1
_chemical_formula_structural   Na7Li3V10O30
_chemical_formula_sum   'Na14 Li6 V20 O60'
_cell_volume   1391.26321481
_cell_formula_units_Z   2
loop_
 _symmetry_equiv_pos_site_id
 _symmetry_equiv_pos_as_xyz
  1  'x, y, z'
loop_
 _atom_site_type_symbol
 _atom_site_label
 _atom_site_symmetry_multiplicity
 _atom_site_fract_x
 _atom_site_fract_y
 _atom_site_fract_z
 _atom_site_occupancy
  Na  Na0  1  0.099647  0.150169  0.032747  1
  Na  Na1  1  0.276745  0.473217  0.092282  1
  Na  Na2  1  0.923421  0.326813  0.307595  1
  Na  Na3  1  0.323013  0.926957  0.107642  1
  Na  Na4  1  0.700454  0.549730  0.234039  1
  Na  Na5  1  0.876747  0.873258  0.292254  1
  Na  Na6  1  0.478220  0.273535  0.493475  1
  Na  Na7  1  0.522628  0.726573  0.507874  1
  Na  Na8  1  0.299464  0.950541  0.433633  1
  Na  Na9  1  0.121996  0.128775  0.707141  1
  Na  Na10  1  0.076300  0.671374  0.691651  1
  Na  Na11  1  0.676920  0.073539  0.892036  1
  Na  Na12  1  0.723092  0.526854  0.907780  1
  Na  Na13  1  0.500633  0.749324  0.832946  1
  Li  Li14  1  0.504385  0.245573  0.168143  1
  Li  Li15  1  0.104677  0.645672  0.368344  1
  Li  Li16  1  0.705743  0.047804  0.568672  1
  Li  Li17  1  0.897053  0.352826  0.632413  1
  Li  Li18  1  0.301455  0.444626  0.767015  1
  Li  Li19  1  0.904376  0.845570  0.968053  1
  V  V20  1  0.732538  0.011436  0.105251  1
  V  V21  1  0.861506  0.388066  0.094751  1
  V  V22  1  0.546603  0.703602  0.041295  1
  V  V23  1  0.146733  0.103809  0.241263  1
  V  V24  1  0.656232  0.099756  0.357956  1
  V  V25  1  0.056377  0.699638  0.157754  1
  V  V26  1  0.333845  0.411409  0.305967  1
  V  V27  1  0.461631  0.788137  0.294847  1
  V  V28  1  0.748585  0.501929  0.444276  1
  V  V29  1  0.932554  0.811566  0.505278  1
  V  V30  1  0.060056  0.190588  0.496168  1
  V  V31  1  0.253244  0.498281  0.558393  1
  V  V32  1  0.535815  0.212630  0.704691  1
  V  V33  1  0.664319  0.584612  0.693546  1
  V  V34  1  0.945230  0.304512  0.838816  1
  V  V35  1  0.346793  0.904002  0.641156  1
  V  V36  1  0.856385  0.898373  0.757425  1
  V  V37  1  0.456059  0.299680  0.957571  1
  V  V38  1  0.132733  0.611367  0.905092  1
  V  V39  1  0.261479  0.987959  0.894714  1
  O  O40  1  0.815969  0.015551  0.020758  1
  O  O41  1  0.986659  0.546618  0.095680  1
  O  O42  1  0.588695  0.101124  0.101046  1
  O  O43  1  0.367687  0.301079  0.040355  1
  O  O44  1  0.906916  0.060007  0.202127  1
  O  O45  1  0.306857  0.659756  0.002123  1
  O  O46  1  0.592000  0.592221  0.098825  1
  O  O47  1  0.768791  0.371640  0.176114  1
  O  O48  1  0.608031  0.853824  0.107078  1
  O  O49  1  0.967674  0.700763  0.240499  1
  O  O50  1  0.252304  0.107537  0.164229  1
  O  O51  1  0.011685  0.303981  0.102323  1
  O  O52  1  0.416205  0.415415  0.221206  1
  O  O53  1  0.003645  0.806447  0.096541  1
  O  O54  1  0.604027  0.206616  0.296670  1
  O  O55  1  0.895917  0.142455  0.395293  1
  O  O56  1  0.296354  0.741782  0.194393  1
  O  O57  1  0.852874  0.504632  0.366672  1
  O  O58  1  0.611700  0.704111  0.302300  1
  O  O59  1  0.586809  0.946692  0.295797  1
  O  O60  1  0.208225  0.253969  0.307010  1
  O  O61  1  0.190029  0.501229  0.301652  1
  O  O62  1  0.567035  0.101123  0.440469  1
  O  O63  1  0.509121  0.457886  0.403136  1
  O  O64  1  0.191968  0.992337  0.298821  1
  O  O65  1  0.796998  0.394538  0.505626  1
  O  O66  1  0.368589  0.771460  0.376097  1
  O  O67  1  0.967040  0.181328  0.577772  1
  O  O68  1  0.807384  0.654052  0.507141  1
  O  O69  1  0.789445  0.901742  0.501246  1
  O  O70  1  0.208174  0.104599  0.504675  1
  O  O71  1  0.188119  0.347107  0.494644  1
  O  O72  1  0.627098  0.221007  0.622581  1
  O  O73  1  0.016015  0.815149  0.420822  1
  O  O74  1  0.202444  0.605943  0.497489  1
  O  O75  1  0.803389  0.005014  0.696157  1
  O  O76  1  0.493710  0.541573  0.595126  1
  O  O77  1  0.452206  0.907475  0.564136  1
  O  O78  1  0.810562  0.497251  0.696809  1
  O  O79  1  0.788552  0.744206  0.696020  1
  O  O80  1  0.410150  0.054722  0.706015  1
  O  O81  1  0.390723  0.301429  0.700309  1
  O  O82  1  0.157568  0.494377  0.639029  1
  O  O83  1  0.705274  0.259770  0.803143  1
  O  O84  1  0.106914  0.859978  0.602037  1
  O  O85  1  0.391532  0.792210  0.698810  1
  O  O86  1  0.994563  0.193604  0.896197  1
  O  O87  1  0.573372  0.569363  0.775537  1
  O  O88  1  0.988590  0.700874  0.900909  1
  O  O89  1  0.767900  0.900622  0.840176  1
  O  O90  1  0.042492  0.309419  0.758623  1
  O  O91  1  0.386555  0.146594  0.895763  1
  O  O92  1  0.216377  0.615479  0.820678  1
  O  O93  1  0.402662  0.406120  0.896064  1
  O  O94  1  0.096278  0.941602  0.794328  1
  O  O95  1  0.696180  0.341825  0.994405  1
  O  O96  1  0.652228  0.707433  0.964224  1
  O  O97  1  0.411714  0.904006  0.902331  1
  O  O98  1  0.007877  0.453795  0.906040  1
  O  O99  1  0.168471  0.971459  0.975976  1
