# generated using pymatgen
data_Li4VCr3O8
_symmetry_space_group_name_H-M   'P 1'
_cell_length_a   5.13407093
_cell_length_b   7.86984700
_cell_length_c   7.87012594
_cell_angle_alpha   82.08116031
_cell_angle_beta   83.68505013
_cell_angle_gamma   70.98362438
_symmetry_Int_Tables_number   1
_chemical_formula_structural   Li4VCr3O8
_chemical_formula_sum   'Li8 V2 Cr6 O16'
_cell_volume   297.04605663
_cell_formula_units_Z   2
loop_
 _symmetry_equiv_pos_site_id
 _symmetry_equiv_pos_as_xyz
  1  'x, y, z'
loop_
 _atom_site_type_symbol
 _atom_site_label
 _atom_site_symmetry_multiplicity
 _atom_site_fract_x
 _atom_site_fract_y
 _atom_site_fract_z
 _atom_site_occupancy
  Li  Li0  1  0.501147  0.561760  0.812912  1
  Li  Li1  1  0.500896  0.311989  0.562355  1
  Li  Li2  1  0.498853  0.438240  0.187088  1
  Li  Li3  1  0.500927  0.938078  0.686170  1
  Li  Li4  1  0.499073  0.061922  0.313830  1
  Li  Li5  1  0.497737  0.190601  0.934970  1
  Li  Li6  1  0.499104  0.688011  0.437645  1
  Li  Li7  1  0.502263  0.809399  0.065030  1
  V  V8  1  0.000004  0.123474  0.123511  1
  V  V9  1  0.999996  0.876526  0.876489  1
  Cr  Cr10  1  0.999987  0.251825  0.748092  1
  Cr  Cr11  1  0.999980  0.374545  0.374459  1
  Cr  Cr12  1  0.000000  0.500000  0.000000  1
  Cr  Cr13  1  0.000000  0.000000  0.500000  1
  Cr  Cr14  1  0.000020  0.625455  0.625541  1
  Cr  Cr15  1  0.000013  0.748175  0.251908  1
  O  O16  1  0.224916  0.413305  0.781526  1
  O  O17  1  0.775367  0.464174  0.591942  1
  O  O18  1  0.224633  0.535826  0.408058  1
  O  O19  1  0.772917  0.092118  0.716226  1
  O  O20  1  0.225392  0.162101  0.530353  1
  O  O21  1  0.225429  0.286520  0.155868  1
  O  O22  1  0.774652  0.212259  0.342668  1
  O  O23  1  0.225348  0.787741  0.657332  1
  O  O24  1  0.227083  0.907882  0.283774  1
  O  O25  1  0.772766  0.340285  0.964745  1
  O  O26  1  0.774608  0.837899  0.469647  1
  O  O27  1  0.231088  0.037989  0.904198  1
  O  O28  1  0.768912  0.962011  0.095802  1
  O  O29  1  0.227234  0.659715  0.035255  1
  O  O30  1  0.775084  0.586695  0.218474  1
  O  O31  1  0.774571  0.713480  0.844132  1
