# generated using pymatgen
data_Li11V12(CoO8)4
_symmetry_space_group_name_H-M   'P 1'
_cell_length_a   8.33053999
_cell_length_b   8.33053999
_cell_length_c   8.41712544
_cell_angle_alpha   89.86198817
_cell_angle_beta   90.13801183
_cell_angle_gamma   89.99560584
_symmetry_Int_Tables_number   1
_chemical_formula_structural   Li11V12(CoO8)4
_chemical_formula_sum   'Li11 V12 Co4 O32'
_cell_volume   584.12740849
_cell_formula_units_Z   1
loop_
 _symmetry_equiv_pos_site_id
 _symmetry_equiv_pos_as_xyz
  1  'x, y, z'
loop_
 _atom_site_type_symbol
 _atom_site_label
 _atom_site_symmetry_multiplicity
 _atom_site_fract_x
 _atom_site_fract_y
 _atom_site_fract_z
 _atom_site_occupancy
  Li  Li0  1  0.874111  0.874111  0.500000  1
  Li  Li1  1  0.241332  0.497864  0.627154  1
  Li  Li2  1  0.881830  0.125463  0.744213  1
  Li  Li3  1  0.628610  0.870397  0.744590  1
  Li  Li4  1  0.873223  0.378654  0.992653  1
  Li  Li5  1  0.131761  0.131761  0.000000  1
  Li  Li6  1  0.618149  0.618149  0.000000  1
  Li  Li7  1  0.378654  0.873223  0.007347  1
  Li  Li8  1  0.870397  0.628610  0.255410  1
  Li  Li9  1  0.125463  0.881830  0.255787  1
  Li  Li10  1  0.497864  0.241332  0.372846  1
  V  V11  1  0.374396  0.878736  0.493620  1
  V  V12  1  0.622452  0.622452  0.500000  1
  V  V13  1  0.878736  0.374396  0.506380  1
  V  V14  1  0.129859  0.865845  0.741537  1
  V  V15  1  0.374785  0.137523  0.738723  1
  V  V16  1  0.626368  0.377151  0.740430  1
  V  V17  1  0.871463  0.871463  0.000000  1
  V  V18  1  0.129328  0.616691  0.995960  1
  V  V19  1  0.616691  0.129328  0.004040  1
  V  V20  1  0.377151  0.626368  0.259570  1
  V  V21  1  0.137523  0.374785  0.261277  1
  V  V22  1  0.865845  0.129859  0.258463  1
  Co  Co23  1  0.127287  0.127287  0.500000  1
  Co  Co24  1  0.879923  0.623590  0.745461  1
  Co  Co25  1  0.375826  0.375826  0.000000  1
  Co  Co26  1  0.623590  0.879923  0.254539  1
  O  O27  1  0.895527  0.137839  0.503365  1
  O  O28  1  0.116661  0.359620  0.490759  1
  O  O29  1  0.380370  0.638427  0.495910  1
  O  O30  1  0.616071  0.861364  0.489309  1
  O  O31  1  0.861364  0.616071  0.510691  1
  O  O32  1  0.638427  0.380370  0.504090  1
  O  O33  1  0.359620  0.116661  0.509241  1
  O  O34  1  0.137839  0.895527  0.496635  1
  O  O35  1  0.873734  0.385811  0.731666  1
  O  O36  1  0.648461  0.615475  0.746188  1
  O  O37  1  0.375079  0.893242  0.729832  1
  O  O38  1  0.137070  0.107565  0.734334  1
  O  O39  1  0.378354  0.355667  0.756024  1
  O  O40  1  0.615877  0.130706  0.762891  1
  O  O41  1  0.886635  0.860735  0.752384  1
  O  O42  1  0.115380  0.629690  0.764649  1
  O  O43  1  0.627448  0.361254  0.981860  1
  O  O44  1  0.389232  0.117384  0.980745  1
  O  O45  1  0.116601  0.858891  0.996011  1
  O  O46  1  0.884722  0.631137  0.982016  1
  O  O47  1  0.631137  0.884722  0.017984  1
  O  O48  1  0.858891  0.116601  0.003989  1
  O  O49  1  0.117384  0.389232  0.019255  1
  O  O50  1  0.361254  0.627448  0.018140  1
  O  O51  1  0.629690  0.115380  0.235351  1
  O  O52  1  0.860735  0.886635  0.247616  1
  O  O53  1  0.130706  0.615877  0.237109  1
  O  O54  1  0.355667  0.378354  0.243976  1
  O  O55  1  0.107565  0.137070  0.265666  1
  O  O56  1  0.893242  0.375079  0.270168  1
  O  O57  1  0.615475  0.648461  0.253812  1
  O  O58  1  0.385811  0.873734  0.268334  1
