# generated using pymatgen
data_CdSeO4
_symmetry_space_group_name_H-M   'P 1'
_cell_length_a   6.71796085
_cell_length_b   7.18139110
_cell_length_c   8.32914249
_cell_angle_alpha   90.00000000
_cell_angle_beta   127.06946487
_cell_angle_gamma   90.00000000
_symmetry_Int_Tables_number   1
_chemical_formula_structural   CdSeO4
_chemical_formula_sum   'Cd4 Se4 O16'
_cell_volume   320.62522184
_cell_formula_units_Z   4
loop_
 _symmetry_equiv_pos_site_id
 _symmetry_equiv_pos_as_xyz
  1  'x, y, z'
loop_
 _atom_site_type_symbol
 _atom_site_label
 _atom_site_symmetry_multiplicity
 _atom_site_fract_x
 _atom_site_fract_y
 _atom_site_fract_z
 _atom_site_occupancy
  Cd  Cd0  1  0.809625  0.855556  0.220290  1
  Cd  Cd1  1  0.190375  0.355556  0.279710  1
  Cd  Cd2  1  0.809625  0.644444  0.720290  1
  Cd  Cd3  1  0.190375  0.144444  0.779710  1
  Se  Se4  1  0.309907  0.835982  0.196233  1
  Se  Se5  1  0.690093  0.335982  0.303767  1
  Se  Se6  1  0.309907  0.664018  0.696233  1
  Se  Se7  1  0.690093  0.164018  0.803767  1
  O  O8  1  0.347618  0.898399  0.021830  1
  O  O9  1  0.118486  0.650137  0.103651  1
  O  O10  1  0.392228  0.291495  0.108994  1
  O  O11  1  0.831850  0.495551  0.255333  1
  O  O12  1  0.607772  0.791495  0.391006  1
  O  O13  1  0.168150  0.995551  0.244667  1
  O  O14  1  0.881514  0.150137  0.396349  1
  O  O15  1  0.652382  0.398399  0.478170  1
  O  O16  1  0.347618  0.601601  0.521830  1
  O  O17  1  0.118486  0.849863  0.603651  1
  O  O18  1  0.831850  0.004449  0.755333  1
  O  O19  1  0.392228  0.208505  0.608994  1
  O  O20  1  0.168150  0.504449  0.744667  1
  O  O21  1  0.607772  0.708505  0.891006  1
  O  O22  1  0.881514  0.349863  0.896349  1
  O  O23  1  0.652382  0.101601  0.978170  1
