# generated using pymatgen
data_LiV(PO4)2
_symmetry_space_group_name_H-M   'P 1'
_cell_length_a   4.74191077
_cell_length_b   4.74191077
_cell_length_c   6.68144097
_cell_angle_alpha   87.06012064
_cell_angle_beta   92.93987936
_cell_angle_gamma   112.89445341
_symmetry_Int_Tables_number   1
_chemical_formula_structural   LiV(PO4)2
_chemical_formula_sum   'Li1 V1 P2 O8'
_cell_volume   138.13944127
_cell_formula_units_Z   1
loop_
 _symmetry_equiv_pos_site_id
 _symmetry_equiv_pos_as_xyz
  1  'x, y, z'
loop_
 _atom_site_type_symbol
 _atom_site_label
 _atom_site_symmetry_multiplicity
 _atom_site_fract_x
 _atom_site_fract_y
 _atom_site_fract_z
 _atom_site_occupancy
  Li  Li0  1  0.500000  0.500000  0.000000  1
  V  V1  1  0.500000  0.500000  0.500000  1
  P  P2  1  0.155653  0.844347  0.735519  1
  P  P3  1  0.844347  0.155653  0.264481  1
  O  O4  1  0.748745  0.251255  0.063672  1
  O  O5  1  0.725836  0.274164  0.443525  1
  O  O6  1  0.280030  0.201861  0.702303  1
  O  O7  1  0.798139  0.719970  0.702303  1
  O  O8  1  0.201861  0.280030  0.297697  1
  O  O9  1  0.719970  0.798139  0.297697  1
  O  O10  1  0.274164  0.725836  0.556475  1
  O  O11  1  0.251255  0.748745  0.936328  1
