# generated using pymatgen
data_Cs4HfO4
_symmetry_space_group_name_H-M   'P 1'
_cell_length_a   11.89942597
_cell_length_b   7.46516521
_cell_length_c   11.97602197
_cell_angle_alpha   90.00000000
_cell_angle_beta   111.81066157
_cell_angle_gamma   90.00000000
_symmetry_Int_Tables_number   1
_chemical_formula_structural   Cs4HfO4
_chemical_formula_sum   'Cs16 Hf4 O16'
_cell_volume   987.69070297
_cell_formula_units_Z   4
loop_
 _symmetry_equiv_pos_site_id
 _symmetry_equiv_pos_as_xyz
  1  'x, y, z'
loop_
 _atom_site_type_symbol
 _atom_site_label
 _atom_site_symmetry_multiplicity
 _atom_site_fract_x
 _atom_site_fract_y
 _atom_site_fract_z
 _atom_site_occupancy
  Cs  Cs0  1  0.298576  0.588555  0.437524  1
  Cs  Cs1  1  0.415936  0.115713  0.344800  1
  Cs  Cs2  1  0.798576  0.911445  0.437524  1
  Cs  Cs3  1  0.107846  0.339783  0.130946  1
  Cs  Cs4  1  0.915936  0.384287  0.344800  1
  Cs  Cs5  1  0.207803  0.827348  0.074041  1
  Cs  Cs6  1  0.607846  0.160217  0.130946  1
  Cs  Cs7  1  0.292197  0.327348  0.925959  1
  Cs  Cs8  1  0.707803  0.672652  0.074041  1
  Cs  Cs9  1  0.392154  0.839783  0.869054  1
  Cs  Cs10  1  0.792197  0.172652  0.925959  1
  Cs  Cs11  1  0.084064  0.615713  0.655200  1
  Cs  Cs12  1  0.892154  0.660217  0.869054  1
  Cs  Cs13  1  0.201424  0.088555  0.562476  1
  Cs  Cs14  1  0.584064  0.884287  0.655200  1
  Cs  Cs15  1  0.701424  0.411445  0.562476  1
  Hf  Hf16  1  0.008609  0.874911  0.257286  1
  Hf  Hf17  1  0.508609  0.625089  0.257286  1
  Hf  Hf18  1  0.491391  0.374911  0.742714  1
  Hf  Hf19  1  0.991391  0.125089  0.742714  1
  O  O20  1  0.022696  0.768064  0.412662  1
  O  O21  1  0.158490  0.011070  0.282249  1
  O  O22  1  0.522696  0.731936  0.412662  1
  O  O23  1  0.362603  0.471226  0.195892  1
  O  O24  1  0.658490  0.488930  0.282249  1
  O  O25  1  0.490125  0.818646  0.139730  1
  O  O26  1  0.862603  0.028774  0.195892  1
  O  O27  1  0.009875  0.318646  0.860270  1
  O  O28  1  0.990125  0.681354  0.139730  1
  O  O29  1  0.137397  0.971226  0.804108  1
  O  O30  1  0.509875  0.181354  0.860270  1
  O  O31  1  0.341510  0.511070  0.717751  1
  O  O32  1  0.637397  0.528774  0.804108  1
  O  O33  1  0.477304  0.268064  0.587338  1
  O  O34  1  0.841510  0.988930  0.717751  1
  O  O35  1  0.977304  0.231936  0.587338  1
