# generated using pymatgen
data_Rb4LiH3(SO4)4
_symmetry_space_group_name_H-M   'P 1'
_cell_length_a   7.65100304
_cell_length_b   30.62441133
_cell_length_c   7.75927653
_cell_angle_alpha   90.00000000
_cell_angle_beta   91.29874456
_cell_angle_gamma   90.00000000
_symmetry_Int_Tables_number   1
_chemical_formula_structural   Rb4LiH3(SO4)4
_chemical_formula_sum   'Rb16 Li4 H12 S16 O64'
_cell_volume   1817.58936014
_cell_formula_units_Z   4
loop_
 _symmetry_equiv_pos_site_id
 _symmetry_equiv_pos_as_xyz
  1  'x, y, z'
loop_
 _atom_site_type_symbol
 _atom_site_label
 _atom_site_symmetry_multiplicity
 _atom_site_fract_x
 _atom_site_fract_y
 _atom_site_fract_z
 _atom_site_occupancy
  Rb  Rb0  1  0.994929  0.460109  0.242064  1
  Rb  Rb1  1  0.005071  0.960109  0.757936  1
  Rb  Rb2  1  0.979597  0.690618  0.987448  1
  Rb  Rb3  1  0.020403  0.190618  0.012552  1
  Rb  Rb4  1  0.386161  0.805219  0.076124  1
  Rb  Rb5  1  0.613839  0.305219  0.923876  1
  Rb  Rb6  1  0.842897  0.579024  0.611122  1
  Rb  Rb7  1  0.157103  0.079024  0.388878  1
  Rb  Rb8  1  0.275167  0.697980  0.499549  1
  Rb  Rb9  1  0.724833  0.197980  0.500451  1
  Rb  Rb10  1  0.528668  0.943296  0.497344  1
  Rb  Rb11  1  0.471332  0.443296  0.502656  1
  Rb  Rb12  1  0.878576  0.816902  0.366562  1
  Rb  Rb13  1  0.121424  0.316902  0.633438  1
  Rb  Rb14  1  0.548223  0.570000  0.128063  1
  Rb  Rb15  1  0.451777  0.070000  0.871937  1
  Li  Li16  1  0.179367  0.516778  0.864574  1
  Li  Li17  1  0.820633  0.016778  0.135426  1
  Li  Li18  1  0.623565  0.753831  0.733786  1
  Li  Li19  1  0.376435  0.253831  0.266214  1
  H  H20  1  0.275905  0.372537  0.065830  1
  H  H21  1  0.724095  0.872537  0.934170  1
  H  H22  1  0.644365  0.661144  0.252667  1
  H  H23  1  0.355635  0.161144  0.747333  1
  H  H24  1  0.192033  0.606333  0.338140  1
  H  H25  1  0.807967  0.106333  0.661860  1
  H  H26  1  0.228029  0.904947  0.166234  1
  H  H27  1  0.771971  0.404947  0.833766  1
  H  H28  1  0.183697  0.859716  0.693283  1
  H  H29  1  0.816303  0.359716  0.306717  1
  H  H30  1  0.504214  0.496046  0.852205  1
  H  H31  1  0.495786  0.996046  0.147795  1
  S  S32  1  0.912594  0.821340  0.874263  1
  S  S33  1  0.087406  0.321340  0.125737  1
  S  S34  1  0.796441  0.695257  0.464966  1
  S  S35  1  0.203559  0.195257  0.535034  1
  S  S36  1  0.032346  0.572845  0.135562  1
  S  S37  1  0.967654  0.072845  0.864438  1
  S  S38  1  0.963984  0.443125  0.700441  1
  S  S39  1  0.036016  0.943125  0.299559  1
  S  S40  1  0.376313  0.824049  0.544126  1
  S  S41  1  0.623687  0.324049  0.455874  1
  S  S42  1  0.365115  0.563746  0.587111  1
  S  S43  1  0.634885  0.063746  0.412889  1
  S  S44  1  0.501792  0.941733  0.969184  1
  S  S45  1  0.498208  0.441733  0.030816  1
  S  S46  1  0.454414  0.695674  0.008950  1
  S  S47  1  0.545586  0.195674  0.991050  1
  O  O48  1  0.829763  0.793336  0.743407  1
  O  O49  1  0.170237  0.293336  0.256593  1
  O  O50  1  0.757967  0.843288  0.982692  1
  O  O51  1  0.242033  0.343288  0.017308  1
  O  O52  1  0.004776  0.858682  0.796683  1
  O  O53  1  0.995224  0.358682  0.203317  1
  O  O54  1  0.014750  0.797395  0.003297  1
  O  O55  1  0.985250  0.297395  0.996703  1
  O  O56  1  0.646421  0.722329  0.517171  1
  O  O57  1  0.353579  0.222329  0.482829  1
  O  O58  1  0.717900  0.653986  0.371230  1
  O  O59  1  0.282100  0.153986  0.628770  1
  O  O60  1  0.897025  0.677455  0.612823  1
  O  O61  1  0.102975  0.177455  0.387177  1
  O  O62  1  0.907584  0.718633  0.343091  1
  O  O63  1  0.092416  0.218633  0.656909  1
  O  O64  1  0.915968  0.553089  0.261951  1
  O  O65  1  0.084032  0.053089  0.738049  1
  O  O66  1  0.175124  0.542201  0.091327  1
  O  O67  1  0.824876  0.042201  0.908673  1
  O  O68  1  0.121328  0.613950  0.221157  1
  O  O69  1  0.878672  0.113950  0.778843  1
  O  O70  1  0.938802  0.589120  0.981853  1
  O  O71  1  0.061198  0.089120  0.018147  1
  O  O72  1  0.112664  0.427759  0.602136  1
  O  O73  1  0.887336  0.927759  0.397864  1
  O  O74  1  0.829190  0.465310  0.595649  1
  O  O75  1  0.170810  0.965310  0.404351  1
  O  O76  1  0.880801  0.398421  0.768610  1
  O  O77  1  0.119199  0.898421  0.231390  1
  O  O78  1  0.012717  0.468314  0.856394  1
  O  O79  1  0.987283  0.968314  0.143606  1
  O  O80  1  0.428720  0.795152  0.687725  1
  O  O81  1  0.571280  0.295152  0.312275  1
  O  O82  1  0.521938  0.841892  0.447407  1
  O  O83  1  0.478062  0.341892  0.552593  1
  O  O84  1  0.239123  0.804550  0.434321  1
  O  O85  1  0.760877  0.304550  0.565679  1
  O  O86  1  0.295666  0.866913  0.631832  1
  O  O87  1  0.704334  0.366913  0.368168  1
  O  O88  1  0.208201  0.537446  0.636027  1
  O  O89  1  0.791799  0.037446  0.363973  1
  O  O90  1  0.298525  0.604444  0.495008  1
  O  O91  1  0.701475  0.104444  0.504992  1
  O  O92  1  0.475165  0.537978  0.467628  1
  O  O93  1  0.524835  0.037978  0.532372  1
  O  O94  1  0.469160  0.575682  0.743247  1
  O  O95  1  0.530840  0.075682  0.256753  1
  O  O96  1  0.588832  0.728923  0.957905  1
  O  O97  1  0.411168  0.228923  0.042095  1
  O  O98  1  0.590112  0.978181  0.100182  1
  O  O99  1  0.409888  0.478181  0.899818  1
  O  O100  1  0.378855  0.966207  0.861357  1
  O  O101  1  0.621145  0.466207  0.138643  1
  O  O102  1  0.422983  0.909599  0.084120  1
  O  O103  1  0.577017  0.409599  0.915880  1
  O  O104  1  0.651778  0.924064  0.877678  1
  O  O105  1  0.348222  0.424064  0.122322  1
  O  O106  1  0.332906  0.715585  0.133961  1
  O  O107  1  0.667094  0.215585  0.866039  1
  O  O108  1  0.553667  0.658631  0.096546  1
  O  O109  1  0.446333  0.158631  0.903454  1
  O  O110  1  0.356786  0.679035  0.857197  1
  O  O111  1  0.643214  0.179035  0.142803  1
