# generated using pymatgen
data_Na2SbAsCO7
_symmetry_space_group_name_H-M   'P 1'
_cell_length_a   5.50863355
_cell_length_b   7.06393326
_cell_length_c   9.51635582
_cell_angle_alpha   90.00000000
_cell_angle_beta   94.63273794
_cell_angle_gamma   90.00000000
_symmetry_Int_Tables_number   1
_chemical_formula_structural   Na2SbAsCO7
_chemical_formula_sum   'Na4 Sb2 As2 C2 O14'
_cell_volume   369.09650431
_cell_formula_units_Z   2
loop_
 _symmetry_equiv_pos_site_id
 _symmetry_equiv_pos_as_xyz
  1  'x, y, z'
loop_
 _atom_site_type_symbol
 _atom_site_label
 _atom_site_symmetry_multiplicity
 _atom_site_fract_x
 _atom_site_fract_y
 _atom_site_fract_z
 _atom_site_occupancy
  Na  Na0  1  0.235003  0.491688  0.217085  1
  Na  Na1  1  0.235003  0.008312  0.217085  1
  Na  Na2  1  0.764997  0.508312  0.782915  1
  Na  Na3  1  0.764997  0.991688  0.782915  1
  Sb  Sb4  1  0.800935  0.750000  0.361185  1
  Sb  Sb5  1  0.199065  0.250000  0.638815  1
  As  As6  1  0.729045  0.250000  0.395781  1
  As  As7  1  0.270955  0.750000  0.604219  1
  C  C8  1  0.718749  0.750000  0.076517  1
  C  C9  1  0.281251  0.250000  0.923483  1
  O  O10  1  0.275753  0.250000  0.053976  1
  O  O11  1  0.931984  0.750000  0.160127  1
  O  O12  1  0.524384  0.750000  0.146809  1
  O  O13  1  0.863156  0.056144  0.322914  1
  O  O14  1  0.863156  0.443856  0.322914  1
  O  O15  1  0.186621  0.750000  0.420239  1
  O  O16  1  0.422737  0.250000  0.368214  1
  O  O17  1  0.577263  0.750000  0.631786  1
  O  O18  1  0.813379  0.250000  0.579761  1
  O  O19  1  0.136844  0.556144  0.677086  1
  O  O20  1  0.136844  0.943856  0.677086  1
  O  O21  1  0.475616  0.250000  0.853191  1
  O  O22  1  0.068016  0.250000  0.839873  1
  O  O23  1  0.724247  0.750000  0.946024  1
