# generated using pymatgen
data_Na3CuO2
_symmetry_space_group_name_H-M   'P 1'
_cell_length_a   6.64190722
_cell_length_b   6.64190722
_cell_length_c   6.64190722
_cell_angle_alpha   132.58229369
_cell_angle_beta   126.15540355
_cell_angle_gamma   74.53641676
_symmetry_Int_Tables_number   1
_chemical_formula_structural   Na3CuO2
_chemical_formula_sum   'Na6 Cu2 O4'
_cell_volume   169.80831665
_cell_formula_units_Z   2
loop_
 _symmetry_equiv_pos_site_id
 _symmetry_equiv_pos_as_xyz
  1  'x, y, z'
loop_
 _atom_site_type_symbol
 _atom_site_label
 _atom_site_symmetry_multiplicity
 _atom_site_fract_x
 _atom_site_fract_y
 _atom_site_fract_z
 _atom_site_occupancy
  Na  Na0  1  0.012861  0.762861  0.250000  1
  Na  Na1  1  0.750000  0.500000  0.250000  1
  Na  Na2  1  0.250000  0.500000  0.750000  1
  Na  Na3  1  0.512861  0.762861  0.750000  1
  Na  Na4  1  0.987139  0.237139  0.750000  1
  Na  Na5  1  0.487139  0.237139  0.250000  1
  Cu  Cu6  1  0.000000  0.000000  0.000000  1
  Cu  Cu7  1  0.500000  0.000000  0.500000  1
  O  O8  1  0.624270  0.873728  0.249458  1
  O  O9  1  0.124270  0.374812  0.250542  1
  O  O10  1  0.875730  0.625188  0.749458  1
  O  O11  1  0.375730  0.126272  0.750542  1
