# generated using pymatgen
data_Li2V(CO3)2
_symmetry_space_group_name_H-M   'P 1'
_cell_length_a   6.42561619
_cell_length_b   4.89776803
_cell_length_c   8.27133161
_cell_angle_alpha   90.00000000
_cell_angle_beta   105.40651925
_cell_angle_gamma   90.00000000
_symmetry_Int_Tables_number   1
_chemical_formula_structural   Li2V(CO3)2
_chemical_formula_sum   'Li4 V2 C4 O12'
_cell_volume   250.95440533
_cell_formula_units_Z   2
loop_
 _symmetry_equiv_pos_site_id
 _symmetry_equiv_pos_as_xyz
  1  'x, y, z'
loop_
 _atom_site_type_symbol
 _atom_site_label
 _atom_site_symmetry_multiplicity
 _atom_site_fract_x
 _atom_site_fract_y
 _atom_site_fract_z
 _atom_site_occupancy
  Li  Li0  1  0.426306  0.540605  0.067689  1
  Li  Li1  1  0.914181  0.955958  0.295838  1
  Li  Li2  1  0.085819  0.455958  0.704162  1
  Li  Li3  1  0.573694  0.040605  0.932311  1
  V  V4  1  0.276314  0.504861  0.392974  1
  V  V5  1  0.723686  0.004861  0.607026  1
  C  C6  1  0.277640  0.030545  0.153981  1
  C  C7  1  0.753681  0.464210  0.387224  1
  C  C8  1  0.246319  0.964210  0.612776  1
  C  C9  1  0.722360  0.530545  0.846019  1
  O  O10  1  0.382694  0.921208  0.056985  1
  O  O11  1  0.261148  0.295012  0.161058  1
  O  O12  1  0.184777  0.879989  0.243584  1
  O  O13  1  0.925092  0.569427  0.360181  1
  O  O14  1  0.386371  0.124430  0.571345  1
  O  O15  1  0.719405  0.203165  0.371688  1
  O  O16  1  0.280595  0.703165  0.628312  1
  O  O17  1  0.613629  0.624430  0.428655  1
  O  O18  1  0.074908  0.069427  0.639819  1
  O  O19  1  0.815223  0.379989  0.756416  1
  O  O20  1  0.738852  0.795012  0.838942  1
  O  O21  1  0.617306  0.421208  0.943015  1
