# generated using pymatgen
data_Mn3OF8
_symmetry_space_group_name_H-M   'P 1'
_cell_length_a   5.10600798
_cell_length_b   5.10600798
_cell_length_c   13.43074492
_cell_angle_alpha   87.93443975
_cell_angle_beta   92.06556025
_cell_angle_gamma   118.43680174
_symmetry_Int_Tables_number   1
_chemical_formula_structural   Mn3OF8
_chemical_formula_sum   'Mn6 O2 F16'
_cell_volume   307.63716842
_cell_formula_units_Z   2
loop_
 _symmetry_equiv_pos_site_id
 _symmetry_equiv_pos_as_xyz
  1  'x, y, z'
loop_
 _atom_site_type_symbol
 _atom_site_label
 _atom_site_symmetry_multiplicity
 _atom_site_fract_x
 _atom_site_fract_y
 _atom_site_fract_z
 _atom_site_occupancy
  Mn  Mn0  1  0.157838  0.844634  0.329644  1
  Mn  Mn1  1  0.155366  0.842162  0.829644  1
  Mn  Mn2  1  0.842162  0.155366  0.670356  1
  Mn  Mn3  1  0.844634  0.157838  0.170356  1
  Mn  Mn4  1  0.500000  0.500000  0.500000  1
  Mn  Mn5  1  0.500000  0.500000  0.000000  1
  O  O6  1  0.121090  0.121090  0.250000  1
  O  O7  1  0.878910  0.878910  0.750000  1
  F  F8  1  0.104578  0.496001  0.753154  1
  F  F9  1  0.158274  0.427607  0.082738  1
  F  F10  1  0.895422  0.503999  0.246846  1
  F  F11  1  0.770488  0.439681  0.583364  1
  F  F12  1  0.560319  0.229512  0.083364  1
  F  F13  1  0.496001  0.104578  0.746846  1
  F  F14  1  0.829950  0.770731  0.414435  1
  F  F15  1  0.770731  0.829950  0.085565  1
  F  F16  1  0.572393  0.841726  0.582738  1
  F  F17  1  0.503999  0.895422  0.253154  1
  F  F18  1  0.841726  0.572393  0.917262  1
  F  F19  1  0.439681  0.770488  0.916636  1
  F  F20  1  0.229512  0.560319  0.416636  1
  F  F21  1  0.427607  0.158274  0.417262  1
  F  F22  1  0.170050  0.229269  0.585565  1
  F  F23  1  0.229269  0.170050  0.914435  1
