# generated using pymatgen
data_LiMnBO3
_symmetry_space_group_name_H-M   'P 1'
_cell_length_a   5.80161427
_cell_length_b   7.19956305
_cell_length_c   7.71020575
_cell_angle_alpha   90.00000000
_cell_angle_beta   119.95052932
_cell_angle_gamma   90.00000000
_symmetry_Int_Tables_number   1
_chemical_formula_structural   LiMnBO3
_chemical_formula_sum   'Li4 Mn4 B4 O12'
_cell_volume   279.04090359
_cell_formula_units_Z   4
loop_
 _symmetry_equiv_pos_site_id
 _symmetry_equiv_pos_as_xyz
  1  'x, y, z'
loop_
 _atom_site_type_symbol
 _atom_site_label
 _atom_site_symmetry_multiplicity
 _atom_site_fract_x
 _atom_site_fract_y
 _atom_site_fract_z
 _atom_site_occupancy
  Li  Li0  1  0.127535  0.068612  0.904115  1
  Li  Li1  1  0.872465  0.568612  0.595885  1
  Li  Li2  1  0.127535  0.431388  0.404115  1
  Li  Li3  1  0.872465  0.931388  0.095885  1
  Mn  Mn4  1  0.616486  0.275416  0.750818  1
  Mn  Mn5  1  0.383514  0.775416  0.749182  1
  Mn  Mn6  1  0.616486  0.224584  0.250818  1
  Mn  Mn7  1  0.383514  0.724584  0.249182  1
  B  B8  1  0.224391  0.365909  0.814272  1
  B  B9  1  0.775609  0.865909  0.685728  1
  B  B10  1  0.224391  0.134091  0.314272  1
  B  B11  1  0.775609  0.634091  0.185728  1
  O  O12  1  0.724398  0.984810  0.806541  1
  O  O13  1  0.424055  0.238336  0.930338  1
  O  O14  1  0.275602  0.484810  0.693459  1
  O  O15  1  0.982444  0.364784  0.804283  1
  O  O16  1  0.017556  0.864784  0.695717  1
  O  O17  1  0.424055  0.261664  0.430338  1
  O  O18  1  0.575945  0.738336  0.569662  1
  O  O19  1  0.982444  0.135216  0.304283  1
  O  O20  1  0.017556  0.635216  0.195717  1
  O  O21  1  0.724398  0.515190  0.306541  1
  O  O22  1  0.575945  0.761664  0.069662  1
  O  O23  1  0.275602  0.015190  0.193459  1
