# generated using pymatgen
data_Li3CoPCO7
_symmetry_space_group_name_H-M   'P 1'
_cell_length_a   6.44998688
_cell_length_b   8.43134562
_cell_length_c   9.98311737
_cell_angle_alpha   85.29959887
_cell_angle_beta   89.75791896
_cell_angle_gamma   89.87743826
_symmetry_Int_Tables_number   1
_chemical_formula_structural   Li3CoPCO7
_chemical_formula_sum   'Li12 Co4 P4 C4 O28'
_cell_volume   541.07098625
_cell_formula_units_Z   4
loop_
 _symmetry_equiv_pos_site_id
 _symmetry_equiv_pos_as_xyz
  1  'x, y, z'
loop_
 _atom_site_type_symbol
 _atom_site_label
 _atom_site_symmetry_multiplicity
 _atom_site_fract_x
 _atom_site_fract_y
 _atom_site_fract_z
 _atom_site_occupancy
  Li  Li0  1  0.251447  0.902132  0.612986  1
  Li  Li1  1  0.256381  0.902468  0.121414  1
  Li  Li2  1  0.494736  0.723402  0.889444  1
  Li  Li3  1  0.013372  0.725660  0.365268  1
  Li  Li4  1  0.485729  0.725444  0.364784  1
  Li  Li5  1  0.743084  0.657853  0.119125  1
  Li  Li6  1  0.524144  0.277800  0.620415  1
  Li  Li7  1  0.974112  0.278639  0.619106  1
  Li  Li8  1  0.530024  0.278978  0.128181  1
  Li  Li9  1  0.971114  0.278287  0.128035  1
  Li  Li10  1  0.749660  0.101575  0.887316  1
  Li  Li11  1  0.749296  0.090271  0.376417  1
  Co  Co12  1  0.005206  0.727878  0.888111  1
  Co  Co13  1  0.748773  0.666555  0.599761  1
  Co  Co14  1  0.250033  0.332709  0.897676  1
  Co  Co15  1  0.249089  0.333479  0.394003  1
  P  P16  1  0.247360  0.588519  0.640141  1
  P  P17  1  0.253865  0.586932  0.136971  1
  P  P18  1  0.752773  0.414461  0.856549  1
  P  P19  1  0.749556  0.412136  0.359830  1
  C  C20  1  0.753440  0.962671  0.649920  1
  C  C21  1  0.753635  0.961432  0.145930  1
  C  C22  1  0.245072  0.036170  0.852963  1
  C  C23  1  0.250066  0.037153  0.351274  1
  O  O24  1  0.749084  0.928249  0.526762  1
  O  O25  1  0.231917  0.888447  0.819638  1
  O  O26  1  0.758335  0.928253  0.021825  1
  O  O27  1  0.757269  0.843249  0.743731  1
  O  O28  1  0.250181  0.890535  0.321296  1
  O  O29  1  0.752080  0.850843  0.243578  1
  O  O30  1  0.061574  0.692373  0.586180  1
  O  O31  1  0.436469  0.691568  0.590008  1
  O  O32  1  0.060509  0.687203  0.085852  1
  O  O33  1  0.439660  0.689526  0.086741  1
  O  O34  1  0.756297  0.581906  0.909451  1
  O  O35  1  0.240382  0.571062  0.798578  1
  O  O36  1  0.749504  0.580613  0.411586  1
  O  O37  1  0.247775  0.566916  0.294010  1
  O  O38  1  0.751425  0.432116  0.699959  1
  O  O39  1  0.249359  0.420387  0.590228  1
  O  O40  1  0.749957  0.428950  0.205202  1
  O  O41  1  0.250336  0.418196  0.085565  1
  O  O42  1  0.938017  0.308159  0.908730  1
  O  O43  1  0.562929  0.315599  0.911175  1
  O  O44  1  0.561427  0.309899  0.415303  1
  O  O45  1  0.936888  0.308714  0.414846  1
  O  O46  1  0.258368  0.150464  0.758266  1
  O  O47  1  0.751905  0.107304  0.683782  1
  O  O48  1  0.251057  0.153012  0.256261  1
  O  O49  1  0.246894  0.068747  0.976080  1
  O  O50  1  0.749275  0.110959  0.175141  1
  O  O51  1  0.249157  0.074148  0.474604  1
