# generated using pymatgen
data_Li6Mn(OF)3
_symmetry_space_group_name_H-M   'P 1'
_cell_length_a   5.40237415
_cell_length_b   6.77154125
_cell_length_c   8.27651818
_cell_angle_alpha   90.14207823
_cell_angle_beta   90.15962327
_cell_angle_gamma   105.89562088
_symmetry_Int_Tables_number   1
_chemical_formula_structural   Li6Mn(OF)3
_chemical_formula_sum   'Li12 Mn2 O6 F6'
_cell_volume   291.19467651
_cell_formula_units_Z   2
loop_
 _symmetry_equiv_pos_site_id
 _symmetry_equiv_pos_as_xyz
  1  'x, y, z'
loop_
 _atom_site_type_symbol
 _atom_site_label
 _atom_site_symmetry_multiplicity
 _atom_site_fract_x
 _atom_site_fract_y
 _atom_site_fract_z
 _atom_site_occupancy
  Li  Li0  1  0.034919  0.993595  0.346341  1
  Li  Li1  1  0.403093  0.823090  0.133828  1
  Li  Li2  1  0.666659  0.682719  0.324648  1
  Li  Li3  1  0.295474  0.827138  0.789375  1
  Li  Li4  1  0.377175  0.332020  0.329806  1
  Li  Li5  1  0.021874  0.491279  0.849683  1
  Li  Li6  1  0.980882  0.530004  0.152869  1
  Li  Li7  1  0.621457  0.665693  0.679318  1
  Li  Li8  1  0.705652  0.170651  0.218256  1
  Li  Li9  1  0.329722  0.314761  0.670375  1
  Li  Li10  1  0.592925  0.174555  0.860350  1
  Li  Li11  1  0.967817  0.025420  0.650700  1
  Mn  Mn12  1  0.004438  0.976012  0.997821  1
  Mn  Mn13  1  0.004686  0.476442  0.499510  1
  O  O14  1  0.776324  0.907949  0.177967  1
  O  O15  1  0.104589  0.731126  0.987907  1
  O  O16  1  0.096446  0.227383  0.484876  1
  O  O17  1  0.251992  0.577006  0.665661  1
  O  O18  1  0.750956  0.425631  0.332881  1
  O  O19  1  0.224346  0.091679  0.822085  1
  F  F20  1  0.304814  0.593637  0.279709  1
  F  F21  1  0.334750  0.081958  0.207646  1
  F  F22  1  0.671585  0.924261  0.789430  1
  F  F23  1  0.892283  0.774656  0.516014  1
  F  F24  1  0.886552  0.270810  0.009925  1
  F  F25  1  0.698590  0.410526  0.723020  1
