# generated using pymatgen
data_V3Fe2CuO12
_symmetry_space_group_name_H-M   'P 1'
_cell_length_a   6.70119434
_cell_length_b   8.23748070
_cell_length_c   9.98729943
_cell_angle_alpha   107.14189439
_cell_angle_beta   102.66572258
_cell_angle_gamma   102.24645007
_symmetry_Int_Tables_number   1
_chemical_formula_structural   V3Fe2CuO12
_chemical_formula_sum   'V6 Fe4 Cu2 O24'
_cell_volume   490.83268157
_cell_formula_units_Z   2
loop_
 _symmetry_equiv_pos_site_id
 _symmetry_equiv_pos_as_xyz
  1  'x, y, z'
loop_
 _atom_site_type_symbol
 _atom_site_label
 _atom_site_symmetry_multiplicity
 _atom_site_fract_x
 _atom_site_fract_y
 _atom_site_fract_z
 _atom_site_occupancy
  V  V0  1  0.229208  0.167672  0.764698  1
  V  V1  1  0.409892  0.225047  0.378625  1
  V  V2  1  0.880064  0.398324  0.166810  1
  V  V3  1  0.119936  0.601676  0.833190  1
  V  V4  1  0.590108  0.774953  0.621375  1
  V  V5  1  0.770792  0.832328  0.235302  1
  Fe  Fe6  1  0.952235  0.294558  0.484596  1
  Fe  Fe7  1  0.622532  0.562017  0.894092  1
  Fe  Fe8  1  0.377468  0.437983  0.105908  1
  Fe  Fe9  1  0.047765  0.705442  0.515404  1
  Cu  Cu10  1  0.748662  0.235589  0.734461  1
  Cu  Cu11  1  0.251338  0.764411  0.265539  1
  O  O12  1  0.820877  0.052398  0.325513  1
  O  O13  1  0.227534  0.205298  0.941329  1
  O  O14  1  0.999721  0.230820  0.675839  1
  O  O15  1  0.322084  0.996797  0.281471  1
  O  O16  1  0.494359  0.282555  0.767471  1
  O  O17  1  0.661445  0.278581  0.506795  1
  O  O18  1  0.840738  0.189834  0.077111  1
  O  O19  1  0.868108  0.481908  0.847593  1
  O  O20  1  0.235000  0.281731  0.476261  1
  O  O21  1  0.919984  0.438651  0.357517  1
  O  O22  1  0.335676  0.531272  0.920704  1
  O  O23  1  0.425496  0.337541  0.256360  1
  O  O24  1  0.574504  0.662459  0.743640  1
  O  O25  1  0.664324  0.468728  0.079296  1
  O  O26  1  0.080016  0.561349  0.642483  1
  O  O27  1  0.765000  0.718269  0.523739  1
  O  O28  1  0.131892  0.518092  0.152407  1
  O  O29  1  0.159262  0.810166  0.922889  1
  O  O30  1  0.338555  0.721419  0.493205  1
  O  O31  1  0.505641  0.717445  0.232529  1
  O  O32  1  0.677916  0.003203  0.718529  1
  O  O33  1  0.000279  0.769180  0.324161  1
  O  O34  1  0.772466  0.794702  0.058671  1
  O  O35  1  0.179123  0.947602  0.674487  1
