# generated using pymatgen
data_Li3CrPCO7
_symmetry_space_group_name_H-M   'P 1'
_cell_length_a   8.56687904
_cell_length_b   6.47441873
_cell_length_c   9.97812624
_cell_angle_alpha   90.00000000
_cell_angle_beta   95.18459167
_cell_angle_gamma   90.00000000
_symmetry_Int_Tables_number   1
_chemical_formula_structural   Li3CrPCO7
_chemical_formula_sum   'Li12 Cr4 P4 C4 O28'
_cell_volume   551.17810161
_cell_formula_units_Z   4
loop_
 _symmetry_equiv_pos_site_id
 _symmetry_equiv_pos_as_xyz
  1  'x, y, z'
loop_
 _atom_site_type_symbol
 _atom_site_label
 _atom_site_symmetry_multiplicity
 _atom_site_fract_x
 _atom_site_fract_y
 _atom_site_fract_z
 _atom_site_occupancy
  Li  Li0  1  0.891782  0.751464  0.635382  1
  Li  Li1  1  0.891782  0.748536  0.135382  1
  Li  Li2  1  0.710699  0.519386  0.367533  1
  Li  Li3  1  0.710699  0.980614  0.867533  1
  Li  Li4  1  0.645669  0.247419  0.638053  1
  Li  Li5  1  0.645669  0.252581  0.138053  1
  Li  Li6  1  0.354331  0.752581  0.361947  1
  Li  Li7  1  0.354331  0.747419  0.861947  1
  Li  Li8  1  0.289301  0.480614  0.632467  1
  Li  Li9  1  0.289301  0.019386  0.132467  1
  Li  Li10  1  0.108218  0.248536  0.364618  1
  Li  Li11  1  0.108218  0.251464  0.864618  1
  Cr  Cr12  1  0.738060  0.014091  0.375232  1
  Cr  Cr13  1  0.738060  0.485909  0.875232  1
  Cr  Cr14  1  0.261940  0.985909  0.624768  1
  Cr  Cr15  1  0.261940  0.514091  0.124768  1
  P  P16  1  0.589684  0.750747  0.611470  1
  P  P17  1  0.589684  0.749253  0.111470  1
  P  P18  1  0.410316  0.249253  0.388530  1
  P  P19  1  0.410316  0.250747  0.888530  1
  C  C20  1  0.960600  0.240663  0.602769  1
  C  C21  1  0.960600  0.259337  0.102769  1
  C  C22  1  0.039400  0.759337  0.397231  1
  C  C23  1  0.039400  0.740663  0.897231  1
  O  O24  1  0.935803  0.252022  0.726211  1
  O  O25  1  0.893984  0.771551  0.432925  1
  O  O26  1  0.935803  0.247978  0.226211  1
  O  O27  1  0.847081  0.244745  0.507362  1
  O  O28  1  0.893984  0.728449  0.932925  1
  O  O29  1  0.847081  0.255255  0.007362  1
  O  O30  1  0.688555  0.940127  0.661971  1
  O  O31  1  0.686280  0.560690  0.669800  1
  O  O32  1  0.686280  0.939310  0.169800  1
  O  O33  1  0.688555  0.559873  0.161971  1
  O  O34  1  0.577597  0.249941  0.338649  1
  O  O35  1  0.574473  0.740264  0.455689  1
  O  O36  1  0.577597  0.250059  0.838649  1
  O  O37  1  0.574473  0.759736  0.955689  1
  O  O38  1  0.425527  0.259736  0.544311  1
  O  O39  1  0.422403  0.750059  0.661351  1
  O  O40  1  0.425527  0.240264  0.044311  1
  O  O41  1  0.422403  0.749941  0.161351  1
  O  O42  1  0.311445  0.059873  0.338029  1
  O  O43  1  0.313720  0.439310  0.330200  1
  O  O44  1  0.311445  0.440127  0.838029  1
  O  O45  1  0.313720  0.060690  0.830200  1
  O  O46  1  0.152919  0.755255  0.492638  1
  O  O47  1  0.106016  0.228449  0.567075  1
  O  O48  1  0.152919  0.744745  0.992638  1
  O  O49  1  0.064197  0.747978  0.273789  1
  O  O50  1  0.106016  0.271551  0.067075  1
  O  O51  1  0.064197  0.752022  0.773789  1
