# generated using pymatgen
data_Li4Nb3V3(SbO8)2
_symmetry_space_group_name_H-M   'P 1'
_cell_length_a   6.12984680
_cell_length_b   6.12984680
_cell_length_c   10.62909362
_cell_angle_alpha   89.58249081
_cell_angle_beta   90.41750919
_cell_angle_gamma   120.15706338
_symmetry_Int_Tables_number   1
_chemical_formula_structural   Li4Nb3V3(SbO8)2
_chemical_formula_sum   'Li4 Nb3 V3 Sb2 O16'
_cell_volume   345.31960124
_cell_formula_units_Z   1
loop_
 _symmetry_equiv_pos_site_id
 _symmetry_equiv_pos_as_xyz
  1  'x, y, z'
loop_
 _atom_site_type_symbol
 _atom_site_label
 _atom_site_symmetry_multiplicity
 _atom_site_fract_x
 _atom_site_fract_y
 _atom_site_fract_z
 _atom_site_occupancy
  Li  Li0  1  0.666563  0.333437  0.901729  1
  Li  Li1  1  0.003775  0.996225  0.992151  1
  Li  Li2  1  0.002286  0.997714  0.493959  1
  Li  Li3  1  0.339067  0.660933  0.392328  1
  Nb  Nb4  1  0.824828  0.175172  0.226338  1
  Nb  Nb5  1  0.169917  0.356276  0.721290  1
  Nb  Nb6  1  0.643724  0.830083  0.721290  1
  V  V7  1  0.340161  0.174174  0.215283  1
  V  V8  1  0.825826  0.659839  0.215283  1
  V  V9  1  0.169847  0.830153  0.710797  1
  Sb  Sb10  1  0.658910  0.341090  0.510546  1
  Sb  Sb11  1  0.330205  0.669795  0.016614  1
  O  O12  1  0.317456  0.171292  0.603551  1
  O  O13  1  0.513466  0.486534  0.315470  1
  O  O14  1  0.676234  0.323766  0.107321  1
  O  O15  1  0.994770  0.005230  0.312384  1
  O  O16  1  0.998052  0.001948  0.810855  1
  O  O17  1  0.828708  0.682544  0.603551  1
  O  O18  1  0.515100  0.015217  0.320060  1
  O  O19  1  0.984783  0.484900  0.320060  1
  O  O20  1  0.156763  0.843237  0.111964  1
  O  O21  1  0.844618  0.155382  0.602600  1
  O  O22  1  0.009789  0.489640  0.822564  1
  O  O23  1  0.510360  0.990211  0.822564  1
  O  O24  1  0.337678  0.662322  0.595693  1
  O  O25  1  0.156644  0.311212  0.104409  1
  O  O26  1  0.491032  0.508968  0.832755  1
  O  O27  1  0.688788  0.843356  0.104409  1
