# generated using pymatgen
data_LiV2OF5
_symmetry_space_group_name_H-M   'P 1'
_cell_length_a   4.71782214
_cell_length_b   4.71800236
_cell_length_c   10.43805111
_cell_angle_alpha   90.00000000
_cell_angle_beta   116.11640975
_cell_angle_gamma   90.00000000
_symmetry_Int_Tables_number   1
_chemical_formula_structural   LiV2OF5
_chemical_formula_sum   'Li2 V4 O2 F10'
_cell_volume   208.61611482
_cell_formula_units_Z   2
loop_
 _symmetry_equiv_pos_site_id
 _symmetry_equiv_pos_as_xyz
  1  'x, y, z'
loop_
 _atom_site_type_symbol
 _atom_site_label
 _atom_site_symmetry_multiplicity
 _atom_site_fract_x
 _atom_site_fract_y
 _atom_site_fract_z
 _atom_site_occupancy
  Li  Li0  1  0.989208  0.249859  0.995025  1
  Li  Li1  1  0.989208  0.750141  0.495025  1
  V  V2  1  0.352469  0.771684  0.834867  1
  V  V3  1  0.666968  0.237957  0.677123  1
  V  V4  1  0.352469  0.228316  0.334867  1
  V  V5  1  0.666968  0.762043  0.177123  1
  O  O6  1  0.616622  0.049053  0.821196  1
  O  O7  1  0.616622  0.950947  0.321196  1
  F  F8  1  0.303380  0.946748  0.999368  1
  F  F9  1  0.038503  0.458943  0.829675  1
  F  F10  1  0.970424  0.949404  0.668285  1
  F  F11  1  0.369139  0.552613  0.669421  1
  F  F12  1  0.693289  0.434057  0.505041  1
  F  F13  1  0.303380  0.053252  0.499368  1
  F  F14  1  0.038503  0.541057  0.329675  1
  F  F15  1  0.369139  0.447387  0.169421  1
  F  F16  1  0.970424  0.050596  0.168285  1
  F  F17  1  0.693289  0.565943  0.005041  1
