# generated using pymatgen
data_LiMnVP2(HO5)2
_symmetry_space_group_name_H-M   'P 1'
_cell_length_a   6.78567390
_cell_length_b   7.43211360
_cell_length_c   7.99028170
_cell_angle_alpha   116.45600771
_cell_angle_beta   89.98428323
_cell_angle_gamma   91.11162517
_symmetry_Int_Tables_number   1
_chemical_formula_structural   LiMnVP2(HO5)2
_chemical_formula_sum   'Li2 Mn2 V2 P4 H4 O20'
_cell_volume   360.68158400
_cell_formula_units_Z   2
loop_
 _symmetry_equiv_pos_site_id
 _symmetry_equiv_pos_as_xyz
  1  'x, y, z'
loop_
 _atom_site_type_symbol
 _atom_site_label
 _atom_site_symmetry_multiplicity
 _atom_site_fract_x
 _atom_site_fract_y
 _atom_site_fract_z
 _atom_site_occupancy
  Li  Li0  1  0.173339  0.616828  0.761668  1
  Li  Li1  1  0.826661  0.383172  0.238332  1
  Mn  Mn2  1  0.000000  0.000000  0.000000  1
  Mn  Mn3  1  0.500000  0.500000  0.500000  1
  V  V4  1  0.254899  0.749560  0.249998  1
  V  V5  1  0.745101  0.250440  0.750002  1
  P  P6  1  0.600351  0.725206  0.951078  1
  P  P7  1  0.099663  0.223163  0.454418  1
  P  P8  1  0.900337  0.776837  0.545582  1
  P  P9  1  0.399649  0.274794  0.048922  1
  H  H10  1  0.035241  0.319415  0.974891  1
  H  H11  1  0.516072  0.833930  0.497434  1
  H  H12  1  0.483928  0.166070  0.502566  1
  H  H13  1  0.964759  0.680585  0.025109  1
  O  O14  1  0.044465  0.820562  0.704708  1
  O  O15  1  0.008098  0.708716  0.353308  1
  O  O16  1  0.453285  0.665943  0.790979  1
  O  O17  1  0.731047  0.905723  0.972249  1
  O  O18  1  0.087794  0.761794  0.040246  1
  O  O19  1  0.231222  0.411556  0.489634  1
  O  O20  1  0.410329  0.729197  0.444958  1
  O  O21  1  0.738683  0.546716  0.922661  1
  O  O22  1  0.514151  0.212875  0.861650  1
  O  O23  1  0.762976  0.955917  0.581097  1
  O  O24  1  0.237024  0.044083  0.418903  1
  O  O25  1  0.485849  0.787125  0.138350  1
  O  O26  1  0.261317  0.453284  0.077339  1
  O  O27  1  0.589671  0.270803  0.555042  1
  O  O28  1  0.768778  0.588444  0.510366  1
  O  O29  1  0.912206  0.238206  0.959754  1
  O  O30  1  0.268953  0.094277  0.027751  1
  O  O31  1  0.546715  0.334057  0.209021  1
  O  O32  1  0.991902  0.291284  0.646692  1
  O  O33  1  0.955535  0.179438  0.295292  1
