# generated using pymatgen
data_Li3Co3SbO8
_symmetry_space_group_name_H-M   'P 1'
_cell_length_a   6.00053880
_cell_length_b   6.03052726
_cell_length_c   6.04430399
_cell_angle_alpha   119.59451235
_cell_angle_beta   90.65649699
_cell_angle_gamma   119.35759820
_symmetry_Int_Tables_number   1
_chemical_formula_structural   Li3Co3SbO8
_chemical_formula_sum   'Li3 Co3 Sb1 O8'
_cell_volume   156.20929716
_cell_formula_units_Z   1
loop_
 _symmetry_equiv_pos_site_id
 _symmetry_equiv_pos_as_xyz
  1  'x, y, z'
loop_
 _atom_site_type_symbol
 _atom_site_label
 _atom_site_symmetry_multiplicity
 _atom_site_fract_x
 _atom_site_fract_y
 _atom_site_fract_z
 _atom_site_occupancy
  Li  Li0  1  0.000000  0.500000  0.000000  1
  Li  Li1  1  0.500000  0.500000  0.500000  1
  Li  Li2  1  0.500000  0.500000  0.000000  1
  Co  Co3  1  0.000000  0.000000  0.500000  1
  Co  Co4  1  0.500000  0.000000  0.000000  1
  Co  Co5  1  0.500000  0.000000  0.500000  1
  Sb  Sb6  1  0.000000  0.000000  0.000000  1
  O  O7  1  0.514958  0.809658  0.749015  1
  O  O8  1  0.533374  0.767685  0.201020  1
  O  O9  1  0.047556  0.790417  0.740119  1
  O  O10  1  0.485042  0.190342  0.250985  1
  O  O11  1  0.981739  0.758508  0.243961  1
  O  O12  1  0.466626  0.232315  0.798980  1
  O  O13  1  0.952444  0.209583  0.259881  1
  O  O14  1  0.018261  0.241492  0.756039  1
