# generated using pymatgen
data_Li5Fe5O12
_symmetry_space_group_name_H-M   'P 1'
_cell_length_a   5.12137918
_cell_length_b   5.12137918
_cell_length_c   10.36248697
_cell_angle_alpha   89.24326588
_cell_angle_beta   90.75673412
_cell_angle_gamma   60.64536521
_symmetry_Int_Tables_number   1
_chemical_formula_structural   Li5Fe5O12
_chemical_formula_sum   'Li5 Fe5 O12'
_cell_volume   236.81409130
_cell_formula_units_Z   1
loop_
 _symmetry_equiv_pos_site_id
 _symmetry_equiv_pos_as_xyz
  1  'x, y, z'
loop_
 _atom_site_type_symbol
 _atom_site_label
 _atom_site_symmetry_multiplicity
 _atom_site_fract_x
 _atom_site_fract_y
 _atom_site_fract_z
 _atom_site_occupancy
  Li  Li0  1  0.149107  0.337154  0.750953  1
  Li  Li1  1  0.337154  0.149107  0.249047  1
  Li  Li2  1  0.999336  0.999336  0.000000  1
  Li  Li3  1  0.656036  0.843382  0.750266  1
  Li  Li4  1  0.843382  0.656036  0.249734  1
  Fe  Fe5  1  0.163805  0.163805  0.500000  1
  Fe  Fe6  1  0.664056  0.664056  0.000000  1
  Fe  Fe7  1  0.335289  0.335289  0.000000  1
  Fe  Fe8  1  0.833279  0.833279  0.500000  1
  Fe  Fe9  1  0.503967  0.503967  0.500000  1
  O  O10  1  0.022355  0.357342  0.106648  1
  O  O11  1  0.357342  0.022355  0.893352  1
  O  O12  1  0.164194  0.477756  0.395023  1
  O  O13  1  0.509378  0.833887  0.389937  1
  O  O14  1  0.477756  0.164194  0.604977  1
  O  O15  1  0.173100  0.840818  0.596042  1
  O  O16  1  0.833887  0.509378  0.610063  1
  O  O17  1  0.642489  0.976268  0.107285  1
  O  O18  1  0.369326  0.631008  0.096033  1
  O  O19  1  0.976268  0.642489  0.892715  1
  O  O20  1  0.631008  0.369326  0.903967  1
  O  O21  1  0.840818  0.173100  0.403958  1
