# generated using pymatgen
data_Co9Cu3O16
_symmetry_space_group_name_H-M   'P 1'
_cell_length_a   10.18585946
_cell_length_b   10.18585946
_cell_length_c   10.18585946
_cell_angle_alpha   33.42688441
_cell_angle_beta   33.42688441
_cell_angle_gamma   33.42688441
_symmetry_Int_Tables_number   1
_chemical_formula_structural   Co9Cu3O16
_chemical_formula_sum   'Co9 Cu3 O16'
_cell_volume   285.59133562
_cell_formula_units_Z   1
loop_
 _symmetry_equiv_pos_site_id
 _symmetry_equiv_pos_as_xyz
  1  'x, y, z'
loop_
 _atom_site_type_symbol
 _atom_site_label
 _atom_site_symmetry_multiplicity
 _atom_site_fract_x
 _atom_site_fract_y
 _atom_site_fract_z
 _atom_site_occupancy
  Co  Co0  1  0.938247  0.938247  0.437939  1
  Co  Co1  1  0.000811  0.000811  0.000811  1
  Co  Co2  1  0.437939  0.938247  0.938247  1
  Co  Co3  1  0.938247  0.437939  0.938247  1
  Co  Co4  1  0.873962  0.873962  0.873962  1
  Co  Co5  1  0.187000  0.187000  0.187000  1
  Co  Co6  1  0.436115  0.436115  0.938760  1
  Co  Co7  1  0.436115  0.938760  0.436115  1
  Co  Co8  1  0.938760  0.436115  0.436115  1
  Cu  Cu9  1  0.376286  0.376286  0.376286  1
  Cu  Cu10  1  0.687429  0.687429  0.687429  1
  Cu  Cu11  1  0.499387  0.499387  0.499387  1
  O  O12  1  0.041148  0.579654  0.579654  1
  O  O13  1  0.579654  0.041148  0.579654  1
  O  O14  1  0.579654  0.579654  0.041148  1
  O  O15  1  0.805358  0.805358  0.805358  1
  O  O16  1  0.294215  0.294215  0.845421  1
  O  O17  1  0.070224  0.070224  0.070224  1
  O  O18  1  0.845421  0.294215  0.294215  1
  O  O19  1  0.294215  0.845421  0.294215  1
  O  O20  1  0.528551  0.077240  0.077240  1
  O  O21  1  0.077240  0.528551  0.077240  1
  O  O22  1  0.077240  0.077240  0.528551  1
  O  O23  1  0.308391  0.308391  0.308391  1
  O  O24  1  0.800619  0.800619  0.330778  1
  O  O25  1  0.566393  0.566393  0.566393  1
  O  O26  1  0.800619  0.330778  0.800619  1
  O  O27  1  0.330778  0.800619  0.800619  1
