# generated using pymatgen
data_Li8Mn(FeO4)3
_symmetry_space_group_name_H-M   'P 1'
_cell_length_a   4.94898134
_cell_length_b   8.54662066
_cell_length_c   5.00874264
_cell_angle_alpha   90.00000000
_cell_angle_beta   90.46250629
_cell_angle_gamma   90.00000000
_symmetry_Int_Tables_number   1
_chemical_formula_structural   Li8Mn(FeO4)3
_chemical_formula_sum   'Li8 Mn1 Fe3 O12'
_cell_volume   211.84821651
_cell_formula_units_Z   1
loop_
 _symmetry_equiv_pos_site_id
 _symmetry_equiv_pos_as_xyz
  1  'x, y, z'
loop_
 _atom_site_type_symbol
 _atom_site_label
 _atom_site_symmetry_multiplicity
 _atom_site_fract_x
 _atom_site_fract_y
 _atom_site_fract_z
 _atom_site_occupancy
  Li  Li0  1  0.000000  0.582525  0.000000  1
  Li  Li1  1  0.000000  0.268249  0.000000  1
  Li  Li2  1  0.000000  0.933321  0.500000  1
  Li  Li3  1  0.000000  0.244460  0.500000  1
  Li  Li4  1  0.500000  0.744203  0.000000  1
  Li  Li5  1  0.500000  0.430228  0.000000  1
  Li  Li6  1  0.500000  0.082966  0.500000  1
  Li  Li7  1  0.500000  0.767995  0.500000  1
  Mn  Mn8  1  0.500000  0.096751  0.000000  1
  Fe  Fe9  1  0.000000  0.917915  0.000000  1
  Fe  Fe10  1  0.000000  0.598990  0.500000  1
  Fe  Fe11  1  0.500000  0.413326  0.500000  1
  O  O12  1  0.352274  0.252937  0.756723  1
  O  O13  1  0.324981  0.932067  0.786415  1
  O  O14  1  0.318339  0.585396  0.719853  1
  O  O15  1  0.177285  0.431032  0.281996  1
  O  O16  1  0.181070  0.082989  0.219185  1
  O  O17  1  0.144432  0.758400  0.252348  1
  O  O18  1  0.855568  0.758400  0.747652  1
  O  O19  1  0.818930  0.082989  0.780815  1
  O  O20  1  0.822715  0.431032  0.718004  1
  O  O21  1  0.681661  0.585396  0.280147  1
  O  O22  1  0.675019  0.932067  0.213585  1
  O  O23  1  0.647726  0.252937  0.243277  1
