# generated using pymatgen
data_Ca(SeO3)2
_symmetry_space_group_name_H-M   'P 1'
_cell_length_a   6.98933705
_cell_length_b   12.05855770
_cell_length_c   8.88919008
_cell_angle_alpha   90.00000000
_cell_angle_beta   126.94027429
_cell_angle_gamma   90.00000000
_symmetry_Int_Tables_number   1
_chemical_formula_structural   Ca(SeO3)2
_chemical_formula_sum   'Ca4 Se8 O24'
_cell_volume   598.80157408
_cell_formula_units_Z   4
loop_
 _symmetry_equiv_pos_site_id
 _symmetry_equiv_pos_as_xyz
  1  'x, y, z'
loop_
 _atom_site_type_symbol
 _atom_site_label
 _atom_site_symmetry_multiplicity
 _atom_site_fract_x
 _atom_site_fract_y
 _atom_site_fract_z
 _atom_site_occupancy
  Ca  Ca0  1  0.684666  0.413021  0.237517  1
  Ca  Ca1  1  0.315334  0.913021  0.262483  1
  Ca  Ca2  1  0.684666  0.086979  0.737517  1
  Ca  Ca3  1  0.315334  0.586979  0.762483  1
  Se  Se4  1  0.279034  0.634297  0.157957  1
  Se  Se5  1  0.720966  0.134297  0.342043  1
  Se  Se6  1  0.848776  0.681638  0.244125  1
  Se  Se7  1  0.151224  0.181638  0.255875  1
  Se  Se8  1  0.848776  0.818362  0.744125  1
  Se  Se9  1  0.151224  0.318362  0.755875  1
  Se  Se10  1  0.279034  0.865703  0.657957  1
  Se  Se11  1  0.720966  0.365703  0.842043  1
  O  O12  1  0.651118  0.586841  0.088216  1
  O  O13  1  0.619169  0.012903  0.237581  1
  O  O14  1  0.846438  0.367685  0.070884  1
  O  O15  1  0.513601  0.234836  0.228815  1
  O  O16  1  0.486399  0.734836  0.271185  1
  O  O17  1  0.988772  0.103387  0.062941  1
  O  O18  1  0.380831  0.512903  0.262419  1
  O  O19  1  0.049998  0.695267  0.157432  1
  O  O20  1  0.950002  0.195267  0.342568  1
  O  O21  1  0.651118  0.913159  0.588216  1
  O  O22  1  0.011228  0.603387  0.437059  1
  O  O23  1  0.846438  0.132315  0.570884  1
  O  O24  1  0.153562  0.867685  0.429116  1
  O  O25  1  0.988772  0.396613  0.562941  1
  O  O26  1  0.348882  0.086841  0.411784  1
  O  O27  1  0.049998  0.804733  0.657432  1
  O  O28  1  0.950002  0.304733  0.842568  1
  O  O29  1  0.619169  0.487097  0.737581  1
  O  O30  1  0.011228  0.896613  0.937059  1
  O  O31  1  0.513601  0.265164  0.728815  1
  O  O32  1  0.486399  0.765164  0.771185  1
  O  O33  1  0.153562  0.632315  0.929116  1
  O  O34  1  0.380831  0.987097  0.762419  1
  O  O35  1  0.348882  0.413159  0.911784  1
