# generated using pymatgen
data_Li5Cu2Ni3O10
_symmetry_space_group_name_H-M   'P 1'
_cell_length_a   5.03398573
_cell_length_b   5.13041957
_cell_length_c   7.66011750
_cell_angle_alpha   106.90279806
_cell_angle_beta   102.89785557
_cell_angle_gamma   101.21835242
_symmetry_Int_Tables_number   1
_chemical_formula_structural   Li5Cu2Ni3O10
_chemical_formula_sum   'Li5 Cu2 Ni3 O10'
_cell_volume   177.22848036
_cell_formula_units_Z   1
loop_
 _symmetry_equiv_pos_site_id
 _symmetry_equiv_pos_as_xyz
  1  'x, y, z'
loop_
 _atom_site_type_symbol
 _atom_site_label
 _atom_site_symmetry_multiplicity
 _atom_site_fract_x
 _atom_site_fract_y
 _atom_site_fract_z
 _atom_site_occupancy
  Li  Li0  1  0.800227  0.496217  0.404337  1
  Li  Li1  1  0.600457  0.503272  0.784313  1
  Li  Li2  1  0.000000  0.000000  0.500000  1
  Li  Li3  1  0.399543  0.496728  0.215687  1
  Li  Li4  1  0.199773  0.503783  0.595663  1
  Cu  Cu5  1  0.401798  0.001835  0.696154  1
  Cu  Cu6  1  0.598202  0.998165  0.303846  1
  Ni  Ni7  1  0.000000  0.500000  0.000000  1
  Ni  Ni8  1  0.800652  0.999315  0.897547  1
  Ni  Ni9  1  0.199348  0.000685  0.102453  1
  O  O10  1  0.181832  0.257210  0.863104  1
  O  O11  1  0.399339  0.769748  0.932191  1
  O  O12  1  0.602756  0.768016  0.529999  1
  O  O13  1  0.981486  0.241401  0.239555  1
  O  O14  1  0.767755  0.232996  0.661841  1
  O  O15  1  0.232245  0.767004  0.338159  1
  O  O16  1  0.018514  0.758599  0.760445  1
  O  O17  1  0.397244  0.231984  0.470001  1
  O  O18  1  0.600661  0.230252  0.067809  1
  O  O19  1  0.818168  0.742790  0.136896  1
