# generated using pymatgen
data_Li3Fe(PO4)2
_symmetry_space_group_name_H-M   'P 1'
_cell_length_a   8.21786572
_cell_length_b   10.36715089
_cell_length_c   8.31371693
_cell_angle_alpha   90.00000000
_cell_angle_beta   105.04098856
_cell_angle_gamma   90.00000000
_symmetry_Int_Tables_number   1
_chemical_formula_structural   Li3Fe(PO4)2
_chemical_formula_sum   'Li12 Fe4 P8 O32'
_cell_volume   684.02835325
_cell_formula_units_Z   4
loop_
 _symmetry_equiv_pos_site_id
 _symmetry_equiv_pos_as_xyz
  1  'x, y, z'
loop_
 _atom_site_type_symbol
 _atom_site_label
 _atom_site_symmetry_multiplicity
 _atom_site_fract_x
 _atom_site_fract_y
 _atom_site_fract_z
 _atom_site_occupancy
  Li  Li0  1  0.390529  0.913282  0.897782  1
  Li  Li1  1  0.355994  0.408379  0.844181  1
  Li  Li2  1  0.829823  0.602976  0.841878  1
  Li  Li3  1  0.456245  0.169060  0.717579  1
  Li  Li4  1  0.641618  0.905262  0.657717  1
  Li  Li5  1  0.596259  0.414061  0.585686  1
  Li  Li6  1  0.390529  0.086718  0.397782  1
  Li  Li7  1  0.355994  0.591621  0.344181  1
  Li  Li8  1  0.829823  0.397024  0.341878  1
  Li  Li9  1  0.456245  0.830940  0.217579  1
  Li  Li10  1  0.641618  0.094738  0.157717  1
  Li  Li11  1  0.596259  0.585939  0.085686  1
  Fe  Fe12  1  0.911185  0.085309  0.908884  1
  Fe  Fe13  1  0.100761  0.594496  0.594691  1
  Fe  Fe14  1  0.911185  0.914691  0.408884  1
  Fe  Fe15  1  0.100761  0.405504  0.094691  1
  P  P16  1  0.232467  0.654697  0.963255  1
  P  P17  1  0.718212  0.340451  0.970561  1
  P  P18  1  0.293824  0.840887  0.529732  1
  P  P19  1  0.232467  0.345303  0.463255  1
  P  P20  1  0.766120  0.158602  0.543055  1
  P  P21  1  0.718212  0.659549  0.470561  1
  P  P22  1  0.293824  0.159113  0.029732  1
  P  P23  1  0.766120  0.841398  0.043055  1
  O  O24  1  0.245144  0.308048  0.994266  1
  O  O25  1  0.375265  0.580903  0.918090  1
  O  O26  1  0.070267  0.644841  0.807339  1
  O  O27  1  0.742348  0.700371  0.995684  1
  O  O28  1  0.351230  0.104265  0.883594  1
  O  O29  1  0.879764  0.411510  0.940335  1
  O  O30  1  0.806712  0.919563  0.893344  1
  O  O31  1  0.573333  0.347488  0.810211  1
  O  O32  1  0.428204  0.856228  0.693410  1
  O  O33  1  0.180589  0.421092  0.609727  1
  O  O34  1  0.127112  0.904966  0.550559  1
  O  O35  1  0.675788  0.598051  0.620672  1
  O  O36  1  0.274709  0.207274  0.516474  1
  O  O37  1  0.922382  0.140296  0.697396  1
  O  O38  1  0.613074  0.093534  0.586360  1
  O  O39  1  0.245144  0.691952  0.494266  1
  O  O40  1  0.767953  0.806579  0.507275  1
  O  O41  1  0.375265  0.419097  0.418090  1
  O  O42  1  0.070267  0.355159  0.307339  1
  O  O43  1  0.742348  0.299629  0.495684  1
  O  O44  1  0.351230  0.895735  0.383594  1
  O  O45  1  0.879764  0.588490  0.440335  1
  O  O46  1  0.806712  0.080437  0.393344  1
  O  O47  1  0.573333  0.652512  0.310211  1
  O  O48  1  0.428204  0.143772  0.193410  1
  O  O49  1  0.180589  0.578908  0.109727  1
  O  O50  1  0.127112  0.095034  0.050559  1
  O  O51  1  0.675788  0.401949  0.120672  1
  O  O52  1  0.274709  0.792726  0.016474  1
  O  O53  1  0.922382  0.859704  0.197396  1
  O  O54  1  0.613074  0.906466  0.086360  1
  O  O55  1  0.767953  0.193421  0.007275  1
