# generated using pymatgen
data_NaLiTiAl(PO4)3
_symmetry_space_group_name_H-M   'P 1'
_cell_length_a   8.55887289
_cell_length_b   8.55887289
_cell_length_c   8.77607708
_cell_angle_alpha   60.49025669
_cell_angle_beta   119.50974331
_cell_angle_gamma   120.24664736
_symmetry_Int_Tables_number   1
_chemical_formula_structural   NaLiTiAl(PO4)3
_chemical_formula_sum   'Na2 Li2 Ti2 Al2 P6 O24'
_cell_volume   457.05617195
_cell_formula_units_Z   2
loop_
 _symmetry_equiv_pos_site_id
 _symmetry_equiv_pos_as_xyz
  1  'x, y, z'
loop_
 _atom_site_type_symbol
 _atom_site_label
 _atom_site_symmetry_multiplicity
 _atom_site_fract_x
 _atom_site_fract_y
 _atom_site_fract_z
 _atom_site_occupancy
  Na  Na0  1  0.988488  0.501658  0.252743  1
  Na  Na1  1  0.501658  0.988488  0.747257  1
  Li  Li2  1  0.845359  0.247303  0.997901  1
  Li  Li3  1  0.247303  0.845359  0.002099  1
  Ti  Ti4  1  0.357769  0.140580  0.324319  1
  Ti  Ti5  1  0.140580  0.357769  0.675681  1
  Al  Al6  1  0.847541  0.646258  0.807738  1
  Al  Al7  1  0.646258  0.847541  0.192262  1
  P  P8  1  0.957835  0.957835  0.000000  1
  P  P9  1  0.466319  0.749305  0.495513  1
  P  P10  1  0.749305  0.466319  0.504487  1
  P  P11  1  0.250522  0.538543  0.999971  1
  P  P12  1  0.538543  0.250522  0.000029  1
  P  P13  1  0.030645  0.030645  0.500000  1
  O  O14  1  0.713862  0.635378  0.331183  1
  O  O15  1  0.863703  0.006957  0.320817  1
  O  O16  1  0.942906  0.778333  0.983300  1
  O  O17  1  0.988476  0.133887  0.826782  1
  O  O18  1  0.921669  0.441096  0.513538  1
  O  O19  1  0.485207  0.788741  0.313526  1
  O  O20  1  0.635378  0.713862  0.668817  1
  O  O21  1  0.778333  0.942906  0.016700  1
  O  O22  1  0.441096  0.921669  0.486462  1
  O  O23  1  0.278380  0.576066  0.509089  1
  O  O24  1  0.788741  0.485207  0.686474  1
  O  O25  1  0.576066  0.278380  0.490911  1
  O  O26  1  0.417655  0.728826  0.016659  1
  O  O27  1  0.221575  0.510027  0.827425  1
  O  O28  1  0.728826  0.417655  0.983341  1
  O  O29  1  0.560560  0.073054  0.013564  1
  O  O30  1  0.218341  0.056580  0.488743  1
  O  O31  1  0.363265  0.278330  0.828304  1
  O  O32  1  0.510027  0.221575  0.172575  1
  O  O33  1  0.073054  0.560560  0.986436  1
  O  O34  1  0.006957  0.863703  0.679183  1
  O  O35  1  0.056580  0.218341  0.511257  1
  O  O36  1  0.133887  0.988476  0.173218  1
  O  O37  1  0.278330  0.363265  0.171696  1
