# generated using pymatgen
data_Li2Cr3FeO8
_symmetry_space_group_name_H-M   'P 1'
_cell_length_a   5.87647565
_cell_length_b   5.87647565
_cell_length_c   9.53501017
_cell_angle_alpha   89.58303717
_cell_angle_beta   90.41696283
_cell_angle_gamma   60.03472330
_symmetry_Int_Tables_number   1
_chemical_formula_structural   Li2Cr3FeO8
_chemical_formula_sum   'Li4 Cr6 Fe2 O16'
_cell_volume   285.22761399
_cell_formula_units_Z   2
loop_
 _symmetry_equiv_pos_site_id
 _symmetry_equiv_pos_as_xyz
  1  'x, y, z'
loop_
 _atom_site_type_symbol
 _atom_site_label
 _atom_site_symmetry_multiplicity
 _atom_site_fract_x
 _atom_site_fract_y
 _atom_site_fract_z
 _atom_site_occupancy
  Li  Li0  1  0.336438  0.331735  0.104985  1
  Li  Li1  1  0.999900  0.999660  0.002846  1
  Li  Li2  1  0.000340  0.000100  0.502846  1
  Li  Li3  1  0.668265  0.663562  0.604985  1
  Cr  Cr4  1  0.662940  0.168070  0.787546  1
  Cr  Cr5  1  0.169899  0.659936  0.784932  1
  Cr  Cr6  1  0.169498  0.168083  0.787540  1
  Cr  Cr7  1  0.831917  0.830502  0.287540  1
  Cr  Cr8  1  0.831930  0.337060  0.287546  1
  Cr  Cr9  1  0.340064  0.830101  0.284932  1
  Fe  Fe10  1  0.328262  0.335216  0.511631  1
  Fe  Fe11  1  0.664784  0.671738  0.011631  1
  O  O12  1  0.674579  0.161584  0.393480  1
  O  O13  1  0.487110  0.472597  0.664286  1
  O  O14  1  0.336823  0.328384  0.896548  1
  O  O15  1  0.996894  0.004358  0.687396  1
  O  O16  1  0.995642  0.003106  0.187396  1
  O  O17  1  0.151953  0.675508  0.396597  1
  O  O18  1  0.480305  0.036976  0.667921  1
  O  O19  1  0.038180  0.472011  0.664875  1
  O  O20  1  0.828535  0.846894  0.895498  1
  O  O21  1  0.153106  0.171465  0.395498  1
  O  O22  1  0.963024  0.519695  0.167921  1
  O  O23  1  0.527989  0.961820  0.164875  1
  O  O24  1  0.671616  0.663177  0.396548  1
  O  O25  1  0.838416  0.325421  0.893480  1
  O  O26  1  0.527403  0.512890  0.164286  1
  O  O27  1  0.324492  0.848047  0.896597  1
