# generated using pymatgen
data_Li2V(OF)2
_symmetry_space_group_name_H-M   'P 1'
_cell_length_a   6.38649982
_cell_length_b   3.86173147
_cell_length_c   6.58174464
_cell_angle_alpha   90.00000000
_cell_angle_beta   113.65906138
_cell_angle_gamma   90.00000000
_symmetry_Int_Tables_number   1
_chemical_formula_structural   Li2V(OF)2
_chemical_formula_sum   'Li4 V2 O4 F4'
_cell_volume   148.68171448
_cell_formula_units_Z   2
loop_
 _symmetry_equiv_pos_site_id
 _symmetry_equiv_pos_as_xyz
  1  'x, y, z'
loop_
 _atom_site_type_symbol
 _atom_site_label
 _atom_site_symmetry_multiplicity
 _atom_site_fract_x
 _atom_site_fract_y
 _atom_site_fract_z
 _atom_site_occupancy
  Li  Li0  1  0.707832  0.250000  0.258966  1
  Li  Li1  1  0.911681  0.750000  0.112772  1
  Li  Li2  1  0.088319  0.250000  0.887228  1
  Li  Li3  1  0.292168  0.750000  0.741034  1
  V  V4  1  0.295107  0.250000  0.380398  1
  V  V5  1  0.704893  0.750000  0.619602  1
  O  O6  1  0.357805  0.750000  0.439926  1
  O  O7  1  0.009803  0.250000  0.190758  1
  O  O8  1  0.990197  0.750000  0.809242  1
  O  O9  1  0.642195  0.250000  0.560074  1
  F  F10  1  0.771628  0.750000  0.346439  1
  F  F11  1  0.616886  0.750000  0.879375  1
  F  F12  1  0.383114  0.250000  0.120625  1
  F  F13  1  0.228372  0.250000  0.653561  1
