# generated using pymatgen
data_Li2FeOF3
_symmetry_space_group_name_H-M   'P 1'
_cell_length_a   5.19829410
_cell_length_b   5.19829410
_cell_length_c   10.45326385
_cell_angle_alpha   78.17528603
_cell_angle_beta   101.82471397
_cell_angle_gamma   146.68402087
_symmetry_Int_Tables_number   1
_chemical_formula_structural   Li2FeOF3
_chemical_formula_sum   'Li4 Fe2 O2 F6'
_cell_volume   151.55811375
_cell_formula_units_Z   2
loop_
 _symmetry_equiv_pos_site_id
 _symmetry_equiv_pos_as_xyz
  1  'x, y, z'
loop_
 _atom_site_type_symbol
 _atom_site_label
 _atom_site_symmetry_multiplicity
 _atom_site_fract_x
 _atom_site_fract_y
 _atom_site_fract_z
 _atom_site_occupancy
  Li  Li0  1  0.274892  0.725108  0.612366  1
  Li  Li1  1  0.500000  0.500000  0.000000  1
  Li  Li2  1  0.500000  0.500000  0.500000  1
  Li  Li3  1  0.725108  0.274892  0.387634  1
  Fe  Fe4  1  0.272693  0.727307  0.128274  1
  Fe  Fe5  1  0.727307  0.272693  0.871726  1
  O  O6  1  0.138038  0.861962  0.944238  1
  O  O7  1  0.861962  0.138038  0.055762  1
  F  F8  1  0.129803  0.870197  0.450503  1
  F  F9  1  0.359923  0.640077  0.829154  1
  F  F10  1  0.349466  0.650534  0.312138  1
  F  F11  1  0.650534  0.349466  0.687862  1
  F  F12  1  0.640077  0.359923  0.170846  1
  F  F13  1  0.870197  0.129803  0.549497  1
