# generated using pymatgen
data_Li4Mn3Cr3(TeO8)2
_symmetry_space_group_name_H-M   'P 1'
_cell_length_a   6.04972731
_cell_length_b   6.04972731
_cell_length_c   9.81677281
_cell_angle_alpha   88.44745102
_cell_angle_beta   91.55254898
_cell_angle_gamma   120.46675472
_symmetry_Int_Tables_number   1
_chemical_formula_structural   Li4Mn3Cr3(TeO8)2
_chemical_formula_sum   'Li4 Mn3 Cr3 Te2 O16'
_cell_volume   309.52620194
_cell_formula_units_Z   1
loop_
 _symmetry_equiv_pos_site_id
 _symmetry_equiv_pos_as_xyz
  1  'x, y, z'
loop_
 _atom_site_type_symbol
 _atom_site_label
 _atom_site_symmetry_multiplicity
 _atom_site_fract_x
 _atom_site_fract_y
 _atom_site_fract_z
 _atom_site_occupancy
  Li  Li0  1  0.661645  0.338355  0.909744  1
  Li  Li1  1  0.994820  0.005180  0.985507  1
  Li  Li2  1  0.003739  0.996261  0.488193  1
  Li  Li3  1  0.336521  0.663479  0.404384  1
  Mn  Mn4  1  0.834276  0.165724  0.211590  1
  Mn  Mn5  1  0.174751  0.340051  0.712438  1
  Mn  Mn6  1  0.659949  0.825249  0.712438  1
  Cr  Cr7  1  0.336950  0.166331  0.213315  1
  Cr  Cr8  1  0.833669  0.663050  0.213315  1
  Cr  Cr9  1  0.172660  0.827340  0.715184  1
  Te  Te10  1  0.671618  0.328382  0.482731  1
  Te  Te11  1  0.329268  0.670732  0.986458  1
  O  O12  1  0.348177  0.162431  0.585380  1
  O  O13  1  0.523479  0.476521  0.344472  1
  O  O14  1  0.669465  0.330535  0.115765  1
  O  O15  1  0.998704  0.001296  0.304624  1
  O  O16  1  0.002119  0.997881  0.795966  1
  O  O17  1  0.837569  0.651823  0.585380  1
  O  O18  1  0.513743  0.037521  0.350720  1
  O  O19  1  0.962479  0.486257  0.350720  1
  O  O20  1  0.153381  0.846619  0.100870  1
  O  O21  1  0.834985  0.165015  0.587153  1
  O  O22  1  0.026962  0.531817  0.847974  1
  O  O23  1  0.468183  0.973038  0.847974  1
  O  O24  1  0.331489  0.668511  0.612780  1
  O  O25  1  0.161998  0.320136  0.096370  1
  O  O26  1  0.477005  0.522995  0.850027  1
  O  O27  1  0.679864  0.838002  0.096370  1
