# generated using pymatgen
data_Co6OF11
_symmetry_space_group_name_H-M   'P 1'
_cell_length_a   5.70792437
_cell_length_b   5.70792437
_cell_length_c   7.40956566
_cell_angle_alpha   73.32992111
_cell_angle_beta   106.67007889
_cell_angle_gamma   107.00396984
_symmetry_Int_Tables_number   1
_chemical_formula_structural   Co6OF11
_chemical_formula_sum   'Co6 O1 F11'
_cell_volume   215.65478146
_cell_formula_units_Z   1
loop_
 _symmetry_equiv_pos_site_id
 _symmetry_equiv_pos_as_xyz
  1  'x, y, z'
loop_
 _atom_site_type_symbol
 _atom_site_label
 _atom_site_symmetry_multiplicity
 _atom_site_fract_x
 _atom_site_fract_y
 _atom_site_fract_z
 _atom_site_occupancy
  Co  Co0  1  0.332917  0.667083  0.834378  1
  Co  Co1  1  0.348410  0.651590  0.330713  1
  Co  Co2  1  0.664291  0.335709  0.657190  1
  Co  Co3  1  0.659343  0.340657  0.178544  1
  Co  Co4  1  0.002023  0.997977  0.498499  1
  Co  Co5  1  0.997386  0.002614  0.003014  1
  O  O6  1  0.558571  0.441429  0.362030  1
  F  F7  1  0.640128  0.973276  0.330039  1
  F  F8  1  0.968626  0.637488  0.669120  1
  F  F9  1  0.428694  0.571306  0.627921  1
  F  F10  1  0.114504  0.885496  0.302866  1
  F  F11  1  0.762066  0.237934  0.965693  1
  F  F12  1  0.234483  0.765517  0.039853  1
  F  F13  1  0.898090  0.101910  0.702876  1
  F  F14  1  0.026724  0.359872  0.330039  1
  F  F15  1  0.362512  0.031374  0.669120  1
  F  F16  1  0.699397  0.698166  0.999052  1
  F  F17  1  0.301834  0.300603  0.999052  1
