# generated using pymatgen
data_LiFeF4
_symmetry_space_group_name_H-M   'P 1'
_cell_length_a   5.21470472
_cell_length_b   5.21470472
_cell_length_c   6.43142030
_cell_angle_alpha   90.00000000
_cell_angle_beta   90.00000000
_cell_angle_gamma   112.14715335
_symmetry_Int_Tables_number   1
_chemical_formula_structural   LiFeF4
_chemical_formula_sum   'Li2 Fe2 F8'
_cell_volume   161.98689366
_cell_formula_units_Z   2
loop_
 _symmetry_equiv_pos_site_id
 _symmetry_equiv_pos_as_xyz
  1  'x, y, z'
loop_
 _atom_site_type_symbol
 _atom_site_label
 _atom_site_symmetry_multiplicity
 _atom_site_fract_x
 _atom_site_fract_y
 _atom_site_fract_z
 _atom_site_occupancy
  Li  Li0  1  0.000000  0.000000  0.000000  1
  Li  Li1  1  0.000000  0.000000  0.500000  1
  Fe  Fe2  1  0.352878  0.647122  0.750000  1
  Fe  Fe3  1  0.647122  0.352878  0.250000  1
  F  F4  1  0.226327  0.261250  0.750000  1
  F  F5  1  0.261250  0.226327  0.250000  1
  F  F6  1  0.228990  0.771010  0.519577  1
  F  F7  1  0.771010  0.228990  0.019577  1
  F  F8  1  0.771010  0.228990  0.480423  1
  F  F9  1  0.228990  0.771010  0.980423  1
  F  F10  1  0.773673  0.738750  0.250000  1
  F  F11  1  0.738750  0.773673  0.750000  1
