# generated using pymatgen
data_Li4Co3Sn3(SbO8)2
_symmetry_space_group_name_H-M   'P 1'
_cell_length_a   6.18750137
_cell_length_b   6.18750137
_cell_length_c   9.86566323
_cell_angle_alpha   89.51784321
_cell_angle_beta   90.48215679
_cell_angle_gamma   120.10392948
_symmetry_Int_Tables_number   1
_chemical_formula_structural   Li4Co3Sn3(SbO8)2
_chemical_formula_sum   'Li4 Co3 Sn3 Sb2 O16'
_cell_volume   326.74675141
_cell_formula_units_Z   1
loop_
 _symmetry_equiv_pos_site_id
 _symmetry_equiv_pos_as_xyz
  1  'x, y, z'
loop_
 _atom_site_type_symbol
 _atom_site_label
 _atom_site_symmetry_multiplicity
 _atom_site_fract_x
 _atom_site_fract_y
 _atom_site_fract_z
 _atom_site_occupancy
  Li  Li0  1  0.666718  0.333282  0.897178  1
  Li  Li1  1  0.982685  0.017315  0.978437  1
  Li  Li2  1  0.990257  0.009743  0.498312  1
  Li  Li3  1  0.331360  0.668640  0.411052  1
  Co  Co4  1  0.829443  0.170557  0.213653  1
  Co  Co5  1  0.176046  0.341407  0.712008  1
  Co  Co6  1  0.658593  0.823954  0.712008  1
  Sn  Sn7  1  0.339541  0.167897  0.213407  1
  Sn  Sn8  1  0.832103  0.660459  0.213407  1
  Sn  Sn9  1  0.171429  0.828571  0.712793  1
  Sb  Sb10  1  0.673540  0.326460  0.493099  1
  Sb  Sb11  1  0.342167  0.657833  0.978684  1
  O  O12  1  0.341916  0.166446  0.588102  1
  O  O13  1  0.518467  0.481533  0.346845  1
  O  O14  1  0.663710  0.336290  0.103039  1
  O  O15  1  0.000871  0.999129  0.308016  1
  O  O16  1  0.002741  0.997259  0.796041  1
  O  O17  1  0.833554  0.658084  0.588102  1
  O  O18  1  0.516358  0.040253  0.347378  1
  O  O19  1  0.959747  0.483642  0.347378  1
  O  O20  1  0.167889  0.832111  0.095775  1
  O  O21  1  0.832867  0.167133  0.590631  1
  O  O22  1  0.038240  0.522359  0.856228  1
  O  O23  1  0.477641  0.961760  0.856228  1
  O  O24  1  0.331055  0.668945  0.608158  1
  O  O25  1  0.170558  0.334620  0.094808  1
  O  O26  1  0.484550  0.515450  0.852246  1
  O  O27  1  0.665380  0.829442  0.094808  1
