# generated using pymatgen
data_Ti3Nb2V3O16
_symmetry_space_group_name_H-M   'P 1'
_cell_length_a   5.99261131
_cell_length_b   6.00734820
_cell_length_c   9.41926149
_cell_angle_alpha   90.18301857
_cell_angle_beta   90.16698642
_cell_angle_gamma   119.32780105
_symmetry_Int_Tables_number   1
_chemical_formula_structural   Ti3Nb2V3O16
_chemical_formula_sum   'Ti3 Nb2 V3 O16'
_cell_volume   295.62454115
_cell_formula_units_Z   1
loop_
 _symmetry_equiv_pos_site_id
 _symmetry_equiv_pos_as_xyz
  1  'x, y, z'
loop_
 _atom_site_type_symbol
 _atom_site_label
 _atom_site_symmetry_multiplicity
 _atom_site_fract_x
 _atom_site_fract_y
 _atom_site_fract_z
 _atom_site_occupancy
  Ti  Ti0  1  0.175560  0.343799  0.780692  1
  Ti  Ti1  1  0.174873  0.831351  0.780939  1
  Ti  Ti2  1  0.344561  0.174646  0.277604  1
  Nb  Nb3  1  0.341004  0.669773  0.500637  1
  Nb  Nb4  1  0.673049  0.340300  0.000867  1
  V  V5  1  0.662281  0.832183  0.791072  1
  V  V6  1  0.830730  0.173845  0.285543  1
  V  V7  1  0.837792  0.664927  0.290700  1
  O  O8  1  0.173732  0.345839  0.401185  1
  O  O9  1  0.041618  0.522299  0.665775  1
  O  O10  1  0.317881  0.658830  0.894624  1
  O  O11  1  0.005695  0.003947  0.697103  1
  O  O12  1  0.000634  0.015312  0.197604  1
  O  O13  1  0.174743  0.831001  0.399180  1
  O  O14  1  0.467485  0.514307  0.663570  1
  O  O15  1  0.465703  0.950647  0.662992  1
  O  O16  1  0.343180  0.171095  0.901258  1
  O  O17  1  0.661617  0.828447  0.402056  1
  O  O18  1  0.520969  0.043231  0.165639  1
  O  O19  1  0.514796  0.469596  0.165274  1
  O  O20  1  0.663072  0.313285  0.394147  1
  O  O21  1  0.829192  0.173678  0.900433  1
  O  O22  1  0.949037  0.468989  0.163781  1
  O  O23  1  0.830794  0.658470  0.901607  1
