# generated using pymatgen
data_Li2FeSiO4
_symmetry_space_group_name_H-M   'P 1'
_cell_length_a   5.15956091
_cell_length_b   6.28792312
_cell_length_c   11.00589850
_cell_angle_alpha   90.00000000
_cell_angle_beta   90.00000000
_cell_angle_gamma   90.00000000
_symmetry_Int_Tables_number   1
_chemical_formula_structural   Li2FeSiO4
_chemical_formula_sum   'Li8 Fe4 Si4 O16'
_cell_volume   357.06351000
_cell_formula_units_Z   4
loop_
 _symmetry_equiv_pos_site_id
 _symmetry_equiv_pos_as_xyz
  1  'x, y, z'
loop_
 _atom_site_type_symbol
 _atom_site_label
 _atom_site_symmetry_multiplicity
 _atom_site_fract_x
 _atom_site_fract_y
 _atom_site_fract_z
 _atom_site_occupancy
  Li  Li0  1  0.287318  0.867983  0.073809  1
  Li  Li1  1  0.688714  0.119678  0.161168  1
  Li  Li2  1  0.188714  0.619678  0.338832  1
  Li  Li3  1  0.787318  0.367983  0.426191  1
  Li  Li4  1  0.212682  0.867983  0.573809  1
  Li  Li5  1  0.811286  0.119678  0.661168  1
  Li  Li6  1  0.311286  0.619678  0.838832  1
  Li  Li7  1  0.712682  0.367983  0.926191  1
  Fe  Fe8  1  0.689759  0.618311  0.166593  1
  Fe  Fe9  1  0.189759  0.118311  0.333407  1
  Fe  Fe10  1  0.810241  0.618311  0.666593  1
  Fe  Fe11  1  0.310241  0.118311  0.833407  1
  Si  Si12  1  0.190864  0.367963  0.088287  1
  Si  Si13  1  0.690864  0.867963  0.411713  1
  Si  Si14  1  0.309136  0.367963  0.588287  1
  Si  Si15  1  0.809136  0.867963  0.911713  1
  O  O16  1  0.696869  0.868219  0.051612  1
  O  O17  1  0.870475  0.366073  0.088471  1
  O  O18  1  0.288610  0.584093  0.162266  1
  O  O19  1  0.294095  0.149497  0.158519  1
  O  O20  1  0.794095  0.649497  0.341481  1
  O  O21  1  0.788610  0.084093  0.337734  1
  O  O22  1  0.370475  0.866073  0.411529  1
  O  O23  1  0.196869  0.368219  0.448388  1
  O  O24  1  0.803131  0.868219  0.551612  1
  O  O25  1  0.629525  0.366073  0.588471  1
  O  O26  1  0.211390  0.584093  0.662266  1
  O  O27  1  0.205905  0.149497  0.658519  1
  O  O28  1  0.705905  0.649497  0.841481  1
  O  O29  1  0.711390  0.084093  0.837734  1
  O  O30  1  0.129525  0.866073  0.911529  1
  O  O31  1  0.303131  0.368219  0.948388  1
