# generated using pymatgen
data_LiMn2OF5
_symmetry_space_group_name_H-M   'P 1'
_cell_length_a   4.64627697
_cell_length_b   4.64627697
_cell_length_c   18.92967804
_cell_angle_alpha   88.30652559
_cell_angle_beta   91.69347441
_cell_angle_gamma   90.15280632
_symmetry_Int_Tables_number   1
_chemical_formula_structural   LiMn2OF5
_chemical_formula_sum   'Li4 Mn8 O4 F20'
_cell_volume   408.29424909
_cell_formula_units_Z   4
loop_
 _symmetry_equiv_pos_site_id
 _symmetry_equiv_pos_as_xyz
  1  'x, y, z'
loop_
 _atom_site_type_symbol
 _atom_site_label
 _atom_site_symmetry_multiplicity
 _atom_site_fract_x
 _atom_site_fract_y
 _atom_site_fract_z
 _atom_site_occupancy
  Li  Li0  1  0.993519  0.991939  0.002712  1
  Li  Li1  1  0.008061  0.006481  0.502712  1
  Li  Li2  1  0.497854  0.512211  0.752533  1
  Li  Li3  1  0.487789  0.502146  0.252533  1
  Mn  Mn4  1  0.016758  0.024951  0.835142  1
  Mn  Mn5  1  0.986665  0.019978  0.664154  1
  Mn  Mn6  1  0.975049  0.983242  0.335142  1
  Mn  Mn7  1  0.980022  0.013335  0.164154  1
  Mn  Mn8  1  0.483757  0.479901  0.913884  1
  Mn  Mn9  1  0.522515  0.486602  0.584436  1
  Mn  Mn10  1  0.513398  0.477485  0.084436  1
  Mn  Mn11  1  0.520099  0.516243  0.413884  1
  O  O12  1  0.802703  0.203433  0.587781  1
  O  O13  1  0.796567  0.197297  0.087781  1
  O  O14  1  0.690419  0.702517  0.338105  1
  O  O15  1  0.297483  0.309581  0.838105  1
  F  F16  1  0.795576  0.199821  0.917786  1
  F  F17  1  0.800179  0.204424  0.417786  1
  F  F18  1  0.811309  0.215027  0.752826  1
  F  F19  1  0.784973  0.188691  0.252826  1
  F  F20  1  0.686206  0.675245  0.991742  1
  F  F21  1  0.710980  0.697917  0.503154  1
  F  F22  1  0.718571  0.727476  0.834222  1
  F  F23  1  0.700299  0.694354  0.164027  1
  F  F24  1  0.707253  0.707095  0.667361  1
  F  F25  1  0.292905  0.292747  0.167361  1
  F  F26  1  0.305646  0.299701  0.664027  1
  F  F27  1  0.272524  0.281429  0.334222  1
  F  F28  1  0.302083  0.289020  0.003154  1
  F  F29  1  0.324755  0.313794  0.491742  1
  F  F30  1  0.192114  0.823155  0.742812  1
  F  F31  1  0.176845  0.807886  0.242812  1
  F  F32  1  0.225893  0.783696  0.583207  1
  F  F33  1  0.216304  0.774107  0.083207  1
  F  F34  1  0.199810  0.796878  0.414117  1
  F  F35  1  0.203122  0.800190  0.914117  1
