# generated using pymatgen
data_LiNiPO4
_symmetry_space_group_name_H-M   'P 1'
_cell_length_a   5.49099627
_cell_length_b   6.21881782
_cell_length_c   9.26248247
_cell_angle_alpha   74.93118439
_cell_angle_beta   79.66960773
_cell_angle_gamma   76.59702110
_symmetry_Int_Tables_number   1
_chemical_formula_structural   LiNiPO4
_chemical_formula_sum   'Li4 Ni4 P4 O16'
_cell_volume   294.70015222
_cell_formula_units_Z   4
loop_
 _symmetry_equiv_pos_site_id
 _symmetry_equiv_pos_as_xyz
  1  'x, y, z'
loop_
 _atom_site_type_symbol
 _atom_site_label
 _atom_site_symmetry_multiplicity
 _atom_site_fract_x
 _atom_site_fract_y
 _atom_site_fract_z
 _atom_site_occupancy
  Li  Li0  1  0.674635  0.359579  0.891738  1
  Li  Li1  1  0.185482  0.470902  0.752222  1
  Li  Li2  1  0.814518  0.529098  0.247778  1
  Li  Li3  1  0.325365  0.640421  0.108262  1
  Ni  Ni4  1  0.313991  0.934879  0.787471  1
  Ni  Ni5  1  0.777518  0.162805  0.581208  1
  Ni  Ni6  1  0.222482  0.837195  0.418792  1
  Ni  Ni7  1  0.686009  0.065121  0.212529  1
  P  P8  1  0.814668  0.829869  0.916628  1
  P  P9  1  0.680229  0.701594  0.542517  1
  P  P10  1  0.319771  0.298406  0.457483  1
  P  P11  1  0.185332  0.170131  0.083372  1
  O  O12  1  0.612885  0.706957  0.890481  1
  O  O13  1  0.088132  0.697791  0.881324  1
  O  O14  1  0.229398  0.162687  0.915389  1
  O  O15  1  0.791416  0.072733  0.813721  1
  O  O16  1  0.864214  0.845002  0.559045  1
  O  O17  1  0.403417  0.768892  0.618429  1
  O  O18  1  0.788267  0.457350  0.616571  1
  O  O19  1  0.355985  0.252935  0.627371  1
  O  O20  1  0.644015  0.747065  0.372629  1
  O  O21  1  0.211733  0.542650  0.383429  1
  O  O22  1  0.596583  0.231108  0.381571  1
  O  O23  1  0.135786  0.154998  0.440955  1
  O  O24  1  0.208584  0.927267  0.186279  1
  O  O25  1  0.770602  0.837313  0.084611  1
  O  O26  1  0.911868  0.302209  0.118676  1
  O  O27  1  0.387115  0.293043  0.109519  1
