# generated using pymatgen
data_Li4ZrO4
_symmetry_space_group_name_H-M   'P 1'
_cell_length_a   5.53179315
_cell_length_b   14.71317929
_cell_length_c   5.57670511
_cell_angle_alpha   90.00000000
_cell_angle_beta   116.71928728
_cell_angle_gamma   90.00000000
_symmetry_Int_Tables_number   1
_chemical_formula_structural   Li4ZrO4
_chemical_formula_sum   'Li16 Zr4 O16'
_cell_volume   405.42322072
_cell_formula_units_Z   4
loop_
 _symmetry_equiv_pos_site_id
 _symmetry_equiv_pos_as_xyz
  1  'x, y, z'
loop_
 _atom_site_type_symbol
 _atom_site_label
 _atom_site_symmetry_multiplicity
 _atom_site_fract_x
 _atom_site_fract_y
 _atom_site_fract_z
 _atom_site_occupancy
  Li  Li0  1  0.292943  0.790632  0.746454  1
  Li  Li1  1  0.296208  0.001660  0.763226  1
  Li  Li2  1  0.144529  0.228042  0.720711  1
  Li  Li3  1  0.252239  0.388013  0.664976  1
  Li  Li4  1  0.792943  0.709368  0.746454  1
  Li  Li5  1  0.796208  0.498340  0.763226  1
  Li  Li6  1  0.644529  0.271958  0.720711  1
  Li  Li7  1  0.752239  0.111987  0.664976  1
  Li  Li8  1  0.247761  0.888013  0.335024  1
  Li  Li9  1  0.355471  0.728042  0.279289  1
  Li  Li10  1  0.203792  0.501660  0.236774  1
  Li  Li11  1  0.207057  0.290632  0.253546  1
  Li  Li12  1  0.747761  0.611987  0.335024  1
  Li  Li13  1  0.855471  0.771958  0.279289  1
  Li  Li14  1  0.703792  0.998340  0.236774  1
  Li  Li15  1  0.707057  0.209368  0.253546  1
  Zr  Zr16  1  0.355720  0.603205  0.785186  1
  Zr  Zr17  1  0.855720  0.896795  0.785186  1
  Zr  Zr18  1  0.144280  0.103205  0.214814  1
  Zr  Zr19  1  0.644280  0.396795  0.214814  1
  O  O20  1  0.534841  0.699775  0.055544  1
  O  O21  1  0.203805  0.488826  0.880520  1
  O  O22  1  0.034841  0.800225  0.055544  1
  O  O23  1  0.703805  0.011174  0.880520  1
  O  O24  1  0.041421  0.683775  0.574903  1
  O  O25  1  0.532173  0.598314  0.540611  1
  O  O26  1  0.967827  0.098314  0.459389  1
  O  O27  1  0.541421  0.816225  0.574903  1
  O  O28  1  0.458579  0.183775  0.425097  1
  O  O29  1  0.032173  0.901686  0.540611  1
  O  O30  1  0.467827  0.401686  0.459389  1
  O  O31  1  0.958579  0.316225  0.425097  1
  O  O32  1  0.296195  0.988826  0.119480  1
  O  O33  1  0.965159  0.199775  0.944456  1
  O  O34  1  0.796195  0.511174  0.119480  1
  O  O35  1  0.465159  0.300225  0.944456  1
