# generated using pymatgen
data_Na2CrSiCO7
_symmetry_space_group_name_H-M   'P 1'
_cell_length_a   5.26686759
_cell_length_b   6.47395679
_cell_length_c   9.04811238
_cell_angle_alpha   90.00000000
_cell_angle_beta   91.08617836
_cell_angle_gamma   90.00000000
_symmetry_Int_Tables_number   1
_chemical_formula_structural   Na2CrSiCO7
_chemical_formula_sum   'Na4 Cr2 Si2 C2 O14'
_cell_volume   308.46233306
_cell_formula_units_Z   2
loop_
 _symmetry_equiv_pos_site_id
 _symmetry_equiv_pos_as_xyz
  1  'x, y, z'
loop_
 _atom_site_type_symbol
 _atom_site_label
 _atom_site_symmetry_multiplicity
 _atom_site_fract_x
 _atom_site_fract_y
 _atom_site_fract_z
 _atom_site_occupancy
  Na  Na0  1  0.761691  0.992854  0.235551  1
  Na  Na1  1  0.761691  0.507146  0.235551  1
  Na  Na2  1  0.238309  0.492854  0.764449  1
  Na  Na3  1  0.238309  0.007146  0.764449  1
  Cr  Cr4  1  0.205352  0.250000  0.347666  1
  Cr  Cr5  1  0.794648  0.750000  0.652334  1
  Si  Si6  1  0.294589  0.750000  0.428999  1
  Si  Si7  1  0.705411  0.250000  0.571001  1
  C  C8  1  0.271833  0.250000  0.076888  1
  C  C9  1  0.728167  0.750000  0.923112  1
  O  O10  1  0.700210  0.750000  0.059576  1
  O  O11  1  0.048747  0.250000  0.140617  1
  O  O12  1  0.461564  0.250000  0.175214  1
  O  O13  1  0.219846  0.956883  0.331842  1
  O  O14  1  0.219846  0.543117  0.331842  1
  O  O15  1  0.870424  0.250000  0.418074  1
  O  O16  1  0.601061  0.750000  0.463936  1
  O  O17  1  0.398939  0.250000  0.536064  1
  O  O18  1  0.129576  0.750000  0.581926  1
  O  O19  1  0.780154  0.456883  0.668158  1
  O  O20  1  0.780154  0.043117  0.668158  1
  O  O21  1  0.538436  0.750000  0.824786  1
  O  O22  1  0.951253  0.750000  0.859383  1
  O  O23  1  0.299790  0.250000  0.940424  1
