# generated using pymatgen
data_MnCd4O5
_symmetry_space_group_name_H-M   'P 1'
_cell_length_a   3.33726666
_cell_length_b   7.49115699
_cell_length_c   11.11570005
_cell_angle_alpha   101.72743996
_cell_angle_beta   89.98314598
_cell_angle_gamma   102.85850698
_symmetry_Int_Tables_number   1
_chemical_formula_structural   MnCd4O5
_chemical_formula_sum   'Mn2 Cd8 O10'
_cell_volume   264.97406147
_cell_formula_units_Z   2
loop_
 _symmetry_equiv_pos_site_id
 _symmetry_equiv_pos_as_xyz
  1  'x, y, z'
loop_
 _atom_site_type_symbol
 _atom_site_label
 _atom_site_symmetry_multiplicity
 _atom_site_fract_x
 _atom_site_fract_y
 _atom_site_fract_z
 _atom_site_occupancy
  Mn  Mn0  1  0.904909  0.298965  0.700374  1
  Mn  Mn1  1  0.095091  0.701035  0.299626  1
  Cd  Cd2  1  0.500000  0.500000  0.500000  1
  Cd  Cd3  1  0.799857  0.103553  0.404019  1
  Cd  Cd4  1  0.000000  0.500000  0.000000  1
  Cd  Cd5  1  0.397484  0.301438  0.202024  1
  Cd  Cd6  1  0.200143  0.896447  0.595981  1
  Cd  Cd7  1  0.300246  0.099642  0.897309  1
  Cd  Cd8  1  0.602516  0.698562  0.797976  1
  Cd  Cd9  1  0.699754  0.900358  0.102691  1
  O  O10  1  0.049920  0.592064  0.651291  1
  O  O11  1  0.950080  0.407936  0.348709  1
  O  O12  1  0.361204  0.206371  0.560659  1
  O  O13  1  0.549207  0.607007  0.160099  1
  O  O14  1  0.450793  0.392993  0.839901  1
  O  O15  1  0.847336  0.202146  0.050031  1
  O  O16  1  0.756219  0.005866  0.745239  1
  O  O17  1  0.638796  0.793629  0.439341  1
  O  O18  1  0.243781  0.994134  0.254761  1
  O  O19  1  0.152664  0.797854  0.949969  1
