# generated using pymatgen
data_Rb3PbO3
_symmetry_space_group_name_H-M   'P 1'
_cell_length_a   8.08302645
_cell_length_b   7.40458221
_cell_length_c   11.80741078
_cell_angle_alpha   90.00000000
_cell_angle_beta   93.85853667
_cell_angle_gamma   90.00000000
_symmetry_Int_Tables_number   1
_chemical_formula_structural   Rb3PbO3
_chemical_formula_sum   'Rb12 Pb4 O12'
_cell_volume   705.08856634
_cell_formula_units_Z   4
loop_
 _symmetry_equiv_pos_site_id
 _symmetry_equiv_pos_as_xyz
  1  'x, y, z'
loop_
 _atom_site_type_symbol
 _atom_site_label
 _atom_site_symmetry_multiplicity
 _atom_site_fract_x
 _atom_site_fract_y
 _atom_site_fract_z
 _atom_site_occupancy
  Rb  Rb0  1  0.359617  0.322229  0.423461  1
  Rb  Rb1  1  0.937073  0.626040  0.346104  1
  Rb  Rb2  1  0.371307  0.801919  0.308772  1
  Rb  Rb3  1  0.628693  0.301919  0.191228  1
  Rb  Rb4  1  0.062927  0.126040  0.153896  1
  Rb  Rb5  1  0.640383  0.822229  0.076539  1
  Rb  Rb6  1  0.359617  0.177771  0.923461  1
  Rb  Rb7  1  0.937073  0.873960  0.846104  1
  Rb  Rb8  1  0.371307  0.698081  0.808772  1
  Rb  Rb9  1  0.628693  0.198081  0.691228  1
  Rb  Rb10  1  0.062927  0.373960  0.653896  1
  Rb  Rb11  1  0.640383  0.677771  0.576539  1
  Pb  Pb12  1  0.835539  0.094943  0.429453  1
  Pb  Pb13  1  0.164461  0.594943  0.070547  1
  Pb  Pb14  1  0.835539  0.405057  0.929453  1
  Pb  Pb15  1  0.164461  0.905057  0.570547  1
  O  O16  1  0.737670  0.368073  0.462592  1
  O  O17  1  0.110288  0.042611  0.399583  1
  O  O18  1  0.686565  0.931806  0.305762  1
  O  O19  1  0.313435  0.431806  0.194238  1
  O  O20  1  0.889712  0.542611  0.100417  1
  O  O21  1  0.262330  0.868073  0.037408  1
  O  O22  1  0.737670  0.131927  0.962592  1
  O  O23  1  0.110288  0.457389  0.899583  1
  O  O24  1  0.686565  0.568194  0.805762  1
  O  O25  1  0.313435  0.068194  0.694238  1
  O  O26  1  0.889712  0.957389  0.600417  1
  O  O27  1  0.262330  0.631927  0.537408  1
