# generated using pymatgen
data_MgH12(NO6)2
_symmetry_space_group_name_H-M   'P 1'
_cell_length_a   6.23985883
_cell_length_b   12.69511110
_cell_length_c   6.60187940
_cell_angle_alpha   90.00000000
_cell_angle_beta   93.84595415
_cell_angle_gamma   90.00000000
_symmetry_Int_Tables_number   1
_chemical_formula_structural   MgH12(NO6)2
_chemical_formula_sum   'Mg2 H24 N4 O24'
_cell_volume   521.79476659
_cell_formula_units_Z   2
loop_
 _symmetry_equiv_pos_site_id
 _symmetry_equiv_pos_as_xyz
  1  'x, y, z'
loop_
 _atom_site_type_symbol
 _atom_site_label
 _atom_site_symmetry_multiplicity
 _atom_site_fract_x
 _atom_site_fract_y
 _atom_site_fract_z
 _atom_site_occupancy
  Mg  Mg0  1  0.000000  0.500000  0.000000  1
  Mg  Mg1  1  0.000000  0.000000  0.500000  1
  H  H2  1  0.072210  0.714153  0.009925  1
  H  H3  1  0.927790  0.214153  0.490075  1
  H  H4  1  0.927790  0.285847  0.990075  1
  H  H5  1  0.072210  0.785847  0.509925  1
  H  H6  1  0.818506  0.690893  0.982446  1
  H  H7  1  0.181494  0.190893  0.517554  1
  H  H8  1  0.181494  0.309107  0.017554  1
  H  H9  1  0.818506  0.809107  0.482446  1
  H  H10  1  0.366855  0.484318  0.265372  1
  H  H11  1  0.633145  0.984318  0.234628  1
  H  H12  1  0.633145  0.515682  0.734628  1
  H  H13  1  0.366855  0.015682  0.765372  1
  H  H14  1  0.400296  0.579464  0.112606  1
  H  H15  1  0.599704  0.079464  0.387394  1
  H  H16  1  0.599704  0.420536  0.887394  1
  H  H17  1  0.400296  0.920536  0.612606  1
  H  H18  1  0.193823  0.563178  0.659365  1
  H  H19  1  0.806177  0.063178  0.840635  1
  H  H20  1  0.806177  0.436822  0.340635  1
  H  H21  1  0.193823  0.936822  0.159365  1
  H  H22  1  0.196889  0.438702  0.646178  1
  H  H23  1  0.803111  0.938702  0.853822  1
  H  H24  1  0.803111  0.561298  0.353822  1
  H  H25  1  0.196889  0.061298  0.146178  1
  N  N26  1  0.470656  0.796579  0.043551  1
  N  N27  1  0.529344  0.296579  0.456449  1
  N  N28  1  0.529344  0.203421  0.956449  1
  N  N29  1  0.470656  0.703421  0.543551  1
  O  O30  1  0.962933  0.660824  0.967981  1
  O  O31  1  0.037067  0.160824  0.532019  1
  O  O32  1  0.037067  0.339176  0.032019  1
  O  O33  1  0.962933  0.839176  0.467981  1
  O  O34  1  0.301744  0.523496  0.148920  1
  O  O35  1  0.698256  0.023496  0.351080  1
  O  O36  1  0.698256  0.476504  0.851080  1
  O  O37  1  0.301744  0.976504  0.648920  1
  O  O38  1  0.143944  0.497805  0.723310  1
  O  O39  1  0.856056  0.997805  0.776690  1
  O  O40  1  0.856056  0.502195  0.276690  1
  O  O41  1  0.143944  0.002195  0.223310  1
  O  O42  1  0.538886  0.703577  0.015039  1
  O  O43  1  0.461114  0.203577  0.484961  1
  O  O44  1  0.461114  0.296423  0.984961  1
  O  O45  1  0.538886  0.796423  0.515039  1
  O  O46  1  0.275965  0.810552  0.081882  1
  O  O47  1  0.724035  0.310552  0.418118  1
  O  O48  1  0.724035  0.189448  0.918118  1
  O  O49  1  0.275965  0.689448  0.581882  1
  O  O50  1  0.596042  0.874186  0.033516  1
  O  O51  1  0.403958  0.374186  0.466484  1
  O  O52  1  0.403958  0.125814  0.966484  1
  O  O53  1  0.596042  0.625814  0.533516  1
