# generated using pymatgen
data_LiFe4(BO3)4
_symmetry_space_group_name_H-M   'P 1'
_cell_length_a   5.24822802
_cell_length_b   9.13174281
_cell_length_c   11.49101220
_cell_angle_alpha   112.98763238
_cell_angle_beta   102.53377508
_cell_angle_gamma   90.86631381
_symmetry_Int_Tables_number   1
_chemical_formula_structural   LiFe4(BO3)4
_chemical_formula_sum   'Li2 Fe8 B8 O24'
_cell_volume   491.83172832
_cell_formula_units_Z   2
loop_
 _symmetry_equiv_pos_site_id
 _symmetry_equiv_pos_as_xyz
  1  'x, y, z'
loop_
 _atom_site_type_symbol
 _atom_site_label
 _atom_site_symmetry_multiplicity
 _atom_site_fract_x
 _atom_site_fract_y
 _atom_site_fract_z
 _atom_site_occupancy
  Li  Li0  1  0.002859  0.346078  0.333070  1
  Li  Li1  1  0.237123  0.592571  0.839223  1
  Fe  Fe2  1  0.975345  0.973290  0.622364  1
  Fe  Fe3  1  0.736542  0.052922  0.117762  1
  Fe  Fe4  1  0.530627  0.536562  0.374287  1
  Fe  Fe5  1  0.764051  0.431510  0.874095  1
  Fe  Fe6  1  0.236134  0.560596  0.128873  1
  Fe  Fe7  1  0.487005  0.467006  0.614830  1
  Fe  Fe8  1  0.011214  0.014784  0.367413  1
  Fe  Fe9  1  0.265915  0.947123  0.876073  1
  B  B10  1  0.980471  0.305649  0.625257  1
  B  B11  1  0.731954  0.722385  0.120611  1
  B  B12  1  0.515094  0.187403  0.373815  1
  B  B13  1  0.762951  0.761315  0.868224  1
  B  B14  1  0.473068  0.813164  0.630267  1
  B  B15  1  0.238068  0.233149  0.123203  1
  B  B16  1  0.034383  0.686864  0.375327  1
  B  B17  1  0.263419  0.269215  0.869437  1
  O  O18  1  0.004553  0.226190  0.153175  1
  O  O19  1  0.866965  0.874172  0.180455  1
  O  O20  1  0.868992  0.590602  0.064773  1
  O  O21  1  0.904693  0.560635  0.380539  1
  O  O22  1  0.965158  0.843223  0.429764  1
  O  O23  1  0.759363  0.173614  0.341103  1
  O  O24  1  0.750857  0.339906  0.669837  1
  O  O25  1  0.471663  0.698587  0.108623  1
  O  O26  1  0.380076  0.381909  0.160061  1
  O  O27  1  0.524120  0.654130  0.580573  1
  O  O28  1  0.633966  0.928919  0.629516  1
  O  O29  1  0.350646  0.094799  0.059500  1
  O  O30  1  0.628446  0.892564  0.912568  1
  O  O31  1  0.357341  0.061971  0.360449  1
  O  O32  1  0.432948  0.343600  0.422458  1
  O  O33  1  0.618798  0.608525  0.825676  1
  O  O34  1  0.520949  0.281291  0.870586  1
  O  O35  1  0.245131  0.666137  0.317423  1
  O  O36  1  0.245776  0.848545  0.678167  1
  O  O37  1  0.029854  0.148111  0.567691  1
  O  O38  1  0.155280  0.431496  0.646567  1
  O  O39  1  0.139130  0.410351  0.911120  1
  O  O40  1  0.115609  0.121155  0.824516  1
  O  O41  1  0.023133  0.773985  0.866406  1
