# generated using pymatgen
data_Li5MnO4
_symmetry_space_group_name_H-M   'P 1'
_cell_length_a   4.54131269
_cell_length_b   6.61667287
_cell_length_c   6.75729873
_cell_angle_alpha   90.00000000
_cell_angle_beta   90.00000000
_cell_angle_gamma   90.00000000
_symmetry_Int_Tables_number   1
_chemical_formula_structural   Li5MnO4
_chemical_formula_sum   'Li10 Mn2 O8'
_cell_volume   203.04588319
_cell_formula_units_Z   2
loop_
 _symmetry_equiv_pos_site_id
 _symmetry_equiv_pos_as_xyz
  1  'x, y, z'
loop_
 _atom_site_type_symbol
 _atom_site_label
 _atom_site_symmetry_multiplicity
 _atom_site_fract_x
 _atom_site_fract_y
 _atom_site_fract_z
 _atom_site_occupancy
  Li  Li0  1  0.251539  0.741009  0.698006  1
  Li  Li1  1  0.251539  0.258991  0.698006  1
  Li  Li2  1  0.804280  0.000000  0.500000  1
  Li  Li3  1  0.251539  0.741009  0.301994  1
  Li  Li4  1  0.251539  0.258991  0.301994  1
  Li  Li5  1  0.748461  0.758991  0.198006  1
  Li  Li6  1  0.748461  0.241009  0.198006  1
  Li  Li7  1  0.195720  0.500000  0.000000  1
  Li  Li8  1  0.748461  0.758991  0.801994  1
  Li  Li9  1  0.748461  0.241009  0.801994  1
  Mn  Mn10  1  0.767105  0.500000  0.500000  1
  Mn  Mn11  1  0.232895  0.000000  0.000000  1
  O  O12  1  0.970239  0.500000  0.748984  1
  O  O13  1  0.574427  0.754454  0.500000  1
  O  O14  1  0.574427  0.245546  0.500000  1
  O  O15  1  0.970239  0.500000  0.251016  1
  O  O16  1  0.029761  0.000000  0.248984  1
  O  O17  1  0.425573  0.745546  0.000000  1
  O  O18  1  0.425573  0.254454  0.000000  1
  O  O19  1  0.029761  0.000000  0.751016  1
