# generated using pymatgen
data_Li3Ti4MnO12
_symmetry_space_group_name_H-M   'P 1'
_cell_length_a   5.03317067
_cell_length_b   5.45675238
_cell_length_c   7.45382723
_cell_angle_alpha   95.95612167
_cell_angle_beta   90.05357946
_cell_angle_gamma   90.12750706
_symmetry_Int_Tables_number   1
_chemical_formula_structural   Li3Ti4MnO12
_chemical_formula_sum   'Li3 Ti4 Mn1 O12'
_cell_volume   203.61184015
_cell_formula_units_Z   1
loop_
 _symmetry_equiv_pos_site_id
 _symmetry_equiv_pos_as_xyz
  1  'x, y, z'
loop_
 _atom_site_type_symbol
 _atom_site_label
 _atom_site_symmetry_multiplicity
 _atom_site_fract_x
 _atom_site_fract_y
 _atom_site_fract_z
 _atom_site_occupancy
  Li  Li0  1  0.499720  0.063671  0.209055  1
  Li  Li1  1  0.997391  0.578066  0.220743  1
  Li  Li2  1  0.498325  0.056446  0.719212  1
  Ti  Ti3  1  0.006689  0.008156  0.013299  1
  Ti  Ti4  1  0.491753  0.480569  0.490071  1
  Ti  Ti5  1  0.986928  0.012290  0.491887  1
  Ti  Ti6  1  0.520217  0.492643  0.009836  1
  Mn  Mn7  1  0.000610  0.609575  0.700550  1
  O  O8  1  0.291490  0.768769  0.591172  1
  O  O9  1  0.121824  0.960219  0.263307  1
  O  O10  1  0.321130  0.152396  0.955862  1
  O  O11  1  0.174275  0.304823  0.595454  1
  O  O12  1  0.808373  0.281743  0.080551  1
  O  O13  1  0.375461  0.468914  0.260355  1
  O  O14  1  0.667495  0.467515  0.764024  1
  O  O15  1  0.177905  0.639339  0.929171  1
  O  O16  1  0.824628  0.651877  0.471284  1
  O  O17  1  0.694655  0.774812  0.082047  1
  O  O18  1  0.877729  0.936694  0.762898  1
  O  O19  1  0.663402  0.150683  0.459619  1
