# generated using pymatgen
data_K2MnH4(SO5)2
_symmetry_space_group_name_H-M   'P 1'
_cell_length_a   6.61585080
_cell_length_b   7.44206930
_cell_length_c   10.84026766
_cell_angle_alpha   72.82861474
_cell_angle_beta   73.84513668
_cell_angle_gamma   69.79230165
_symmetry_Int_Tables_number   1
_chemical_formula_structural   K2MnH4(SO5)2
_chemical_formula_sum   'K4 Mn2 H8 S4 O20'
_cell_volume   469.21125946
_cell_formula_units_Z   2
loop_
 _symmetry_equiv_pos_site_id
 _symmetry_equiv_pos_as_xyz
  1  'x, y, z'
loop_
 _atom_site_type_symbol
 _atom_site_label
 _atom_site_symmetry_multiplicity
 _atom_site_fract_x
 _atom_site_fract_y
 _atom_site_fract_z
 _atom_site_occupancy
  K  K0  1  0.789171  0.749278  0.399956  1
  K  K1  1  0.210829  0.250722  0.600044  1
  K  K2  1  0.735432  0.265598  0.073822  1
  K  K3  1  0.264568  0.734402  0.926178  1
  Mn  Mn4  1  0.754243  0.972809  0.751223  1
  Mn  Mn5  1  0.245757  0.027191  0.248777  1
  H  H6  1  0.730870  0.340447  0.642668  1
  H  H7  1  0.269130  0.659553  0.357332  1
  H  H8  1  0.644433  0.319185  0.797693  1
  H  H9  1  0.355567  0.680815  0.202307  1
  H  H10  1  0.643167  0.677185  0.705045  1
  H  H11  1  0.356833  0.322815  0.294955  1
  H  H12  1  0.840892  0.577160  0.785565  1
  H  H13  1  0.159108  0.422840  0.214435  1
  S  S14  1  0.732201  0.772440  0.084637  1
  S  S15  1  0.267799  0.227560  0.915363  1
  S  S16  1  0.744469  0.224546  0.424823  1
  S  S17  1  0.255531  0.775454  0.575177  1
  O  O18  1  0.926344  0.632495  0.136852  1
  O  O19  1  0.073656  0.367505  0.863148  1
  O  O20  1  0.585218  0.668417  0.072434  1
  O  O21  1  0.414782  0.331583  0.927566  1
  O  O22  1  0.810218  0.893825  0.953023  1
  O  O23  1  0.189782  0.106175  0.046977  1
  O  O24  1  0.606483  0.910666  0.176060  1
  O  O25  1  0.393517  0.089334  0.823940  1
  O  O26  1  0.856857  0.341782  0.456250  1
  O  O27  1  0.143143  0.658218  0.543750  1
  O  O28  1  0.538048  0.350813  0.379287  1
  O  O29  1  0.461952  0.649187  0.620713  1
  O  O30  1  0.690322  0.071050  0.545124  1
  O  O31  1  0.309678  0.928950  0.454876  1
  O  O32  1  0.890989  0.120038  0.317627  1
  O  O33  1  0.109011  0.879962  0.682373  1
  O  O34  1  0.772386  0.271597  0.728946  1
  O  O35  1  0.227614  0.728403  0.271054  1
  O  O36  1  0.709039  0.688228  0.773612  1
  O  O37  1  0.290961  0.311772  0.226388  1
