# generated using pymatgen
data_LiFeF4
_symmetry_space_group_name_H-M   'P 1'
_cell_length_a   4.70895065
_cell_length_b   5.68728592
_cell_length_c   5.07055109
_cell_angle_alpha   90.00000000
_cell_angle_beta   92.49704087
_cell_angle_gamma   90.00000000
_symmetry_Int_Tables_number   1
_chemical_formula_structural   LiFeF4
_chemical_formula_sum   'Li2 Fe2 F8'
_cell_volume   135.66624155
_cell_formula_units_Z   2
loop_
 _symmetry_equiv_pos_site_id
 _symmetry_equiv_pos_as_xyz
  1  'x, y, z'
loop_
 _atom_site_type_symbol
 _atom_site_label
 _atom_site_symmetry_multiplicity
 _atom_site_fract_x
 _atom_site_fract_y
 _atom_site_fract_z
 _atom_site_occupancy
  Li  Li0  1  0.500000  0.358292  0.750000  1
  Li  Li1  1  0.500000  0.641708  0.250000  1
  Fe  Fe2  1  0.000000  0.834534  0.750000  1
  Fe  Fe3  1  0.000000  0.165466  0.250000  1
  F  F4  1  0.219094  0.108841  0.930680  1
  F  F5  1  0.219094  0.891159  0.430680  1
  F  F6  1  0.261986  0.623590  0.910454  1
  F  F7  1  0.261986  0.376410  0.410454  1
  F  F8  1  0.738014  0.623590  0.589546  1
  F  F9  1  0.738014  0.376410  0.089546  1
  F  F10  1  0.780906  0.108841  0.569320  1
  F  F11  1  0.780906  0.891159  0.069320  1
