# generated using pymatgen
data_Co5P4(HO2)10
_symmetry_space_group_name_H-M   'P 1'
_cell_length_a   9.81028274
_cell_length_b   9.81028274
_cell_length_c   9.41172057
_cell_angle_alpha   84.03936935
_cell_angle_beta   95.96063065
_cell_angle_gamma   125.39761382
_symmetry_Int_Tables_number   1
_chemical_formula_structural   Co5P4(HO2)10
_chemical_formula_sum   'Co10 P8 H20 O40'
_cell_volume   733.30498531
_cell_formula_units_Z   2
loop_
 _symmetry_equiv_pos_site_id
 _symmetry_equiv_pos_as_xyz
  1  'x, y, z'
loop_
 _atom_site_type_symbol
 _atom_site_label
 _atom_site_symmetry_multiplicity
 _atom_site_fract_x
 _atom_site_fract_y
 _atom_site_fract_z
 _atom_site_occupancy
  Co  Co0  1  0.098948  0.728639  0.811974  1
  Co  Co1  1  0.728639  0.098948  0.688026  1
  Co  Co2  1  0.901052  0.271361  0.188026  1
  Co  Co3  1  0.271361  0.901052  0.311974  1
  Co  Co4  1  0.596999  0.596999  0.250000  1
  Co  Co5  1  0.403001  0.403001  0.750000  1
  Co  Co6  1  0.698007  0.348487  0.869687  1
  Co  Co7  1  0.348487  0.698007  0.630313  1
  Co  Co8  1  0.301993  0.651513  0.130313  1
  Co  Co9  1  0.651513  0.301993  0.369687  1
  P  P10  1  0.237287  0.403598  0.410663  1
  P  P11  1  0.403598  0.237287  0.089337  1
  P  P12  1  0.762713  0.596402  0.589337  1
  P  P13  1  0.596402  0.762713  0.910663  1
  P  P14  1  0.920564  0.598286  0.128583  1
  P  P15  1  0.598286  0.920564  0.371417  1
  P  P16  1  0.079436  0.401714  0.871417  1
  P  P17  1  0.401714  0.079436  0.628583  1
  H  H18  1  0.412604  0.881950  0.910663  1
  H  H19  1  0.881950  0.412604  0.589337  1
  H  H20  1  0.587396  0.118050  0.089337  1
  H  H21  1  0.118050  0.587396  0.410663  1
  H  H22  1  0.327640  0.924057  0.022345  1
  H  H23  1  0.924057  0.327640  0.477655  1
  H  H24  1  0.672360  0.075943  0.977655  1
  H  H25  1  0.075943  0.672360  0.522345  1
  H  H26  1  0.152504  0.016708  0.776326  1
  H  H27  1  0.016708  0.152504  0.723674  1
  H  H28  1  0.847496  0.983292  0.223674  1
  H  H29  1  0.983292  0.847496  0.276326  1
  H  H30  1  0.971961  0.896517  0.854975  1
  H  H31  1  0.896517  0.971961  0.645025  1
  H  H32  1  0.028039  0.103483  0.145025  1
  H  H33  1  0.103483  0.028039  0.354975  1
  H  H34  1  0.245760  0.197542  0.520041  1
  H  H35  1  0.197542  0.245760  0.979959  1
  H  H36  1  0.754240  0.802458  0.479959  1
  H  H37  1  0.802458  0.754240  0.020041  1
  O  O38  1  0.896508  0.567545  0.965510  1
  O  O39  1  0.567545  0.896508  0.534490  1
  O  O40  1  0.103492  0.432455  0.034490  1
  O  O41  1  0.432455  0.103492  0.465510  1
  O  O42  1  0.841036  0.692258  0.160301  1
  O  O43  1  0.692258  0.841036  0.339699  1
  O  O44  1  0.158964  0.307742  0.839699  1
  O  O45  1  0.307742  0.158964  0.660301  1
  O  O46  1  0.353926  0.509755  0.288360  1
  O  O47  1  0.509755  0.353926  0.211640  1
  O  O48  1  0.646074  0.490245  0.711640  1
  O  O49  1  0.490245  0.646074  0.788360  1
  O  O50  1  0.168659  0.572846  0.783366  1
  O  O51  1  0.572846  0.168659  0.716634  1
  O  O52  1  0.831341  0.427154  0.216634  1
  O  O53  1  0.427154  0.831341  0.283366  1
  O  O54  1  0.298306  0.891200  0.674497  1
  O  O55  1  0.891200  0.298306  0.825503  1
  O  O56  1  0.701694  0.108800  0.325503  1
  O  O57  1  0.108800  0.701694  0.174497  1
  O  O58  1  0.313483  0.831665  0.968968  1
  O  O59  1  0.831665  0.313483  0.531032  1
  O  O60  1  0.686517  0.168335  0.031032  1
  O  O61  1  0.168335  0.686517  0.468968  1
  O  O62  1  0.082603  0.919316  0.843788  1
  O  O63  1  0.919316  0.082603  0.656212  1
  O  O64  1  0.917397  0.080684  0.156212  1
  O  O65  1  0.080684  0.917397  0.343788  1
  O  O66  1  0.314348  0.480676  0.557836  1
  O  O67  1  0.480676  0.314348  0.942164  1
  O  O68  1  0.685652  0.519324  0.442164  1
  O  O69  1  0.519324  0.685652  0.057836  1
  O  O70  1  0.930662  0.616604  0.629844  1
  O  O71  1  0.616604  0.930662  0.870156  1
  O  O72  1  0.069338  0.383396  0.370156  1
  O  O73  1  0.383396  0.069338  0.129844  1
  O  O74  1  0.201514  0.223685  0.423678  1
  O  O75  1  0.223685  0.201514  0.076322  1
  O  O76  1  0.798486  0.776315  0.576322  1
  O  O77  1  0.776315  0.798486  0.923678  1
