# generated using pymatgen
data_Fe6O5F7
_symmetry_space_group_name_H-M   'P 1'
_cell_length_a   4.77745941
_cell_length_b   9.25522001
_cell_length_c   4.78726863
_cell_angle_alpha   90.00000000
_cell_angle_beta   93.16912312
_cell_angle_gamma   90.00000000
_symmetry_Int_Tables_number   1
_chemical_formula_structural   Fe6O5F7
_chemical_formula_sum   'Fe6 O5 F7'
_cell_volume   211.35225074
_cell_formula_units_Z   1
loop_
 _symmetry_equiv_pos_site_id
 _symmetry_equiv_pos_as_xyz
  1  'x, y, z'
loop_
 _atom_site_type_symbol
 _atom_site_label
 _atom_site_symmetry_multiplicity
 _atom_site_fract_x
 _atom_site_fract_y
 _atom_site_fract_z
 _atom_site_occupancy
  Fe  Fe0  1  0.008312  0.000000  0.008859  1
  Fe  Fe1  1  0.971720  0.349109  0.990120  1
  Fe  Fe2  1  0.971720  0.650891  0.990120  1
  Fe  Fe3  1  0.508388  0.158297  0.514232  1
  Fe  Fe4  1  0.508388  0.841703  0.514232  1
  Fe  Fe5  1  0.545499  0.500000  0.498821  1
  O  O6  1  0.797110  0.500000  0.201884  1
  O  O7  1  0.704916  0.000000  0.709691  1
  O  O8  1  0.687788  0.327117  0.684633  1
  O  O9  1  0.687788  0.672883  0.684633  1
  O  O10  1  0.302859  0.000000  0.308306  1
  F  F11  1  0.804944  0.163965  0.198774  1
  F  F12  1  0.804944  0.836035  0.198774  1
  F  F13  1  0.296967  0.330014  0.294291  1
  F  F14  1  0.296967  0.669986  0.294291  1
  F  F15  1  0.193749  0.166384  0.811851  1
  F  F16  1  0.193749  0.833616  0.811851  1
  F  F17  1  0.214194  0.500000  0.784637  1
