# generated using pymatgen
data_Na3CrSiCO7
_symmetry_space_group_name_H-M   'P 1'
_cell_length_a   5.26629351
_cell_length_b   6.64517269
_cell_length_c   8.91846167
_cell_angle_alpha   90.00000000
_cell_angle_beta   92.19555533
_cell_angle_gamma   90.00000000
_symmetry_Int_Tables_number   1
_chemical_formula_structural   Na3CrSiCO7
_chemical_formula_sum   'Na6 Cr2 Si2 C2 O14'
_cell_volume   311.87628016
_cell_formula_units_Z   2
loop_
 _symmetry_equiv_pos_site_id
 _symmetry_equiv_pos_as_xyz
  1  'x, y, z'
loop_
 _atom_site_type_symbol
 _atom_site_label
 _atom_site_symmetry_multiplicity
 _atom_site_fract_x
 _atom_site_fract_y
 _atom_site_fract_z
 _atom_site_occupancy
  Na  Na0  1  0.226373  0.750000  0.089453  1
  Na  Na1  1  0.739119  0.983246  0.279921  1
  Na  Na2  1  0.739119  0.516754  0.279921  1
  Na  Na3  1  0.260881  0.483246  0.720079  1
  Na  Na4  1  0.260881  0.016754  0.720079  1
  Na  Na5  1  0.773627  0.250000  0.910547  1
  Cr  Cr6  1  0.213512  0.250000  0.340513  1
  Cr  Cr7  1  0.786488  0.750000  0.659487  1
  Si  Si8  1  0.281619  0.750000  0.421970  1
  Si  Si9  1  0.718381  0.250000  0.578030  1
  C  C10  1  0.284558  0.250000  0.061139  1
  C  C11  1  0.715442  0.750000  0.938861  1
  O  O12  1  0.684269  0.750000  0.080460  1
  O  O13  1  0.058357  0.250000  0.116999  1
  O  O14  1  0.476752  0.250000  0.158818  1
  O  O15  1  0.213738  0.946459  0.314044  1
  O  O16  1  0.213738  0.553541  0.314044  1
  O  O17  1  0.590446  0.750000  0.465491  1
  O  O18  1  0.873774  0.250000  0.422763  1
  O  O19  1  0.126226  0.750000  0.577237  1
  O  O20  1  0.409554  0.250000  0.534509  1
  O  O21  1  0.786262  0.446459  0.685956  1
  O  O22  1  0.786262  0.053541  0.685956  1
  O  O23  1  0.523248  0.750000  0.841182  1
  O  O24  1  0.941643  0.750000  0.883001  1
  O  O25  1  0.315731  0.250000  0.919540  1
