# generated using pymatgen
data_Y2TeO6
_symmetry_space_group_name_H-M   'P 1'
_cell_length_a   7.71912892
_cell_length_b   5.45305413
_cell_length_c   11.54148476
_cell_angle_alpha   90.00000000
_cell_angle_beta   103.91610615
_cell_angle_gamma   90.00000000
_symmetry_Int_Tables_number   1
_chemical_formula_structural   Y2TeO6
_chemical_formula_sum   'Y8 Te4 O24'
_cell_volume   471.55457010
_cell_formula_units_Z   4
loop_
 _symmetry_equiv_pos_site_id
 _symmetry_equiv_pos_as_xyz
  1  'x, y, z'
loop_
 _atom_site_type_symbol
 _atom_site_label
 _atom_site_symmetry_multiplicity
 _atom_site_fract_x
 _atom_site_fract_y
 _atom_site_fract_z
 _atom_site_occupancy
  Y  Y0  1  0.000000  0.740504  0.750000  1
  Y  Y1  1  0.000000  0.259496  0.250000  1
  Y  Y2  1  0.211379  0.193855  0.577197  1
  Y  Y3  1  0.211379  0.806145  0.077197  1
  Y  Y4  1  0.500000  0.686715  0.750000  1
  Y  Y5  1  0.500000  0.313285  0.250000  1
  Y  Y6  1  0.788621  0.193855  0.922803  1
  Y  Y7  1  0.788621  0.806145  0.422803  1
  Te  Te8  1  0.274052  0.254065  0.885415  1
  Te  Te9  1  0.274052  0.745935  0.385415  1
  Te  Te10  1  0.725948  0.254065  0.614585  1
  Te  Te11  1  0.725948  0.745935  0.114585  1
  O  O12  1  0.058647  0.050770  0.893735  1
  O  O13  1  0.150044  0.532174  0.932051  1
  O  O14  1  0.058647  0.949230  0.393735  1
  O  O15  1  0.207425  0.450152  0.730656  1
  O  O16  1  0.150044  0.467826  0.432051  1
  O  O17  1  0.293554  0.979358  0.774568  1
  O  O18  1  0.207425  0.549848  0.230656  1
  O  O19  1  0.359848  0.856329  0.548731  1
  O  O20  1  0.507614  0.373490  0.886135  1
  O  O21  1  0.293554  0.020642  0.274568  1
  O  O22  1  0.492386  0.373490  0.613865  1
  O  O23  1  0.640152  0.856329  0.951269  1
  O  O24  1  0.359848  0.143671  0.048731  1
  O  O25  1  0.507614  0.626510  0.386135  1
  O  O26  1  0.706446  0.979358  0.725432  1
  O  O27  1  0.492386  0.626510  0.113865  1
  O  O28  1  0.640152  0.143671  0.451269  1
  O  O29  1  0.792575  0.450152  0.769344  1
  O  O30  1  0.706446  0.020642  0.225432  1
  O  O31  1  0.849956  0.532174  0.567949  1
  O  O32  1  0.792575  0.549848  0.269344  1
  O  O33  1  0.941353  0.050770  0.606265  1
  O  O34  1  0.849956  0.467826  0.067949  1
  O  O35  1  0.941353  0.949230  0.106265  1
