# generated using pymatgen
data_Li2AgF5
_symmetry_space_group_name_H-M   'P 1'
_cell_length_a   5.59856495
_cell_length_b   5.59856495
_cell_length_c   9.76911529
_cell_angle_alpha   90.00000000
_cell_angle_beta   90.00000000
_cell_angle_gamma   132.90929244
_symmetry_Int_Tables_number   1
_chemical_formula_structural   Li2AgF5
_chemical_formula_sum   'Li4 Ag2 F10'
_cell_volume   224.27262993
_cell_formula_units_Z   2
loop_
 _symmetry_equiv_pos_site_id
 _symmetry_equiv_pos_as_xyz
  1  'x, y, z'
loop_
 _atom_site_type_symbol
 _atom_site_label
 _atom_site_symmetry_multiplicity
 _atom_site_fract_x
 _atom_site_fract_y
 _atom_site_fract_z
 _atom_site_occupancy
  Li  Li0  1  0.860444  0.139556  0.420415  1
  Li  Li1  1  0.860444  0.139556  0.079585  1
  Li  Li2  1  0.139556  0.860444  0.920415  1
  Li  Li3  1  0.139556  0.860444  0.579585  1
  Ag  Ag4  1  0.809189  0.190811  0.750000  1
  Ag  Ag5  1  0.190811  0.809189  0.250000  1
  F  F6  1  0.684483  0.315517  0.909916  1
  F  F7  1  0.684483  0.315517  0.590084  1
  F  F8  1  0.943241  0.056759  0.894298  1
  F  F9  1  0.943241  0.056759  0.605702  1
  F  F10  1  0.780649  0.219351  0.250000  1
  F  F11  1  0.219351  0.780649  0.750000  1
  F  F12  1  0.056759  0.943241  0.394298  1
  F  F13  1  0.056759  0.943241  0.105702  1
  F  F14  1  0.315517  0.684483  0.090084  1
  F  F15  1  0.315517  0.684483  0.409916  1
