# generated using pymatgen
data_Fe6H12Pb(SO7)4
_symmetry_space_group_name_H-M   'P 1'
_cell_length_a   12.33334218
_cell_length_b   12.33334218
_cell_length_c   12.33334218
_cell_angle_alpha   34.82015597
_cell_angle_beta   34.82015597
_cell_angle_gamma   34.82015597
_symmetry_Int_Tables_number   1
_chemical_formula_structural   Fe6H12Pb(SO7)4
_chemical_formula_sum   'Fe6 H12 Pb1 S4 O28'
_cell_volume   545.98222041
_cell_formula_units_Z   1
loop_
 _symmetry_equiv_pos_site_id
 _symmetry_equiv_pos_as_xyz
  1  'x, y, z'
loop_
 _atom_site_type_symbol
 _atom_site_label
 _atom_site_symmetry_multiplicity
 _atom_site_fract_x
 _atom_site_fract_y
 _atom_site_fract_z
 _atom_site_occupancy
  Fe  Fe0  1  0.753318  0.247522  0.247522  1
  Fe  Fe1  1  0.247522  0.753318  0.247522  1
  Fe  Fe2  1  0.247522  0.247522  0.753318  1
  Fe  Fe3  1  0.752478  0.752478  0.246682  1
  Fe  Fe4  1  0.752478  0.246682  0.752478  1
  Fe  Fe5  1  0.246682  0.752478  0.752478  1
  H  H6  1  0.642204  0.044726  0.642204  1
  H  H7  1  0.044726  0.642204  0.642204  1
  H  H8  1  0.642204  0.642204  0.044726  1
  H  H9  1  0.863013  0.863013  0.422589  1
  H  H10  1  0.863013  0.422589  0.863013  1
  H  H11  1  0.422589  0.863013  0.863013  1
  H  H12  1  0.577411  0.136987  0.136987  1
  H  H13  1  0.136987  0.577411  0.136987  1
  H  H14  1  0.136987  0.136987  0.577411  1
  H  H15  1  0.357796  0.357796  0.955274  1
  H  H16  1  0.955274  0.357796  0.357796  1
  H  H17  1  0.357796  0.955274  0.357796  1
  Pb  Pb18  1  0.500000  0.500000  0.500000  1
  S  S19  1  0.652528  0.652528  0.652528  1
  S  S20  1  0.155284  0.155284  0.155284  1
  S  S21  1  0.844716  0.844716  0.844716  1
  S  S22  1  0.347472  0.347472  0.347472  1
  O  O23  1  0.694890  0.694890  0.694890  1
  O  O24  1  0.079963  0.749245  0.749245  1
  O  O25  1  0.749245  0.079963  0.749245  1
  O  O26  1  0.749245  0.749245  0.079963  1
  O  O27  1  0.560110  0.186528  0.560110  1
  O  O28  1  0.186528  0.560110  0.560110  1
  O  O29  1  0.560110  0.560110  0.186528  1
  O  O30  1  0.197767  0.197767  0.197767  1
  O  O31  1  0.937098  0.937098  0.335376  1
  O  O32  1  0.335376  0.937098  0.937098  1
  O  O33  1  0.937098  0.335376  0.937098  1
  O  O34  1  0.582668  0.251380  0.251380  1
  O  O35  1  0.251380  0.582668  0.251380  1
  O  O36  1  0.748620  0.748620  0.417332  1
  O  O37  1  0.251380  0.251380  0.582668  1
  O  O38  1  0.748620  0.417332  0.748620  1
  O  O39  1  0.417332  0.748620  0.748620  1
  O  O40  1  0.062902  0.664624  0.062902  1
  O  O41  1  0.664624  0.062902  0.062902  1
  O  O42  1  0.062902  0.062902  0.664624  1
  O  O43  1  0.802233  0.802233  0.802233  1
  O  O44  1  0.439890  0.439890  0.813472  1
  O  O45  1  0.813472  0.439890  0.439890  1
  O  O46  1  0.439890  0.813472  0.439890  1
  O  O47  1  0.250755  0.250755  0.920037  1
  O  O48  1  0.250755  0.920037  0.250755  1
  O  O49  1  0.920037  0.250755  0.250755  1
  O  O50  1  0.305110  0.305110  0.305110  1
