# generated using pymatgen
data_LiCoSiO4
_symmetry_space_group_name_H-M   'P 1'
_cell_length_a   5.09209752
_cell_length_b   10.21425805
_cell_length_c   13.38401400
_cell_angle_alpha   90.00000000
_cell_angle_beta   90.00000000
_cell_angle_gamma   90.00000000
_symmetry_Int_Tables_number   1
_chemical_formula_structural   LiCoSiO4
_chemical_formula_sum   'Li8 Co8 Si8 O32'
_cell_volume   696.12931054
_cell_formula_units_Z   8
loop_
 _symmetry_equiv_pos_site_id
 _symmetry_equiv_pos_as_xyz
  1  'x, y, z'
loop_
 _atom_site_type_symbol
 _atom_site_label
 _atom_site_symmetry_multiplicity
 _atom_site_fract_x
 _atom_site_fract_y
 _atom_site_fract_z
 _atom_site_occupancy
  Li  Li0  1  0.913890  0.033654  0.497110  1
  Li  Li1  1  0.557464  0.215151  0.250253  1
  Li  Li2  1  0.557464  0.284849  0.750253  1
  Li  Li3  1  0.913890  0.466346  0.997110  1
  Li  Li4  1  0.086110  0.533654  0.497110  1
  Li  Li5  1  0.442536  0.715151  0.250253  1
  Li  Li6  1  0.442536  0.784849  0.750253  1
  Li  Li7  1  0.086110  0.966346  0.997110  1
  Co  Co8  1  0.066570  0.039310  0.247168  1
  Co  Co9  1  0.555975  0.213824  0.999826  1
  Co  Co10  1  0.555975  0.286176  0.499826  1
  Co  Co11  1  0.066570  0.460690  0.747168  1
  Co  Co12  1  0.933430  0.539310  0.247168  1
  Co  Co13  1  0.444025  0.713824  0.999826  1
  Co  Co14  1  0.444025  0.786176  0.499826  1
  Co  Co15  1  0.933430  0.960690  0.747168  1
  Si  Si16  1  0.431649  0.033896  0.624935  1
  Si  Si17  1  0.053571  0.214163  0.871304  1
  Si  Si18  1  0.053571  0.285837  0.371304  1
  Si  Si19  1  0.431649  0.466104  0.124935  1
  Si  Si20  1  0.568351  0.533896  0.624935  1
  Si  Si21  1  0.946429  0.714163  0.871304  1
  Si  Si22  1  0.946429  0.785837  0.371304  1
  Si  Si23  1  0.568351  0.966104  0.124935  1
  O  O24  1  0.886789  0.993989  0.130097  1
  O  O25  1  0.550643  0.959060  0.525587  1
  O  O26  1  0.428623  0.031717  0.224005  1
  O  O27  1  0.994589  0.055918  0.864138  1
  O  O28  1  0.497364  0.191060  0.618238  1
  O  O29  1  0.896858  0.228544  0.469914  1
  O  O30  1  0.944176  0.289807  0.771304  1
  O  O31  1  0.369995  0.243728  0.880522  1
  O  O32  1  0.369995  0.256272  0.380522  1
  O  O33  1  0.944176  0.210193  0.271304  1
  O  O34  1  0.896858  0.271456  0.969914  1
  O  O35  1  0.497364  0.308940  0.118238  1
  O  O36  1  0.994589  0.444082  0.364138  1
  O  O37  1  0.428623  0.468283  0.724005  1
  O  O38  1  0.550643  0.540940  0.025587  1
  O  O39  1  0.886789  0.506011  0.630097  1
  O  O40  1  0.113211  0.493989  0.130097  1
  O  O41  1  0.449357  0.459060  0.525587  1
  O  O42  1  0.571377  0.531717  0.224005  1
  O  O43  1  0.005411  0.555918  0.864138  1
  O  O44  1  0.502636  0.691060  0.618238  1
  O  O45  1  0.103142  0.728544  0.469914  1
  O  O46  1  0.055824  0.789807  0.771304  1
  O  O47  1  0.630005  0.743728  0.880522  1
  O  O48  1  0.630005  0.756272  0.380522  1
  O  O49  1  0.055824  0.710193  0.271304  1
  O  O50  1  0.103142  0.771456  0.969914  1
  O  O51  1  0.502636  0.808940  0.118238  1
  O  O52  1  0.005411  0.944082  0.364138  1
  O  O53  1  0.571377  0.968283  0.724005  1
  O  O54  1  0.449357  0.040940  0.025587  1
  O  O55  1  0.113211  0.006011  0.630097  1
