# generated using pymatgen
data_LiAlFeO4
_symmetry_space_group_name_H-M   'P 1'
_cell_length_a   5.74049913
_cell_length_b   5.74049913
_cell_length_c   8.35172879
_cell_angle_alpha   90.00000000
_cell_angle_beta   90.00000000
_cell_angle_gamma   90.00000000
_symmetry_Int_Tables_number   1
_chemical_formula_structural   LiAlFeO4
_chemical_formula_sum   'Li4 Al4 Fe4 O16'
_cell_volume   275.21727707
_cell_formula_units_Z   4
loop_
 _symmetry_equiv_pos_site_id
 _symmetry_equiv_pos_as_xyz
  1  'x, y, z'
loop_
 _atom_site_type_symbol
 _atom_site_label
 _atom_site_symmetry_multiplicity
 _atom_site_fract_x
 _atom_site_fract_y
 _atom_site_fract_z
 _atom_site_occupancy
  Li  Li0  1  0.000000  0.232874  0.000000  1
  Li  Li1  1  0.000000  0.767126  0.500000  1
  Li  Li2  1  0.232874  0.000000  0.250000  1
  Li  Li3  1  0.767126  0.000000  0.750000  1
  Al  Al4  1  0.262306  0.262306  0.625000  1
  Al  Al5  1  0.262306  0.737694  0.875000  1
  Al  Al6  1  0.737694  0.262306  0.375000  1
  Al  Al7  1  0.737694  0.737694  0.125000  1
  Fe  Fe8  1  0.230354  0.500000  0.250000  1
  Fe  Fe9  1  0.500000  0.230354  0.000000  1
  Fe  Fe10  1  0.500000  0.769646  0.500000  1
  Fe  Fe11  1  0.769646  0.500000  0.750000  1
  O  O12  1  0.000938  0.264791  0.260903  1
  O  O13  1  0.000938  0.735209  0.239097  1
  O  O14  1  0.264791  0.000938  0.989097  1
  O  O15  1  0.264791  0.999062  0.510903  1
  O  O16  1  0.263915  0.487887  0.007921  1
  O  O17  1  0.263915  0.512113  0.492079  1
  O  O18  1  0.487887  0.263915  0.242079  1
  O  O19  1  0.487887  0.736085  0.257921  1
  O  O20  1  0.512113  0.263915  0.757921  1
  O  O21  1  0.512113  0.736085  0.742079  1
  O  O22  1  0.736085  0.512113  0.507921  1
  O  O23  1  0.736085  0.487887  0.992079  1
  O  O24  1  0.735209  0.000938  0.010903  1
  O  O25  1  0.735209  0.999062  0.489097  1
  O  O26  1  0.999062  0.264791  0.739097  1
  O  O27  1  0.999062  0.735209  0.760903  1
