# generated using pymatgen
data_Li7CrFe3(PO4)6
_symmetry_space_group_name_H-M   'P 1'
_cell_length_a   8.78462815
_cell_length_b   8.78462815
_cell_length_c   8.78462815
_cell_angle_alpha   60.34428128
_cell_angle_beta   60.34428128
_cell_angle_gamma   60.34428128
_symmetry_Int_Tables_number   1
_chemical_formula_structural   Li7CrFe3(PO4)6
_chemical_formula_sum   'Li7 Cr1 Fe3 P6 O24'
_cell_volume   483.08615173
_cell_formula_units_Z   1
loop_
 _symmetry_equiv_pos_site_id
 _symmetry_equiv_pos_as_xyz
  1  'x, y, z'
loop_
 _atom_site_type_symbol
 _atom_site_label
 _atom_site_symmetry_multiplicity
 _atom_site_fract_x
 _atom_site_fract_y
 _atom_site_fract_z
 _atom_site_occupancy
  Li  Li0  1  0.164026  0.706599  0.345931  1
  Li  Li1  1  0.345931  0.164026  0.706599  1
  Li  Li2  1  0.706599  0.345931  0.164026  1
  Li  Li3  1  0.520705  0.520705  0.520705  1
  Li  Li4  1  0.197649  0.755679  0.939719  1
  Li  Li5  1  0.755679  0.939719  0.197649  1
  Li  Li6  1  0.939719  0.197649  0.755679  1
  Cr  Cr7  1  0.855525  0.855525  0.855525  1
  Fe  Fe8  1  0.348490  0.348490  0.348490  1
  Fe  Fe9  1  0.146241  0.146241  0.146241  1
  Fe  Fe10  1  0.646947  0.646947  0.646947  1
  P  P11  1  0.042908  0.462076  0.749642  1
  P  P12  1  0.462076  0.749642  0.042908  1
  P  P13  1  0.749642  0.042908  0.462076  1
  P  P14  1  0.248056  0.954010  0.546765  1
  P  P15  1  0.546765  0.248056  0.954010  1
  P  P16  1  0.954010  0.546765  0.248056  1
  O  O17  1  0.092953  0.264854  0.896661  1
  O  O18  1  0.999207  0.622042  0.803107  1
  O  O19  1  0.214726  0.462064  0.570812  1
  O  O20  1  0.471393  0.724037  0.873036  1
  O  O21  1  0.264854  0.896661  0.092953  1
  O  O22  1  0.462064  0.570812  0.214726  1
  O  O23  1  0.724037  0.873036  0.471393  1
  O  O24  1  0.570812  0.214726  0.462064  1
  O  O25  1  0.193837  0.994711  0.386143  1
  O  O26  1  0.084391  0.930166  0.737753  1
  O  O27  1  0.873036  0.471393  0.724037  1
  O  O28  1  0.386143  0.193837  0.994711  1
  O  O29  1  0.622042  0.803107  0.999207  1
  O  O30  1  0.115719  0.535607  0.281119  1
  O  O31  1  0.896661  0.092953  0.264854  1
  O  O32  1  0.803107  0.999207  0.622042  1
  O  O33  1  0.415910  0.771371  0.563102  1
  O  O34  1  0.281119  0.115719  0.535607  1
  O  O35  1  0.563102  0.415910  0.771371  1
  O  O36  1  0.737753  0.084391  0.930166  1
  O  O37  1  0.535607  0.281119  0.115719  1
  O  O38  1  0.994711  0.386143  0.193837  1
  O  O39  1  0.771371  0.563102  0.415910  1
  O  O40  1  0.930166  0.737753  0.084391  1
