# generated using pymatgen
data_NaMn2O4
_symmetry_space_group_name_H-M   'P 1'
_cell_length_a   5.16230608
_cell_length_b   5.16230608
_cell_length_c   9.85335466
_cell_angle_alpha   90.00000000
_cell_angle_beta   90.00000000
_cell_angle_gamma   146.14914831
_symmetry_Int_Tables_number   1
_chemical_formula_structural   NaMn2O4
_chemical_formula_sum   'Na2 Mn4 O8'
_cell_volume   146.26906285
_cell_formula_units_Z   2
loop_
 _symmetry_equiv_pos_site_id
 _symmetry_equiv_pos_as_xyz
  1  'x, y, z'
loop_
 _atom_site_type_symbol
 _atom_site_label
 _atom_site_symmetry_multiplicity
 _atom_site_fract_x
 _atom_site_fract_y
 _atom_site_fract_z
 _atom_site_occupancy
  Na  Na0  1  0.107441  0.892559  0.250000  1
  Na  Na1  1  0.892559  0.107441  0.750000  1
  Mn  Mn2  1  0.637539  0.362461  0.927712  1
  Mn  Mn3  1  0.362461  0.637539  0.427712  1
  Mn  Mn4  1  0.637539  0.362461  0.572288  1
  Mn  Mn5  1  0.362461  0.637539  0.072288  1
  O  O6  1  0.265001  0.734999  0.603927  1
  O  O7  1  0.265001  0.734999  0.896073  1
  O  O8  1  0.734999  0.265001  0.396073  1
  O  O9  1  0.734999  0.265001  0.103927  1
  O  O10  1  0.433869  0.566131  0.250000  1
  O  O11  1  0.566131  0.433869  0.750000  1
  O  O12  1  0.000000  0.000000  0.500000  1
  O  O13  1  0.000000  0.000000  0.000000  1
