# generated using pymatgen
data_KCaP3H4O11
_symmetry_space_group_name_H-M   'P 1'
_cell_length_a   7.91372971
_cell_length_b   12.82600379
_cell_length_c   20.56169258
_cell_angle_alpha   90.00000000
_cell_angle_beta   90.68682166
_cell_angle_gamma   90.00000000
_symmetry_Int_Tables_number   1
_chemical_formula_structural   KCaP3H4O11
_chemical_formula_sum   'K8 Ca8 P24 H32 O88'
_cell_volume   2086.89325133
_cell_formula_units_Z   8
loop_
 _symmetry_equiv_pos_site_id
 _symmetry_equiv_pos_as_xyz
  1  'x, y, z'
loop_
 _atom_site_type_symbol
 _atom_site_label
 _atom_site_symmetry_multiplicity
 _atom_site_fract_x
 _atom_site_fract_y
 _atom_site_fract_z
 _atom_site_occupancy
  K  K0  1  0.986883  0.730640  0.663339  1
  K  K1  1  0.013117  0.230640  0.836661  1
  K  K2  1  0.013117  0.269360  0.336661  1
  K  K3  1  0.986883  0.769360  0.163339  1
  K  K4  1  0.736963  0.550497  0.834346  1
  K  K5  1  0.263037  0.050497  0.665654  1
  K  K6  1  0.263037  0.449503  0.165654  1
  K  K7  1  0.736963  0.949503  0.334346  1
  Ca  Ca8  1  0.508602  0.754471  0.624451  1
  Ca  Ca9  1  0.491398  0.254471  0.875549  1
  Ca  Ca10  1  0.491398  0.245529  0.375549  1
  Ca  Ca11  1  0.508602  0.745529  0.124451  1
  Ca  Ca12  1  0.000280  0.303692  0.586911  1
  Ca  Ca13  1  0.999720  0.803692  0.913089  1
  Ca  Ca14  1  0.999720  0.696308  0.413089  1
  Ca  Ca15  1  0.000280  0.196308  0.086911  1
  P  P16  1  0.685494  0.828441  0.783155  1
  P  P17  1  0.314506  0.328441  0.716845  1
  P  P18  1  0.314506  0.171559  0.216845  1
  P  P19  1  0.685494  0.671559  0.283155  1
  P  P20  1  0.668699  0.992244  0.882885  1
  P  P21  1  0.331301  0.492244  0.617115  1
  P  P22  1  0.331301  0.007756  0.117115  1
  P  P23  1  0.668699  0.507756  0.382885  1
  P  P24  1  0.700820  0.504249  0.638581  1
  P  P25  1  0.299180  0.004249  0.861419  1
  P  P26  1  0.299180  0.495751  0.361419  1
  P  P27  1  0.700820  0.995751  0.138581  1
  P  P28  1  0.316058  0.814340  0.781758  1
  P  P29  1  0.683942  0.314340  0.718242  1
  P  P30  1  0.683942  0.185660  0.218242  1
  P  P31  1  0.316058  0.685660  0.281758  1
  P  P32  1  0.831941  0.613795  0.020879  1
  P  P33  1  0.168059  0.113795  0.479121  1
  P  P34  1  0.168059  0.386205  0.979121  1
  P  P35  1  0.831941  0.886205  0.520879  1
  P  P36  1  0.211067  0.611139  0.016889  1
  P  P37  1  0.788933  0.111139  0.483111  1
  P  P38  1  0.788933  0.388861  0.983111  1
  P  P39  1  0.211067  0.888861  0.516889  1
  H  H40  1  0.087532  0.631897  0.798047  1
  H  H41  1  0.912468  0.131897  0.701953  1
  H  H42  1  0.912468  0.368103  0.201953  1
  H  H43  1  0.087532  0.868103  0.298047  1
  H  H44  1  0.868865  0.035658  0.743818  1
  H  H45  1  0.131135  0.535658  0.756182  1
  H  H46  1  0.131135  0.964342  0.256182  1
  H  H47  1  0.868865  0.464342  0.243818  1
  H  H48  1  0.413502  0.801448  0.994355  1
  H  H49  1  0.586498  0.301448  0.505645  1
  H  H50  1  0.586498  0.198552  0.005645  1
  H  H51  1  0.413502  0.698552  0.494355  1
  H  H52  1  0.398599  0.162447  0.015327  1
  H  H53  1  0.601401  0.662447  0.484673  1
  H  H54  1  0.601401  0.837553  0.984673  1
  H  H55  1  0.398599  0.337553  0.515327  1
  H  H56  1  0.049731  0.073864  0.963670  1
  H  H57  1  0.950269  0.573864  0.536330  1
  H  H58  1  0.950269  0.926136  0.036330  1
  H  H59  1  0.049731  0.426136  0.463670  1
  H  H60  1  0.122473  0.630890  0.550084  1
  H  H61  1  0.877527  0.130890  0.949916  1
  H  H62  1  0.877527  0.369110  0.449916  1
  H  H63  1  0.122473  0.869110  0.050084  1
  H  H64  1  0.353758  0.609095  0.863274  1
  H  H65  1  0.646242  0.109095  0.636726  1
  H  H66  1  0.646242  0.390905  0.136726  1
  H  H67  1  0.353758  0.890905  0.363274  1
  H  H68  1  0.627818  0.989077  0.637807  1
  H  H69  1  0.372182  0.489077  0.862193  1
  H  H70  1  0.372182  0.010923  0.362193  1
  H  H71  1  0.627818  0.510923  0.137807  1
  O  O72  1  0.818760  0.767181  0.818933  1
  O  O73  1  0.181240  0.267181  0.681067  1
  O  O74  1  0.181240  0.232819  0.181067  1
  O  O75  1  0.818760  0.732819  0.318933  1
  O  O76  1  0.685395  0.832771  0.710531  1
  O  O77  1  0.314605  0.332771  0.789469  1
  O  O78  1  0.314605  0.167229  0.289469  1
  O  O79  1  0.685395  0.667229  0.210531  1
  O  O80  1  0.687896  0.949586  0.808316  1
  O  O81  1  0.312104  0.449586  0.691684  1
  O  O82  1  0.312104  0.050414  0.191684  1
  O  O83  1  0.687896  0.550414  0.308316  1
  O  O84  1  0.231154  0.424505  0.571168  1
  O  O85  1  0.768846  0.924505  0.928832  1
  O  O86  1  0.768846  0.575495  0.428832  1
  O  O87  1  0.231154  0.075495  0.071168  1
  O  O88  1  0.297268  0.607448  0.619633  1
  O  O89  1  0.702732  0.107448  0.880367  1
  O  O90  1  0.702732  0.392552  0.380367  1
  O  O91  1  0.297268  0.892552  0.119633  1
  O  O92  1  0.528364  0.467403  0.601774  1
  O  O93  1  0.471636  0.967403  0.898226  1
  O  O94  1  0.471636  0.532597  0.398226  1
  O  O95  1  0.528364  0.032597  0.101774  1
  O  O96  1  0.846319  0.464952  0.599257  1
  O  O97  1  0.153681  0.964952  0.900743  1
  O  O98  1  0.153681  0.535048  0.400743  1
  O  O99  1  0.846319  0.035048  0.099257  1
  O  O100  1  0.690623  0.616978  0.656449  1
  O  O101  1  0.309377  0.116978  0.843551  1
  O  O102  1  0.309377  0.383022  0.343551  1
  O  O103  1  0.690623  0.883022  0.156449  1
  O  O104  1  0.307585  0.940278  0.792660  1
  O  O105  1  0.692415  0.440278  0.707340  1
  O  O106  1  0.692415  0.059722  0.207340  1
  O  O107  1  0.307585  0.559722  0.292660  1
  O  O108  1  0.193217  0.760598  0.825685  1
  O  O109  1  0.806783  0.260598  0.674315  1
  O  O110  1  0.806783  0.239402  0.174315  1
  O  O111  1  0.193217  0.739402  0.325685  1
  O  O112  1  0.695453  0.298449  0.790315  1
  O  O113  1  0.304547  0.798449  0.709685  1
  O  O114  1  0.304547  0.701551  0.209685  1
  O  O115  1  0.695453  0.201551  0.290315  1
  O  O116  1  0.495859  0.285076  0.690915  1
  O  O117  1  0.504141  0.785076  0.809085  1
  O  O118  1  0.504141  0.714924  0.309085  1
  O  O119  1  0.495859  0.214924  0.190915  1
  O  O120  1  0.837574  0.656266  0.952696  1
  O  O121  1  0.162426  0.156266  0.547304  1
  O  O122  1  0.162426  0.343734  0.047304  1
  O  O123  1  0.837574  0.843734  0.452696  1
  O  O124  1  0.254540  0.331261  0.925186  1
  O  O125  1  0.745460  0.831261  0.574814  1
  O  O126  1  0.745460  0.668739  0.074814  1
  O  O127  1  0.254540  0.168739  0.425186  1
  O  O128  1  0.245962  0.503157  0.978636  1
  O  O129  1  0.754038  0.003157  0.521364  1
  O  O130  1  0.754038  0.496843  0.021364  1
  O  O131  1  0.245962  0.996843  0.478636  1
  O  O132  1  0.211024  0.697106  0.967178  1
  O  O133  1  0.788976  0.197106  0.532822  1
  O  O134  1  0.788976  0.302894  0.032822  1
  O  O135  1  0.211024  0.802894  0.467178  1
  O  O136  1  0.671752  0.381091  0.925497  1
  O  O137  1  0.328248  0.881091  0.574503  1
  O  O138  1  0.328248  0.618909  0.074503  1
  O  O139  1  0.671752  0.118909  0.425497  1
  O  O140  1  0.975037  0.407546  0.952337  1
  O  O141  1  0.024963  0.907546  0.547663  1
  O  O142  1  0.024963  0.592454  0.047663  1
  O  O143  1  0.975037  0.092454  0.452337  1
  O  O144  1  0.964455  0.078814  0.730238  1
  O  O145  1  0.035545  0.578814  0.769762  1
  O  O146  1  0.035545  0.921186  0.269762  1
  O  O147  1  0.964455  0.421186  0.230238  1
  O  O148  1  0.481141  0.182075  0.982609  1
  O  O149  1  0.518859  0.682075  0.517391  1
  O  O150  1  0.518859  0.817925  0.017391  1
  O  O151  1  0.481141  0.317925  0.482609  1
  O  O152  1  0.011395  0.639401  0.528614  1
  O  O153  1  0.988605  0.139401  0.971386  1
  O  O154  1  0.988605  0.360599  0.471386  1
  O  O155  1  0.011395  0.860599  0.028614  1
  O  O156  1  0.598873  0.051934  0.661885  1
  O  O157  1  0.401127  0.551934  0.838115  1
  O  O158  1  0.401127  0.948066  0.338115  1
  O  O159  1  0.598873  0.448066  0.161885  1
