# generated using pymatgen
data_NaSmO2
_symmetry_space_group_name_H-M   'P 1'
_cell_length_a   6.34440661
_cell_length_b   6.34440661
_cell_length_c   6.34440661
_cell_angle_alpha   136.33331011
_cell_angle_beta   136.33331011
_cell_angle_gamma   63.46545141
_symmetry_Int_Tables_number   1
_chemical_formula_structural   NaSmO2
_chemical_formula_sum   'Na2 Sm2 O4'
_cell_volume   120.16672304
_cell_formula_units_Z   2
loop_
 _symmetry_equiv_pos_site_id
 _symmetry_equiv_pos_as_xyz
  1  'x, y, z'
loop_
 _atom_site_type_symbol
 _atom_site_label
 _atom_site_symmetry_multiplicity
 _atom_site_fract_x
 _atom_site_fract_y
 _atom_site_fract_z
 _atom_site_occupancy
  Na  Na0  1  0.500000  0.500000  0.000000  1
  Na  Na1  1  0.250000  0.750000  0.500000  1
  Sm  Sm2  1  0.000000  0.000000  0.000000  1
  Sm  Sm3  1  0.750000  0.250000  0.500000  1
  O  O4  1  0.780111  0.780111  0.000000  1
  O  O5  1  0.969889  0.469889  0.500000  1
  O  O6  1  0.530111  0.030111  0.500000  1
  O  O7  1  0.219889  0.219889  0.000000  1
