# generated using pymatgen
data_Li3V2(PO4)3
_symmetry_space_group_name_H-M   'P 1'
_cell_length_a   8.63614560
_cell_length_b   8.63614560
_cell_length_c   8.62726914
_cell_angle_alpha   61.63816488
_cell_angle_beta   118.36183512
_cell_angle_gamma   118.49361242
_symmetry_Int_Tables_number   1
_chemical_formula_structural   Li3V2(PO4)3
_chemical_formula_sum   'Li6 V4 P6 O24'
_cell_volume   471.25627115
_cell_formula_units_Z   2
loop_
 _symmetry_equiv_pos_site_id
 _symmetry_equiv_pos_as_xyz
  1  'x, y, z'
loop_
 _atom_site_type_symbol
 _atom_site_label
 _atom_site_symmetry_multiplicity
 _atom_site_fract_x
 _atom_site_fract_y
 _atom_site_fract_z
 _atom_site_occupancy
  Li  Li0  1  0.994609  0.496657  0.278091  1
  Li  Li1  1  0.849113  0.849113  0.000000  1
  Li  Li2  1  0.496657  0.994609  0.721909  1
  Li  Li3  1  0.153967  0.153967  0.500000  1
  Li  Li4  1  0.746342  0.342321  0.904166  1
  Li  Li5  1  0.342321  0.746342  0.095834  1
  V  V6  1  0.854839  0.638124  0.392201  1
  V  V7  1  0.638124  0.854839  0.607799  1
  V  V8  1  0.354607  0.145342  0.895730  1
  V  V9  1  0.145342  0.354607  0.104270  1
  P  P10  1  0.248744  0.950594  0.298753  1
  P  P11  1  0.950594  0.248744  0.701247  1
  P  P12  1  0.546585  0.546585  0.000000  1
  P  P13  1  0.457844  0.457844  0.500000  1
  P  P14  1  0.037452  0.750709  0.793626  1
  P  P15  1  0.750709  0.037452  0.206374  1
  O  O16  1  0.711195  0.998070  0.377120  1
  O  O17  1  0.491737  0.616375  0.556198  1
  O  O18  1  0.079595  0.767719  0.298739  1
  O  O19  1  0.879427  0.798049  0.780251  1
  O  O20  1  0.407403  0.927994  0.487235  1
  O  O21  1  0.195593  0.111141  0.270215  1
  O  O22  1  0.927994  0.407403  0.512765  1
  O  O23  1  0.767719  0.079595  0.701261  1
  O  O24  1  0.567447  0.739486  0.846086  1
  O  O25  1  0.616375  0.491737  0.443802  1
  O  O26  1  0.264499  0.435089  0.340616  1
  O  O27  1  0.998070  0.711195  0.622880  1
  O  O28  1  0.986773  0.307882  0.862439  1
  O  O29  1  0.739486  0.567447  0.153914  1
  O  O30  1  0.388282  0.512802  0.060977  1
  O  O31  1  0.435089  0.264499  0.659384  1
  O  O32  1  0.230417  0.911302  0.817269  1
  O  O33  1  0.066116  0.588757  0.981490  1
  O  O34  1  0.798049  0.879427  0.219749  1
  O  O35  1  0.588757  0.066116  0.018510  1
  O  O36  1  0.111141  0.195593  0.729785  1
  O  O37  1  0.911302  0.230417  0.182731  1
  O  O38  1  0.512802  0.388282  0.939023  1
  O  O39  1  0.307882  0.986773  0.137561  1
