# generated using pymatgen
data_Na2ZrSe3
_symmetry_space_group_name_H-M   'P 1'
_cell_length_a   7.01540845
_cell_length_b   7.01540845
_cell_length_c   7.33795997
_cell_angle_alpha   80.70523818
_cell_angle_beta   99.29476182
_cell_angle_gamma   59.91817997
_symmetry_Int_Tables_number   1
_chemical_formula_structural   Na2ZrSe3
_chemical_formula_sum   'Na4 Zr2 Se6'
_cell_volume   295.70626322
_cell_formula_units_Z   2
loop_
 _symmetry_equiv_pos_site_id
 _symmetry_equiv_pos_as_xyz
  1  'x, y, z'
loop_
 _atom_site_type_symbol
 _atom_site_label
 _atom_site_symmetry_multiplicity
 _atom_site_fract_x
 _atom_site_fract_y
 _atom_site_fract_z
 _atom_site_occupancy
  Na  Na0  1  0.000000  0.000000  0.000000  1
  Na  Na1  1  0.500000  0.500000  0.500000  1
  Na  Na2  1  0.842367  0.842367  0.500000  1
  Na  Na3  1  0.157633  0.157633  0.500000  1
  Zr  Zr4  1  0.331227  0.331227  0.000000  1
  Zr  Zr5  1  0.668773  0.668773  0.000000  1
  Se  Se6  1  0.562831  0.075766  0.775801  1
  Se  Se7  1  0.714047  0.285953  0.222793  1
  Se  Se8  1  0.437169  0.924234  0.224199  1
  Se  Se9  1  0.075766  0.562831  0.224199  1
  Se  Se10  1  0.924234  0.437169  0.775801  1
  Se  Se11  1  0.285953  0.714047  0.777207  1
