# generated using pymatgen
data_MnPO4
_symmetry_space_group_name_H-M   'P 1'
_cell_length_a   9.16656552
_cell_length_b   9.22763173
_cell_length_c   9.58989728
_cell_angle_alpha   90.00000000
_cell_angle_beta   90.00000000
_cell_angle_gamma   90.00000000
_symmetry_Int_Tables_number   1
_chemical_formula_structural   MnPO4
_chemical_formula_sum   'Mn8 P8 O32'
_cell_volume   811.16808659
_cell_formula_units_Z   8
loop_
 _symmetry_equiv_pos_site_id
 _symmetry_equiv_pos_as_xyz
  1  'x, y, z'
loop_
 _atom_site_type_symbol
 _atom_site_label
 _atom_site_symmetry_multiplicity
 _atom_site_fract_x
 _atom_site_fract_y
 _atom_site_fract_z
 _atom_site_occupancy
  Mn  Mn0  1  0.603515  0.065815  0.218530  1
  Mn  Mn1  1  0.103515  0.065815  0.281470  1
  Mn  Mn2  1  0.103515  0.434185  0.781470  1
  Mn  Mn3  1  0.603515  0.434185  0.718530  1
  Mn  Mn4  1  0.396485  0.565815  0.281470  1
  Mn  Mn5  1  0.896485  0.565815  0.218530  1
  Mn  Mn6  1  0.896485  0.934185  0.718530  1
  Mn  Mn7  1  0.396485  0.934185  0.781470  1
  P  P8  1  0.182077  0.128456  0.607997  1
  P  P9  1  0.682077  0.128456  0.892003  1
  P  P10  1  0.182077  0.371544  0.107997  1
  P  P11  1  0.682077  0.371544  0.392003  1
  P  P12  1  0.317923  0.628456  0.607997  1
  P  P13  1  0.817923  0.628456  0.892003  1
  P  P14  1  0.317923  0.871544  0.107997  1
  P  P15  1  0.817923  0.871544  0.392003  1
  O  O16  1  0.420835  0.995343  0.154005  1
  O  O17  1  0.920835  0.995343  0.345995  1
  O  O18  1  0.333909  0.099934  0.672336  1
  O  O19  1  0.833909  0.099934  0.827664  1
  O  O20  1  0.196909  0.132163  0.447570  1
  O  O21  1  0.696909  0.132163  0.052430  1
  O  O22  1  0.125478  0.222887  0.155346  1
  O  O23  1  0.625478  0.222887  0.344654  1
  O  O24  1  0.125478  0.277113  0.655346  1
  O  O25  1  0.625478  0.277113  0.844654  1
  O  O26  1  0.196909  0.367837  0.947570  1
  O  O27  1  0.696909  0.367837  0.552430  1
  O  O28  1  0.333909  0.400066  0.172336  1
  O  O29  1  0.833909  0.400066  0.327664  1
  O  O30  1  0.420835  0.504657  0.654005  1
  O  O31  1  0.920835  0.504657  0.845995  1
  O  O32  1  0.079165  0.495343  0.154005  1
  O  O33  1  0.579165  0.495343  0.345995  1
  O  O34  1  0.166091  0.599934  0.672336  1
  O  O35  1  0.666091  0.599934  0.827664  1
  O  O36  1  0.303091  0.632163  0.447570  1
  O  O37  1  0.803091  0.632163  0.052430  1
  O  O38  1  0.374522  0.722887  0.155346  1
  O  O39  1  0.874522  0.722887  0.344654  1
  O  O40  1  0.374522  0.777113  0.655346  1
  O  O41  1  0.874522  0.777113  0.844654  1
  O  O42  1  0.303091  0.867837  0.947570  1
  O  O43  1  0.803091  0.867837  0.552430  1
  O  O44  1  0.166091  0.900066  0.172336  1
  O  O45  1  0.666091  0.900066  0.327664  1
  O  O46  1  0.079165  0.004657  0.654005  1
  O  O47  1  0.579165  0.004657  0.845995  1
