# generated using pymatgen
data_Li3Fe8(BO3)8
_symmetry_space_group_name_H-M   'P 1'
_cell_length_a   5.28720366
_cell_length_b   9.07107525
_cell_length_c   11.35973099
_cell_angle_alpha   113.32724799
_cell_angle_beta   102.85652063
_cell_angle_gamma   89.80543209
_symmetry_Int_Tables_number   1
_chemical_formula_structural   Li3Fe8(BO3)8
_chemical_formula_sum   'Li3 Fe8 B8 O24'
_cell_volume   485.55458092
_cell_formula_units_Z   1
loop_
 _symmetry_equiv_pos_site_id
 _symmetry_equiv_pos_as_xyz
  1  'x, y, z'
loop_
 _atom_site_type_symbol
 _atom_site_label
 _atom_site_symmetry_multiplicity
 _atom_site_fract_x
 _atom_site_fract_y
 _atom_site_fract_z
 _atom_site_occupancy
  Li  Li0  1  0.600446  0.944985  0.904169  1
  Li  Li1  1  0.935114  0.569763  0.165498  1
  Li  Li2  1  0.674963  0.332976  0.652215  1
  Fe  Fe3  1  0.406250  0.734890  0.126708  1
  Fe  Fe4  1  0.098385  0.774514  0.875661  1
  Fe  Fe5  1  0.847683  0.859966  0.383501  1
  Fe  Fe6  1  0.651304  0.653385  0.628375  1
  Fe  Fe7  1  0.349290  0.353566  0.372944  1
  Fe  Fe8  1  0.152809  0.150184  0.628853  1
  Fe  Fe9  1  0.901914  0.214897  0.131887  1
  Fe  Fe10  1  0.593675  0.274065  0.880150  1
  B  B11  1  0.651895  0.985532  0.633218  1
  B  B12  1  0.889357  0.883466  0.123616  1
  B  B13  1  0.138534  0.482278  0.624959  1
  B  B14  1  0.404982  0.406058  0.130093  1
  B  B15  1  0.849861  0.518821  0.378674  1
  B  B16  1  0.594443  0.603971  0.871835  1
  B  B17  1  0.353561  0.020581  0.375015  1
  B  B18  1  0.109012  0.109082  0.881903  1
  O  O19  1  0.120577  0.850173  0.085441  1
  O  O20  1  0.473662  0.877854  0.325622  1
  O  O21  1  0.234387  0.980057  0.885528  1
  O  O22  1  0.547554  0.859451  0.648503  1
  O  O23  1  0.856442  0.969933  0.572356  1
  O  O24  1  0.795664  0.777560  0.172449  1
  O  O25  1  0.280875  0.540019  0.131834  1
  O  O26  1  0.027974  0.628891  0.662707  1
  O  O27  1  0.693845  0.710750  0.827317  1
  O  O28  1  0.631659  0.525562  0.430977  1
  O  O29  1  0.927346  0.645649  0.354951  1
  O  O30  1  0.396609  0.652576  0.935622  1
  O  O31  1  0.634994  0.374751  0.083385  1
  O  O32  1  0.380593  0.474285  0.587316  1
  O  O33  1  0.304616  0.304571  0.177301  1
  O  O34  1  0.976452  0.379082  0.343135  1
  O  O35  1  0.690390  0.457670  0.850229  1
  O  O36  1  0.220552  0.219195  0.845608  1
  O  O37  1  0.131770  0.013707  0.418490  1
  O  O38  1  0.459660  0.162740  0.385448  1
  O  O39  1  0.021273  0.351075  0.626658  1
  O  O40  1  0.752719  0.002695  0.106020  1
  O  O41  1  0.557235  0.138500  0.679343  1
  O  O42  1  0.864969  0.135352  0.915888  1
