# generated using pymatgen
data_HoSO
_symmetry_space_group_name_H-M   'P 1'
_cell_length_a   6.84483504
_cell_length_b   6.84483504
_cell_length_c   5.64854944
_cell_angle_alpha   90.00000000
_cell_angle_beta   90.00000000
_cell_angle_gamma   131.18937348
_symmetry_Int_Tables_number   1
_chemical_formula_structural   HoSO
_chemical_formula_sum   'Ho4 S4 O4'
_cell_volume   199.15481012
_cell_formula_units_Z   4
loop_
 _symmetry_equiv_pos_site_id
 _symmetry_equiv_pos_as_xyz
  1  'x, y, z'
loop_
 _atom_site_type_symbol
 _atom_site_label
 _atom_site_symmetry_multiplicity
 _atom_site_fract_x
 _atom_site_fract_y
 _atom_site_fract_z
 _atom_site_occupancy
  Ho  Ho0  1  0.164313  0.835687  0.500000  1
  Ho  Ho1  1  0.335687  0.664313  0.000000  1
  Ho  Ho2  1  0.664313  0.335687  0.000000  1
  Ho  Ho3  1  0.835687  0.164313  0.500000  1
  S  S4  1  0.631298  0.631298  0.368185  1
  S  S5  1  0.131298  0.131298  0.131815  1
  S  S6  1  0.368702  0.368702  0.631815  1
  S  S7  1  0.868702  0.868702  0.868185  1
  O  O8  1  0.006644  0.506644  0.250000  1
  O  O9  1  0.493356  0.993356  0.750000  1
  O  O10  1  0.993356  0.493356  0.750000  1
  O  O11  1  0.506644  0.006644  0.250000  1
