# generated using pymatgen
data_LiV(PO3)4
_symmetry_space_group_name_H-M   'P 1'
_cell_length_a   7.01831599
_cell_length_b   8.75420895
_cell_length_c   7.40437995
_cell_angle_alpha   90.00000000
_cell_angle_beta   94.26484598
_cell_angle_gamma   90.00000000
_symmetry_Int_Tables_number   1
_chemical_formula_structural   LiV(PO3)4
_chemical_formula_sum   'Li2 V2 P8 O24'
_cell_volume   453.66395112
_cell_formula_units_Z   2
loop_
 _symmetry_equiv_pos_site_id
 _symmetry_equiv_pos_as_xyz
  1  'x, y, z'
loop_
 _atom_site_type_symbol
 _atom_site_label
 _atom_site_symmetry_multiplicity
 _atom_site_fract_x
 _atom_site_fract_y
 _atom_site_fract_z
 _atom_site_occupancy
  Li  Li0  1  0.653131  0.364715  0.332093  1
  Li  Li1  1  0.346869  0.864715  0.667907  1
  V  V2  1  0.772475  0.928486  0.772255  1
  V  V3  1  0.227525  0.428486  0.227745  1
  P  P4  1  0.015218  0.372375  0.585499  1
  P  P5  1  0.917973  0.575014  0.907069  1
  P  P6  1  0.609448  0.733732  0.405678  1
  P  P7  1  0.571296  0.376254  0.924685  1
  P  P8  1  0.428704  0.876254  0.075315  1
  P  P9  1  0.390552  0.233732  0.594322  1
  P  P10  1  0.082027  0.075014  0.092931  1
  P  P11  1  0.984782  0.872375  0.414501  1
  O  O12  1  0.980392  0.962092  0.225860  1
  O  O13  1  0.015394  0.545708  0.091628  1
  O  O14  1  0.893404  0.976845  0.548093  1
  O  O15  1  0.922296  0.734848  0.833999  1
  O  O16  1  0.833110  0.736810  0.364661  1
  O  O17  1  0.822989  0.310551  0.533142  1
  O  O18  1  0.695360  0.531964  0.906623  1
  O  O19  1  0.692139  0.245995  0.985094  1
  O  O20  1  0.593504  0.784272  0.601023  1
  O  O21  1  0.522305  0.870747  0.281356  1
  O  O22  1  0.592645  0.915116  0.960654  1
  O  O23  1  0.531668  0.581186  0.348509  1
  O  O24  1  0.468332  0.081186  0.651491  1
  O  O25  1  0.407355  0.415116  0.039346  1
  O  O26  1  0.477695  0.370747  0.718644  1
  O  O27  1  0.406496  0.284272  0.398977  1
  O  O28  1  0.307861  0.745995  0.014906  1
  O  O29  1  0.304640  0.031964  0.093377  1
  O  O30  1  0.177011  0.810551  0.466858  1
  O  O31  1  0.166890  0.236810  0.635339  1
  O  O32  1  0.077704  0.234848  0.166001  1
  O  O33  1  0.106596  0.476845  0.451907  1
  O  O34  1  0.984606  0.045708  0.908372  1
  O  O35  1  0.019608  0.462092  0.774140  1
