# generated using pymatgen
data_Mn6OF11
_symmetry_space_group_name_H-M   'P 1'
_cell_length_a   4.96352216
_cell_length_b   16.22273375
_cell_length_c   7.63163729
_cell_angle_alpha   90.00000000
_cell_angle_beta   129.61044536
_cell_angle_gamma   90.00000000
_symmetry_Int_Tables_number   1
_chemical_formula_structural   Mn6OF11
_chemical_formula_sum   'Mn12 O2 F22'
_cell_volume   473.41969714
_cell_formula_units_Z   2
loop_
 _symmetry_equiv_pos_site_id
 _symmetry_equiv_pos_as_xyz
  1  'x, y, z'
loop_
 _atom_site_type_symbol
 _atom_site_label
 _atom_site_symmetry_multiplicity
 _atom_site_fract_x
 _atom_site_fract_y
 _atom_site_fract_z
 _atom_site_occupancy
  Mn  Mn0  1  0.826560  0.500232  0.830084  1
  Mn  Mn1  1  0.162265  0.328919  0.169561  1
  Mn  Mn2  1  0.838602  0.160758  0.819923  1
  Mn  Mn3  1  0.839956  0.837815  0.853547  1
  Mn  Mn4  1  0.173999  0.668236  0.171928  1
  Mn  Mn5  1  0.156240  0.994460  0.168265  1
  Mn  Mn6  1  0.162265  0.671081  0.669561  1
  Mn  Mn7  1  0.156240  0.005540  0.668265  1
  Mn  Mn8  1  0.173999  0.331764  0.671928  1
  Mn  Mn9  1  0.839956  0.162185  0.353547  1
  Mn  Mn10  1  0.826560  0.499768  0.330084  1
  Mn  Mn11  1  0.838602  0.839242  0.319923  1
  O  O12  1  0.883308  0.884579  0.093655  1
  O  O13  1  0.883308  0.115421  0.593655  1
  F  F14  1  0.666481  0.389106  0.898584  1
  F  F15  1  0.668206  0.725948  0.887619  1
  F  F16  1  0.667161  0.056791  0.886074  1
  F  F17  1  0.869889  0.216243  0.120121  1
  F  F18  1  0.875206  0.559117  0.105847  1
  F  F19  1  0.342658  0.223785  0.603689  1
  F  F20  1  0.128299  0.390472  0.396258  1
  F  F21  1  0.331388  0.558722  0.605812  1
  F  F22  1  0.113535  0.725732  0.393685  1
  F  F23  1  0.343850  0.892929  0.611595  1
  F  F24  1  0.112398  0.059811  0.383754  1
  F  F25  1  0.668206  0.274052  0.387619  1
  F  F26  1  0.875206  0.440883  0.605847  1
  F  F27  1  0.666481  0.610894  0.398584  1
  F  F28  1  0.667161  0.943209  0.386074  1
  F  F29  1  0.869889  0.783757  0.620121  1
  F  F30  1  0.113535  0.274268  0.893685  1
  F  F31  1  0.128299  0.609528  0.896258  1
  F  F32  1  0.331388  0.441278  0.105812  1
  F  F33  1  0.343850  0.107071  0.111595  1
  F  F34  1  0.112398  0.940189  0.883754  1
  F  F35  1  0.342658  0.776215  0.103689  1
