# generated using pymatgen
data_Li3VSi2O7
_symmetry_space_group_name_H-M   'P 1'
_cell_length_a   8.62937439
_cell_length_b   13.08343325
_cell_length_c   8.64258464
_cell_angle_alpha   90.00000000
_cell_angle_beta   119.85962117
_cell_angle_gamma   90.00000000
_symmetry_Int_Tables_number   1
_chemical_formula_structural   Li3VSi2O7
_chemical_formula_sum   'Li18 V6 Si12 O42'
_cell_volume   846.22899658
_cell_formula_units_Z   6
loop_
 _symmetry_equiv_pos_site_id
 _symmetry_equiv_pos_as_xyz
  1  'x, y, z'
loop_
 _atom_site_type_symbol
 _atom_site_label
 _atom_site_symmetry_multiplicity
 _atom_site_fract_x
 _atom_site_fract_y
 _atom_site_fract_z
 _atom_site_occupancy
  Li  Li0  1  0.978470  0.896503  0.311091  1
  Li  Li1  1  0.978794  0.566649  0.309938  1
  Li  Li2  1  0.669073  0.218133  0.334974  1
  Li  Li3  1  0.668529  0.734302  0.334071  1
  Li  Li4  1  0.002270  0.462805  0.002430  1
  Li  Li5  1  0.997730  0.962805  0.997570  1
  Li  Li6  1  0.691901  0.565504  0.668708  1
  Li  Li7  1  0.691510  0.898588  0.667296  1
  Li  Li8  1  0.336324  0.897889  0.026860  1
  Li  Li9  1  0.333800  0.566075  0.025917  1
  Li  Li10  1  0.666200  0.066075  0.974083  1
  Li  Li11  1  0.663676  0.397889  0.973140  1
  Li  Li12  1  0.308490  0.398588  0.332704  1
  Li  Li13  1  0.308099  0.065504  0.331292  1
  Li  Li14  1  0.331471  0.234302  0.665929  1
  Li  Li15  1  0.330927  0.718133  0.665026  1
  Li  Li16  1  0.021206  0.066649  0.690062  1
  Li  Li17  1  0.021530  0.396503  0.688909  1
  V  V18  1  0.997799  0.231293  0.002132  1
  V  V19  1  0.002201  0.731293  0.997868  1
  V  V20  1  0.668473  0.509466  0.334503  1
  V  V21  1  0.668605  0.955944  0.334700  1
  V  V22  1  0.331395  0.455944  0.665300  1
  V  V23  1  0.331527  0.009466  0.665497  1
  Si  Si24  1  0.976633  0.345219  0.327762  1
  Si  Si25  1  0.979486  0.120139  0.328848  1
  Si  Si26  1  0.674376  0.120745  0.651128  1
  Si  Si27  1  0.675713  0.345196  0.649249  1
  Si  Si28  1  0.351371  0.120746  0.025524  1
  Si  Si29  1  0.352820  0.344707  0.028319  1
  Si  Si30  1  0.647180  0.844707  0.971681  1
  Si  Si31  1  0.648629  0.620746  0.974476  1
  Si  Si32  1  0.324287  0.845196  0.350751  1
  Si  Si33  1  0.325624  0.620745  0.348872  1
  Si  Si34  1  0.020514  0.620139  0.671152  1
  Si  Si35  1  0.023367  0.845219  0.672238  1
  O  O36  1  0.869049  0.841575  0.071006  1
  O  O37  1  0.869688  0.626277  0.074974  1
  O  O38  1  0.874500  0.232398  0.306511  1
  O  O39  1  0.814864  0.036871  0.245595  1
  O  O40  1  0.814194  0.429237  0.243662  1
  O  O41  1  0.883212  0.605412  0.462274  1
  O  O42  1  0.883209  0.859978  0.464255  1
  O  O43  1  0.931663  0.842728  0.798061  1
  O  O44  1  0.583791  0.859638  0.120742  1
  O  O45  1  0.927069  0.625436  0.794646  1
  O  O46  1  0.581913  0.605048  0.120220  1
  O  O47  1  0.757892  0.036821  0.570292  1
  O  O48  1  0.759421  0.429532  0.570427  1
  O  O49  1  0.696397  0.232630  0.567707  1
  O  O50  1  0.798605  0.342563  0.866736  1
  O  O51  1  0.436655  0.232561  0.130361  1
  O  O52  1  0.795227  0.126048  0.867751  1
  O  O53  1  0.431796  0.429506  0.189768  1
  O  O54  1  0.432977  0.036655  0.188765  1
  O  O55  1  0.540099  0.605108  0.421123  1
  O  O56  1  0.538943  0.860515  0.420121  1
  O  O57  1  0.461057  0.360515  0.579879  1
  O  O58  1  0.459901  0.105108  0.578877  1
  O  O59  1  0.567023  0.536655  0.811235  1
  O  O60  1  0.568204  0.929506  0.810232  1
  O  O61  1  0.204773  0.626048  0.132249  1
  O  O62  1  0.563345  0.732561  0.869639  1
  O  O63  1  0.201395  0.842563  0.133264  1
  O  O64  1  0.303603  0.732630  0.432293  1
  O  O65  1  0.240579  0.929532  0.429573  1
  O  O66  1  0.242108  0.536821  0.429708  1
  O  O67  1  0.418087  0.105048  0.879780  1
  O  O68  1  0.072931  0.125436  0.205354  1
  O  O69  1  0.416209  0.359638  0.879258  1
  O  O70  1  0.068337  0.342728  0.201939  1
  O  O71  1  0.116791  0.359978  0.535745  1
  O  O72  1  0.116788  0.105412  0.537726  1
  O  O73  1  0.185806  0.929237  0.756338  1
  O  O74  1  0.185136  0.536871  0.754405  1
  O  O75  1  0.125500  0.732398  0.693489  1
  O  O76  1  0.130312  0.126277  0.925026  1
  O  O77  1  0.130951  0.341575  0.928994  1
