# generated using pymatgen
data_Gd2P4O13
_symmetry_space_group_name_H-M   'P 1'
_cell_length_a   9.58099335
_cell_length_b   9.58099335
_cell_length_c   8.70883209
_cell_angle_alpha   90.00000000
_cell_angle_beta   90.00000000
_cell_angle_gamma   136.22533245
_symmetry_Int_Tables_number   1
_chemical_formula_structural   Gd2P4O13
_chemical_formula_sum   'Gd4 P8 O26'
_cell_volume   553.06555761
_cell_formula_units_Z   2
loop_
 _symmetry_equiv_pos_site_id
 _symmetry_equiv_pos_as_xyz
  1  'x, y, z'
loop_
 _atom_site_type_symbol
 _atom_site_label
 _atom_site_symmetry_multiplicity
 _atom_site_fract_x
 _atom_site_fract_y
 _atom_site_fract_z
 _atom_site_occupancy
  Gd  Gd0  1  0.600261  0.893983  0.145914  1
  Gd  Gd1  1  0.106017  0.399739  0.354086  1
  Gd  Gd2  1  0.893983  0.600261  0.854086  1
  Gd  Gd3  1  0.399739  0.106017  0.645914  1
  P  P4  1  0.721862  0.838706  0.772039  1
  P  P5  1  0.161294  0.278138  0.727961  1
  P  P6  1  0.096341  0.414845  0.996331  1
  P  P7  1  0.585155  0.903659  0.503669  1
  P  P8  1  0.414845  0.096341  0.003669  1
  P  P9  1  0.903659  0.585155  0.496331  1
  P  P10  1  0.278138  0.161294  0.272039  1
  P  P11  1  0.838706  0.721862  0.227961  1
  O  O12  1  0.256072  0.299842  0.293501  1
  O  O13  1  0.700158  0.743928  0.206499  1
  O  O14  1  0.937970  0.062030  0.750000  1
  O  O15  1  0.210307  0.380194  0.892128  1
  O  O16  1  0.619806  0.789693  0.607872  1
  O  O17  1  0.157690  0.385274  0.605179  1
  O  O18  1  0.614726  0.842310  0.894821  1
  O  O19  1  0.934390  0.224858  0.096342  1
  O  O20  1  0.775142  0.065610  0.403658  1
  O  O21  1  0.419485  0.740219  0.389533  1
  O  O22  1  0.259781  0.580515  0.110467  1
  O  O23  1  0.529422  0.982217  0.609132  1
  O  O24  1  0.017783  0.470578  0.890868  1
  O  O25  1  0.470578  0.017783  0.109132  1
  O  O26  1  0.982217  0.529422  0.390868  1
  O  O27  1  0.580515  0.259781  0.889533  1
  O  O28  1  0.740219  0.419485  0.610467  1
  O  O29  1  0.065610  0.775142  0.596342  1
  O  O30  1  0.224858  0.934390  0.903658  1
  O  O31  1  0.842310  0.614726  0.105179  1
  O  O32  1  0.385274  0.157690  0.394821  1
  O  O33  1  0.380194  0.210307  0.107872  1
  O  O34  1  0.789693  0.619806  0.392128  1
  O  O35  1  0.062030  0.937970  0.250000  1
  O  O36  1  0.299842  0.256072  0.706499  1
  O  O37  1  0.743928  0.700158  0.793501  1
