# generated using pymatgen
data_LiCoPO4
_symmetry_space_group_name_H-M   'P 1'
_cell_length_a   5.70677517
_cell_length_b   10.70056042
_cell_length_c   9.91070809
_cell_angle_alpha   90.00000000
_cell_angle_beta   91.69335634
_cell_angle_gamma   90.00000000
_symmetry_Int_Tables_number   1
_chemical_formula_structural   LiCoPO4
_chemical_formula_sum   'Li8 Co8 P8 O32'
_cell_volume   604.93995627
_cell_formula_units_Z   8
loop_
 _symmetry_equiv_pos_site_id
 _symmetry_equiv_pos_as_xyz
  1  'x, y, z'
loop_
 _atom_site_type_symbol
 _atom_site_label
 _atom_site_symmetry_multiplicity
 _atom_site_fract_x
 _atom_site_fract_y
 _atom_site_fract_z
 _atom_site_occupancy
  Li  Li0  1  0.626518  0.855985  0.883502  1
  Li  Li1  1  0.626518  0.644015  0.383502  1
  Li  Li2  1  0.887761  0.339325  0.640726  1
  Li  Li3  1  0.887761  0.160675  0.140726  1
  Li  Li4  1  0.112239  0.839325  0.859274  1
  Li  Li5  1  0.112239  0.660675  0.359274  1
  Li  Li6  1  0.373482  0.355985  0.616498  1
  Li  Li7  1  0.373482  0.144015  0.116498  1
  Co  Co8  1  0.616745  0.098513  0.734723  1
  Co  Co9  1  0.616745  0.401487  0.234723  1
  Co  Co10  1  0.848931  0.627814  0.992748  1
  Co  Co11  1  0.848931  0.872186  0.492748  1
  Co  Co12  1  0.151069  0.127814  0.507252  1
  Co  Co13  1  0.151069  0.372186  0.007252  1
  Co  Co14  1  0.383255  0.598513  0.765277  1
  Co  Co15  1  0.383255  0.901487  0.265277  1
  P  P16  1  0.627495  0.358638  0.909331  1
  P  P17  1  0.627495  0.141362  0.409331  1
  P  P18  1  0.876439  0.606077  0.662362  1
  P  P19  1  0.876439  0.893923  0.162362  1
  P  P20  1  0.123561  0.106077  0.837638  1
  P  P21  1  0.123561  0.393923  0.337638  1
  P  P22  1  0.372505  0.858638  0.590669  1
  P  P23  1  0.372505  0.641362  0.090669  1
  O  O24  1  0.586880  0.212233  0.543249  1
  O  O25  1  0.599185  0.936676  0.622326  1
  O  O26  1  0.586880  0.287767  0.043249  1
  O  O27  1  0.599185  0.563324  0.122326  1
  O  O28  1  0.666324  0.272869  0.788353  1
  O  O29  1  0.649858  0.524285  0.651166  1
  O  O30  1  0.666324  0.227131  0.288353  1
  O  O31  1  0.649858  0.975715  0.151166  1
  O  O32  1  0.846414  0.443506  0.924892  1
  O  O33  1  0.867139  0.691543  0.791001  1
  O  O34  1  0.846414  0.056494  0.424892  1
  O  O35  1  0.888188  0.687337  0.531458  1
  O  O36  1  0.906540  0.017811  0.829093  1
  O  O37  1  0.867139  0.808457  0.291001  1
  O  O38  1  0.888188  0.812663  0.031458  1
  O  O39  1  0.906540  0.482189  0.329093  1
  O  O40  1  0.093460  0.517811  0.670907  1
  O  O41  1  0.111812  0.187337  0.968542  1
  O  O42  1  0.132861  0.191543  0.708999  1
  O  O43  1  0.093460  0.982189  0.170907  1
  O  O44  1  0.111812  0.312663  0.468542  1
  O  O45  1  0.153586  0.943506  0.575108  1
  O  O46  1  0.132861  0.308457  0.208999  1
  O  O47  1  0.153586  0.556494  0.075108  1
  O  O48  1  0.350142  0.024285  0.848834  1
  O  O49  1  0.333676  0.772869  0.711647  1
  O  O50  1  0.350142  0.475715  0.348834  1
  O  O51  1  0.333676  0.727131  0.211647  1
  O  O52  1  0.400815  0.436676  0.877674  1
  O  O53  1  0.413120  0.712233  0.956751  1
  O  O54  1  0.400815  0.063324  0.377674  1
  O  O55  1  0.413120  0.787767  0.456751  1
