# generated using pymatgen
data_CrH14N4Cl3O
_symmetry_space_group_name_H-M   'P 1'
_cell_length_a   6.83799736
_cell_length_b   10.69717536
_cell_length_c   13.38869982
_cell_angle_alpha   90.00000000
_cell_angle_beta   90.00000000
_cell_angle_gamma   90.00000000
_symmetry_Int_Tables_number   1
_chemical_formula_structural   CrH14N4Cl3O
_chemical_formula_sum   'Cr4 H56 N16 Cl12 O4'
_cell_volume   979.34666490
_cell_formula_units_Z   4
loop_
 _symmetry_equiv_pos_site_id
 _symmetry_equiv_pos_as_xyz
  1  'x, y, z'
loop_
 _atom_site_type_symbol
 _atom_site_label
 _atom_site_symmetry_multiplicity
 _atom_site_fract_x
 _atom_site_fract_y
 _atom_site_fract_z
 _atom_site_occupancy
  Cr  Cr0  1  0.672191  0.250000  0.596592  1
  Cr  Cr1  1  0.827809  0.250000  0.096592  1
  Cr  Cr2  1  0.327809  0.750000  0.403408  1
  Cr  Cr3  1  0.172191  0.750000  0.903408  1
  H  H4  1  0.353166  0.175301  0.685392  1
  H  H5  1  0.146834  0.324699  0.185392  1
  H  H6  1  0.646834  0.675301  0.314608  1
  H  H7  1  0.853166  0.824699  0.814608  1
  H  H8  1  0.646834  0.824699  0.314608  1
  H  H9  1  0.853166  0.675301  0.814608  1
  H  H10  1  0.353166  0.324699  0.685392  1
  H  H11  1  0.146834  0.175301  0.185392  1
  H  H12  1  0.795783  0.250000  0.785951  1
  H  H13  1  0.704217  0.250000  0.285951  1
  H  H14  1  0.204217  0.750000  0.214049  1
  H  H15  1  0.295783  0.750000  0.714049  1
  H  H16  1  0.954167  0.327350  0.715966  1
  H  H17  1  0.545833  0.172650  0.215966  1
  H  H18  1  0.045833  0.827350  0.284034  1
  H  H19  1  0.454167  0.672650  0.784034  1
  H  H20  1  0.045833  0.672650  0.284034  1
  H  H21  1  0.454167  0.827350  0.784034  1
  H  H22  1  0.954167  0.172650  0.715966  1
  H  H23  1  0.545833  0.327350  0.215966  1
  H  H24  1  0.046848  0.250000  0.538515  1
  H  H25  1  0.453152  0.250000  0.038515  1
  H  H26  1  0.953152  0.750000  0.461485  1
  H  H27  1  0.546848  0.750000  0.961485  1
  H  H28  1  0.913193  0.327461  0.456308  1
  H  H29  1  0.586807  0.172539  0.956308  1
  H  H30  1  0.086807  0.827461  0.543692  1
  H  H31  1  0.413193  0.672539  0.043692  1
  H  H32  1  0.086807  0.672539  0.543692  1
  H  H33  1  0.413193  0.827461  0.043692  1
  H  H34  1  0.913193  0.172539  0.456308  1
  H  H35  1  0.586807  0.327461  0.956308  1
  H  H36  1  0.706863  0.017284  0.528887  1
  H  H37  1  0.793137  0.482716  0.028887  1
  H  H38  1  0.293137  0.517284  0.471113  1
  H  H39  1  0.206863  0.982716  0.971113  1
  H  H40  1  0.293137  0.982716  0.471113  1
  H  H41  1  0.206863  0.517284  0.971113  1
  H  H42  1  0.706863  0.482716  0.528887  1
  H  H43  1  0.793137  0.017284  0.028887  1
  H  H44  1  0.545860  0.017848  0.620906  1
  H  H45  1  0.954140  0.482152  0.120906  1
  H  H46  1  0.454140  0.517848  0.379094  1
  H  H47  1  0.045860  0.982152  0.879094  1
  H  H48  1  0.454140  0.982152  0.379094  1
  H  H49  1  0.045860  0.517848  0.879094  1
  H  H50  1  0.545860  0.482152  0.620906  1
  H  H51  1  0.954140  0.017848  0.120906  1
  H  H52  1  0.782202  0.018995  0.645938  1
  H  H53  1  0.717798  0.481005  0.145938  1
  H  H54  1  0.217798  0.518995  0.354062  1
  H  H55  1  0.282202  0.981005  0.854062  1
  H  H56  1  0.217798  0.981005  0.354062  1
  H  H57  1  0.282202  0.518995  0.854062  1
  H  H58  1  0.782202  0.481005  0.645938  1
  H  H59  1  0.717798  0.018995  0.145938  1
  N  N60  1  0.678133  0.053441  0.598383  1
  N  N61  1  0.821867  0.446559  0.098383  1
  N  N62  1  0.321867  0.553441  0.401617  1
  N  N63  1  0.178133  0.946559  0.901617  1
  N  N64  1  0.321867  0.946559  0.401617  1
  N  N65  1  0.178133  0.553441  0.901617  1
  N  N66  1  0.678133  0.446559  0.598383  1
  N  N67  1  0.821867  0.053441  0.098383  1
  N  N68  1  0.864255  0.250000  0.718393  1
  N  N69  1  0.635745  0.250000  0.218393  1
  N  N70  1  0.135745  0.750000  0.281607  1
  N  N71  1  0.364255  0.750000  0.781607  1
  N  N72  1  0.915969  0.250000  0.501584  1
  N  N73  1  0.584031  0.250000  0.001584  1
  N  N74  1  0.084031  0.750000  0.498416  1
  N  N75  1  0.415969  0.750000  0.998416  1
  Cl  Cl76  1  0.460279  0.250000  0.458673  1
  Cl  Cl77  1  0.039721  0.250000  0.958673  1
  Cl  Cl78  1  0.539721  0.750000  0.541327  1
  Cl  Cl79  1  0.960279  0.750000  0.041327  1
  Cl  Cl80  1  0.677605  0.979655  0.851106  1
  Cl  Cl81  1  0.822395  0.520345  0.351106  1
  Cl  Cl82  1  0.322395  0.479655  0.148894  1
  Cl  Cl83  1  0.177605  0.020345  0.648894  1
  Cl  Cl84  1  0.322395  0.020345  0.148894  1
  Cl  Cl85  1  0.177605  0.479655  0.648894  1
  Cl  Cl86  1  0.677605  0.520345  0.851106  1
  Cl  Cl87  1  0.822395  0.979655  0.351106  1
  O  O88  1  0.439622  0.250000  0.696265  1
  O  O89  1  0.060378  0.250000  0.196265  1
  O  O90  1  0.560378  0.750000  0.303735  1
  O  O91  1  0.939622  0.750000  0.803735  1
