# generated using pymatgen
data_ScFeO3
_symmetry_space_group_name_H-M   'P 1'
_cell_length_a   5.10201164
_cell_length_b   5.42054981
_cell_length_c   7.67374462
_cell_angle_alpha   90.00000000
_cell_angle_beta   90.00000000
_cell_angle_gamma   90.00000000
_symmetry_Int_Tables_number   1
_chemical_formula_structural   ScFeO3
_chemical_formula_sum   'Sc4 Fe4 O12'
_cell_volume   212.22284229
_cell_formula_units_Z   4
loop_
 _symmetry_equiv_pos_site_id
 _symmetry_equiv_pos_as_xyz
  1  'x, y, z'
loop_
 _atom_site_type_symbol
 _atom_site_label
 _atom_site_symmetry_multiplicity
 _atom_site_fract_x
 _atom_site_fract_y
 _atom_site_fract_z
 _atom_site_occupancy
  Sc  Sc0  1  0.525277  0.429958  0.250000  1
  Sc  Sc1  1  0.974723  0.929958  0.250000  1
  Sc  Sc2  1  0.025277  0.070042  0.750000  1
  Sc  Sc3  1  0.474723  0.570042  0.750000  1
  Fe  Fe4  1  0.500000  0.000000  0.500000  1
  Fe  Fe5  1  0.500000  0.000000  0.000000  1
  Fe  Fe6  1  0.000000  0.500000  0.500000  1
  Fe  Fe7  1  0.000000  0.500000  0.000000  1
  O  O8  1  0.646215  0.936191  0.750000  1
  O  O9  1  0.684830  0.687521  0.075039  1
  O  O10  1  0.684830  0.687521  0.424961  1
  O  O11  1  0.815170  0.187521  0.075039  1
  O  O12  1  0.815170  0.187521  0.424961  1
  O  O13  1  0.853785  0.436191  0.750000  1
  O  O14  1  0.146215  0.563809  0.250000  1
  O  O15  1  0.184830  0.812479  0.575039  1
  O  O16  1  0.184830  0.812479  0.924961  1
  O  O17  1  0.315170  0.312479  0.575039  1
  O  O18  1  0.315170  0.312479  0.924961  1
  O  O19  1  0.353785  0.063809  0.250000  1
