# generated using pymatgen
data_LiFe2(BO3)2
_symmetry_space_group_name_H-M   'P 1'
_cell_length_a   5.24006537
_cell_length_b   9.15870722
_cell_length_c   11.28207391
_cell_angle_alpha   111.67510708
_cell_angle_beta   103.25632813
_cell_angle_gamma   90.91416159
_symmetry_Int_Tables_number   1
_chemical_formula_structural   LiFe2(BO3)2
_chemical_formula_sum   'Li4 Fe8 B8 O24'
_cell_volume   486.71868742
_cell_formula_units_Z   4
loop_
 _symmetry_equiv_pos_site_id
 _symmetry_equiv_pos_as_xyz
  1  'x, y, z'
loop_
 _atom_site_type_symbol
 _atom_site_label
 _atom_site_symmetry_multiplicity
 _atom_site_fract_x
 _atom_site_fract_y
 _atom_site_fract_z
 _atom_site_occupancy
  Li  Li0  1  0.618646  0.965965  0.589013  1
  Li  Li1  1  0.378852  0.721467  0.097023  1
  Li  Li2  1  0.101162  0.757733  0.849444  1
  Li  Li3  1  0.116120  0.465514  0.582416  1
  Fe  Fe4  1  0.645508  0.649678  0.617437  1
  Fe  Fe5  1  0.374893  0.065892  0.125088  1
  Fe  Fe6  1  0.854932  0.843253  0.368182  1
  Fe  Fe7  1  0.115498  0.427782  0.869573  1
  Fe  Fe8  1  0.892776  0.558482  0.122375  1
  Fe  Fe9  1  0.144120  0.146768  0.620368  1
  Fe  Fe10  1  0.352643  0.346486  0.360805  1
  Fe  Fe11  1  0.608436  0.940566  0.876326  1
  B  B12  1  0.641034  0.310365  0.619482  1
  B  B13  1  0.395904  0.402125  0.125956  1
  B  B14  1  0.856166  0.192059  0.380431  1
  B  B15  1  0.098433  0.091866  0.859766  1
  B  B16  1  0.156227  0.819683  0.630749  1
  B  B17  1  0.880403  0.880475  0.112124  1
  B  B18  1  0.348555  0.683035  0.371745  1
  B  B19  1  0.612086  0.615863  0.880526  1
  O  O20  1  0.139161  0.881390  0.109384  1
  O  O21  1  0.282292  0.295626  0.165966  1
  O  O22  1  0.235811  0.504138  0.083490  1
  O  O23  1  0.498461  0.816337  0.392884  1
  O  O24  1  0.463716  0.567605  0.414128  1
  O  O25  1  0.584292  0.179847  0.334059  1
  O  O26  1  0.920907  0.331168  0.651957  1
  O  O27  1  0.653065  0.409101  0.125912  1
  O  O28  1  0.763660  0.774018  0.153282  1
  O  O29  1  0.010601  0.925759  0.588301  1
  O  O30  1  0.034281  0.692051  0.640332  1
  O  O31  1  0.715030  0.978795  0.069467  1
  O  O32  1  0.260298  0.992720  0.904436  1
  O  O33  1  0.013624  0.318764  0.388646  1
  O  O34  1  0.968379  0.080837  0.426736  1
  O  O35  1  0.201517  0.198661  0.816985  1
  O  O36  1  0.351752  0.615426  0.885102  1
  O  O37  1  0.078523  0.660785  0.316104  1
  O  O38  1  0.430516  0.848017  0.666515  1
  O  O39  1  0.501820  0.420707  0.583200  1
  O  O40  1  0.510476  0.180922  0.622804  1
  O  O41  1  0.780452  0.521554  0.923508  1
  O  O42  1  0.715947  0.722145  0.834256  1
  O  O43  1  0.838469  0.080085  0.855621  1
