# generated using pymatgen
data_Li4V3CoO8
_symmetry_space_group_name_H-M   'P 1'
_cell_length_a   5.96062991
_cell_length_b   5.96062991
_cell_length_c   5.96756221
_cell_angle_alpha   60.12420419
_cell_angle_beta   119.87579581
_cell_angle_gamma   120.12330784
_symmetry_Int_Tables_number   1
_chemical_formula_structural   Li4V3CoO8
_chemical_formula_sum   'Li4 V3 Co1 O8'
_cell_volume   150.06215722
_cell_formula_units_Z   1
loop_
 _symmetry_equiv_pos_site_id
 _symmetry_equiv_pos_as_xyz
  1  'x, y, z'
loop_
 _atom_site_type_symbol
 _atom_site_label
 _atom_site_symmetry_multiplicity
 _atom_site_fract_x
 _atom_site_fract_y
 _atom_site_fract_z
 _atom_site_occupancy
  Li  Li0  1  0.500000  0.500000  0.000000  1
  Li  Li1  1  0.500000  1.000000  0.000000  1
  Li  Li2  1  0.000000  0.000000  0.000000  1
  Li  Li3  1  1.000000  0.500000  0.000000  1
  V  V4  1  0.000000  0.500000  0.500000  1
  V  V5  1  0.500000  0.500000  0.500000  1
  V  V6  1  0.500000  0.000000  0.500000  1
  Co  Co7  1  0.000000  0.000000  0.500000  1
  O  O8  1  0.260022  0.739978  0.266542  1
  O  O9  1  0.273070  0.261150  0.270600  1
  O  O10  1  0.753637  0.246363  0.274714  1
  O  O11  1  0.739978  0.260022  0.733458  1
  O  O12  1  0.738850  0.726930  0.270600  1
  O  O13  1  0.726930  0.738850  0.729400  1
  O  O14  1  0.246363  0.753637  0.725286  1
  O  O15  1  0.261150  0.273070  0.729400  1
