# generated using pymatgen
data_Li4Cr3Sn3(SbO8)2
_symmetry_space_group_name_H-M   'P 1'
_cell_length_a   6.19361981
_cell_length_b   6.19361981
_cell_length_c   10.12999185
_cell_angle_alpha   89.55937816
_cell_angle_beta   90.44062184
_cell_angle_gamma   119.64691895
_symmetry_Int_Tables_number   1
_chemical_formula_structural   Li4Cr3Sn3(SbO8)2
_chemical_formula_sum   'Li4 Cr3 Sn3 Sb2 O16'
_cell_volume   337.71148251
_cell_formula_units_Z   1
loop_
 _symmetry_equiv_pos_site_id
 _symmetry_equiv_pos_as_xyz
  1  'x, y, z'
loop_
 _atom_site_type_symbol
 _atom_site_label
 _atom_site_symmetry_multiplicity
 _atom_site_fract_x
 _atom_site_fract_y
 _atom_site_fract_z
 _atom_site_occupancy
  Li  Li0  1  0.330628  0.669372  0.890223  1
  Li  Li1  1  0.007987  0.992013  0.991106  1
  Li  Li2  1  0.006951  0.993049  0.499011  1
  Li  Li3  1  0.666184  0.333816  0.397848  1
  Cr  Cr4  1  0.169360  0.830640  0.215345  1
  Cr  Cr5  1  0.830611  0.662278  0.715755  1
  Cr  Cr6  1  0.337722  0.169389  0.715755  1
  Sn  Sn7  1  0.663677  0.831609  0.215732  1
  Sn  Sn8  1  0.168391  0.336323  0.215732  1
  Sn  Sn9  1  0.832150  0.167850  0.715087  1
  Sb  Sb10  1  0.326456  0.673544  0.502275  1
  Sb  Sb11  1  0.659534  0.340466  0.983611  1
  O  O12  1  0.691742  0.842697  0.601453  1
  O  O13  1  0.488354  0.511646  0.333577  1
  O  O14  1  0.329852  0.670148  0.105156  1
  O  O15  1  0.004940  0.995060  0.317012  1
  O  O16  1  0.004065  0.995935  0.811361  1
  O  O17  1  0.157303  0.308258  0.601453  1
  O  O18  1  0.480801  0.971007  0.330396  1
  O  O19  1  0.028993  0.519199  0.330396  1
  O  O20  1  0.845981  0.154019  0.096572  1
  O  O21  1  0.155489  0.844511  0.608683  1
  O  O22  1  0.965249  0.487888  0.835827  1
  O  O23  1  0.512112  0.034751  0.835827  1
  O  O24  1  0.663274  0.336726  0.610539  1
  O  O25  1  0.850425  0.694222  0.101742  1
  O  O26  1  0.515825  0.484175  0.828672  1
  O  O27  1  0.305778  0.149575  0.101742  1
