# generated using pymatgen
data_Li4Ti3V2Cr4O18
_symmetry_space_group_name_H-M   'P 1'
_cell_length_a   2.97621343
_cell_length_b   9.00350037
_cell_length_c   25.11364942
_cell_angle_alpha   90.00000000
_cell_angle_beta   90.00000000
_cell_angle_gamma   90.00000000
_symmetry_Int_Tables_number   1
_chemical_formula_structural   Li4Ti3V2Cr4O18
_chemical_formula_sum   'Li8 Ti6 V4 Cr8 O36'
_cell_volume   672.95385621
_cell_formula_units_Z   2
loop_
 _symmetry_equiv_pos_site_id
 _symmetry_equiv_pos_as_xyz
  1  'x, y, z'
loop_
 _atom_site_type_symbol
 _atom_site_label
 _atom_site_symmetry_multiplicity
 _atom_site_fract_x
 _atom_site_fract_y
 _atom_site_fract_z
 _atom_site_occupancy
  Li  Li0  1  0.500000  0.937637  0.998034  1
  Li  Li1  1  0.500000  0.958542  0.197798  1
  Li  Li2  1  0.500000  0.041458  0.697798  1
  Li  Li3  1  0.500000  0.062363  0.498034  1
  Li  Li4  1  0.500000  0.434987  0.501271  1
  Li  Li5  1  0.500000  0.457007  0.300090  1
  Li  Li6  1  0.500000  0.542993  0.800090  1
  Li  Li7  1  0.500000  0.565013  0.001271  1
  Ti  Ti8  1  0.500000  0.759005  0.103259  1
  Ti  Ti9  1  0.500000  0.240995  0.603259  1
  Ti  Ti10  1  0.500000  0.252650  0.396457  1
  Ti  Ti11  1  0.000000  0.392940  0.696005  1
  Ti  Ti12  1  0.000000  0.607060  0.196005  1
  Ti  Ti13  1  0.500000  0.747350  0.896457  1
  V  V14  1  0.500000  0.748501  0.499792  1
  V  V15  1  0.000000  0.891628  0.803781  1
  V  V16  1  0.000000  0.108372  0.303781  1
  V  V17  1  0.500000  0.251499  0.999792  1
  Cr  Cr18  1  0.500000  0.775013  0.310266  1
  Cr  Cr19  1  0.000000  0.888177  0.587387  1
  Cr  Cr20  1  0.000000  0.111823  0.087387  1
  Cr  Cr21  1  0.500000  0.224987  0.810266  1
  Cr  Cr22  1  0.500000  0.271300  0.191476  1
  Cr  Cr23  1  0.000000  0.391464  0.912349  1
  Cr  Cr24  1  0.000000  0.608536  0.412349  1
  Cr  Cr25  1  0.500000  0.728700  0.691476  1
  O  O26  1  0.500000  0.755034  0.424681  1
  O  O27  1  0.500000  0.742642  0.575251  1
  O  O28  1  0.000000  0.795354  0.941292  1
  O  O29  1  0.000000  0.804699  0.159781  1
  O  O30  1  0.000000  0.856155  0.665113  1
  O  O31  1  0.500000  0.842539  0.756851  1
  O  O32  1  0.000000  0.898677  0.505951  1
  O  O33  1  0.000000  0.907136  0.283612  1
  O  O34  1  0.500000  0.933086  0.854692  1
  O  O35  1  0.500000  0.962683  0.086592  1
  O  O36  1  0.500000  0.037317  0.586592  1
  O  O37  1  0.500000  0.066914  0.354692  1
  O  O38  1  0.000000  0.092864  0.783612  1
  O  O39  1  0.000000  0.101323  0.005951  1
  O  O40  1  0.500000  0.157461  0.256851  1
  O  O41  1  0.000000  0.143845  0.165113  1
  O  O42  1  0.000000  0.195301  0.659781  1
  O  O43  1  0.000000  0.204646  0.441292  1
  O  O44  1  0.500000  0.257358  0.075251  1
  O  O45  1  0.500000  0.244966  0.924681  1
  O  O46  1  0.000000  0.294755  0.558875  1
  O  O47  1  0.000000  0.300221  0.338753  1
  O  O48  1  0.000000  0.352688  0.835305  1
  O  O49  1  0.500000  0.339911  0.744730  1
  O  O50  1  0.000000  0.401894  0.993815  1
  O  O51  1  0.000000  0.403082  0.218016  1
  O  O52  1  0.500000  0.431945  0.647024  1
  O  O53  1  0.500000  0.460091  0.411766  1
  O  O54  1  0.500000  0.539909  0.911766  1
  O  O55  1  0.500000  0.568055  0.147024  1
  O  O56  1  0.000000  0.596918  0.718016  1
  O  O57  1  0.000000  0.598106  0.493815  1
  O  O58  1  0.500000  0.660089  0.244730  1
  O  O59  1  0.000000  0.647312  0.335305  1
  O  O60  1  0.000000  0.699779  0.838753  1
  O  O61  1  0.000000  0.705245  0.058875  1
