# generated using pymatgen
data_Li5Fe8(BO3)8
_symmetry_space_group_name_H-M   'P 1'
_cell_length_a   5.26514912
_cell_length_b   9.09788950
_cell_length_c   10.18913731
_cell_angle_alpha   89.41786879
_cell_angle_beta   88.78633260
_cell_angle_gamma   89.73371092
_symmetry_Int_Tables_number   1
_chemical_formula_structural   Li5Fe8(BO3)8
_chemical_formula_sum   'Li5 Fe8 B8 O24'
_cell_volume   487.93797932
_cell_formula_units_Z   1
loop_
 _symmetry_equiv_pos_site_id
 _symmetry_equiv_pos_as_xyz
  1  'x, y, z'
loop_
 _atom_site_type_symbol
 _atom_site_label
 _atom_site_symmetry_multiplicity
 _atom_site_fract_x
 _atom_site_fract_y
 _atom_site_fract_z
 _atom_site_occupancy
  Li  Li0  1  0.666135  0.987810  0.845988  1
  Li  Li1  1  0.345681  0.996582  0.093252  1
  Li  Li2  1  0.147519  0.515410  0.333993  1
  Li  Li3  1  0.159128  0.492096  0.834719  1
  Li  Li4  1  0.355159  0.005215  0.581946  1
  Fe  Fe5  1  0.836879  0.826868  0.123980  1
  Fe  Fe6  1  0.155045  0.846942  0.371244  1
  Fe  Fe7  1  0.669394  0.657093  0.865995  1
  Fe  Fe8  1  0.344727  0.661357  0.616950  1
  Fe  Fe9  1  0.658879  0.326337  0.364255  1
  Fe  Fe10  1  0.844048  0.174785  0.622481  1
  Fe  Fe11  1  0.340756  0.343901  0.116292  1
  Fe  Fe12  1  0.158277  0.158761  0.874294  1
  B  B13  1  0.844701  0.842994  0.624503  1
  B  B14  1  0.653789  0.656184  0.364128  1
  B  B15  1  0.170028  0.828864  0.876304  1
  B  B16  1  0.335318  0.678174  0.123911  1
  B  B17  1  0.662492  0.332614  0.867875  1
  B  B18  1  0.334794  0.324108  0.623189  1
  B  B19  1  0.841935  0.155247  0.126116  1
  B  B20  1  0.174491  0.177899  0.378301  1
  O  O21  1  0.715432  0.978813  0.639345  1
  O  O22  1  0.911466  0.834120  0.914626  1
  O  O23  1  0.311213  0.957508  0.884662  1
  O  O24  1  0.791452  0.779420  0.319602  1
  O  O25  1  0.711446  0.718839  0.656106  1
  O  O26  1  0.204420  0.811081  0.153082  1
  O  O27  1  0.098457  0.843488  0.584100  1
  O  O28  1  0.581847  0.690777  0.074674  1
  O  O29  1  0.779606  0.522136  0.366601  1
  O  O30  1  0.399344  0.666535  0.402199  1
  O  O31  1  0.278760  0.698059  0.835800  1
  O  O32  1  0.807861  0.454760  0.871747  1
  O  O33  1  0.221296  0.547107  0.144318  1
  O  O34  1  0.710298  0.277115  0.173927  1
  O  O35  1  0.577560  0.307037  0.566718  1
  O  O36  1  0.226911  0.455642  0.644626  1
  O  O37  1  0.405993  0.331749  0.906067  1
  O  O38  1  0.920807  0.187496  0.423134  1
  O  O39  1  0.774946  0.198823  0.822633  1
  O  O40  1  0.289812  0.309886  0.337626  1
  O  O41  1  0.207566  0.191254  0.657221  1
  O  O42  1  0.708679  0.024894  0.113586  1
  O  O43  1  0.097241  0.162921  0.088641  1
  O  O44  1  0.300844  0.048146  0.383285  1
