# generated using pymatgen
data_La2WO6
_symmetry_space_group_name_H-M   'P 1'
_cell_length_a   8.02408988
_cell_length_b   5.65217717
_cell_length_c   11.99763535
_cell_angle_alpha   90.00000000
_cell_angle_beta   103.44967544
_cell_angle_gamma   90.00000000
_symmetry_Int_Tables_number   1
_chemical_formula_structural   La2WO6
_chemical_formula_sum   'La8 W4 O24'
_cell_volume   529.21254058
_cell_formula_units_Z   4
loop_
 _symmetry_equiv_pos_site_id
 _symmetry_equiv_pos_as_xyz
  1  'x, y, z'
loop_
 _atom_site_type_symbol
 _atom_site_label
 _atom_site_symmetry_multiplicity
 _atom_site_fract_x
 _atom_site_fract_y
 _atom_site_fract_z
 _atom_site_occupancy
  La  La0  1  0.000000  0.738049  0.250000  1
  La  La1  1  0.000000  0.261951  0.750000  1
  La  La2  1  0.203030  0.195936  0.076469  1
  La  La3  1  0.203030  0.804064  0.576469  1
  La  La4  1  0.500000  0.684560  0.250000  1
  La  La5  1  0.500000  0.315440  0.750000  1
  La  La6  1  0.796970  0.195936  0.423531  1
  La  La7  1  0.796970  0.804064  0.923531  1
  W  W8  1  0.277893  0.252179  0.386298  1
  W  W9  1  0.277893  0.747821  0.886298  1
  W  W10  1  0.722107  0.252179  0.113702  1
  W  W11  1  0.722107  0.747821  0.613702  1
  O  O12  1  0.068636  0.043937  0.396781  1
  O  O13  1  0.149081  0.508964  0.429712  1
  O  O14  1  0.068636  0.956063  0.896781  1
  O  O15  1  0.219400  0.457705  0.234757  1
  O  O16  1  0.149081  0.491036  0.929712  1
  O  O17  1  0.292084  0.996729  0.276153  1
  O  O18  1  0.219400  0.542295  0.734757  1
  O  O19  1  0.362266  0.848937  0.040412  1
  O  O20  1  0.501150  0.363230  0.388651  1
  O  O21  1  0.292084  0.003271  0.776153  1
  O  O22  1  0.498850  0.363230  0.111349  1
  O  O23  1  0.637734  0.848937  0.459588  1
  O  O24  1  0.362266  0.151063  0.540412  1
  O  O25  1  0.501150  0.636770  0.888651  1
  O  O26  1  0.707916  0.996729  0.223847  1
  O  O27  1  0.498850  0.636770  0.611349  1
  O  O28  1  0.637734  0.151063  0.959588  1
  O  O29  1  0.780600  0.457705  0.265243  1
  O  O30  1  0.707916  0.003271  0.723847  1
  O  O31  1  0.850919  0.508964  0.070288  1
  O  O32  1  0.780600  0.542295  0.765243  1
  O  O33  1  0.931364  0.043937  0.103219  1
  O  O34  1  0.850919  0.491036  0.570288  1
  O  O35  1  0.931364  0.956063  0.603219  1
