# generated using pymatgen
data_Tb2(WO4)3
_symmetry_space_group_name_H-M   'P 1'
_cell_length_a   10.51632532
_cell_length_b   10.55710262
_cell_length_c   10.80770027
_cell_angle_alpha   90.00000000
_cell_angle_beta   90.00000000
_cell_angle_gamma   90.00000000
_symmetry_Int_Tables_number   1
_chemical_formula_structural   Tb2(WO4)3
_chemical_formula_sum   'Tb8 W12 O48'
_cell_volume   1199.89169516
_cell_formula_units_Z   4
loop_
 _symmetry_equiv_pos_site_id
 _symmetry_equiv_pos_as_xyz
  1  'x, y, z'
loop_
 _atom_site_type_symbol
 _atom_site_label
 _atom_site_symmetry_multiplicity
 _atom_site_fract_x
 _atom_site_fract_y
 _atom_site_fract_z
 _atom_site_occupancy
  Tb  Tb0  1  0.006645  0.811940  0.262805  1
  Tb  Tb1  1  0.188201  0.496258  0.737832  1
  Tb  Tb2  1  0.311799  0.996258  0.737832  1
  Tb  Tb3  1  0.493355  0.311940  0.262805  1
  Tb  Tb4  1  0.506645  0.688060  0.262805  1
  Tb  Tb5  1  0.688201  0.003742  0.737832  1
  Tb  Tb6  1  0.811799  0.503742  0.737832  1
  Tb  Tb7  1  0.993355  0.188060  0.262805  1
  W  W8  1  0.002695  0.206147  0.643170  1
  W  W9  1  0.205303  0.488834  0.357371  1
  W  W10  1  0.242022  0.243788  0.999602  1
  W  W11  1  0.257978  0.743788  0.999602  1
  W  W12  1  0.294697  0.988834  0.357371  1
  W  W13  1  0.497305  0.706147  0.643170  1
  W  W14  1  0.502695  0.293853  0.643170  1
  W  W15  1  0.705303  0.011166  0.357371  1
  W  W16  1  0.742022  0.256212  0.999602  1
  W  W17  1  0.757978  0.756212  0.999602  1
  W  W18  1  0.794697  0.511166  0.357371  1
  W  W19  1  0.997305  0.793853  0.643170  1
  O  O20  1  0.006259  0.626268  0.691041  1
  O  O21  1  0.022387  0.805620  0.478227  1
  O  O22  1  0.113212  0.616799  0.291593  1
  O  O23  1  0.119713  0.884391  0.720519  1
  O  O24  1  0.120968  0.170624  0.094828  1
  O  O25  1  0.126609  0.005625  0.310365  1
  O  O26  1  0.143129  0.819718  0.100327  1
  O  O27  1  0.153632  0.334449  0.305740  1
  O  O28  1  0.160670  0.152398  0.682021  1
  O  O29  1  0.168247  0.359313  0.898877  1
  O  O30  1  0.182018  0.624542  0.904447  1
  O  O31  1  0.192885  0.490593  0.523480  1
  O  O32  1  0.307115  0.990593  0.523480  1
  O  O33  1  0.317982  0.124542  0.904447  1
  O  O34  1  0.331753  0.859313  0.898877  1
  O  O35  1  0.339330  0.652398  0.682021  1
  O  O36  1  0.346368  0.834449  0.305740  1
  O  O37  1  0.356871  0.319718  0.100327  1
  O  O38  1  0.373391  0.505625  0.310365  1
  O  O39  1  0.379032  0.670624  0.094828  1
  O  O40  1  0.380287  0.384391  0.720519  1
  O  O41  1  0.386788  0.116799  0.291593  1
  O  O42  1  0.477613  0.305620  0.478227  1
  O  O43  1  0.493741  0.126268  0.691041  1
  O  O44  1  0.506259  0.873732  0.691041  1
  O  O45  1  0.522387  0.694380  0.478227  1
  O  O46  1  0.613212  0.883201  0.291593  1
  O  O47  1  0.619713  0.615609  0.720519  1
  O  O48  1  0.620968  0.329376  0.094828  1
  O  O49  1  0.626609  0.494375  0.310365  1
  O  O50  1  0.643129  0.680282  0.100327  1
  O  O51  1  0.653632  0.165551  0.305740  1
  O  O52  1  0.660670  0.347602  0.682021  1
  O  O53  1  0.668247  0.140687  0.898877  1
  O  O54  1  0.682018  0.875458  0.904447  1
  O  O55  1  0.692885  0.009407  0.523480  1
  O  O56  1  0.807115  0.509407  0.523480  1
  O  O57  1  0.817982  0.375458  0.904447  1
  O  O58  1  0.831753  0.640687  0.898877  1
  O  O59  1  0.839330  0.847602  0.682021  1
  O  O60  1  0.846368  0.665551  0.305740  1
  O  O61  1  0.856871  0.180282  0.100327  1
  O  O62  1  0.873391  0.994375  0.310365  1
  O  O63  1  0.879032  0.829376  0.094828  1
  O  O64  1  0.880287  0.115609  0.720519  1
  O  O65  1  0.886788  0.383201  0.291593  1
  O  O66  1  0.977613  0.194380  0.478227  1
  O  O67  1  0.993741  0.373732  0.691041  1
