# generated using pymatgen
data_Co2Ni3Sb(PO4)6
_symmetry_space_group_name_H-M   'P 1'
_cell_length_a   8.47085352
_cell_length_b   8.47085352
_cell_length_c   8.47085352
_cell_angle_alpha   61.52299163
_cell_angle_beta   61.52299163
_cell_angle_gamma   61.52299163
_symmetry_Int_Tables_number   1
_chemical_formula_structural   Co2Ni3Sb(PO4)6
_chemical_formula_sum   'Co2 Ni3 Sb1 P6 O24'
_cell_volume   444.49142245
_cell_formula_units_Z   1
loop_
 _symmetry_equiv_pos_site_id
 _symmetry_equiv_pos_as_xyz
  1  'x, y, z'
loop_
 _atom_site_type_symbol
 _atom_site_label
 _atom_site_symmetry_multiplicity
 _atom_site_fract_x
 _atom_site_fract_y
 _atom_site_fract_z
 _atom_site_occupancy
  Co  Co0  1  0.990478  0.990478  0.990478  1
  Co  Co1  1  0.500464  0.500464  0.500464  1
  Ni  Ni2  1  0.643269  0.643269  0.643269  1
  Ni  Ni3  1  0.854989  0.854989  0.854989  1
  Ni  Ni4  1  0.358822  0.358822  0.358822  1
  Sb  Sb5  1  0.141945  0.141945  0.141945  1
  P  P6  1  0.953229  0.255163  0.547253  1
  P  P7  1  0.547253  0.953229  0.255163  1
  P  P8  1  0.255163  0.547253  0.953229  1
  P  P9  1  0.744626  0.459877  0.048166  1
  P  P10  1  0.459877  0.048166  0.744626  1
  P  P11  1  0.048166  0.744626  0.459877  1
  O  O12  1  0.504330  0.108193  0.320845  1
  O  O13  1  0.320845  0.504330  0.108193  1
  O  O14  1  0.108193  0.320845  0.504330  1
  O  O15  1  0.938840  0.094302  0.744964  1
  O  O16  1  0.990800  0.181056  0.389394  1
  O  O17  1  0.751627  0.404998  0.558082  1
  O  O18  1  0.744964  0.938840  0.094302  1
  O  O19  1  0.558082  0.751627  0.404998  1
  O  O20  1  0.817715  0.608465  0.013250  1
  O  O21  1  0.404998  0.558082  0.751627  1
  O  O22  1  0.909347  0.251220  0.063194  1
  O  O23  1  0.608465  0.013250  0.817715  1
  O  O24  1  0.389394  0.990800  0.181056  1
  O  O25  1  0.094302  0.744964  0.938840  1
  O  O26  1  0.595475  0.437853  0.251901  1
  O  O27  1  0.181056  0.389394  0.990800  1
  O  O28  1  0.437853  0.251901  0.595475  1
  O  O29  1  0.251220  0.063194  0.909347  1
  O  O30  1  0.251901  0.595475  0.437853  1
  O  O31  1  0.013250  0.817715  0.608465  1
  O  O32  1  0.063194  0.909347  0.251220  1
  O  O33  1  0.894928  0.683407  0.487547  1
  O  O34  1  0.683407  0.487547  0.894928  1
  O  O35  1  0.487547  0.894928  0.683407  1
