# generated using pymatgen
data_Li5Fe2Cu5O12
_symmetry_space_group_name_H-M   'P 1'
_cell_length_a   5.06209818
_cell_length_b   5.06209818
_cell_length_c   9.71302776
_cell_angle_alpha   88.85246909
_cell_angle_beta   91.14753091
_cell_angle_gamma   65.85100741
_symmetry_Int_Tables_number   1
_chemical_formula_structural   Li5Fe2Cu5O12
_chemical_formula_sum   'Li5 Fe2 Cu5 O12'
_cell_volume   226.95845118
_cell_formula_units_Z   1
loop_
 _symmetry_equiv_pos_site_id
 _symmetry_equiv_pos_as_xyz
  1  'x, y, z'
loop_
 _atom_site_type_symbol
 _atom_site_label
 _atom_site_symmetry_multiplicity
 _atom_site_fract_x
 _atom_site_fract_y
 _atom_site_fract_z
 _atom_site_occupancy
  Li  Li0  1  0.832346  0.335350  0.743629  1
  Li  Li1  1  0.676506  0.153622  0.254976  1
  Li  Li2  1  0.335350  0.832346  0.256371  1
  Li  Li3  1  0.153622  0.676506  0.745024  1
  Li  Li4  1  0.086281  0.086281  0.500000  1
  Fe  Fe5  1  0.755216  0.755216  0.500000  1
  Fe  Fe6  1  0.250673  0.250673  0.000000  1
  Cu  Cu7  1  0.922129  0.922129  0.000000  1
  Cu  Cu8  1  0.006554  0.485025  0.250913  1
  Cu  Cu9  1  0.485025  0.006554  0.749087  1
  Cu  Cu10  1  0.579770  0.579770  0.000000  1
  Cu  Cu11  1  0.416116  0.416116  0.500000  1
  O  O12  1  0.016055  0.787061  0.363938  1
  O  O13  1  0.787061  0.016055  0.636062  1
  O  O14  1  0.899977  0.598271  0.901114  1
  O  O15  1  0.598271  0.899977  0.098886  1
  O  O16  1  0.695357  0.474755  0.379937  1
  O  O17  1  0.474755  0.695357  0.620063  1
  O  O18  1  0.517910  0.317558  0.871999  1
  O  O19  1  0.317558  0.517910  0.128001  1
  O  O20  1  0.425352  0.093530  0.397970  1
  O  O21  1  0.093530  0.425352  0.602030  1
  O  O22  1  0.182454  0.992133  0.865907  1
  O  O23  1  0.992133  0.182454  0.134093  1
