# generated using pymatgen
data_KRe3Os3(Se4Cl3)2
_symmetry_space_group_name_H-M   'P 1'
_cell_length_a   13.22772631
_cell_length_b   13.24614833
_cell_length_c   13.27007836
_cell_angle_alpha   90.00133259
_cell_angle_beta   90.00063974
_cell_angle_gamma   90.09324595
_symmetry_Int_Tables_number   1
_chemical_formula_structural   KRe3Os3(Se4Cl3)2
_chemical_formula_sum   'K4 Re12 Os12 Se32 Cl24'
_cell_volume   2325.13260796
_cell_formula_units_Z   4
loop_
 _symmetry_equiv_pos_site_id
 _symmetry_equiv_pos_as_xyz
  1  'x, y, z'
loop_
 _atom_site_type_symbol
 _atom_site_label
 _atom_site_symmetry_multiplicity
 _atom_site_fract_x
 _atom_site_fract_y
 _atom_site_fract_z
 _atom_site_occupancy
  K  K0  1  0.999598  0.000011  0.999622  1
  K  K1  1  0.500545  0.499867  0.999645  1
  K  K2  1  0.500150  0.000178  0.500439  1
  K  K3  1  0.999907  0.500064  0.500155  1
  Re  Re4  1  0.868370  0.541454  0.968426  1
  Re  Re5  1  0.631683  0.958568  0.968438  1
  Re  Re6  1  0.531709  0.131676  0.958475  1
  Re  Re7  1  0.968340  0.368311  0.958426  1
  Re  Re8  1  0.041781  0.531481  0.868530  1
  Re  Re9  1  0.458357  0.968481  0.868574  1
  Re  Re10  1  0.531462  0.368543  0.541534  1
  Re  Re11  1  0.631277  0.541604  0.531440  1
  Re  Re12  1  0.868634  0.958315  0.531353  1
  Re  Re13  1  0.131408  0.041498  0.468532  1
  Re  Re14  1  0.368533  0.458375  0.468623  1
  Re  Re15  1  0.031483  0.868407  0.458417  1
  Os  Os16  1  0.457895  0.532196  0.631790  1
  Os  Os17  1  0.041770  0.968839  0.632112  1
  Os  Os18  1  0.968521  0.131260  0.541445  1
  Os  Os19  1  0.468457  0.631449  0.458490  1
  Os  Os20  1  0.958029  0.032171  0.368202  1
  Os  Os21  1  0.541640  0.468877  0.367891  1
  Os  Os22  1  0.959077  0.468742  0.131675  1
  Os  Os23  1  0.541055  0.031221  0.131745  1
  Os  Os24  1  0.032168  0.631224  0.042169  1
  Os  Os25  1  0.467886  0.868773  0.042200  1
  Os  Os26  1  0.368286  0.041177  0.032165  1
  Os  Os27  1  0.131779  0.458820  0.032182  1
  Se  Se28  1  0.195509  0.616548  0.945056  1
  Se  Se29  1  0.304512  0.883405  0.945065  1
  Se  Se30  1  0.945067  0.695721  0.884393  1
  Se  Se31  1  0.555048  0.804223  0.884424  1
  Se  Se32  1  0.363190  0.135589  0.865425  1
  Se  Se33  1  0.136863  0.364370  0.865421  1
  Se  Se34  1  0.617425  0.056170  0.804485  1
  Se  Se35  1  0.882685  0.443772  0.804400  1
  Se  Se36  1  0.884683  0.055887  0.695076  1
  Se  Se37  1  0.615352  0.444957  0.695833  1
  Se  Se38  1  0.134640  0.135386  0.636509  1
  Se  Se39  1  0.364224  0.365269  0.636958  1
  Se  Se40  1  0.554287  0.695084  0.616726  1
  Se  Se41  1  0.945037  0.805123  0.617864  1
  Se  Se42  1  0.305718  0.617427  0.556791  1
  Se  Se43  1  0.194761  0.883165  0.557342  1
  Se  Se44  1  0.805781  0.117367  0.443185  1
  Se  Se45  1  0.694748  0.383260  0.442590  1
  Se  Se46  1  0.054371  0.195057  0.383305  1
  Se  Se47  1  0.444947  0.305194  0.382140  1
  Se  Se48  1  0.634629  0.635432  0.363392  1
  Se  Se49  1  0.864238  0.865238  0.362892  1
  Se  Se50  1  0.115286  0.944740  0.304114  1
  Se  Se51  1  0.384754  0.556114  0.304858  1
  Se  Se52  1  0.383272  0.944173  0.194457  1
  Se  Se53  1  0.116788  0.555800  0.194459  1
  Se  Se54  1  0.865384  0.635302  0.135942  1
  Se  Se55  1  0.634665  0.864649  0.135962  1
  Se  Se56  1  0.443748  0.194168  0.117084  1
  Se  Se57  1  0.056299  0.305764  0.117063  1
  Se  Se58  1  0.695225  0.116890  0.056853  1
  Se  Se59  1  0.804798  0.383079  0.056808  1
  Cl  Cl60  1  0.799388  0.904293  0.923386  1
  Cl  Cl61  1  0.700780  0.595907  0.923809  1
  Cl  Cl62  1  0.576216  0.299020  0.903018  1
  Cl  Cl63  1  0.923772  0.200946  0.902997  1
  Cl  Cl64  1  0.097038  0.924002  0.799185  1
  Cl  Cl65  1  0.403235  0.574970  0.799592  1
  Cl  Cl66  1  0.095889  0.574916  0.700219  1
  Cl  Cl67  1  0.404583  0.925215  0.700629  1
  Cl  Cl68  1  0.575625  0.200843  0.596049  1
  Cl  Cl69  1  0.924402  0.298381  0.596111  1
  Cl  Cl70  1  0.799229  0.595892  0.575410  1
  Cl  Cl71  1  0.701057  0.902662  0.574997  1
  Cl  Cl72  1  0.299428  0.095768  0.424164  1
  Cl  Cl73  1  0.200860  0.402808  0.424593  1
  Cl  Cl74  1  0.424254  0.798875  0.403391  1
  Cl  Cl75  1  0.075751  0.700348  0.403325  1
  Cl  Cl76  1  0.597281  0.075741  0.298311  1
  Cl  Cl77  1  0.903064  0.424361  0.297861  1
  Cl  Cl78  1  0.596384  0.423756  0.201126  1
  Cl  Cl79  1  0.903835  0.075190  0.200685  1
  Cl  Cl80  1  0.075076  0.799017  0.095778  1
  Cl  Cl81  1  0.424935  0.700980  0.095804  1
  Cl  Cl82  1  0.299341  0.403020  0.075210  1
  Cl  Cl83  1  0.200842  0.097184  0.074778  1
