# generated using pymatgen
data_Nb2Ge2O7
_symmetry_space_group_name_H-M   'P 1'
_cell_length_a   8.01266193
_cell_length_b   5.76306373
_cell_length_c   13.70092454
_cell_angle_alpha   90.00000000
_cell_angle_beta   95.83175423
_cell_angle_gamma   90.00000000
_symmetry_Int_Tables_number   1
_chemical_formula_structural   Nb2Ge2O7
_chemical_formula_sum   'Nb8 Ge8 O28'
_cell_volume   629.39981290
_cell_formula_units_Z   4
loop_
 _symmetry_equiv_pos_site_id
 _symmetry_equiv_pos_as_xyz
  1  'x, y, z'
loop_
 _atom_site_type_symbol
 _atom_site_label
 _atom_site_symmetry_multiplicity
 _atom_site_fract_x
 _atom_site_fract_y
 _atom_site_fract_z
 _atom_site_occupancy
  Nb  Nb0  1  0.925512  0.270055  0.677551  1
  Nb  Nb1  1  0.967215  0.788105  0.882622  1
  Nb  Nb2  1  0.586312  0.761889  0.314186  1
  Nb  Nb3  1  0.523891  0.290644  0.110458  1
  Nb  Nb4  1  0.476109  0.790644  0.889542  1
  Nb  Nb5  1  0.413688  0.261889  0.685814  1
  Nb  Nb6  1  0.032785  0.288105  0.117378  1
  Nb  Nb7  1  0.074488  0.770055  0.322449  1
  Ge  Ge8  1  0.855832  0.237163  0.436777  1
  Ge  Ge9  1  0.813538  0.874052  0.101819  1
  Ge  Ge10  1  0.694209  0.339816  0.859371  1
  Ge  Ge11  1  0.577026  0.739418  0.571673  1
  Ge  Ge12  1  0.422974  0.239418  0.428327  1
  Ge  Ge13  1  0.305791  0.839816  0.140629  1
  Ge  Ge14  1  0.186462  0.374052  0.898181  1
  Ge  Ge15  1  0.144168  0.737163  0.563223  1
  O  O16  1  0.981518  0.530338  0.604272  1
  O  O17  1  0.984695  0.466493  0.815177  1
  O  O18  1  0.811471  0.711124  0.304997  1
  O  O19  1  0.771799  0.227053  0.108710  1
  O  O20  1  0.863187  0.090196  0.564792  1
  O  O21  1  0.962383  0.988602  0.993009  1
  O  O22  1  0.941948  0.984948  0.777290  1
  O  O23  1  0.619078  0.051461  0.392329  1
  O  O24  1  0.538867  0.948717  0.186740  1
  O  O25  1  0.726473  0.686532  0.889144  1
  O  O26  1  0.696210  0.333207  0.709733  1
  O  O27  1  0.543120  0.585610  0.437397  1
  O  O28  1  0.493560  0.516836  0.015129  1
  O  O29  1  0.521080  0.470232  0.225307  1
  O  O30  1  0.478920  0.970232  0.774693  1
  O  O31  1  0.506440  0.016836  0.984871  1
  O  O32  1  0.456880  0.085610  0.562603  1
  O  O33  1  0.303790  0.833207  0.290267  1
  O  O34  1  0.273527  0.186532  0.110856  1
  O  O35  1  0.461133  0.448717  0.813260  1
  O  O36  1  0.380922  0.551461  0.607671  1
  O  O37  1  0.058052  0.484948  0.222710  1
  O  O38  1  0.037617  0.488602  0.006991  1
  O  O39  1  0.136813  0.590196  0.435208  1
  O  O40  1  0.228201  0.727053  0.891290  1
  O  O41  1  0.188529  0.211124  0.695003  1
  O  O42  1  0.015305  0.966493  0.184823  1
  O  O43  1  0.018482  0.030338  0.395728  1
