# generated using pymatgen
data_Li3Fe3(BO3)4
_symmetry_space_group_name_H-M   'P 1'
_cell_length_a   5.22159022
_cell_length_b   9.06708666
_cell_length_c   10.99173990
_cell_angle_alpha   90.00000000
_cell_angle_beta   115.46122549
_cell_angle_gamma   90.00000000
_symmetry_Int_Tables_number   1
_chemical_formula_structural   Li3Fe3(BO3)4
_chemical_formula_sum   'Li6 Fe6 B8 O24'
_cell_volume   469.85657474
_cell_formula_units_Z   2
loop_
 _symmetry_equiv_pos_site_id
 _symmetry_equiv_pos_as_xyz
  1  'x, y, z'
loop_
 _atom_site_type_symbol
 _atom_site_label
 _atom_site_symmetry_multiplicity
 _atom_site_fract_x
 _atom_site_fract_y
 _atom_site_fract_z
 _atom_site_occupancy
  Li  Li0  1  0.505920  0.215744  0.665064  1
  Li  Li1  1  0.860540  0.227688  0.084637  1
  Li  Li2  1  0.103427  0.729864  0.400745  1
  Li  Li3  1  0.505920  0.784256  0.165064  1
  Li  Li4  1  0.860540  0.772312  0.584637  1
  Li  Li5  1  0.103427  0.270136  0.900745  1
  Fe  Fe6  1  0.974885  0.577186  0.134905  1
  Fe  Fe7  1  0.463720  0.720502  0.815913  1
  Fe  Fe8  1  0.031778  0.042211  0.383081  1
  Fe  Fe9  1  0.974885  0.422814  0.634905  1
  Fe  Fe10  1  0.031778  0.957789  0.883081  1
  Fe  Fe11  1  0.463720  0.279498  0.315913  1
  B  B12  1  0.444407  0.552527  0.614139  1
  B  B13  1  0.982718  0.908361  0.136507  1
  B  B14  1  0.565362  0.058968  0.884256  1
  B  B15  1  0.019282  0.400512  0.367534  1
  B  B16  1  0.982718  0.091639  0.636507  1
  B  B17  1  0.444407  0.447473  0.114139  1
  B  B18  1  0.019282  0.599488  0.867534  1
  B  B19  1  0.565362  0.941032  0.384256  1
  O  O20  1  0.798141  0.602794  0.907477  1
  O  O21  1  0.335420  0.899520  0.402737  1
  O  O22  1  0.783782  0.150942  0.894436  1
  O  O23  1  0.611674  0.912321  0.855578  1
  O  O24  1  0.110100  0.529020  0.332427  1
  O  O25  1  0.144473  0.266195  0.358815  1
  O  O26  1  0.340964  0.416016  0.625870  1
  O  O27  1  0.910856  0.035531  0.183702  1
  O  O28  1  0.291659  0.676343  0.627216  1
  O  O29  1  0.866572  0.773381  0.152687  1
  O  O30  1  0.164441  0.090558  0.574868  1
  O  O31  1  0.687062  0.424949  0.097745  1
  O  O32  1  0.335420  0.100480  0.902737  1
  O  O33  1  0.798141  0.397206  0.407477  1
  O  O34  1  0.110100  0.470980  0.832427  1
  O  O35  1  0.783782  0.849058  0.394436  1
  O  O36  1  0.144473  0.733805  0.858815  1
  O  O37  1  0.611674  0.087679  0.355578  1
  O  O38  1  0.910856  0.964469  0.683702  1
  O  O39  1  0.340964  0.583984  0.125870  1
  O  O40  1  0.866572  0.226619  0.652687  1
  O  O41  1  0.291659  0.323657  0.127216  1
  O  O42  1  0.687062  0.575051  0.597745  1
  O  O43  1  0.164441  0.909442  0.074868  1
