# generated using pymatgen
data_Mn2O3F
_symmetry_space_group_name_H-M   'P 1'
_cell_length_a   5.49565348
_cell_length_b   5.49565348
_cell_length_c   8.74623773
_cell_angle_alpha   87.77982217
_cell_angle_beta   92.22017783
_cell_angle_gamma   105.13077966
_symmetry_Int_Tables_number   1
_chemical_formula_structural   Mn2O3F
_chemical_formula_sum   'Mn8 O12 F4'
_cell_volume   254.69442033
_cell_formula_units_Z   4
loop_
 _symmetry_equiv_pos_site_id
 _symmetry_equiv_pos_as_xyz
  1  'x, y, z'
loop_
 _atom_site_type_symbol
 _atom_site_label
 _atom_site_symmetry_multiplicity
 _atom_site_fract_x
 _atom_site_fract_y
 _atom_site_fract_z
 _atom_site_occupancy
  Mn  Mn0  1  0.623416  0.373291  0.124455  1
  Mn  Mn1  1  0.891861  0.142654  0.374132  1
  Mn  Mn2  1  0.231056  0.730310  0.250723  1
  Mn  Mn3  1  0.485358  0.485358  0.500000  1
  Mn  Mn4  1  0.730310  0.231056  0.749277  1
  Mn  Mn5  1  0.142654  0.891861  0.625868  1
  Mn  Mn6  1  0.373291  0.623416  0.875545  1
  Mn  Mn7  1  0.027536  0.027536  0.000000  1
  O  O8  1  0.939109  0.442039  0.249972  1
  O  O9  1  0.717086  0.271991  0.525870  1
  O  O10  1  0.469005  0.525816  0.279382  1
  O  O11  1  0.226072  0.781772  0.029692  1
  O  O12  1  0.973524  0.027252  0.778075  1
  O  O13  1  0.027252  0.973524  0.221925  1
  O  O14  1  0.525816  0.469005  0.720618  1
  O  O15  1  0.271991  0.717086  0.474130  1
  O  O16  1  0.781772  0.226072  0.970308  1
  O  O17  1  0.198162  0.198162  0.500000  1
  O  O18  1  0.442039  0.939109  0.750028  1
  O  O19  1  0.312657  0.312657  0.000000  1
  F  F20  1  0.546048  0.034073  0.256015  1
  F  F21  1  0.810176  0.810176  0.500000  1
  F  F22  1  0.719735  0.719735  0.000000  1
  F  F23  1  0.034073  0.546048  0.743985  1
