# generated using pymatgen
data_CrO
_symmetry_space_group_name_H-M   'P 1'
_cell_length_a   3.00466746
_cell_length_b   3.15568982
_cell_length_c   16.47629134
_cell_angle_alpha   90.00000000
_cell_angle_beta   90.00000000
_cell_angle_gamma   90.00000000
_symmetry_Int_Tables_number   1
_chemical_formula_structural   CrO
_chemical_formula_sum   'Cr6 O6'
_cell_volume   156.22487504
_cell_formula_units_Z   6
loop_
 _symmetry_equiv_pos_site_id
 _symmetry_equiv_pos_as_xyz
  1  'x, y, z'
loop_
 _atom_site_type_symbol
 _atom_site_label
 _atom_site_symmetry_multiplicity
 _atom_site_fract_x
 _atom_site_fract_y
 _atom_site_fract_z
 _atom_site_occupancy
  Cr  Cr0  1  0.500000  0.892345  0.835083  1
  Cr  Cr1  1  0.000000  0.647687  0.500000  1
  Cr  Cr2  1  0.500000  0.892345  0.164917  1
  Cr  Cr3  1  0.000000  0.320933  0.000000  1
  Cr  Cr4  1  0.500000  0.115550  0.334809  1
  Cr  Cr5  1  0.500000  0.115550  0.665191  1
  O  O6  1  0.000000  0.040010  0.751283  1
  O  O7  1  0.000000  0.820629  0.918196  1
  O  O8  1  0.000000  0.820629  0.081804  1
  O  O9  1  0.000000  0.040010  0.248717  1
  O  O10  1  0.000000  0.150387  0.418349  1
  O  O11  1  0.000000  0.150387  0.581651  1
