# generated using pymatgen
data_Na7(CuO3)2
_symmetry_space_group_name_H-M   'P 1'
_cell_length_a   7.83062515
_cell_length_b   7.83062515
_cell_length_c   10.72614675
_cell_angle_alpha   76.30869065
_cell_angle_beta   103.69130935
_cell_angle_gamma   136.81629794
_symmetry_Int_Tables_number   1
_chemical_formula_structural   Na7(CuO3)2
_chemical_formula_sum   'Na14 Cu4 O12'
_cell_volume   435.27250784
_cell_formula_units_Z   2
loop_
 _symmetry_equiv_pos_site_id
 _symmetry_equiv_pos_as_xyz
  1  'x, y, z'
loop_
 _atom_site_type_symbol
 _atom_site_label
 _atom_site_symmetry_multiplicity
 _atom_site_fract_x
 _atom_site_fract_y
 _atom_site_fract_z
 _atom_site_occupancy
  Na  Na0  1  0.422317  0.303855  0.651015  1
  Na  Na1  1  0.760916  0.426336  0.905463  1
  Na  Na2  1  0.696145  0.577683  0.151015  1
  Na  Na3  1  0.258868  0.811276  0.803582  1
  Na  Na4  1  0.573664  0.239084  0.405463  1
  Na  Na5  1  0.811276  0.258868  0.696418  1
  Na  Na6  1  0.188724  0.741132  0.303582  1
  Na  Na7  1  0.426336  0.760916  0.594537  1
  Na  Na8  1  0.741132  0.188724  0.196418  1
  Na  Na9  1  0.303855  0.422317  0.848985  1
  Na  Na10  1  0.239084  0.573664  0.094537  1
  Na  Na11  1  0.930681  0.930681  0.750000  1
  Na  Na12  1  0.577683  0.696145  0.348985  1
  Na  Na13  1  0.069319  0.069319  0.250000  1
  Cu  Cu14  1  0.002974  0.756105  0.538994  1
  Cu  Cu15  1  0.243895  0.997026  0.038994  1
  Cu  Cu16  1  0.756105  0.002974  0.961006  1
  Cu  Cu17  1  0.997026  0.243895  0.461006  1
  O  O18  1  0.326321  0.131588  0.872352  1
  O  O19  1  0.850736  0.607329  0.691123  1
  O  O20  1  0.868412  0.673679  0.372352  1
  O  O21  1  0.347682  0.999986  0.582201  1
  O  O22  1  0.392671  0.149264  0.191123  1
  O  O23  1  0.999986  0.347682  0.917799  1
  O  O24  1  0.000014  0.652318  0.082201  1
  O  O25  1  0.607329  0.850736  0.808877  1
  O  O26  1  0.652318  0.000014  0.417799  1
  O  O27  1  0.131588  0.326321  0.627648  1
  O  O28  1  0.149264  0.392671  0.308877  1
  O  O29  1  0.673679  0.868412  0.127648  1
