# generated using pymatgen
data_Li7Fe7SiO16
_symmetry_space_group_name_H-M   'P 1'
_cell_length_a   5.12764135
_cell_length_b   5.61312405
_cell_length_c   12.91143513
_cell_angle_alpha   89.89963782
_cell_angle_beta   89.83687446
_cell_angle_gamma   89.59747670
_symmetry_Int_Tables_number   1
_chemical_formula_structural   Li7Fe7SiO16
_chemical_formula_sum   'Li7 Fe7 Si1 O16'
_cell_volume   371.60681516
_cell_formula_units_Z   1
loop_
 _symmetry_equiv_pos_site_id
 _symmetry_equiv_pos_as_xyz
  1  'x, y, z'
loop_
 _atom_site_type_symbol
 _atom_site_label
 _atom_site_symmetry_multiplicity
 _atom_site_fract_x
 _atom_site_fract_y
 _atom_site_fract_z
 _atom_site_occupancy
  Li  Li0  1  0.008234  0.079103  0.437847  1
  Li  Li1  1  0.505934  0.421048  0.689136  1
  Li  Li2  1  0.506246  0.422746  0.185925  1
  Li  Li3  1  0.005877  0.576536  0.309577  1
  Li  Li4  1  0.993314  0.554861  0.816424  1
  Li  Li5  1  0.509188  0.918697  0.564523  1
  Li  Li6  1  0.515907  0.923749  0.059955  1
  Fe  Fe7  1  0.997483  0.090060  0.690044  1
  Fe  Fe8  1  0.003516  0.090730  0.183756  1
  Fe  Fe9  1  0.503659  0.411265  0.437084  1
  Fe  Fe10  1  0.000957  0.584946  0.564103  1
  Fe  Fe11  1  0.983348  0.576369  0.058744  1
  Fe  Fe12  1  0.520474  0.905002  0.815248  1
  Fe  Fe13  1  0.509355  0.911988  0.310728  1
  Si  Si14  1  0.994737  0.087722  0.938604  1
  O  O15  1  0.681703  0.045212  0.934719  1
  O  O16  1  0.612489  0.083325  0.432122  1
  O  O17  1  0.630950  0.084625  0.692650  1
  O  O18  1  0.633344  0.082140  0.191651  1
  O  O19  1  0.127855  0.424718  0.442710  1
  O  O20  1  0.072640  0.367436  0.943376  1
  O  O21  1  0.114315  0.408826  0.683327  1
  O  O22  1  0.118406  0.407031  0.180126  1
  O  O23  1  0.614278  0.586698  0.318581  1
  O  O24  1  0.629904  0.608576  0.797857  1
  O  O25  1  0.628972  0.575468  0.555699  1
  O  O26  1  0.642543  0.610462  0.078304  1
  O  O27  1  0.125860  0.960461  0.830861  1
  O  O28  1  0.131713  0.921924  0.300875  1
  O  O29  1  0.114925  0.910573  0.573892  1
  O  O30  1  0.110477  0.937130  0.043604  1
