# generated using pymatgen
data_Fe3Co2Ni(PO4)6
_symmetry_space_group_name_H-M   'P 1'
_cell_length_a   8.40153009
_cell_length_b   8.40153009
_cell_length_c   8.40153009
_cell_angle_alpha   61.80936461
_cell_angle_beta   61.80936461
_cell_angle_gamma   61.80936461
_symmetry_Int_Tables_number   1
_chemical_formula_structural   Fe3Co2Ni(PO4)6
_chemical_formula_sum   'Fe3 Co2 Ni1 P6 O24'
_cell_volume   436.32831079
_cell_formula_units_Z   1
loop_
 _symmetry_equiv_pos_site_id
 _symmetry_equiv_pos_as_xyz
  1  'x, y, z'
loop_
 _atom_site_type_symbol
 _atom_site_label
 _atom_site_symmetry_multiplicity
 _atom_site_fract_x
 _atom_site_fract_y
 _atom_site_fract_z
 _atom_site_occupancy
  Fe  Fe0  1  0.645218  0.645218  0.645218  1
  Fe  Fe1  1  0.855588  0.855588  0.855588  1
  Fe  Fe2  1  0.355600  0.355600  0.355600  1
  Co  Co3  1  0.000670  0.000670  0.000670  1
  Co  Co4  1  0.500536  0.500536  0.500536  1
  Ni  Ni5  1  0.142516  0.142516  0.142516  1
  P  P6  1  0.953671  0.248804  0.547951  1
  P  P7  1  0.547951  0.953671  0.248804  1
  P  P8  1  0.248804  0.547951  0.953671  1
  P  P9  1  0.752043  0.449807  0.046923  1
  P  P10  1  0.449807  0.046923  0.752043  1
  P  P11  1  0.046923  0.752043  0.449807  1
  O  O12  1  0.505051  0.108423  0.323237  1
  O  O13  1  0.323237  0.505051  0.108423  1
  O  O14  1  0.108423  0.323237  0.505051  1
  O  O15  1  0.940340  0.093062  0.753087  1
  O  O16  1  0.989162  0.178579  0.394873  1
  O  O17  1  0.748746  0.403561  0.566153  1
  O  O18  1  0.753087  0.940340  0.093062  1
  O  O19  1  0.566153  0.748746  0.403561  1
  O  O20  1  0.826349  0.605286  0.003161  1
  O  O21  1  0.403561  0.566153  0.748746  1
  O  O22  1  0.905529  0.246417  0.060439  1
  O  O23  1  0.605286  0.003161  0.826349  1
  O  O24  1  0.394873  0.989162  0.178579  1
  O  O25  1  0.093062  0.753087  0.940340  1
  O  O26  1  0.596827  0.438412  0.250301  1
  O  O27  1  0.178579  0.394873  0.989162  1
  O  O28  1  0.438412  0.250301  0.596827  1
  O  O29  1  0.246417  0.060439  0.905529  1
  O  O30  1  0.250301  0.596827  0.438412  1
  O  O31  1  0.003161  0.826349  0.605286  1
  O  O32  1  0.060439  0.905529  0.246417  1
  O  O33  1  0.892945  0.675438  0.495293  1
  O  O34  1  0.675438  0.495293  0.892945  1
  O  O35  1  0.495293  0.892945  0.675438  1
