# generated using pymatgen
data_LiFe(PO3)3
_symmetry_space_group_name_H-M   'P 1'
_cell_length_a   8.49623171
_cell_length_b   8.62083074
_cell_length_c   8.97880974
_cell_angle_alpha   90.00000000
_cell_angle_beta   90.00000000
_cell_angle_gamma   90.00000000
_symmetry_Int_Tables_number   1
_chemical_formula_structural   LiFe(PO3)3
_chemical_formula_sum   'Li4 Fe4 P12 O36'
_cell_volume   657.64910790
_cell_formula_units_Z   4
loop_
 _symmetry_equiv_pos_site_id
 _symmetry_equiv_pos_as_xyz
  1  'x, y, z'
loop_
 _atom_site_type_symbol
 _atom_site_label
 _atom_site_symmetry_multiplicity
 _atom_site_fract_x
 _atom_site_fract_y
 _atom_site_fract_z
 _atom_site_occupancy
  Li  Li0  1  0.870008  0.641992  0.335411  1
  Li  Li1  1  0.629992  0.358008  0.835411  1
  Li  Li2  1  0.129992  0.141992  0.164589  1
  Li  Li3  1  0.370008  0.858008  0.664589  1
  Fe  Fe4  1  0.652501  0.628612  0.609877  1
  Fe  Fe5  1  0.847499  0.371388  0.109877  1
  Fe  Fe6  1  0.347499  0.128612  0.890123  1
  Fe  Fe7  1  0.152501  0.871388  0.390123  1
  P  P8  1  0.800386  0.691828  0.932684  1
  P  P9  1  0.028691  0.683150  0.681079  1
  P  P10  1  0.188551  0.522188  0.191391  1
  P  P11  1  0.311449  0.477812  0.691391  1
  P  P12  1  0.471309  0.316850  0.181079  1
  P  P13  1  0.699614  0.308172  0.432684  1
  P  P14  1  0.199614  0.191828  0.567316  1
  P  P15  1  0.971309  0.183150  0.818921  1
  P  P16  1  0.811449  0.022188  0.308609  1
  P  P17  1  0.688551  0.977812  0.808609  1
  P  P18  1  0.528691  0.816850  0.318921  1
  P  P19  1  0.300386  0.808172  0.067316  1
  O  O20  1  0.960752  0.731798  0.841277  1
  O  O21  1  0.630495  0.687730  0.378294  1
  O  O22  1  0.842152  0.632859  0.084780  1
  O  O23  1  0.228430  0.635132  0.051159  1
  O  O24  1  0.896934  0.628186  0.581842  1
  O  O25  1  0.409526  0.611695  0.635233  1
  O  O26  1  0.127175  0.616915  0.319395  1
  O  O27  1  0.694051  0.592072  0.838170  1
  O  O28  1  0.138956  0.541010  0.733260  1
  O  O29  1  0.361044  0.458990  0.233260  1
  O  O30  1  0.805949  0.407928  0.338170  1
  O  O31  1  0.372825  0.383085  0.819395  1
  O  O32  1  0.090474  0.388305  0.135233  1
  O  O33  1  0.603066  0.371814  0.081842  1
  O  O34  1  0.271570  0.364868  0.551159  1
  O  O35  1  0.657848  0.367141  0.584780  1
  O  O36  1  0.869505  0.312270  0.878294  1
  O  O37  1  0.539248  0.268202  0.341277  1
  O  O38  1  0.039248  0.231798  0.658723  1
  O  O39  1  0.369505  0.187730  0.121706  1
  O  O40  1  0.157848  0.132859  0.415220  1
  O  O41  1  0.771570  0.135132  0.448841  1
  O  O42  1  0.103066  0.128186  0.918158  1
  O  O43  1  0.590474  0.111695  0.864767  1
  O  O44  1  0.872825  0.116915  0.180605  1
  O  O45  1  0.305949  0.092072  0.661830  1
  O  O46  1  0.861044  0.041010  0.766740  1
  O  O47  1  0.638956  0.958990  0.266740  1
  O  O48  1  0.194051  0.907928  0.161830  1
  O  O49  1  0.627175  0.883085  0.680605  1
  O  O50  1  0.909526  0.888305  0.364767  1
  O  O51  1  0.396934  0.871814  0.418158  1
  O  O52  1  0.728430  0.864868  0.948841  1
  O  O53  1  0.342152  0.867141  0.915220  1
  O  O54  1  0.130495  0.812270  0.621706  1
  O  O55  1  0.460752  0.768202  0.158723  1
