# generated using pymatgen
data_K2Li3CoO4
_symmetry_space_group_name_H-M   'P 1'
_cell_length_a   5.57387294
_cell_length_b   8.84865690
_cell_length_c   11.01944681
_cell_angle_alpha   90.00000000
_cell_angle_beta   111.28359987
_cell_angle_gamma   90.00000000
_symmetry_Int_Tables_number   1
_chemical_formula_structural   K2Li3CoO4
_chemical_formula_sum   'K8 Li12 Co4 O16'
_cell_volume   506.42445092
_cell_formula_units_Z   4
loop_
 _symmetry_equiv_pos_site_id
 _symmetry_equiv_pos_as_xyz
  1  'x, y, z'
loop_
 _atom_site_type_symbol
 _atom_site_label
 _atom_site_symmetry_multiplicity
 _atom_site_fract_x
 _atom_site_fract_y
 _atom_site_fract_z
 _atom_site_occupancy
  K  K0  1  0.293354  0.007673  0.138485  1
  K  K1  1  0.717512  0.727519  0.607715  1
  K  K2  1  0.706646  0.507673  0.361515  1
  K  K3  1  0.282488  0.227519  0.892285  1
  K  K4  1  0.717512  0.772481  0.107715  1
  K  K5  1  0.293354  0.492327  0.638485  1
  K  K6  1  0.282488  0.272481  0.392285  1
  K  K7  1  0.706646  0.992327  0.861515  1
  Li  Li8  1  0.374775  0.764500  0.301395  1
  Li  Li9  1  0.631710  0.996788  0.432122  1
  Li  Li10  1  0.368290  0.496788  0.067878  1
  Li  Li11  1  0.906004  0.466137  0.797731  1
  Li  Li12  1  0.625225  0.264500  0.198605  1
  Li  Li13  1  0.093996  0.966137  0.702269  1
  Li  Li14  1  0.906004  0.033863  0.297731  1
  Li  Li15  1  0.374775  0.735500  0.801395  1
  Li  Li16  1  0.093996  0.533863  0.202269  1
  Li  Li17  1  0.631710  0.503212  0.932122  1
  Li  Li18  1  0.368290  0.003212  0.567878  1
  Li  Li19  1  0.625225  0.235500  0.698605  1
  Co  Co20  1  0.094335  0.713385  0.936141  1
  Co  Co21  1  0.905665  0.213385  0.563859  1
  Co  Co22  1  0.094335  0.786615  0.436141  1
  Co  Co23  1  0.905665  0.286615  0.063859  1
  O  O24  1  0.236201  0.691627  0.120107  1
  O  O25  1  0.251035  0.327365  0.144116  1
  O  O26  1  0.743669  0.050128  0.623412  1
  O  O27  1  0.777493  0.390431  0.611681  1
  O  O28  1  0.748965  0.827365  0.355884  1
  O  O29  1  0.763799  0.191627  0.379893  1
  O  O30  1  0.222507  0.890431  0.888319  1
  O  O31  1  0.256331  0.550128  0.876588  1
  O  O32  1  0.743669  0.449872  0.123412  1
  O  O33  1  0.777493  0.109569  0.111681  1
  O  O34  1  0.236201  0.808373  0.620107  1
  O  O35  1  0.251035  0.172635  0.644116  1
  O  O36  1  0.222507  0.609569  0.388319  1
  O  O37  1  0.256331  0.949872  0.376588  1
  O  O38  1  0.748965  0.672635  0.855884  1
  O  O39  1  0.763799  0.308373  0.879893  1
