# generated using pymatgen
data_Li4CoSn3(PO4)4
_symmetry_space_group_name_H-M   'P 1'
_cell_length_a   4.85562899
_cell_length_b   6.76970163
_cell_length_c   10.93427914
_cell_angle_alpha   90.00000000
_cell_angle_beta   91.20619196
_cell_angle_gamma   90.00000000
_symmetry_Int_Tables_number   1
_chemical_formula_structural   Li4CoSn3(PO4)4
_chemical_formula_sum   'Li4 Co1 Sn3 P4 O16'
_cell_volume   359.34279049
_cell_formula_units_Z   1
loop_
 _symmetry_equiv_pos_site_id
 _symmetry_equiv_pos_as_xyz
  1  'x, y, z'
loop_
 _atom_site_type_symbol
 _atom_site_label
 _atom_site_symmetry_multiplicity
 _atom_site_fract_x
 _atom_site_fract_y
 _atom_site_fract_z
 _atom_site_occupancy
  Li  Li0  1  0.966819  0.273741  0.992461  1
  Li  Li1  1  0.966819  0.726259  0.992461  1
  Li  Li2  1  0.497781  0.756864  0.512822  1
  Li  Li3  1  0.497781  0.243136  0.512822  1
  Co  Co4  1  0.035556  0.000000  0.728435  1
  Sn  Sn5  1  0.466454  0.000000  0.218467  1
  Sn  Sn6  1  0.541791  0.500000  0.782231  1
  Sn  Sn7  1  0.942857  0.500000  0.295978  1
  P  P8  1  0.095542  0.500000  0.583718  1
  P  P9  1  0.380313  0.500000  0.071120  1
  P  P10  1  0.623202  0.000000  0.898420  1
  P  P11  1  0.915484  0.000000  0.443593  1
  O  O12  1  0.236674  0.500000  0.453699  1
  O  O13  1  0.213707  0.313644  0.652297  1
  O  O14  1  0.213707  0.686356  0.652297  1
  O  O15  1  0.231617  0.000000  0.445550  1
  O  O16  1  0.308636  0.000000  0.879586  1
  O  O17  1  0.274447  0.314748  0.143045  1
  O  O18  1  0.274447  0.685252  0.143045  1
  O  O19  1  0.221149  0.500000  0.944845  1
  O  O20  1  0.717856  0.000000  0.036762  1
  O  O21  1  0.768481  0.819340  0.837801  1
  O  O22  1  0.768481  0.180660  0.837801  1
  O  O23  1  0.691974  0.500000  0.051081  1
  O  O24  1  0.780563  0.500000  0.568985  1
  O  O25  1  0.788420  0.817295  0.373087  1
  O  O26  1  0.788420  0.182705  0.373087  1
  O  O27  1  0.791024  0.000000  0.574505  1
