# generated using pymatgen
data_Mn3Ni3(TeO8)2
_symmetry_space_group_name_H-M   'P 1'
_cell_length_a   5.88188851
_cell_length_b   5.88188851
_cell_length_c   9.19070070
_cell_angle_alpha   88.29637096
_cell_angle_beta   91.70362904
_cell_angle_gamma   120.78550010
_symmetry_Int_Tables_number   1
_chemical_formula_structural   Mn3Ni3(TeO8)2
_chemical_formula_sum   'Mn3 Ni3 Te2 O16'
_cell_volume   273.00244729
_cell_formula_units_Z   1
loop_
 _symmetry_equiv_pos_site_id
 _symmetry_equiv_pos_as_xyz
  1  'x, y, z'
loop_
 _atom_site_type_symbol
 _atom_site_label
 _atom_site_symmetry_multiplicity
 _atom_site_fract_x
 _atom_site_fract_y
 _atom_site_fract_z
 _atom_site_occupancy
  Mn  Mn0  1  0.337668  0.166013  0.211311  1
  Mn  Mn1  1  0.833987  0.662332  0.211311  1
  Mn  Mn2  1  0.168535  0.831465  0.713312  1
  Ni  Ni3  1  0.831018  0.168982  0.210787  1
  Ni  Ni4  1  0.168682  0.336206  0.710223  1
  Ni  Ni5  1  0.663794  0.831318  0.710223  1
  Te  Te6  1  0.671495  0.328505  0.490228  1
  Te  Te7  1  0.336384  0.663616  0.984865  1
  O  O8  1  0.344926  0.166190  0.596194  1
  O  O9  1  0.519928  0.480072  0.336631  1
  O  O10  1  0.656968  0.343032  0.107826  1
  O  O11  1  0.007903  0.992097  0.305143  1
  O  O12  1  0.004238  0.995762  0.802721  1
  O  O13  1  0.833810  0.655074  0.596194  1
  O  O14  1  0.505710  0.038315  0.346375  1
  O  O15  1  0.961685  0.494290  0.346375  1
  O  O16  1  0.171071  0.828929  0.101745  1
  O  O17  1  0.837684  0.162316  0.592047  1
  O  O18  1  0.032072  0.530957  0.846730  1
  O  O19  1  0.469043  0.967928  0.846730  1
  O  O20  1  0.328655  0.671345  0.614141  1
  O  O21  1  0.172202  0.336815  0.095205  1
  O  O22  1  0.479231  0.520769  0.844203  1
  O  O23  1  0.663185  0.827798  0.095205  1
