# generated using pymatgen
data_Li4Co3Cu3(TeO8)2
_symmetry_space_group_name_H-M   'P 1'
_cell_length_a   5.75501127
_cell_length_b   5.88030582
_cell_length_c   9.59134014
_cell_angle_alpha   93.51741030
_cell_angle_beta   90.18545251
_cell_angle_gamma   118.52658965
_symmetry_Int_Tables_number   1
_chemical_formula_structural   Li4Co3Cu3(TeO8)2
_chemical_formula_sum   'Li4 Co3 Cu3 Te2 O16'
_cell_volume   284.44373991
_cell_formula_units_Z   1
loop_
 _symmetry_equiv_pos_site_id
 _symmetry_equiv_pos_as_xyz
  1  'x, y, z'
loop_
 _atom_site_type_symbol
 _atom_site_label
 _atom_site_symmetry_multiplicity
 _atom_site_fract_x
 _atom_site_fract_y
 _atom_site_fract_z
 _atom_site_occupancy
  Li  Li0  1  0.328193  0.671610  0.911135  1
  Li  Li1  1  0.006954  0.020598  0.988346  1
  Li  Li2  1  0.001590  0.999170  0.483164  1
  Li  Li3  1  0.659762  0.303562  0.413810  1
  Co  Co4  1  0.170932  0.346494  0.216605  1
  Co  Co5  1  0.834526  0.174716  0.714365  1
  Co  Co6  1  0.342722  0.172219  0.713215  1
  Cu  Cu7  1  0.662972  0.837465  0.210553  1
  Cu  Cu8  1  0.176352  0.842173  0.210641  1
  Cu  Cu9  1  0.834646  0.666997  0.712096  1
  Te  Te10  1  0.331174  0.649878  0.487841  1
  Te  Te11  1  0.667179  0.350323  0.981829  1
  O  O12  1  0.675148  0.831236  0.591135  1
  O  O13  1  0.483021  0.938267  0.356593  1
  O  O14  1  0.327354  0.652866  0.122797  1
  O  O15  1  0.006522  0.020531  0.291897  1
  O  O16  1  0.011543  0.015121  0.799600  1
  O  O17  1  0.177339  0.839827  0.588694  1
  O  O18  1  0.453031  0.464574  0.355414  1
  O  O19  1  0.023033  0.484271  0.355684  1
  O  O20  1  0.836299  0.693223  0.082095  1
  O  O21  1  0.162785  0.323701  0.602015  1
  O  O22  1  0.961993  0.477191  0.844502  1
  O  O23  1  0.487804  0.464217  0.846742  1
  O  O24  1  0.661097  0.322846  0.618774  1
  O  O25  1  0.843837  0.202308  0.086548  1
  O  O26  1  0.524471  0.043436  0.833090  1
  O  O27  1  0.348017  0.191181  0.088658  1
