# generated using pymatgen
data_Li4Mn3Nb2Cu3O16
_symmetry_space_group_name_H-M   'P 1'
_cell_length_a   5.89346755
_cell_length_b   5.93680944
_cell_length_c   9.79279897
_cell_angle_alpha   92.41015058
_cell_angle_beta   89.71978265
_cell_angle_gamma   118.82839603
_symmetry_Int_Tables_number   1
_chemical_formula_structural   Li4Mn3Nb2Cu3O16
_chemical_formula_sum   'Li4 Mn3 Nb2 Cu3 O16'
_cell_volume   299.85901436
_cell_formula_units_Z   1
loop_
 _symmetry_equiv_pos_site_id
 _symmetry_equiv_pos_as_xyz
  1  'x, y, z'
loop_
 _atom_site_type_symbol
 _atom_site_label
 _atom_site_symmetry_multiplicity
 _atom_site_fract_x
 _atom_site_fract_y
 _atom_site_fract_z
 _atom_site_occupancy
  Li  Li0  1  0.676359  0.346283  0.096140  1
  Li  Li1  1  0.995534  0.989587  0.006631  1
  Li  Li2  1  0.994568  0.992790  0.514245  1
  Li  Li3  1  0.333187  0.675375  0.597749  1
  Mn  Mn4  1  0.830871  0.656910  0.779554  1
  Mn  Mn5  1  0.662382  0.828577  0.284850  1
  Mn  Mn6  1  0.164123  0.826229  0.283896  1
  Nb  Nb7  1  0.644413  0.309648  0.514895  1
  Nb  Nb8  1  0.335371  0.659647  0.004553  1
  Cu  Cu9  1  0.830033  0.164623  0.788870  1
  Cu  Cu10  1  0.335499  0.163503  0.790398  1
  Cu  Cu11  1  0.168183  0.337829  0.286178  1
  O  O12  1  0.816090  0.145758  0.412263  1
  O  O13  1  0.499399  0.041786  0.642451  1
  O  O14  1  0.670269  0.343022  0.879126  1
  O  O15  1  0.999684  0.992847  0.703975  1
  O  O16  1  0.995996  0.995379  0.195628  1
  O  O17  1  0.322688  0.152855  0.405105  1
  O  O18  1  0.969917  0.502612  0.654284  1
  O  O19  1  0.557744  0.533792  0.644950  1
  O  O20  1  0.180626  0.323486  0.927034  1
  O  O21  1  0.841249  0.678923  0.390497  1
  O  O22  1  0.514459  0.549294  0.156826  1
  O  O23  1  0.041450  0.538760  0.159863  1
  O  O24  1  0.337425  0.675875  0.384358  1
  O  O25  1  0.663006  0.816138  0.905309  1
  O  O26  1  0.481553  0.966238  0.171512  1
  O  O27  1  0.138220  0.792233  0.911025  1
