# generated using pymatgen
data_Lu2(WO4)3
_symmetry_space_group_name_H-M   'P 1'
_cell_length_a   9.96935307
_cell_length_b   10.08906767
_cell_length_c   13.80250557
_cell_angle_alpha   90.00000000
_cell_angle_beta   90.00000000
_cell_angle_gamma   90.00000000
_symmetry_Int_Tables_number   1
_chemical_formula_structural   Lu2(WO4)3
_chemical_formula_sum   'Lu8 W12 O48'
_cell_volume   1388.27640687
_cell_formula_units_Z   4
loop_
 _symmetry_equiv_pos_site_id
 _symmetry_equiv_pos_as_xyz
  1  'x, y, z'
loop_
 _atom_site_type_symbol
 _atom_site_label
 _atom_site_symmetry_multiplicity
 _atom_site_fract_x
 _atom_site_fract_y
 _atom_site_fract_z
 _atom_site_occupancy
  Lu  Lu0  1  0.248804  0.039090  0.621687  1
  Lu  Lu1  1  0.748804  0.039090  0.878313  1
  Lu  Lu2  1  0.748804  0.460910  0.121687  1
  Lu  Lu3  1  0.248804  0.460910  0.378313  1
  Lu  Lu4  1  0.251196  0.539090  0.878313  1
  Lu  Lu5  1  0.751196  0.539090  0.621687  1
  Lu  Lu6  1  0.251196  0.960910  0.121687  1
  Lu  Lu7  1  0.751196  0.960910  0.378313  1
  W  W8  1  0.398231  0.113651  0.355603  1
  W  W9  1  0.898231  0.113651  0.144397  1
  W  W10  1  0.466601  0.250000  0.000000  1
  W  W11  1  0.966601  0.250000  0.500000  1
  W  W12  1  0.398231  0.386349  0.644397  1
  W  W13  1  0.898231  0.386349  0.855603  1
  W  W14  1  0.101769  0.613651  0.144397  1
  W  W15  1  0.601769  0.613651  0.355603  1
  W  W16  1  0.533399  0.750000  0.000000  1
  W  W17  1  0.033399  0.750000  0.500000  1
  W  W18  1  0.101769  0.886349  0.855603  1
  W  W19  1  0.601769  0.886349  0.644397  1
  O  O20  1  0.174600  0.997556  0.767193  1
  O  O21  1  0.674600  0.997556  0.732807  1
  O  O22  1  0.831929  0.075488  0.025394  1
  O  O23  1  0.331929  0.075488  0.474606  1
  O  O24  1  0.078782  0.093229  0.146472  1
  O  O25  1  0.578782  0.093229  0.353528  1
  O  O26  1  0.363192  0.130249  0.063146  1
  O  O27  1  0.863192  0.130249  0.436854  1
  O  O28  1  0.573463  0.165253  0.913879  1
  O  O29  1  0.073463  0.165253  0.586121  1
  O  O30  1  0.856303  0.216407  0.825850  1
  O  O31  1  0.356303  0.216407  0.674150  1
  O  O32  1  0.856303  0.283593  0.174150  1
  O  O33  1  0.356303  0.283593  0.325850  1
  O  O34  1  0.573463  0.334747  0.086121  1
  O  O35  1  0.073463  0.334747  0.413879  1
  O  O36  1  0.863192  0.369751  0.563146  1
  O  O37  1  0.363192  0.369751  0.936854  1
  O  O38  1  0.578782  0.406771  0.646472  1
  O  O39  1  0.078782  0.406771  0.853528  1
  O  O40  1  0.331929  0.424512  0.525394  1
  O  O41  1  0.831929  0.424512  0.974606  1
  O  O42  1  0.674600  0.502444  0.267193  1
  O  O43  1  0.174600  0.502444  0.232807  1
  O  O44  1  0.325400  0.497556  0.732807  1
  O  O45  1  0.825400  0.497556  0.767193  1
  O  O46  1  0.168071  0.575488  0.025394  1
  O  O47  1  0.668071  0.575488  0.474606  1
  O  O48  1  0.421218  0.593229  0.353528  1
  O  O49  1  0.921218  0.593229  0.146472  1
  O  O50  1  0.636808  0.630249  0.063146  1
  O  O51  1  0.136808  0.630249  0.436854  1
  O  O52  1  0.426537  0.665253  0.913879  1
  O  O53  1  0.926537  0.665253  0.586121  1
  O  O54  1  0.643697  0.716407  0.674150  1
  O  O55  1  0.143697  0.716407  0.825850  1
  O  O56  1  0.143697  0.783593  0.174150  1
  O  O57  1  0.643697  0.783593  0.325850  1
  O  O58  1  0.926537  0.834747  0.413879  1
  O  O59  1  0.426537  0.834747  0.086121  1
  O  O60  1  0.636808  0.869751  0.936854  1
  O  O61  1  0.136808  0.869751  0.563146  1
  O  O62  1  0.921218  0.906771  0.853528  1
  O  O63  1  0.421218  0.906771  0.646472  1
  O  O64  1  0.168071  0.924512  0.974606  1
  O  O65  1  0.668071  0.924512  0.525394  1
  O  O66  1  0.825400  0.002444  0.232807  1
  O  O67  1  0.325400  0.002444  0.267193  1
