# generated using pymatgen
data_CeScO3
_symmetry_space_group_name_H-M   'P 1'
_cell_length_a   5.63649154
_cell_length_b   5.83766135
_cell_length_c   8.06700310
_cell_angle_alpha   90.00000000
_cell_angle_beta   90.00000000
_cell_angle_gamma   90.00000000
_symmetry_Int_Tables_number   1
_chemical_formula_structural   CeScO3
_chemical_formula_sum   'Ce4 Sc4 O12'
_cell_volume   265.43609606
_cell_formula_units_Z   4
loop_
 _symmetry_equiv_pos_site_id
 _symmetry_equiv_pos_as_xyz
  1  'x, y, z'
loop_
 _atom_site_type_symbol
 _atom_site_label
 _atom_site_symmetry_multiplicity
 _atom_site_fract_x
 _atom_site_fract_y
 _atom_site_fract_z
 _atom_site_occupancy
  Ce  Ce0  1  0.985220  0.058045  0.250000  1
  Ce  Ce1  1  0.485220  0.441955  0.750000  1
  Ce  Ce2  1  0.514780  0.558045  0.250000  1
  Ce  Ce3  1  0.014780  0.941955  0.750000  1
  Sc  Sc4  1  0.500000  0.000000  0.000000  1
  Sc  Sc5  1  0.500000  0.000000  0.500000  1
  Sc  Sc6  1  0.000000  0.500000  0.000000  1
  Sc  Sc7  1  0.000000  0.500000  0.500000  1
  O  O8  1  0.614459  0.042890  0.750000  1
  O  O9  1  0.195300  0.196716  0.940495  1
  O  O10  1  0.195300  0.196716  0.559505  1
  O  O11  1  0.695300  0.303284  0.059505  1
  O  O12  1  0.695300  0.303284  0.440495  1
  O  O13  1  0.114459  0.457110  0.250000  1
  O  O14  1  0.885541  0.542890  0.750000  1
  O  O15  1  0.304700  0.696716  0.559505  1
  O  O16  1  0.304700  0.696716  0.940495  1
  O  O17  1  0.804700  0.803284  0.440495  1
  O  O18  1  0.804700  0.803284  0.059505  1
  O  O19  1  0.385541  0.957110  0.250000  1
