# generated using pymatgen
data_MnNbO4
_symmetry_space_group_name_H-M   'P 1'
_cell_length_a   5.77907058
_cell_length_b   5.77907058
_cell_length_c   5.77907058
_cell_angle_alpha   140.54699200
_cell_angle_beta   140.54699200
_cell_angle_gamma   57.02370356
_symmetry_Int_Tables_number   1
_chemical_formula_structural   MnNbO4
_chemical_formula_sum   'Mn1 Nb1 O4'
_cell_volume   77.28769241
_cell_formula_units_Z   1
loop_
 _symmetry_equiv_pos_site_id
 _symmetry_equiv_pos_as_xyz
  1  'x, y, z'
loop_
 _atom_site_type_symbol
 _atom_site_label
 _atom_site_symmetry_multiplicity
 _atom_site_fract_x
 _atom_site_fract_y
 _atom_site_fract_z
 _atom_site_occupancy
  Mn  Mn0  1  0.500000  0.500000  0.000000  1
  Nb  Nb1  1  0.750000  0.250000  0.500000  1
  O  O2  1  0.282801  0.282801  0.000000  1
  O  O3  1  0.952105  0.452105  0.500000  1
  O  O4  1  0.717199  0.717199  0.000000  1
  O  O5  1  0.547895  0.047895  0.500000  1
