# generated using pymatgen
data_Li2Bi5B3O13
_symmetry_space_group_name_H-M   'P 1'
_cell_length_a   10.75979907
_cell_length_b   3.73047836
_cell_length_c   16.39682276
_cell_angle_alpha   90.00000000
_cell_angle_beta   103.79503749
_cell_angle_gamma   90.00000000
_symmetry_Int_Tables_number   1
_chemical_formula_structural   Li2Bi5B3O13
_chemical_formula_sum   'Li4 Bi10 B6 O26'
_cell_volume   639.17077683
_cell_formula_units_Z   2
loop_
 _symmetry_equiv_pos_site_id
 _symmetry_equiv_pos_as_xyz
  1  'x, y, z'
loop_
 _atom_site_type_symbol
 _atom_site_label
 _atom_site_symmetry_multiplicity
 _atom_site_fract_x
 _atom_site_fract_y
 _atom_site_fract_z
 _atom_site_occupancy
  Li  Li0  1  0.213491  0.750000  0.732074  1
  Li  Li1  1  0.390059  0.250000  0.944864  1
  Li  Li2  1  0.609941  0.750000  0.055136  1
  Li  Li3  1  0.786509  0.250000  0.267926  1
  Bi  Bi4  1  0.147835  0.750000  0.994133  1
  Bi  Bi5  1  0.033763  0.750000  0.376323  1
  Bi  Bi6  1  0.183464  0.250000  0.200408  1
  Bi  Bi7  1  0.359421  0.250000  0.437852  1
  Bi  Bi8  1  0.471499  0.250000  0.701751  1
  Bi  Bi9  1  0.528501  0.750000  0.298249  1
  Bi  Bi10  1  0.640579  0.750000  0.562148  1
  Bi  Bi11  1  0.816536  0.750000  0.799592  1
  Bi  Bi12  1  0.966237  0.250000  0.623677  1
  Bi  Bi13  1  0.852165  0.250000  0.005867  1
  B  B14  1  0.094946  0.250000  0.815988  1
  B  B15  1  0.214891  0.750000  0.576545  1
  B  B16  1  0.595493  0.250000  0.897243  1
  B  B17  1  0.404507  0.750000  0.102757  1
  B  B18  1  0.785109  0.250000  0.423455  1
  B  B19  1  0.905054  0.750000  0.184012  1
  O  O20  1  0.176235  0.250000  0.894227  1
  O  O21  1  0.089293  0.750000  0.584700  1
  O  O22  1  0.144007  0.250000  0.744329  1
  O  O23  1  0.039951  0.750000  0.197586  1
  O  O24  1  0.138686  0.250000  0.338324  1
  O  O25  1  0.239034  0.750000  0.497033  1
  O  O26  1  0.313176  0.750000  0.649736  1
  O  O27  1  0.082629  0.250000  0.058632  1
  O  O28  1  0.474246  0.250000  0.847216  1
  O  O29  1  0.617908  0.250000  0.984121  1
  O  O30  1  0.293286  0.750000  0.137435  1
  O  O31  1  0.396762  0.250000  0.296314  1
  O  O32  1  0.515153  0.250000  0.568591  1
  O  O33  1  0.484847  0.750000  0.431409  1
  O  O34  1  0.603238  0.750000  0.703686  1
  O  O35  1  0.706714  0.250000  0.862565  1
  O  O36  1  0.382092  0.750000  0.015879  1
  O  O37  1  0.525754  0.750000  0.152784  1
  O  O38  1  0.917371  0.750000  0.941368  1
  O  O39  1  0.686824  0.250000  0.350264  1
  O  O40  1  0.760966  0.250000  0.502967  1
  O  O41  1  0.861314  0.750000  0.661676  1
  O  O42  1  0.960049  0.250000  0.802414  1
  O  O43  1  0.855993  0.750000  0.255671  1
  O  O44  1  0.910707  0.250000  0.415300  1
  O  O45  1  0.823765  0.750000  0.105773  1
