# generated using pymatgen
data_Li2MnV3O8
_symmetry_space_group_name_H-M   'P 1'
_cell_length_a   5.93104157
_cell_length_b   5.93104157
_cell_length_c   9.92888155
_cell_angle_alpha   90.00000000
_cell_angle_beta   90.00000000
_cell_angle_gamma   120.00000000
_symmetry_Int_Tables_number   1
_chemical_formula_structural   Li2MnV3O8
_chemical_formula_sum   'Li4 Mn2 V6 O16'
_cell_volume   302.47737621
_cell_formula_units_Z   2
loop_
 _symmetry_equiv_pos_site_id
 _symmetry_equiv_pos_as_xyz
  1  'x, y, z'
loop_
 _atom_site_type_symbol
 _atom_site_label
 _atom_site_symmetry_multiplicity
 _atom_site_fract_x
 _atom_site_fract_y
 _atom_site_fract_z
 _atom_site_occupancy
  Li  Li0  1  0.333333  0.666667  0.894130  1
  Li  Li1  1  0.000000  0.000000  0.996890  1
  Li  Li2  1  0.000000  0.000000  0.496890  1
  Li  Li3  1  0.666667  0.333333  0.394130  1
  Mn  Mn4  1  0.333333  0.666667  0.497412  1
  Mn  Mn5  1  0.666667  0.333333  0.997412  1
  V  V6  1  0.158168  0.820225  0.214450  1
  V  V7  1  0.179775  0.337944  0.214450  1
  V  V8  1  0.662056  0.841832  0.214450  1
  V  V9  1  0.337944  0.179775  0.714450  1
  V  V10  1  0.841832  0.662056  0.714450  1
  V  V11  1  0.820225  0.158168  0.714450  1
  O  O12  1  0.169192  0.858326  0.609259  1
  O  O13  1  0.033609  0.532668  0.325792  1
  O  O14  1  0.333333  0.666667  0.103107  1
  O  O15  1  0.000000  0.000000  0.313839  1
  O  O16  1  0.000000  0.000000  0.813839  1
  O  O17  1  0.141674  0.310866  0.609259  1
  O  O18  1  0.499059  0.966391  0.325792  1
  O  O19  1  0.467332  0.500941  0.325792  1
  O  O20  1  0.310866  0.141674  0.109259  1
  O  O21  1  0.689134  0.830808  0.609259  1
  O  O22  1  0.500941  0.467332  0.825792  1
  O  O23  1  0.532668  0.033609  0.825792  1
  O  O24  1  0.666667  0.333333  0.603107  1
  O  O25  1  0.830808  0.689134  0.109259  1
  O  O26  1  0.966391  0.499059  0.825792  1
  O  O27  1  0.858326  0.169192  0.109259  1
