# generated using pymatgen
data_K3VPCO7
_symmetry_space_group_name_H-M   'P 1'
_cell_length_a   5.67427142
_cell_length_b   6.99236471
_cell_length_c   11.27567183
_cell_angle_alpha   90.00000000
_cell_angle_beta   120.23779762
_cell_angle_gamma   90.00000000
_symmetry_Int_Tables_number   1
_chemical_formula_structural   K3VPCO7
_chemical_formula_sum   'K6 V2 P2 C2 O14'
_cell_volume   386.51075479
_cell_formula_units_Z   2
loop_
 _symmetry_equiv_pos_site_id
 _symmetry_equiv_pos_as_xyz
  1  'x, y, z'
loop_
 _atom_site_type_symbol
 _atom_site_label
 _atom_site_symmetry_multiplicity
 _atom_site_fract_x
 _atom_site_fract_y
 _atom_site_fract_z
 _atom_site_occupancy
  K  K0  1  0.686947  0.750000  0.926522  1
  K  K1  1  0.972986  0.987785  0.716512  1
  K  K2  1  0.972986  0.512215  0.716512  1
  K  K3  1  0.027014  0.487785  0.283488  1
  K  K4  1  0.027014  0.012215  0.283488  1
  K  K5  1  0.313053  0.250000  0.073478  1
  V  V6  1  0.414771  0.250000  0.648876  1
  V  V7  1  0.585229  0.750000  0.351124  1
  P  P8  1  0.306996  0.750000  0.580301  1
  P  P9  1  0.693004  0.250000  0.419699  1
  C  C10  1  0.658170  0.250000  0.916502  1
  C  C11  1  0.341830  0.750000  0.083498  1
  O  O12  1  0.217854  0.750000  0.951150  1
  O  O13  1  0.793642  0.250000  0.850722  1
  O  O14  1  0.390778  0.250000  0.841617  1
  O  O15  1  0.437372  0.930401  0.672742  1
  O  O16  1  0.437372  0.569599  0.672742  1
  O  O17  1  0.993848  0.750000  0.525619  1
  O  O18  1  0.640225  0.250000  0.541736  1
  O  O19  1  0.359775  0.750000  0.458264  1
  O  O20  1  0.006152  0.250000  0.474381  1
  O  O21  1  0.562628  0.430401  0.327258  1
  O  O22  1  0.562628  0.069599  0.327258  1
  O  O23  1  0.609222  0.750000  0.158383  1
  O  O24  1  0.206358  0.750000  0.149278  1
  O  O25  1  0.782146  0.250000  0.048850  1
