# generated using pymatgen
data_Li4Ti3Co3(TeO8)2
_symmetry_space_group_name_H-M   'P 1'
_cell_length_a   6.00103927
_cell_length_b   6.00103927
_cell_length_c   10.11412266
_cell_angle_alpha   89.91508887
_cell_angle_beta   90.08491113
_cell_angle_gamma   120.10619815
_symmetry_Int_Tables_number   1
_chemical_formula_structural   Li4Ti3Co3(TeO8)2
_chemical_formula_sum   'Li4 Ti3 Co3 Te2 O16'
_cell_volume   315.09782563
_cell_formula_units_Z   1
loop_
 _symmetry_equiv_pos_site_id
 _symmetry_equiv_pos_as_xyz
  1  'x, y, z'
loop_
 _atom_site_type_symbol
 _atom_site_label
 _atom_site_symmetry_multiplicity
 _atom_site_fract_x
 _atom_site_fract_y
 _atom_site_fract_z
 _atom_site_occupancy
  Li  Li0  1  0.661839  0.338161  0.089892  1
  Li  Li1  1  0.996669  0.003331  0.017590  1
  Li  Li2  1  0.006615  0.993385  0.508232  1
  Li  Li3  1  0.332505  0.667495  0.598607  1
  Ti  Ti4  1  0.831808  0.648519  0.781099  1
  Ti  Ti5  1  0.351481  0.168192  0.781099  1
  Ti  Ti6  1  0.174085  0.825915  0.275061  1
  Co  Co7  1  0.826044  0.173956  0.798269  1
  Co  Co8  1  0.656244  0.828916  0.279421  1
  Co  Co9  1  0.171084  0.343756  0.279421  1
  Te  Te10  1  0.675016  0.324984  0.489402  1
  Te  Te11  1  0.334140  0.665860  0.013015  1
  O  O12  1  0.846698  0.654853  0.387869  1
  O  O13  1  0.510339  0.489661  0.683892  1
  O  O14  1  0.650046  0.349954  0.896273  1
  O  O15  1  0.003482  0.996518  0.705285  1
  O  O16  1  0.006371  0.993629  0.199361  1
  O  O17  1  0.345147  0.153302  0.387869  1
  O  O18  1  0.981570  0.512476  0.678747  1
  O  O19  1  0.487524  0.018430  0.678747  1
  O  O20  1  0.166319  0.833681  0.911571  1
  O  O21  1  0.842758  0.157242  0.405977  1
  O  O22  1  0.466408  0.963082  0.141645  1
  O  O23  1  0.036918  0.533592  0.141645  1
  O  O24  1  0.321742  0.678258  0.388779  1
  O  O25  1  0.659999  0.835961  0.915726  1
  O  O26  1  0.476839  0.523161  0.142186  1
  O  O27  1  0.164039  0.340001  0.915726  1
