# generated using pymatgen
data_V2SO8
_symmetry_space_group_name_H-M   'P 1'
_cell_length_a   5.90249534
_cell_length_b   10.76468717
_cell_length_c   13.05613696
_cell_angle_alpha   90.00000000
_cell_angle_beta   90.00000000
_cell_angle_gamma   90.00000000
_symmetry_Int_Tables_number   1
_chemical_formula_structural   V2SO8
_chemical_formula_sum   'V8 S4 O32'
_cell_volume   829.56756527
_cell_formula_units_Z   4
loop_
 _symmetry_equiv_pos_site_id
 _symmetry_equiv_pos_as_xyz
  1  'x, y, z'
loop_
 _atom_site_type_symbol
 _atom_site_label
 _atom_site_symmetry_multiplicity
 _atom_site_fract_x
 _atom_site_fract_y
 _atom_site_fract_z
 _atom_site_occupancy
  V  V0  1  0.800010  0.833859  0.588409  1
  V  V1  1  0.800010  0.833859  0.911591  1
  V  V2  1  0.699990  0.333859  0.088409  1
  V  V3  1  0.699990  0.333859  0.411591  1
  V  V4  1  0.300010  0.666141  0.588409  1
  V  V5  1  0.300010  0.666141  0.911591  1
  V  V6  1  0.199990  0.166141  0.088409  1
  V  V7  1  0.199990  0.166141  0.411591  1
  S  S8  1  0.028477  0.958751  0.250000  1
  S  S9  1  0.471523  0.458751  0.750000  1
  S  S10  1  0.528477  0.541249  0.250000  1
  S  S11  1  0.971523  0.041249  0.750000  1
  O  O12  1  0.969093  0.264719  0.123219  1
  O  O13  1  0.969093  0.264719  0.376781  1
  O  O14  1  0.920676  0.170413  0.750000  1
  O  O15  1  0.838922  0.981659  0.655619  1
  O  O16  1  0.838922  0.981659  0.844381  1
  O  O17  1  0.803932  0.860731  0.032458  1
  O  O18  1  0.803932  0.860731  0.467542  1
  O  O19  1  0.697859  0.506409  0.750000  1
  O  O20  1  0.802141  0.006409  0.250000  1
  O  O21  1  0.696068  0.360731  0.967542  1
  O  O22  1  0.696068  0.360731  0.532458  1
  O  O23  1  0.661078  0.481659  0.155619  1
  O  O24  1  0.661078  0.481659  0.344381  1
  O  O25  1  0.579324  0.670413  0.250000  1
  O  O26  1  0.530907  0.764719  0.623219  1
  O  O27  1  0.530907  0.764719  0.876781  1
  O  O28  1  0.469092  0.235281  0.123219  1
  O  O29  1  0.469092  0.235281  0.376781  1
  O  O30  1  0.420676  0.329587  0.750000  1
  O  O31  1  0.338922  0.518341  0.655619  1
  O  O32  1  0.338922  0.518341  0.844381  1
  O  O33  1  0.303932  0.639269  0.032458  1
  O  O34  1  0.303932  0.639269  0.467542  1
  O  O35  1  0.197859  0.993591  0.750000  1
  O  O36  1  0.302141  0.493591  0.250000  1
  O  O37  1  0.196068  0.139269  0.532458  1
  O  O38  1  0.196068  0.139269  0.967542  1
  O  O39  1  0.161078  0.018341  0.155619  1
  O  O40  1  0.161078  0.018341  0.344381  1
  O  O41  1  0.079324  0.829587  0.250000  1
  O  O42  1  0.030907  0.735281  0.623219  1
  O  O43  1  0.030907  0.735281  0.876781  1
