# generated using pymatgen
data_Li4Mn3Sn(PO4)4
_symmetry_space_group_name_H-M   'P 1'
_cell_length_a   4.84118913
_cell_length_b   6.30105213
_cell_length_c   10.80928493
_cell_angle_alpha   90.00000000
_cell_angle_beta   90.21903879
_cell_angle_gamma   90.00000000
_symmetry_Int_Tables_number   1
_chemical_formula_structural   Li4Mn3Sn(PO4)4
_chemical_formula_sum   'Li4 Mn3 Sn1 P4 O16'
_cell_volume   329.73034238
_cell_formula_units_Z   1
loop_
 _symmetry_equiv_pos_site_id
 _symmetry_equiv_pos_as_xyz
  1  'x, y, z'
loop_
 _atom_site_type_symbol
 _atom_site_label
 _atom_site_symmetry_multiplicity
 _atom_site_fract_x
 _atom_site_fract_y
 _atom_site_fract_z
 _atom_site_occupancy
  Li  Li0  1  0.997607  0.253146  0.992638  1
  Li  Li1  1  0.997607  0.746854  0.992638  1
  Li  Li2  1  0.500559  0.746351  0.507040  1
  Li  Li3  1  0.500559  0.253649  0.507040  1
  Mn  Mn4  1  0.029288  0.000000  0.723813  1
  Mn  Mn5  1  0.474634  0.000000  0.214035  1
  Mn  Mn6  1  0.536376  0.500000  0.784787  1
  Sn  Sn7  1  0.976969  0.500000  0.284530  1
  P  P8  1  0.098677  0.500000  0.602800  1
  P  P9  1  0.420768  0.500000  0.076238  1
  P  P10  1  0.589884  0.000000  0.907247  1
  P  P11  1  0.888507  0.000000  0.415221  1
  O  O12  1  0.232295  0.500000  0.471129  1
  O  O13  1  0.224677  0.300985  0.670047  1
  O  O14  1  0.224677  0.699015  0.670047  1
  O  O15  1  0.202728  0.000000  0.397865  1
  O  O16  1  0.271679  0.000000  0.902804  1
  O  O17  1  0.307620  0.299699  0.147369  1
  O  O18  1  0.307620  0.700301  0.147369  1
  O  O19  1  0.275947  0.500000  0.946960  1
  O  O20  1  0.712844  0.000000  0.040874  1
  O  O21  1  0.719869  0.803340  0.838411  1
  O  O22  1  0.719869  0.196660  0.838411  1
  O  O23  1  0.736435  0.500000  0.065925  1
  O  O24  1  0.780673  0.500000  0.600539  1
  O  O25  1  0.739657  0.807055  0.350821  1
  O  O26  1  0.739657  0.192945  0.350821  1
  O  O27  1  0.792323  0.000000  0.552584  1
