# generated using pymatgen
data_Y2Th5O13
_symmetry_space_group_name_H-M   'P 1'
_cell_length_a   22.82254976
_cell_length_b   22.82254976
_cell_length_c   22.82254976
_cell_angle_alpha   9.86381175
_cell_angle_beta   9.86381175
_cell_angle_gamma   9.86381175
_symmetry_Int_Tables_number   1
_chemical_formula_structural   Y2Th5O13
_chemical_formula_sum   'Y2 Th5 O13'
_cell_volume   302.86141543
_cell_formula_units_Z   1
loop_
 _symmetry_equiv_pos_site_id
 _symmetry_equiv_pos_as_xyz
  1  'x, y, z'
loop_
 _atom_site_type_symbol
 _atom_site_label
 _atom_site_symmetry_multiplicity
 _atom_site_fract_x
 _atom_site_fract_y
 _atom_site_fract_z
 _atom_site_occupancy
  Y  Y0  1  0.999358  0.999358  0.999358  1
  Y  Y1  1  0.716067  0.716067  0.716067  1
  Th  Th2  1  0.427342  0.427342  0.427342  1
  Th  Th3  1  0.142165  0.142165  0.142165  1
  Th  Th4  1  0.856700  0.856700  0.856700  1
  Th  Th5  1  0.285940  0.285940  0.285940  1
  Th  Th6  1  0.571299  0.571299  0.571299  1
  O  O7  1  0.392164  0.392164  0.392164  1
  O  O8  1  0.030450  0.030450  0.030450  1
  O  O9  1  0.106929  0.106929  0.106929  1
  O  O10  1  0.464196  0.464196  0.464196  1
  O  O11  1  0.749433  0.749433  0.749433  1
  O  O12  1  0.821621  0.821621  0.821621  1
  O  O13  1  0.178689  0.178689  0.178689  1
  O  O14  1  0.250814  0.250814  0.250814  1
  O  O15  1  0.536104  0.536104  0.536104  1
  O  O16  1  0.893220  0.893220  0.893220  1
  O  O17  1  0.607744  0.607744  0.607744  1
  O  O18  1  0.326356  0.326356  0.326356  1
  O  O19  1  0.964830  0.964830  0.964830  1
