# generated using pymatgen
data_WOF4
_symmetry_space_group_name_H-M   'P 1'
_cell_length_a   8.09933493
_cell_length_b   5.00368484
_cell_length_c   10.27646598
_cell_angle_alpha   90.00000000
_cell_angle_beta   109.62314150
_cell_angle_gamma   90.00000000
_symmetry_Int_Tables_number   1
_chemical_formula_structural   WOF4
_chemical_formula_sum   'W4 O4 F16'
_cell_volume   392.28164207
_cell_formula_units_Z   4
loop_
 _symmetry_equiv_pos_site_id
 _symmetry_equiv_pos_as_xyz
  1  'x, y, z'
loop_
 _atom_site_type_symbol
 _atom_site_label
 _atom_site_symmetry_multiplicity
 _atom_site_fract_x
 _atom_site_fract_y
 _atom_site_fract_z
 _atom_site_occupancy
  W  W0  1  0.236699  0.452867  0.547100  1
  W  W1  1  0.236699  0.047133  0.047100  1
  W  W2  1  0.763301  0.952867  0.952900  1
  W  W3  1  0.763301  0.547133  0.452900  1
  O  O4  1  0.385419  0.240993  0.516729  1
  O  O5  1  0.614581  0.740993  0.983271  1
  O  O6  1  0.385419  0.259007  0.016729  1
  O  O7  1  0.614581  0.759007  0.483271  1
  F  F8  1  0.012036  0.209564  0.933386  1
  F  F9  1  0.198447  0.801263  0.901263  1
  F  F10  1  0.012036  0.290436  0.433386  1
  F  F11  1  0.196152  0.279610  0.696336  1
  F  F12  1  0.198447  0.698737  0.401263  1
  F  F13  1  0.378687  0.704276  0.669224  1
  F  F14  1  0.196152  0.220390  0.196336  1
  F  F15  1  0.621313  0.204276  0.830776  1
  F  F16  1  0.378687  0.795724  0.169224  1
  F  F17  1  0.803848  0.779610  0.803664  1
  F  F18  1  0.621313  0.295724  0.330776  1
  F  F19  1  0.801553  0.301263  0.598737  1
  F  F20  1  0.803848  0.720390  0.303664  1
  F  F21  1  0.987964  0.709564  0.566614  1
  F  F22  1  0.801553  0.198737  0.098737  1
  F  F23  1  0.987964  0.790436  0.066614  1
