# generated using pymatgen
data_LuScO3
_symmetry_space_group_name_H-M   'P 1'
_cell_length_a   6.10901519
_cell_length_b   6.10901519
_cell_length_c   12.11425500
_cell_angle_alpha   90.00000000
_cell_angle_beta   90.00000000
_cell_angle_gamma   120.00000000
_symmetry_Int_Tables_number   1
_chemical_formula_structural   LuScO3
_chemical_formula_sum   'Lu6 Sc6 O18'
_cell_volume   391.53424465
_cell_formula_units_Z   6
loop_
 _symmetry_equiv_pos_site_id
 _symmetry_equiv_pos_as_xyz
  1  'x, y, z'
loop_
 _atom_site_type_symbol
 _atom_site_label
 _atom_site_symmetry_multiplicity
 _atom_site_fract_x
 _atom_site_fract_y
 _atom_site_fract_z
 _atom_site_occupancy
  Lu  Lu0  1  0.333333  0.666667  0.232654  1
  Lu  Lu1  1  0.000000  0.000000  0.270838  1
  Lu  Lu2  1  0.000000  0.000000  0.770838  1
  Lu  Lu3  1  0.333333  0.666667  0.732654  1
  Lu  Lu4  1  0.666667  0.333333  0.732654  1
  Lu  Lu5  1  0.666667  0.333333  0.232654  1
  Sc  Sc6  1  0.000000  0.666555  0.498716  1
  Sc  Sc7  1  0.000000  0.333445  0.998716  1
  Sc  Sc8  1  0.333445  0.333445  0.498716  1
  Sc  Sc9  1  0.666555  0.666555  0.998716  1
  Sc  Sc10  1  0.333445  0.000000  0.998716  1
  Sc  Sc11  1  0.666555  0.000000  0.498716  1
  O  O12  1  0.000000  0.693726  0.669040  1
  O  O13  1  0.000000  0.638698  0.330123  1
  O  O14  1  0.000000  0.361302  0.830123  1
  O  O15  1  0.000000  0.306274  0.169040  1
  O  O16  1  0.333333  0.666667  0.021785  1
  O  O17  1  0.000000  0.000000  0.469920  1
  O  O18  1  0.000000  0.000000  0.969920  1
  O  O19  1  0.333333  0.666667  0.521785  1
  O  O20  1  0.306274  0.306274  0.669040  1
  O  O21  1  0.361302  0.361302  0.330123  1
  O  O22  1  0.306274  0.000000  0.169040  1
  O  O23  1  0.638698  0.638698  0.830123  1
  O  O24  1  0.693726  0.693726  0.169040  1
  O  O25  1  0.361302  0.000000  0.830123  1
  O  O26  1  0.666667  0.333333  0.521785  1
  O  O27  1  0.666667  0.333333  0.021785  1
  O  O28  1  0.638698  0.000000  0.330123  1
  O  O29  1  0.693726  0.000000  0.669040  1
