# generated using pymatgen
data_Ba4Y2Cu4W2O17
_symmetry_space_group_name_H-M   'P 1'
_cell_length_a   5.88392760
_cell_length_b   6.03672993
_cell_length_c   12.24354064
_cell_angle_alpha   101.85586794
_cell_angle_beta   101.71336778
_cell_angle_gamma   97.68899221
_symmetry_Int_Tables_number   1
_chemical_formula_structural   Ba4Y2Cu4W2O17
_chemical_formula_sum   'Ba4 Y2 Cu4 W2 O17'
_cell_volume   409.69746168
_cell_formula_units_Z   1
loop_
 _symmetry_equiv_pos_site_id
 _symmetry_equiv_pos_as_xyz
  1  'x, y, z'
loop_
 _atom_site_type_symbol
 _atom_site_label
 _atom_site_symmetry_multiplicity
 _atom_site_fract_x
 _atom_site_fract_y
 _atom_site_fract_z
 _atom_site_occupancy
  Ba  Ba0  1  0.027833  0.006707  0.011509  1
  Ba  Ba1  1  0.653591  0.660686  0.320858  1
  Ba  Ba2  1  0.324270  0.311301  0.663421  1
  Ba  Ba3  1  0.823353  0.826821  0.666373  1
  Y  Y4  1  0.469645  0.572170  0.003898  1
  Y  Y5  1  0.223691  0.039536  0.318730  1
  Cu  Cu6  1  0.740908  0.240874  0.485714  1
  Cu  Cu7  1  0.425873  0.914544  0.842747  1
  Cu  Cu8  1  0.072847  0.561202  0.159780  1
  Cu  Cu9  1  0.611483  0.117490  0.163822  1
  W  W10  1  0.903568  0.411741  0.840345  1
  W  W11  1  0.235319  0.732120  0.497785  1
  O  O12  1  0.890904  0.484991  0.007524  1
  O  O13  1  0.875633  0.972740  0.204031  1
  O  O14  1  0.503140  0.979226  0.489174  1
  O  O15  1  0.588653  0.208732  0.322651  1
  O  O16  1  0.869919  0.328511  0.676361  1
  O  O17  1  0.975250  0.514252  0.496648  1
  O  O18  1  0.460141  0.536146  0.508021  1
  O  O19  1  0.157386  0.687384  0.859556  1
  O  O20  1  0.671655  0.608926  0.826687  1
  O  O21  1  0.561293  0.952247  0.005541  1
  O  O22  1  0.296322  0.845874  0.662301  1
  O  O23  1  0.184224  0.272901  0.873107  1
  O  O24  1  0.431358  0.346766  0.126053  1
  O  O25  1  0.686118  0.134087  0.822775  1
  O  O26  1  0.324252  0.805882  0.155778  1
  O  O27  1  0.052978  0.979455  0.473591  1
  O  O28  1  0.162297  0.646099  0.324917  1
