# generated using pymatgen
data_Mn8O13F3
_symmetry_space_group_name_H-M   'P 1'
_cell_length_a   4.50393961
_cell_length_b   5.52638630
_cell_length_c   9.96264383
_cell_angle_alpha   89.86930609
_cell_angle_beta   89.69159866
_cell_angle_gamma   87.85910936
_symmetry_Int_Tables_number   1
_chemical_formula_structural   Mn8O13F3
_chemical_formula_sum   'Mn8 O13 F3'
_cell_volume   247.79807083
_cell_formula_units_Z   1
loop_
 _symmetry_equiv_pos_site_id
 _symmetry_equiv_pos_as_xyz
  1  'x, y, z'
loop_
 _atom_site_type_symbol
 _atom_site_label
 _atom_site_symmetry_multiplicity
 _atom_site_fract_x
 _atom_site_fract_y
 _atom_site_fract_z
 _atom_site_occupancy
  Mn  Mn0  1  0.991183  0.155857  0.622516  1
  Mn  Mn1  1  0.017046  0.857271  0.365619  1
  Mn  Mn2  1  0.014754  0.165258  0.126738  1
  Mn  Mn3  1  0.007834  0.855274  0.869095  1
  Mn  Mn4  1  0.513750  0.356305  0.884219  1
  Mn  Mn5  1  0.504396  0.357915  0.377291  1
  Mn  Mn6  1  0.491836  0.638694  0.130216  1
  Mn  Mn7  1  0.495183  0.652388  0.626190  1
  O  O8  1  0.234090  0.108648  0.457722  1
  O  O9  1  0.232063  0.111883  0.961093  1
  O  O10  1  0.237556  0.885891  0.207814  1
  O  O11  1  0.219285  0.886066  0.708068  1
  O  O12  1  0.280118  0.395936  0.215195  1
  O  O13  1  0.257682  0.610109  0.460483  1
  O  O14  1  0.265187  0.610932  0.963848  1
  O  O15  1  0.733447  0.390507  0.040968  1
  O  O16  1  0.733648  0.609642  0.288304  1
  O  O17  1  0.717936  0.384447  0.541366  1
  O  O18  1  0.732608  0.609701  0.791088  1
  O  O19  1  0.771529  0.114041  0.286066  1
  O  O20  1  0.757555  0.109052  0.790230  1
  F  F21  1  0.265042  0.379238  0.726018  1
  F  F22  1  0.760282  0.875610  0.036571  1
  F  F23  1  0.765991  0.879333  0.523281  1
