# generated using pymatgen
data_Li3Zn2Fe19O32
_symmetry_space_group_name_H-M   'P 1'
_cell_length_a   6.01247364
_cell_length_b   6.01326179
_cell_length_c   19.92504759
_cell_angle_alpha   89.97496934
_cell_angle_beta   98.66276005
_cell_angle_gamma   119.87993818
_symmetry_Int_Tables_number   1
_chemical_formula_structural   Li3Zn2Fe19O32
_chemical_formula_sum   'Li3 Zn2 Fe19 O32'
_cell_volume   615.15367107
_cell_formula_units_Z   1
loop_
 _symmetry_equiv_pos_site_id
 _symmetry_equiv_pos_as_xyz
  1  'x, y, z'
loop_
 _atom_site_type_symbol
 _atom_site_label
 _atom_site_symmetry_multiplicity
 _atom_site_fract_x
 _atom_site_fract_y
 _atom_site_fract_z
 _atom_site_occupancy
  Li  Li0  1  0.125965  0.566618  0.687754  1
  Li  Li1  1  0.623960  0.809316  0.438192  1
  Li  Li2  1  0.127319  0.066486  0.186126  1
  Zn  Zn3  1  0.556821  0.780609  0.842250  1
  Zn  Zn4  1  0.312819  0.658201  0.968483  1
  Fe  Fe5  1  0.003023  0.001554  0.001859  1
  Fe  Fe6  1  0.063967  0.288626  0.842812  1
  Fe  Fe7  1  0.063539  0.779226  0.842828  1
  Fe  Fe8  1  0.615044  0.309934  0.935319  1
  Fe  Fe9  1  0.812567  0.908222  0.714194  1
  Fe  Fe10  1  0.508940  0.254068  0.747424  1
  Fe  Fe11  1  0.568115  0.543536  0.593746  1
  Fe  Fe12  1  0.567165  0.027867  0.593598  1
  Fe  Fe13  1  0.069006  0.277538  0.344769  1
  Fe  Fe14  1  0.309254  0.149429  0.466289  1
  Fe  Fe15  1  0.051936  0.026808  0.593614  1
  Fe  Fe16  1  0.553296  0.275854  0.345009  1
  Fe  Fe17  1  0.996677  0.495544  0.500646  1
  Fe  Fe18  1  0.502760  0.754559  0.252014  1
  Fe  Fe19  1  0.066933  0.791125  0.344624  1
  Fe  Fe20  1  0.567149  0.037185  0.096233  1
  Fe  Fe21  1  0.061033  0.530654  0.095777  1
  Fe  Fe22  1  0.812809  0.411066  0.216623  1
  Fe  Fe23  1  0.567262  0.532175  0.095271  1
  O  O24  1  0.419150  0.467329  0.904631  1
  O  O25  1  0.942228  0.473342  0.902656  1
  O  O26  1  0.181272  0.592640  0.790907  1
  O  O27  1  0.939728  0.971433  0.902861  1
  O  O28  1  0.706506  0.092526  0.780487  1
  O  O29  1  0.197309  0.332465  0.531959  1
  O  O30  1  0.705229  0.614807  0.779786  1
  O  O31  1  0.912438  0.188697  0.650116  1
  O  O32  1  0.418268  0.956781  0.905153  1
  O  O33  1  0.962349  0.981009  0.403384  1
  O  O34  1  0.689270  0.850230  0.539641  1
  O  O35  1  0.469015  0.740281  0.651389  1
  O  O36  1  0.174728  0.089447  0.782074  1
  O  O37  1  0.436941  0.214424  0.648239  1
  O  O38  1  0.665314  0.326207  0.533135  1
  O  O39  1  0.203676  0.860479  0.533791  1
  O  O40  1  0.699154  0.116806  0.282769  1
  O  O41  1  0.420881  0.436919  0.403845  1
  O  O42  1  0.419544  0.977833  0.403004  1
  O  O43  1  0.923456  0.733751  0.651765  1
  O  O44  1  0.194133  0.097338  0.288909  1
  O  O45  1  0.436453  0.718286  0.153157  1
  O  O46  1  0.171286  0.585796  0.282961  1
  O  O47  1  0.677367  0.840431  0.036639  1
  O  O48  1  0.931226  0.465668  0.400619  1
  O  O49  1  0.198196  0.361215  0.036616  1
  O  O50  1  0.699854  0.589797  0.283094  1
  O  O51  1  0.200648  0.839813  0.037372  1
  O  O52  1  0.922084  0.690062  0.152921  1
  O  O53  1  0.920349  0.235385  0.153525  1
  O  O54  1  0.469178  0.237314  0.153267  1
  O  O55  1  0.691494  0.347973  0.035552  1
