# generated using pymatgen
data_Li3Cr2(PO4)3
_symmetry_space_group_name_H-M   'P 1'
_cell_length_a   9.07995941
_cell_length_b   9.07995941
_cell_length_c   16.36930585
_cell_angle_alpha   65.17292503
_cell_angle_beta   114.82707497
_cell_angle_gamma   121.85815616
_symmetry_Int_Tables_number   1
_chemical_formula_structural   Li3Cr2(PO4)3
_chemical_formula_sum   'Li12 Cr8 P12 O48'
_cell_volume   1005.33762819
_cell_formula_units_Z   4
loop_
 _symmetry_equiv_pos_site_id
 _symmetry_equiv_pos_as_xyz
  1  'x, y, z'
loop_
 _atom_site_type_symbol
 _atom_site_label
 _atom_site_symmetry_multiplicity
 _atom_site_fract_x
 _atom_site_fract_y
 _atom_site_fract_z
 _atom_site_occupancy
  Li  Li0  1  0.097508  0.678288  0.598008  1
  Li  Li1  1  0.194615  0.471466  0.192275  1
  Li  Li2  1  0.602994  0.602994  0.500000  1
  Li  Li3  1  0.471466  0.194615  0.807725  1
  Li  Li4  1  0.678288  0.097508  0.401992  1
  Li  Li5  1  0.994670  0.999070  0.749888  1
  Li  Li6  1  0.320697  0.896403  0.099152  1
  Li  Li7  1  0.530021  0.806694  0.692689  1
  Li  Li8  1  0.404831  0.396973  0.001981  1
  Li  Li9  1  0.806694  0.530021  0.307311  1
  Li  Li10  1  0.896403  0.320697  0.900848  1
  Li  Li11  1  0.999070  0.994670  0.250112  1
  Cr  Cr12  1  0.245237  0.758607  0.779825  1
  Cr  Cr13  1  0.643155  0.827247  0.085032  1
  Cr  Cr14  1  0.827247  0.643155  0.914968  1
  Cr  Cr15  1  0.758607  0.245237  0.220175  1
  Cr  Cr16  1  0.240104  0.751007  0.281520  1
  Cr  Cr17  1  0.169663  0.353733  0.586045  1
  Cr  Cr18  1  0.353733  0.169663  0.413955  1
  Cr  Cr19  1  0.751007  0.240104  0.718480  1
  P  P20  1  0.333994  0.103398  0.622540  1
  P  P21  1  0.252033  0.779754  0.938906  1
  P  P22  1  0.623550  0.810132  0.279873  1
  P  P23  1  0.810132  0.623550  0.720127  1
  P  P24  1  0.779754  0.252033  0.061094  1
  P  P25  1  0.103398  0.333994  0.377460  1
  P  P26  1  0.895392  0.663117  0.123873  1
  P  P27  1  0.218813  0.744839  0.440774  1
  P  P28  1  0.186758  0.374008  0.780210  1
  P  P29  1  0.374008  0.186758  0.219790  1
  P  P30  1  0.744839  0.218813  0.559226  1
  P  P31  1  0.663117  0.895392  0.876127  1
  O  O32  1  0.196859  0.610347  0.538159  1
  O  O33  1  0.060135  0.674502  0.357199  1
  O  O34  1  0.875673  0.821479  0.124142  1
  O  O35  1  0.498460  0.802985  0.802882  1
  O  O36  1  0.174631  0.558863  0.730089  1
  O  O37  1  0.604540  0.796357  0.967576  1
  O  O38  1  0.278278  0.898950  0.648146  1
  O  O39  1  0.204602  0.612121  0.911378  1
  O  O40  1  0.648090  0.729736  0.220125  1
  O  O41  1  0.774267  0.086511  0.052076  1
  O  O42  1  0.639645  0.699322  0.379816  1
  O  O43  1  0.385456  0.799495  0.036802  1
  O  O44  1  0.008210  0.772831  0.732467  1
  O  O45  1  0.324336  0.938632  0.855958  1
  O  O46  1  0.772831  0.008210  0.267533  1
  O  O47  1  0.176428  0.122818  0.623520  1
  O  O48  1  0.699322  0.639645  0.620184  1
  O  O49  1  0.193404  0.497268  0.303445  1
  O  O50  1  0.086511  0.774267  0.947924  1
  O  O51  1  0.438559  0.821739  0.230685  1
  O  O52  1  0.198453  0.394825  0.467601  1
  O  O53  1  0.729736  0.648090  0.779875  1
  O  O54  1  0.898950  0.278278  0.351854  1
  O  O55  1  0.612121  0.204602  0.088622  1
  O  O56  1  0.386343  0.792417  0.413103  1
  O  O57  1  0.099477  0.717936  0.149631  1
  O  O58  1  0.267229  0.347936  0.721159  1
  O  O59  1  0.796357  0.604540  0.032424  1
  O  O60  1  0.558863  0.174631  0.269911  1
  O  O61  1  0.911155  0.217350  0.556076  1
  O  O62  1  0.802985  0.498460  0.197118  1
  O  O63  1  0.296593  0.357893  0.880329  1
  O  O64  1  0.821479  0.875673  0.875858  1
  O  O65  1  0.228642  0.989479  0.234095  1
  O  O66  1  0.674502  0.060135  0.642801  1
  O  O67  1  0.989479  0.228642  0.765905  1
  O  O68  1  0.610347  0.196859  0.461841  1
  O  O69  1  0.357893  0.296593  0.119671  1
  O  O70  1  0.217350  0.911155  0.443924  1
  O  O71  1  0.347936  0.267229  0.278841  1
  O  O72  1  0.792417  0.386343  0.586897  1
  O  O73  1  0.717936  0.099477  0.850369  1
  O  O74  1  0.394825  0.198453  0.532399  1
  O  O75  1  0.821739  0.438559  0.769315  1
  O  O76  1  0.497268  0.193404  0.696555  1
  O  O77  1  0.122818  0.176428  0.376480  1
  O  O78  1  0.938632  0.324336  0.144042  1
  O  O79  1  0.799495  0.385456  0.963198  1
