# generated using pymatgen
data_LiV3(OF2)4
_symmetry_space_group_name_H-M   'P 1'
_cell_length_a   5.43989708
_cell_length_b   5.83861701
_cell_length_c   6.97933557
_cell_angle_alpha   103.19034854
_cell_angle_beta   103.62793838
_cell_angle_gamma   92.78115088
_symmetry_Int_Tables_number   1
_chemical_formula_structural   LiV3(OF2)4
_chemical_formula_sum   'Li1 V3 O4 F8'
_cell_volume   208.52019957
_cell_formula_units_Z   1
loop_
 _symmetry_equiv_pos_site_id
 _symmetry_equiv_pos_as_xyz
  1  'x, y, z'
loop_
 _atom_site_type_symbol
 _atom_site_label
 _atom_site_symmetry_multiplicity
 _atom_site_fract_x
 _atom_site_fract_y
 _atom_site_fract_z
 _atom_site_occupancy
  Li  Li0  1  0.207667  0.455166  0.619959  1
  V  V1  1  0.618107  0.170584  0.338502  1
  V  V2  1  0.307478  0.638241  0.162466  1
  V  V3  1  0.980547  0.015375  0.971042  1
  O  O4  1  0.833990  0.064734  0.202978  1
  O  O5  1  0.534646  0.400812  0.233471  1
  O  O6  1  0.311108  0.951926  0.151023  1
  O  O7  1  0.095963  0.295606  0.017135  1
  F  F8  1  0.964204  0.672799  0.011763  1
  F  F9  1  0.866349  0.309214  0.571926  1
  F  F10  1  0.663678  0.988654  0.821145  1
  F  F11  1  0.595336  0.807181  0.375214  1
  F  F12  1  0.394501  0.212716  0.510107  1
  F  F13  1  0.392619  0.566455  0.919581  1
  F  F14  1  0.158273  0.605272  0.361933  1
  F  F15  1  0.092374  0.884444  0.752005  1
