# generated using pymatgen
data_Na7NbO6
_symmetry_space_group_name_H-M   'P 1'
_cell_length_a   6.43699646
_cell_length_b   6.43699646
_cell_length_c   6.43699646
_cell_angle_alpha   60.43324537
_cell_angle_beta   60.43324537
_cell_angle_gamma   60.43324537
_symmetry_Int_Tables_number   1
_chemical_formula_structural   Na7NbO6
_chemical_formula_sum   'Na7 Nb1 O6'
_cell_volume   190.44442707
_cell_formula_units_Z   1
loop_
 _symmetry_equiv_pos_site_id
 _symmetry_equiv_pos_as_xyz
  1  'x, y, z'
loop_
 _atom_site_type_symbol
 _atom_site_label
 _atom_site_symmetry_multiplicity
 _atom_site_fract_x
 _atom_site_fract_y
 _atom_site_fract_z
 _atom_site_occupancy
  Na  Na0  1  0.881194  0.290103  0.499840  1
  Na  Na1  1  0.046727  0.752504  0.513889  1
  Na  Na2  1  0.752504  0.513889  0.046727  1
  Na  Na3  1  0.513889  0.046727  0.752504  1
  Na  Na4  1  0.342879  0.342879  0.342879  1
  Na  Na5  1  0.499840  0.881194  0.290103  1
  Na  Na6  1  0.290103  0.499840  0.881194  1
  Nb  Nb7  1  0.996557  0.996557  0.996557  1
  O  O8  1  0.784215  0.108943  0.321120  1
  O  O9  1  0.182391  0.927140  0.661239  1
  O  O10  1  0.927140  0.661239  0.182391  1
  O  O11  1  0.661239  0.182391  0.927140  1
  O  O12  1  0.321120  0.784215  0.108943  1
  O  O13  1  0.108943  0.321120  0.784214  1
