# generated using pymatgen
data_Li7Y7Zr9S32
_symmetry_space_group_name_H-M   'P 1'
_cell_length_a   7.68652178
_cell_length_b   7.74640400
_cell_length_c   25.16802119
_cell_angle_alpha   82.40787268
_cell_angle_beta   82.07438487
_cell_angle_gamma   61.29849768
_symmetry_Int_Tables_number   1
_chemical_formula_structural   Li7Y7Zr9S32
_chemical_formula_sum   'Li7 Y7 Zr9 S32'
_cell_volume   1298.14543608
_cell_formula_units_Z   1
loop_
 _symmetry_equiv_pos_site_id
 _symmetry_equiv_pos_as_xyz
  1  'x, y, z'
loop_
 _atom_site_type_symbol
 _atom_site_label
 _atom_site_symmetry_multiplicity
 _atom_site_fract_x
 _atom_site_fract_y
 _atom_site_fract_z
 _atom_site_occupancy
  Li  Li0  1  0.688109  0.685397  0.937175  1
  Li  Li1  1  0.999721  0.001317  0.999975  1
  Li  Li2  1  0.437931  0.436298  0.687537  1
  Li  Li3  1  0.501332  0.500887  0.499569  1
  Li  Li4  1  0.936004  0.936343  0.188074  1
  Li  Li5  1  0.185668  0.186090  0.438660  1
  Li  Li6  1  0.251315  0.250841  0.249752  1
  Y  Y7  1  0.967811  0.469984  0.594073  1
  Y  Y8  1  0.217981  0.720428  0.842993  1
  Y  Y9  1  0.469893  0.968130  0.594154  1
  Y  Y10  1  0.218135  0.719233  0.343988  1
  Y  Y11  1  0.719178  0.218145  0.343981  1
  Y  Y12  1  0.968209  0.469362  0.093764  1
  Y  Y13  1  0.469481  0.968277  0.093882  1
  Zr  Zr14  1  0.344132  0.343257  0.968248  1
  Zr  Zr15  1  0.217658  0.215564  0.841632  1
  Zr  Zr16  1  0.726209  0.214473  0.841321  1
  Zr  Zr17  1  0.844216  0.843542  0.469483  1
  Zr  Zr18  1  0.093240  0.093792  0.719001  1
  Zr  Zr19  1  0.964548  0.966091  0.594871  1
  Zr  Zr20  1  0.593449  0.593931  0.219642  1
  Zr  Zr21  1  0.719243  0.719317  0.344357  1
  Zr  Zr22  1  0.469720  0.468542  0.094030  1
  S  S23  1  0.917637  0.381116  0.785161  1
  S  S24  1  0.379590  0.933572  0.782051  1
  S  S25  1  0.056480  0.507292  0.906152  1
  S  S26  1  0.520040  0.056588  0.903533  1
  S  S27  1  0.531694  0.506678  0.905589  1
  S  S28  1  0.266513  0.270024  0.660716  1
  S  S29  1  0.411890  0.388554  0.787261  1
  S  S30  1  0.902378  0.932598  0.782208  1
  S  S31  1  0.024853  0.049505  0.901098  1
  S  S32  1  0.792986  0.793642  0.650980  1
  S  S33  1  0.135091  0.679537  0.530437  1
  S  S34  1  0.678747  0.134712  0.530654  1
  S  S35  1  0.803300  0.258617  0.657206  1
  S  S36  1  0.256980  0.804275  0.658056  1
  S  S37  1  0.019327  0.019392  0.408796  1
  S  S38  1  0.146781  0.145972  0.536397  1
  S  S39  1  0.895992  0.895744  0.285807  1
  S  S40  1  0.667850  0.668906  0.528077  1
  S  S41  1  0.418584  0.418592  0.278109  1
  S  S42  1  0.541525  0.541775  0.401433  1
  S  S43  1  0.884120  0.429540  0.280674  1
  S  S44  1  0.429291  0.883669  0.280786  1
  S  S45  1  0.553033  0.007914  0.406137  1
  S  S46  1  0.758605  0.303502  0.155961  1
  S  S47  1  0.303200  0.757900  0.156158  1
  S  S48  1  0.008101  0.553485  0.406025  1
  S  S49  1  0.769795  0.768959  0.158791  1
  S  S50  1  0.646031  0.645917  0.035598  1
  S  S51  1  0.170332  0.167691  0.027481  1
  S  S52  1  0.291138  0.291939  0.151457  1
  S  S53  1  0.633916  0.179936  0.030836  1
  S  S54  1  0.181017  0.633217  0.030213  1
