# generated using pymatgen
data_Li4Mn3V2Ni3O16
_symmetry_space_group_name_H-M   'P 1'
_cell_length_a   5.87388625
_cell_length_b   5.87388625
_cell_length_c   9.41674730
_cell_angle_alpha   88.79136166
_cell_angle_beta   91.20863834
_cell_angle_gamma   120.88005472
_symmetry_Int_Tables_number   1
_chemical_formula_structural   Li4Mn3V2Ni3O16
_chemical_formula_sum   'Li4 Mn3 V2 Ni3 O16'
_cell_volume   278.76281229
_cell_formula_units_Z   1
loop_
 _symmetry_equiv_pos_site_id
 _symmetry_equiv_pos_as_xyz
  1  'x, y, z'
loop_
 _atom_site_type_symbol
 _atom_site_label
 _atom_site_symmetry_multiplicity
 _atom_site_fract_x
 _atom_site_fract_y
 _atom_site_fract_z
 _atom_site_occupancy
  Li  Li0  1  0.668029  0.331971  0.901878  1
  Li  Li1  1  0.999196  0.000804  0.988679  1
  Li  Li2  1  0.002939  0.997061  0.496516  1
  Li  Li3  1  0.329013  0.670987  0.401608  1
  Mn  Mn4  1  0.340408  0.165032  0.216475  1
  Mn  Mn5  1  0.834968  0.659592  0.216475  1
  Mn  Mn6  1  0.175775  0.824225  0.719523  1
  V  V7  1  0.669403  0.330597  0.497984  1
  V  V8  1  0.354932  0.645068  0.981688  1
  Ni  Ni9  1  0.828519  0.171481  0.213750  1
  Ni  Ni10  1  0.168834  0.338263  0.710807  1
  Ni  Ni11  1  0.661737  0.831166  0.710807  1
  O  O12  1  0.351911  0.164894  0.591446  1
  O  O13  1  0.519072  0.480928  0.335586  1
  O  O14  1  0.656128  0.343872  0.108237  1
  O  O15  1  0.005064  0.994936  0.307130  1
  O  O16  1  0.009309  0.990691  0.800695  1
  O  O17  1  0.835106  0.648089  0.591446  1
  O  O18  1  0.504793  0.044390  0.344909  1
  O  O19  1  0.955610  0.495207  0.344909  1
  O  O20  1  0.159985  0.840015  0.104801  1
  O  O21  1  0.825760  0.174240  0.577641  1
  O  O22  1  0.041590  0.532623  0.848829  1
  O  O23  1  0.467377  0.958410  0.848829  1
  O  O24  1  0.325423  0.674577  0.607950  1
  O  O25  1  0.175963  0.345667  0.090399  1
  O  O26  1  0.481549  0.518451  0.858566  1
  O  O27  1  0.654333  0.824037  0.090399  1
