# generated using pymatgen
data_LiVCr(P2O7)2
_symmetry_space_group_name_H-M   'P 1'
_cell_length_a   7.16559750
_cell_length_b   8.07027657
_cell_length_c   9.68936930
_cell_angle_alpha   89.97050182
_cell_angle_beta   68.62185487
_cell_angle_gamma   89.93669362
_symmetry_Int_Tables_number   1
_chemical_formula_structural   LiVCr(P2O7)2
_chemical_formula_sum   'Li2 V2 Cr2 P8 O28'
_cell_volume   521.76707483
_cell_formula_units_Z   2
loop_
 _symmetry_equiv_pos_site_id
 _symmetry_equiv_pos_as_xyz
  1  'x, y, z'
loop_
 _atom_site_type_symbol
 _atom_site_label
 _atom_site_symmetry_multiplicity
 _atom_site_fract_x
 _atom_site_fract_y
 _atom_site_fract_z
 _atom_site_occupancy
  Li  Li0  1  0.074717  0.864186  0.250402  1
  Li  Li1  1  0.922302  0.362039  0.749576  1
  V  V2  1  0.033637  0.495731  0.243564  1
  V  V3  1  0.528323  0.507045  0.743563  1
  Cr  Cr4  1  0.472024  0.006166  0.256335  1
  Cr  Cr5  1  0.967610  0.997319  0.756493  1
  P  P6  1  0.846349  0.781928  0.064677  1
  P  P7  1  0.458545  0.677845  0.063196  1
  P  P8  1  0.036681  0.180441  0.440310  1
  P  P9  1  0.350120  0.783688  0.564529  1
  P  P10  1  0.650187  0.282787  0.434521  1
  P  P11  1  0.963566  0.682612  0.561412  1
  P  P12  1  0.541589  0.176515  0.939695  1
  P  P13  1  0.155776  0.281551  0.932892  1
  O  O14  1  0.670092  0.647415  0.080224  1
  O  O15  1  0.759381  0.934680  0.159373  1
  O  O16  1  0.503359  0.180129  0.103669  1
  O  O17  1  0.380228  0.847859  0.128548  1
  O  O18  1  0.320390  0.538470  0.148740  1
  O  O19  1  0.051778  0.330735  0.097069  1
  O  O20  1  0.985014  0.687948  0.128634  1
  O  O21  1  0.505411  0.190938  0.383528  1
  O  O22  1  0.455450  0.824597  0.401736  1
  O  O23  1  0.167558  0.041026  0.349081  1
  O  O24  1  0.108142  0.352405  0.373130  1
  O  O25  1  0.997770  0.674994  0.394023  1
  O  O26  1  0.754130  0.434882  0.340898  1
  O  O27  1  0.822357  0.147945  0.425271  1
  O  O28  1  0.173946  0.645891  0.578229  1
  O  O29  1  0.254135  0.932892  0.659454  1
  O  O30  1  0.006384  0.182303  0.604172  1
  O  O31  1  0.889787  0.852532  0.621722  1
  O  O32  1  0.829196  0.540231  0.649718  1
  O  O33  1  0.552505  0.338234  0.597769  1
  O  O34  1  0.489188  0.682849  0.621853  1
  O  O35  1  0.008535  0.197186  0.876054  1
  O  O36  1  0.955228  0.818737  0.901942  1
  O  O37  1  0.673866  0.039054  0.850628  1
  O  O38  1  0.616316  0.348119  0.866245  1
  O  O39  1  0.496219  0.667420  0.896182  1
  O  O40  1  0.247223  0.436824  0.839460  1
  O  O41  1  0.325239  0.148508  0.921609  1
