# generated using pymatgen
data_Ti3N2O3
_symmetry_space_group_name_H-M   'P 1'
_cell_length_a   5.31123401
_cell_length_b   5.31123401
_cell_length_c   10.05308389
_cell_angle_alpha   90.00000000
_cell_angle_beta   90.00000000
_cell_angle_gamma   138.33524932
_symmetry_Int_Tables_number   1
_chemical_formula_structural   Ti3N2O3
_chemical_formula_sum   'Ti6 N4 O6'
_cell_volume   188.52205742
_cell_formula_units_Z   2
loop_
 _symmetry_equiv_pos_site_id
 _symmetry_equiv_pos_as_xyz
  1  'x, y, z'
loop_
 _atom_site_type_symbol
 _atom_site_label
 _atom_site_symmetry_multiplicity
 _atom_site_fract_x
 _atom_site_fract_y
 _atom_site_fract_z
 _atom_site_occupancy
  Ti  Ti0  1  0.134980  0.865020  0.942514  1
  Ti  Ti1  1  0.134609  0.865391  0.549450  1
  Ti  Ti2  1  0.195014  0.804986  0.246309  1
  Ti  Ti3  1  0.804986  0.195014  0.746309  1
  Ti  Ti4  1  0.865391  0.134609  0.049450  1
  Ti  Ti5  1  0.865020  0.134980  0.442514  1
  N  N6  1  0.045775  0.954225  0.382120  1
  N  N7  1  0.696738  0.303262  0.576324  1
  N  N8  1  0.303262  0.696738  0.076324  1
  N  N9  1  0.954225  0.045775  0.882120  1
  O  O10  1  0.045108  0.954892  0.119626  1
  O  O11  1  0.686356  0.313644  0.922625  1
  O  O12  1  0.754042  0.245958  0.261033  1
  O  O13  1  0.245958  0.754042  0.761033  1
  O  O14  1  0.313644  0.686356  0.422625  1
  O  O15  1  0.954892  0.045108  0.619626  1
