# generated using pymatgen
data_Li3MnOF4
_symmetry_space_group_name_H-M   'P 1'
_cell_length_a   5.49342928
_cell_length_b   5.49342928
_cell_length_c   7.25748481
_cell_angle_alpha   48.65842145
_cell_angle_beta   131.34157855
_cell_angle_gamma   140.28245546
_symmetry_Int_Tables_number   1
_chemical_formula_structural   Li3MnOF4
_chemical_formula_sum   'Li3 Mn1 O1 F4'
_cell_volume   99.62701743
_cell_formula_units_Z   1
loop_
 _symmetry_equiv_pos_site_id
 _symmetry_equiv_pos_as_xyz
  1  'x, y, z'
loop_
 _atom_site_type_symbol
 _atom_site_label
 _atom_site_symmetry_multiplicity
 _atom_site_fract_x
 _atom_site_fract_y
 _atom_site_fract_z
 _atom_site_occupancy
  Li  Li0  1  0.529941  0.470059  0.334345  1
  Li  Li1  1  0.811780  0.188220  0.301985  1
  Li  Li2  1  0.179463  0.820537  0.728877  1
  Mn  Mn3  1  0.002667  0.997333  0.974095  1
  O  O4  1  0.516842  0.483158  0.044723  1
  F  F5  1  0.269805  0.730195  0.192700  1
  F  F6  1  0.965099  0.034901  0.659283  1
  F  F7  1  0.030586  0.969414  0.349328  1
  F  F8  1  0.736719  0.263281  0.748490  1
