# generated using pymatgen
data_Li5Mn3(CoO5)2
_symmetry_space_group_name_H-M   'P 1'
_cell_length_a   5.23982131
_cell_length_b   5.25062860
_cell_length_c   7.71986583
_cell_angle_alpha   104.54293344
_cell_angle_beta   107.95901559
_cell_angle_gamma   99.37397590
_symmetry_Int_Tables_number   1
_chemical_formula_structural   Li5Mn3(CoO5)2
_chemical_formula_sum   'Li5 Mn3 Co2 O10'
_cell_volume   188.79265763
_cell_formula_units_Z   1
loop_
 _symmetry_equiv_pos_site_id
 _symmetry_equiv_pos_as_xyz
  1  'x, y, z'
loop_
 _atom_site_type_symbol
 _atom_site_label
 _atom_site_symmetry_multiplicity
 _atom_site_fract_x
 _atom_site_fract_y
 _atom_site_fract_z
 _atom_site_occupancy
  Li  Li0  1  0.090254  0.784294  0.588344  1
  Li  Li1  1  0.720695  0.605556  0.217741  1
  Li  Li2  1  0.500000  0.500000  0.500000  1
  Li  Li3  1  0.279305  0.394444  0.782259  1
  Li  Li4  1  0.909746  0.215706  0.411656  1
  Mn  Mn5  1  0.500000  0.000000  0.000000  1
  Mn  Mn6  1  0.107020  0.304477  0.103744  1
  Mn  Mn7  1  0.892980  0.695523  0.896256  1
  Co  Co8  1  0.292865  0.905885  0.314987  1
  Co  Co9  1  0.707135  0.094115  0.685013  1
  O  O10  1  0.906558  0.927503  0.144979  1
  O  O11  1  0.283860  0.683055  0.047763  1
  O  O12  1  0.688721  0.868574  0.456728  1
  O  O13  1  0.527012  0.760695  0.770916  1
  O  O14  1  0.110674  0.544530  0.337022  1
  O  O15  1  0.889326  0.455470  0.662978  1
  O  O16  1  0.472988  0.239305  0.229084  1
  O  O17  1  0.311279  0.131426  0.543272  1
  O  O18  1  0.716140  0.316945  0.952237  1
  O  O19  1  0.093442  0.072497  0.855021  1
