# generated using pymatgen
data_Na14Cu2O9
_symmetry_space_group_name_H-M   'P 1'
_cell_length_a   6.65779557
_cell_length_b   6.65779557
_cell_length_c   9.28971647
_cell_angle_alpha   90.00000000
_cell_angle_beta   90.00000000
_cell_angle_gamma   120.00000000
_symmetry_Int_Tables_number   1
_chemical_formula_structural   Na14Cu2O9
_chemical_formula_sum   'Na14 Cu2 O9'
_cell_volume   356.61039837
_cell_formula_units_Z   1
loop_
 _symmetry_equiv_pos_site_id
 _symmetry_equiv_pos_as_xyz
  1  'x, y, z'
loop_
 _atom_site_type_symbol
 _atom_site_label
 _atom_site_symmetry_multiplicity
 _atom_site_fract_x
 _atom_site_fract_y
 _atom_site_fract_z
 _atom_site_occupancy
  Na  Na0  1  0.034217  0.675665  0.906895  1
  Na  Na1  1  0.317262  0.940823  0.594639  1
  Na  Na2  1  0.059177  0.376439  0.594639  1
  Na  Na3  1  0.000000  0.000000  0.253766  1
  Na  Na4  1  0.000000  0.000000  0.746234  1
  Na  Na5  1  0.324335  0.358552  0.906895  1
  Na  Na6  1  0.641448  0.965783  0.906895  1
  Na  Na7  1  0.376439  0.317262  0.405361  1
  Na  Na8  1  0.623561  0.682738  0.594639  1
  Na  Na9  1  0.358552  0.034217  0.093105  1
  Na  Na10  1  0.675665  0.641448  0.093105  1
  Na  Na11  1  0.940823  0.623561  0.405361  1
  Na  Na12  1  0.682738  0.059177  0.405361  1
  Na  Na13  1  0.965783  0.324335  0.093105  1
  Cu  Cu14  1  0.333333  0.666667  0.259294  1
  Cu  Cu15  1  0.666667  0.333333  0.740706  1
  O  O16  1  0.304799  0.947560  0.335864  1
  O  O17  1  0.052440  0.357239  0.335864  1
  O  O18  1  0.333333  0.666667  0.044186  1
  O  O19  1  0.000000  0.000000  0.000000  1
  O  O20  1  0.357239  0.304799  0.664136  1
  O  O21  1  0.642761  0.695201  0.335864  1
  O  O22  1  0.666667  0.333333  0.955814  1
  O  O23  1  0.947560  0.642761  0.664136  1
  O  O24  1  0.695201  0.052440  0.664136  1
