# generated using pymatgen
data_NaSnPHO4F
_symmetry_space_group_name_H-M   'P 1'
_cell_length_a   4.86981588
_cell_length_b   5.32485063
_cell_length_c   19.13870118
_cell_angle_alpha   90.00000000
_cell_angle_beta   90.00000000
_cell_angle_gamma   90.00000000
_symmetry_Int_Tables_number   1
_chemical_formula_structural   NaSnPHO4F
_chemical_formula_sum   'Na4 Sn4 P4 H4 O16 F4'
_cell_volume   496.28646712
_cell_formula_units_Z   4
loop_
 _symmetry_equiv_pos_site_id
 _symmetry_equiv_pos_as_xyz
  1  'x, y, z'
loop_
 _atom_site_type_symbol
 _atom_site_label
 _atom_site_symmetry_multiplicity
 _atom_site_fract_x
 _atom_site_fract_y
 _atom_site_fract_z
 _atom_site_occupancy
  Na  Na0  1  0.230365  0.750000  0.009179  1
  Na  Na1  1  0.269635  0.250000  0.509179  1
  Na  Na2  1  0.730365  0.750000  0.490821  1
  Na  Na3  1  0.769635  0.250000  0.990821  1
  Sn  Sn4  1  0.227235  0.250000  0.138164  1
  Sn  Sn5  1  0.272765  0.750000  0.638164  1
  Sn  Sn6  1  0.727235  0.250000  0.361836  1
  Sn  Sn7  1  0.772765  0.750000  0.861836  1
  P  P8  1  0.207381  0.250000  0.872426  1
  P  P9  1  0.292619  0.750000  0.372426  1
  P  P10  1  0.707381  0.250000  0.627574  1
  P  P11  1  0.792619  0.750000  0.127574  1
  H  H12  1  0.077546  0.750000  0.221429  1
  H  H13  1  0.422454  0.250000  0.721429  1
  H  H14  1  0.577546  0.750000  0.278571  1
  H  H15  1  0.922454  0.250000  0.778571  1
  O  O16  1  0.017722  0.250000  0.625417  1
  O  O17  1  0.078116  0.012609  0.906157  1
  O  O18  1  0.078116  0.487391  0.906157  1
  O  O19  1  0.120653  0.250000  0.789920  1
  O  O20  1  0.379347  0.750000  0.289920  1
  O  O21  1  0.421884  0.512609  0.406157  1
  O  O22  1  0.421884  0.987391  0.406157  1
  O  O23  1  0.482278  0.750000  0.125417  1
  O  O24  1  0.517722  0.250000  0.874583  1
  O  O25  1  0.578116  0.012609  0.593843  1
  O  O26  1  0.578116  0.487391  0.593843  1
  O  O27  1  0.620653  0.250000  0.710080  1
  O  O28  1  0.879347  0.750000  0.210080  1
  O  O29  1  0.921884  0.512609  0.093843  1
  O  O30  1  0.921884  0.987391  0.093843  1
  O  O31  1  0.982278  0.750000  0.374583  1
  F  F32  1  0.150543  0.750000  0.534985  1
  F  F33  1  0.349457  0.250000  0.034985  1
  F  F34  1  0.650543  0.750000  0.965015  1
  F  F35  1  0.849457  0.250000  0.465015  1
