# generated using pymatgen
data_Nb3O7F
_symmetry_space_group_name_H-M   'P 1'
_cell_length_a   10.71949108
_cell_length_b   10.71949108
_cell_length_c   3.98926084
_cell_angle_alpha   90.00000000
_cell_angle_beta   90.00000000
_cell_angle_gamma   159.03191474
_symmetry_Int_Tables_number   1
_chemical_formula_structural   Nb3O7F
_chemical_formula_sum   'Nb3 O7 F1'
_cell_volume   164.03601453
_cell_formula_units_Z   1
loop_
 _symmetry_equiv_pos_site_id
 _symmetry_equiv_pos_as_xyz
  1  'x, y, z'
loop_
 _atom_site_type_symbol
 _atom_site_label
 _atom_site_symmetry_multiplicity
 _atom_site_fract_x
 _atom_site_fract_y
 _atom_site_fract_z
 _atom_site_occupancy
  Nb  Nb0  1  0.815459  0.184541  0.000000  1
  Nb  Nb1  1  0.184541  0.815459  0.000000  1
  Nb  Nb2  1  0.000000  0.000000  0.000000  1
  O  O3  1  0.906950  0.093050  0.000000  1
  O  O4  1  0.814518  0.185482  0.500000  1
  O  O5  1  0.290678  0.709322  1.000000  1
  O  O6  1  0.709322  0.290678  0.000000  1
  O  O7  1  0.185482  0.814518  0.500000  1
  O  O8  1  0.093050  0.906950  1.000000  1
  O  O9  1  0.500000  0.500000  1.000000  1
  F  F10  1  0.000000  0.000000  0.500000  1
