# generated using pymatgen
data_Ti3Mn2Cr3O16
_symmetry_space_group_name_H-M   'P 1'
_cell_length_a   5.86487943
_cell_length_b   5.89154615
_cell_length_c   8.94640812
_cell_angle_alpha   90.30129649
_cell_angle_beta   90.61931508
_cell_angle_gamma   119.77576874
_symmetry_Int_Tables_number   1
_chemical_formula_structural   Ti3Mn2Cr3O16
_chemical_formula_sum   'Ti3 Mn2 Cr3 O16'
_cell_volume   268.27898076
_cell_formula_units_Z   1
loop_
 _symmetry_equiv_pos_site_id
 _symmetry_equiv_pos_as_xyz
  1  'x, y, z'
loop_
 _atom_site_type_symbol
 _atom_site_label
 _atom_site_symmetry_multiplicity
 _atom_site_fract_x
 _atom_site_fract_y
 _atom_site_fract_z
 _atom_site_occupancy
  Ti  Ti0  1  0.675843  0.825659  0.704849  1
  Ti  Ti1  1  0.829577  0.164881  0.210556  1
  Ti  Ti2  1  0.830010  0.665260  0.211934  1
  Mn  Mn3  1  0.663694  0.333757  0.483064  1
  Mn  Mn4  1  0.333860  0.664027  0.981784  1
  Cr  Cr5  1  0.331612  0.165125  0.200121  1
  Cr  Cr6  1  0.165354  0.331188  0.699758  1
  Cr  Cr7  1  0.181390  0.835409  0.716352  1
  O  O8  1  0.826073  0.174064  0.608082  1
  O  O9  1  0.949064  0.473869  0.347001  1
  O  O10  1  0.674047  0.336576  0.096005  1
  O  O11  1  0.000474  0.000769  0.313288  1
  O  O12  1  0.005976  0.997915  0.811386  1
  O  O13  1  0.825652  0.658041  0.602014  1
  O  O14  1  0.520595  0.051555  0.341402  1
  O  O15  1  0.519399  0.470030  0.340805  1
  O  O16  1  0.653834  0.826104  0.104937  1
  O  O17  1  0.338851  0.178649  0.605841  1
  O  O18  1  0.473433  0.525276  0.839013  1
  O  O19  1  0.469958  0.952332  0.845421  1
  O  O20  1  0.326261  0.673285  0.598470  1
  O  O21  1  0.177770  0.343058  0.106415  1
  O  O22  1  0.050283  0.521001  0.839889  1
  O  O23  1  0.176992  0.831973  0.107334  1
