# generated using pymatgen
data_Li3SbS3
_symmetry_space_group_name_H-M   'P 1'
_cell_length_a   4.15421160
_cell_length_b   11.92475584
_cell_length_c   12.73048364
_cell_angle_alpha   90.00000000
_cell_angle_beta   106.91176849
_cell_angle_gamma   90.00000000
_symmetry_Int_Tables_number   1
_chemical_formula_structural   Li3SbS3
_chemical_formula_sum   'Li12 Sb4 S12'
_cell_volume   603.36933421
_cell_formula_units_Z   4
loop_
 _symmetry_equiv_pos_site_id
 _symmetry_equiv_pos_as_xyz
  1  'x, y, z'
loop_
 _atom_site_type_symbol
 _atom_site_label
 _atom_site_symmetry_multiplicity
 _atom_site_fract_x
 _atom_site_fract_y
 _atom_site_fract_z
 _atom_site_occupancy
  Li  Li0  1  0.109722  0.450505  0.613325  1
  Li  Li1  1  0.185561  0.973336  0.625385  1
  Li  Li2  1  0.574481  0.223305  0.017258  1
  Li  Li3  1  0.109722  0.049495  0.113325  1
  Li  Li4  1  0.185561  0.526664  0.125385  1
  Li  Li5  1  0.425519  0.723305  0.482742  1
  Li  Li6  1  0.574481  0.276695  0.517258  1
  Li  Li7  1  0.814439  0.473336  0.874615  1
  Li  Li8  1  0.890278  0.950505  0.886675  1
  Li  Li9  1  0.425519  0.776695  0.982742  1
  Li  Li10  1  0.814439  0.026664  0.374615  1
  Li  Li11  1  0.890278  0.549495  0.386675  1
  Sb  Sb12  1  0.477880  0.693430  0.748818  1
  Sb  Sb13  1  0.477880  0.806570  0.248818  1
  Sb  Sb14  1  0.522120  0.193430  0.751182  1
  Sb  Sb15  1  0.522120  0.306570  0.251182  1
  S  S16  1  0.017577  0.654798  0.575502  1
  S  S17  1  0.337762  0.587087  0.897535  1
  S  S18  1  0.017577  0.845202  0.075502  1
  S  S19  1  0.317982  0.881583  0.803205  1
  S  S20  1  0.337762  0.912913  0.397535  1
  S  S21  1  0.317982  0.618417  0.303205  1
  S  S22  1  0.682018  0.381583  0.696795  1
  S  S23  1  0.662238  0.087087  0.602465  1
  S  S24  1  0.682018  0.118417  0.196795  1
  S  S25  1  0.982423  0.154798  0.924498  1
  S  S26  1  0.662238  0.412913  0.102465  1
  S  S27  1  0.982423  0.345202  0.424498  1
