# generated using pymatgen
data_Bi2CO5
_symmetry_space_group_name_H-M   'P 1'
_cell_length_a   7.61673557
_cell_length_b   7.61654469
_cell_length_c   3.93659507
_cell_angle_alpha   75.02631074
_cell_angle_beta   75.02094301
_cell_angle_gamma   29.95274625
_symmetry_Int_Tables_number   1
_chemical_formula_structural   Bi2CO5
_chemical_formula_sum   'Bi2 C1 O5'
_cell_volume   109.86858493
_cell_formula_units_Z   1
loop_
 _symmetry_equiv_pos_site_id
 _symmetry_equiv_pos_as_xyz
  1  'x, y, z'
loop_
 _atom_site_type_symbol
 _atom_site_label
 _atom_site_symmetry_multiplicity
 _atom_site_fract_x
 _atom_site_fract_y
 _atom_site_fract_z
 _atom_site_occupancy
  Bi  Bi0  1  0.164988  0.159815  0.840185  1
  Bi  Bi1  1  0.840185  0.835012  0.164988  1
  C  C2  1  0.546281  0.453719  0.546281  1
  O  O3  1  0.780342  0.219658  0.780342  1
  O  O4  1  0.359521  0.476196  0.523804  1
  O  O5  1  0.751407  0.748593  0.751407  1
  O  O6  1  0.523804  0.640479  0.359521  1
  O  O7  1  0.251407  0.248593  0.251407  1
