# generated using pymatgen
data_LiMnNbO4
_symmetry_space_group_name_H-M   'P 1'
_cell_length_a   6.32382384
_cell_length_b   6.32382384
_cell_length_c   6.32382384
_cell_angle_alpha   121.01953046
_cell_angle_beta   120.97738772
_cell_angle_gamma   88.27915048
_symmetry_Int_Tables_number   1
_chemical_formula_structural   LiMnNbO4
_chemical_formula_sum   'Li2 Mn2 Nb2 O8'
_cell_volume   176.03841340
_cell_formula_units_Z   2
loop_
 _symmetry_equiv_pos_site_id
 _symmetry_equiv_pos_as_xyz
  1  'x, y, z'
loop_
 _atom_site_type_symbol
 _atom_site_label
 _atom_site_symmetry_multiplicity
 _atom_site_fract_x
 _atom_site_fract_y
 _atom_site_fract_z
 _atom_site_occupancy
  Li  Li0  1  0.853913  0.603913  0.250000  1
  Li  Li1  1  0.146087  0.396087  0.750000  1
  Mn  Mn2  1  0.500000  1.000000  0.500000  1
  Mn  Mn3  1  0.000000  0.000000  0.000000  1
  Nb  Nb4  1  0.500000  0.000000  1.000000  1
  Nb  Nb5  1  0.500000  0.500000  0.500000  1
  O  O6  1  0.718295  0.203711  0.985416  1
  O  O7  1  0.278715  0.746681  0.532034  1
  O  O8  1  0.714646  0.746681  0.967966  1
  O  O9  1  0.718295  0.732879  0.514584  1
  O  O10  1  0.281705  0.267121  0.485416  1
  O  O11  1  0.721285  0.253319  0.467966  1
  O  O12  1  0.285354  0.253319  0.032034  1
  O  O13  1  0.281705  0.796289  0.014584  1
