# generated using pymatgen
data_Li2NbFe3O8
_symmetry_space_group_name_H-M   'P 1'
_cell_length_a   8.60551144
_cell_length_b   8.60551144
_cell_length_c   8.60551144
_cell_angle_alpha   90.00000000
_cell_angle_beta   90.00000000
_cell_angle_gamma   90.00000000
_symmetry_Int_Tables_number   1
_chemical_formula_structural   Li2NbFe3O8
_chemical_formula_sum   'Li8 Nb4 Fe12 O32'
_cell_volume   637.27966243
_cell_formula_units_Z   4
loop_
 _symmetry_equiv_pos_site_id
 _symmetry_equiv_pos_as_xyz
  1  'x, y, z'
loop_
 _atom_site_type_symbol
 _atom_site_label
 _atom_site_symmetry_multiplicity
 _atom_site_fract_x
 _atom_site_fract_y
 _atom_site_fract_z
 _atom_site_occupancy
  Li  Li0  1  0.999516  0.999516  0.999516  1
  Li  Li1  1  0.250484  0.250484  0.250484  1
  Li  Li2  1  0.249516  0.749516  0.750484  1
  Li  Li3  1  0.500484  0.000484  0.499516  1
  Li  Li4  1  0.499516  0.500484  0.000484  1
  Li  Li5  1  0.750484  0.249516  0.749516  1
  Li  Li6  1  0.749516  0.750484  0.249516  1
  Li  Li7  1  0.000484  0.499516  0.500484  1
  Nb  Nb8  1  0.125000  0.875000  0.375000  1
  Nb  Nb9  1  0.375000  0.125000  0.875000  1
  Nb  Nb10  1  0.625000  0.625000  0.625000  1
  Nb  Nb11  1  0.875000  0.375000  0.125000  1
  Fe  Fe12  1  0.117919  0.132081  0.625000  1
  Fe  Fe13  1  0.125000  0.382081  0.867919  1
  Fe  Fe14  1  0.132081  0.625000  0.117919  1
  Fe  Fe15  1  0.367919  0.375000  0.617919  1
  Fe  Fe16  1  0.375000  0.617919  0.367919  1
  Fe  Fe17  1  0.382081  0.867919  0.125000  1
  Fe  Fe18  1  0.617919  0.367919  0.375000  1
  Fe  Fe19  1  0.625000  0.117919  0.132081  1
  Fe  Fe20  1  0.632081  0.875000  0.882081  1
  Fe  Fe21  1  0.867919  0.125000  0.382081  1
  Fe  Fe22  1  0.875000  0.882081  0.632081  1
  Fe  Fe23  1  0.882081  0.632081  0.875000  1
  O  O24  1  0.112105  0.110677  0.384255  1
  O  O25  1  0.115745  0.887895  0.610677  1
  O  O26  1  0.114712  0.614712  0.885288  1
  O  O27  1  0.139323  0.137895  0.865745  1
  O  O28  1  0.110677  0.384255  0.112105  1
  O  O29  1  0.135288  0.364712  0.635288  1
  O  O30  1  0.134255  0.639323  0.362105  1
  O  O31  1  0.137895  0.865745  0.139323  1
  O  O32  1  0.362105  0.134255  0.639323  1
  O  O33  1  0.365745  0.360677  0.862105  1
  O  O34  1  0.364712  0.635288  0.135288  1
  O  O35  1  0.389323  0.615745  0.612105  1
  O  O36  1  0.360677  0.862105  0.365745  1
  O  O37  1  0.385288  0.385288  0.385288  1
  O  O38  1  0.384255  0.112105  0.110677  1
  O  O39  1  0.387895  0.889323  0.884255  1
  O  O40  1  0.612105  0.389323  0.615745  1
  O  O41  1  0.615745  0.612105  0.389323  1
  O  O42  1  0.614712  0.885288  0.114712  1
  O  O43  1  0.639323  0.362105  0.134255  1
  O  O44  1  0.610677  0.115745  0.887895  1
  O  O45  1  0.635288  0.135288  0.364712  1
  O  O46  1  0.634255  0.860677  0.637895  1
  O  O47  1  0.637895  0.634255  0.860677  1
  O  O48  1  0.862105  0.365745  0.360677  1
  O  O49  1  0.865745  0.139323  0.137895  1
  O  O50  1  0.864712  0.864712  0.864712  1
  O  O51  1  0.889323  0.884255  0.387895  1
  O  O52  1  0.860677  0.637895  0.634255  1
  O  O53  1  0.885288  0.114712  0.614712  1
  O  O54  1  0.884255  0.387895  0.889323  1
  O  O55  1  0.887895  0.610677  0.115745  1
