# generated using pymatgen
data_Be2As(HO)9
_symmetry_space_group_name_H-M   'P 1'
_cell_length_a   7.25482671
_cell_length_b   12.73365313
_cell_length_c   8.63665001
_cell_angle_alpha   90.00000000
_cell_angle_beta   97.32065970
_cell_angle_gamma   90.00000000
_symmetry_Int_Tables_number   1
_chemical_formula_structural   Be2As(HO)9
_chemical_formula_sum   'Be8 As4 H36 O36'
_cell_volume   791.35389943
_cell_formula_units_Z   4
loop_
 _symmetry_equiv_pos_site_id
 _symmetry_equiv_pos_as_xyz
  1  'x, y, z'
loop_
 _atom_site_type_symbol
 _atom_site_label
 _atom_site_symmetry_multiplicity
 _atom_site_fract_x
 _atom_site_fract_y
 _atom_site_fract_z
 _atom_site_occupancy
  Be  Be0  1  0.622637  0.377875  0.361807  1
  Be  Be1  1  0.877363  0.877874  0.638193  1
  Be  Be2  1  0.377363  0.622125  0.638193  1
  Be  Be3  1  0.122637  0.122125  0.361807  1
  Be  Be4  1  0.851559  0.373359  0.107371  1
  Be  Be5  1  0.648441  0.873359  0.892629  1
  Be  Be6  1  0.148441  0.626641  0.892629  1
  Be  Be7  1  0.351559  0.126641  0.107371  1
  As  As8  1  0.237376  0.327105  0.241949  1
  As  As9  1  0.262624  0.827105  0.758051  1
  As  As10  1  0.762624  0.672895  0.758051  1
  As  As11  1  0.737376  0.172895  0.241949  1
  H  H12  1  0.675539  0.487260  0.585554  1
  H  H13  1  0.824461  0.987260  0.414446  1
  H  H14  1  0.324461  0.512740  0.414446  1
  H  H15  1  0.175539  0.012740  0.585554  1
  H  H16  1  0.831343  0.390709  0.583577  1
  H  H17  1  0.668657  0.890709  0.416423  1
  H  H18  1  0.168657  0.609291  0.416423  1
  H  H19  1  0.331343  0.109291  0.583577  1
  H  H20  1  0.837081  0.477023  0.887429  1
  H  H21  1  0.662919  0.977023  0.112571  1
  H  H22  1  0.162919  0.522977  0.112571  1
  H  H23  1  0.337081  0.022977  0.887429  1
  H  H24  1  0.658013  0.396438  0.882172  1
  H  H25  1  0.841987  0.896438  0.117828  1
  H  H26  1  0.341987  0.603562  0.117828  1
  H  H27  1  0.158013  0.103562  0.882172  1
  H  H28  1  0.386402  0.316105  0.928012  1
  H  H29  1  0.113598  0.816105  0.071988  1
  H  H30  1  0.613598  0.683895  0.071988  1
  H  H31  1  0.886402  0.183895  0.928012  1
  H  H32  1  0.444664  0.294139  0.760393  1
  H  H33  1  0.055336  0.794139  0.239607  1
  H  H34  1  0.555336  0.705861  0.239607  1
  H  H35  1  0.944664  0.205861  0.760393  1
  H  H36  1  0.124527  0.353386  0.717893  1
  H  H37  1  0.375473  0.853386  0.282107  1
  H  H38  1  0.875473  0.646614  0.282107  1
  H  H39  1  0.624527  0.146614  0.717893  1
  H  H40  1  0.084715  0.297393  0.554289  1
  H  H41  1  0.415285  0.797393  0.445711  1
  H  H42  1  0.915285  0.702607  0.445711  1
  H  H43  1  0.584715  0.202607  0.554289  1
  H  H44  1  0.681321  0.499517  0.199185  1
  H  H45  1  0.818679  0.999517  0.800815  1
  H  H46  1  0.318679  0.500483  0.800815  1
  H  H47  1  0.181321  0.000483  0.199185  1
  O  O48  1  0.828367  0.245607  0.102565  1
  O  O49  1  0.671633  0.745607  0.897435  1
  O  O50  1  0.171633  0.754393  0.897435  1
  O  O51  1  0.328367  0.254393  0.102565  1
  O  O52  1  0.401537  0.410221  0.336109  1
  O  O53  1  0.098463  0.910221  0.663891  1
  O  O54  1  0.598463  0.589779  0.663891  1
  O  O55  1  0.901537  0.089779  0.336109  1
  O  O56  1  0.069574  0.410638  0.153922  1
  O  O57  1  0.430426  0.910638  0.846078  1
  O  O58  1  0.930426  0.589362  0.846078  1
  O  O59  1  0.569574  0.089362  0.153922  1
  O  O60  1  0.653459  0.251151  0.378504  1
  O  O61  1  0.846541  0.751151  0.621496  1
  O  O62  1  0.346541  0.748849  0.621496  1
  O  O63  1  0.153459  0.248849  0.378504  1
  O  O64  1  0.721234  0.427308  0.221383  1
  O  O65  1  0.778766  0.927308  0.778617  1
  O  O66  1  0.278766  0.572692  0.778617  1
  O  O67  1  0.221234  0.072692  0.221383  1
  O  O68  1  0.709293  0.419784  0.535459  1
  O  O69  1  0.790707  0.919784  0.464541  1
  O  O70  1  0.290707  0.580216  0.464541  1
  O  O71  1  0.209293  0.080216  0.535459  1
  O  O72  1  0.792204  0.406779  0.921305  1
  O  O73  1  0.707796  0.906779  0.078695  1
  O  O74  1  0.207796  0.593221  0.078695  1
  O  O75  1  0.292204  0.093221  0.921305  1
  O  O76  1  0.417478  0.351811  0.831823  1
  O  O77  1  0.082522  0.851811  0.168177  1
  O  O78  1  0.582522  0.648189  0.168177  1
  O  O79  1  0.917478  0.148189  0.831823  1
  O  O80  1  0.025684  0.318917  0.647715  1
  O  O81  1  0.474316  0.818917  0.352285  1
  O  O82  1  0.974316  0.681083  0.352285  1
  O  O83  1  0.525684  0.181083  0.647715  1
