# generated using pymatgen
data_ZrBiO4
_symmetry_space_group_name_H-M   'P 1'
_cell_length_a   5.49952727
_cell_length_b   7.84413985
_cell_length_c   7.85883507
_cell_angle_alpha   97.83928486
_cell_angle_beta   91.37850242
_cell_angle_gamma   92.80524908
_symmetry_Int_Tables_number   1
_chemical_formula_structural   ZrBiO4
_chemical_formula_sum   'Zr4 Bi4 O16'
_cell_volume   335.29013428
_cell_formula_units_Z   4
loop_
 _symmetry_equiv_pos_site_id
 _symmetry_equiv_pos_as_xyz
  1  'x, y, z'
loop_
 _atom_site_type_symbol
 _atom_site_label
 _atom_site_symmetry_multiplicity
 _atom_site_fract_x
 _atom_site_fract_y
 _atom_site_fract_z
 _atom_site_occupancy
  Zr  Zr0  1  0.778941  0.328542  0.640055  1
  Zr  Zr1  1  0.742889  0.827273  0.670170  1
  Zr  Zr2  1  0.257111  0.172727  0.329830  1
  Zr  Zr3  1  0.221059  0.671458  0.359945  1
  Bi  Bi4  1  0.276745  0.150546  0.821867  1
  Bi  Bi5  1  0.245238  0.638517  0.863364  1
  Bi  Bi6  1  0.754762  0.361483  0.136636  1
  Bi  Bi7  1  0.723255  0.849454  0.178133  1
  O  O8  1  0.991473  0.317849  0.887482  1
  O  O9  1  0.499770  0.387100  0.815037  1
  O  O10  1  0.589277  0.828333  0.920059  1
  O  O11  1  0.597316  0.073084  0.680718  1
  O  O12  1  0.081981  0.909397  0.808682  1
  O  O13  1  0.898119  0.582144  0.677583  1
  O  O14  1  0.094639  0.184716  0.572059  1
  O  O15  1  0.584664  0.307557  0.409996  1
  O  O16  1  0.415336  0.692443  0.590004  1
  O  O17  1  0.905361  0.815284  0.427941  1
  O  O18  1  0.101881  0.417856  0.322417  1
  O  O19  1  0.918019  0.090603  0.191318  1
  O  O20  1  0.402684  0.926916  0.319282  1
  O  O21  1  0.410723  0.171667  0.079941  1
  O  O22  1  0.500230  0.612900  0.184963  1
  O  O23  1  0.008527  0.682151  0.112518  1
