# generated using pymatgen
data_Li2AlVO4
_symmetry_space_group_name_H-M   'P 1'
_cell_length_a   5.38850924
_cell_length_b   5.38850924
_cell_length_c   6.42625467
_cell_angle_alpha   90.00000000
_cell_angle_beta   90.00000000
_cell_angle_gamma   91.27338133
_symmetry_Int_Tables_number   1
_chemical_formula_structural   Li2AlVO4
_chemical_formula_sum   'Li4 Al2 V2 O8'
_cell_volume   186.54685411
_cell_formula_units_Z   2
loop_
 _symmetry_equiv_pos_site_id
 _symmetry_equiv_pos_as_xyz
  1  'x, y, z'
loop_
 _atom_site_type_symbol
 _atom_site_label
 _atom_site_symmetry_multiplicity
 _atom_site_fract_x
 _atom_site_fract_y
 _atom_site_fract_z
 _atom_site_occupancy
  Li  Li0  1  0.317562  0.317562  0.500000  1
  Li  Li1  1  0.811530  0.188470  0.750000  1
  Li  Li2  1  0.188470  0.811530  0.250000  1
  Li  Li3  1  0.682438  0.682438  0.000000  1
  Al  Al4  1  0.325007  0.325007  0.000000  1
  Al  Al5  1  0.674993  0.674993  0.500000  1
  V  V6  1  0.823789  0.176211  0.250000  1
  V  V7  1  0.176211  0.823789  0.750000  1
  O  O8  1  0.186197  0.195496  0.227599  1
  O  O9  1  0.195496  0.186197  0.772401  1
  O  O10  1  0.655227  0.297896  0.009075  1
  O  O11  1  0.297896  0.655227  0.990925  1
  O  O12  1  0.702104  0.344773  0.490925  1
  O  O13  1  0.344773  0.702104  0.509075  1
  O  O14  1  0.813803  0.804504  0.727599  1
  O  O15  1  0.804504  0.813803  0.272401  1
