# generated using pymatgen
data_Li2Fe3F8
_symmetry_space_group_name_H-M   'P 1'
_cell_length_a   6.05287890
_cell_length_b   10.25179662
_cell_length_c   10.72676415
_cell_angle_alpha   90.00000000
_cell_angle_beta   92.43600584
_cell_angle_gamma   90.00000000
_symmetry_Int_Tables_number   1
_chemical_formula_structural   Li2Fe3F8
_chemical_formula_sum   'Li8 Fe12 F32'
_cell_volume   665.02513018
_cell_formula_units_Z   4
loop_
 _symmetry_equiv_pos_site_id
 _symmetry_equiv_pos_as_xyz
  1  'x, y, z'
loop_
 _atom_site_type_symbol
 _atom_site_label
 _atom_site_symmetry_multiplicity
 _atom_site_fract_x
 _atom_site_fract_y
 _atom_site_fract_z
 _atom_site_occupancy
  Li  Li0  1  0.879130  0.052933  0.209209  1
  Li  Li1  1  0.879130  0.447067  0.709209  1
  Li  Li2  1  0.637441  0.642897  0.114226  1
  Li  Li3  1  0.637441  0.857103  0.614226  1
  Li  Li4  1  0.362559  0.142897  0.385774  1
  Li  Li5  1  0.362559  0.357103  0.885774  1
  Li  Li6  1  0.120870  0.552933  0.290791  1
  Li  Li7  1  0.120870  0.947067  0.790791  1
  Fe  Fe8  1  0.889544  0.362671  0.037093  1
  Fe  Fe9  1  0.889544  0.137329  0.537093  1
  Fe  Fe10  1  0.646252  0.357176  0.286629  1
  Fe  Fe11  1  0.631140  0.628510  0.442301  1
  Fe  Fe12  1  0.646252  0.142824  0.786629  1
  Fe  Fe13  1  0.631140  0.871490  0.942301  1
  Fe  Fe14  1  0.368860  0.128510  0.057699  1
  Fe  Fe15  1  0.353748  0.857176  0.213371  1
  Fe  Fe16  1  0.368860  0.371490  0.557699  1
  Fe  Fe17  1  0.353748  0.642824  0.713371  1
  Fe  Fe18  1  0.110456  0.862671  0.462907  1
  Fe  Fe19  1  0.110456  0.637329  0.962907  1
  F  F20  1  0.848799  0.492969  0.366212  1
  F  F21  1  0.872870  0.239844  0.194115  1
  F  F22  1  0.898510  0.011932  0.383681  1
  F  F23  1  0.848110  0.739770  0.025333  1
  F  F24  1  0.848799  0.007031  0.866212  1
  F  F25  1  0.872870  0.260156  0.694115  1
  F  F26  1  0.898510  0.488068  0.883681  1
  F  F27  1  0.848110  0.760230  0.525333  1
  F  F28  1  0.637012  0.462902  0.120354  1
  F  F29  1  0.610125  0.978063  0.114003  1
  F  F30  1  0.584760  0.720681  0.275937  1
  F  F31  1  0.637012  0.037098  0.620354  1
  F  F32  1  0.610125  0.521937  0.614003  1
  F  F33  1  0.610359  0.252176  0.457431  1
  F  F34  1  0.584760  0.779319  0.775937  1
  F  F35  1  0.610359  0.247824  0.957431  1
  F  F36  1  0.389641  0.752176  0.042569  1
  F  F37  1  0.415240  0.220681  0.224063  1
  F  F38  1  0.389641  0.747824  0.542569  1
  F  F39  1  0.389875  0.478063  0.385997  1
  F  F40  1  0.362988  0.962902  0.379646  1
  F  F41  1  0.415240  0.279319  0.724063  1
  F  F42  1  0.389875  0.021937  0.885997  1
  F  F43  1  0.362988  0.537098  0.879646  1
  F  F44  1  0.151890  0.239770  0.474667  1
  F  F45  1  0.101490  0.511932  0.116319  1
  F  F46  1  0.127130  0.739844  0.305885  1
  F  F47  1  0.151201  0.992969  0.133788  1
  F  F48  1  0.151890  0.260230  0.974667  1
  F  F49  1  0.101490  0.988068  0.616319  1
  F  F50  1  0.127130  0.760156  0.805885  1
  F  F51  1  0.151201  0.507031  0.633788  1
