# generated using pymatgen
data_LiFe2(BO3)2
_symmetry_space_group_name_H-M   'P 1'
_cell_length_a   5.23957583
_cell_length_b   9.16961180
_cell_length_c   10.18843598
_cell_angle_alpha   88.76667797
_cell_angle_beta   89.45730068
_cell_angle_gamma   89.51447167
_symmetry_Int_Tables_number   1
_chemical_formula_structural   LiFe2(BO3)2
_chemical_formula_sum   'Li4 Fe8 B8 O24'
_cell_volume   489.35004879
_cell_formula_units_Z   4
loop_
 _symmetry_equiv_pos_site_id
 _symmetry_equiv_pos_as_xyz
  1  'x, y, z'
loop_
 _atom_site_type_symbol
 _atom_site_label
 _atom_site_symmetry_multiplicity
 _atom_site_fract_x
 _atom_site_fract_y
 _atom_site_fract_z
 _atom_site_occupancy
  Li  Li0  1  0.157970  0.167543  0.642628  1
  Li  Li1  1  0.330111  0.317985  0.909025  1
  Li  Li2  1  0.655146  0.679831  0.654057  1
  Li  Li3  1  0.839223  0.833729  0.361435  1
  Fe  Fe4  1  0.151979  0.838587  0.629811  1
  Fe  Fe5  1  0.178968  0.497655  0.136983  1
  Fe  Fe6  1  0.323421  0.988469  0.881811  1
  Fe  Fe7  1  0.331688  0.657768  0.377301  1
  Fe  Fe8  1  0.665467  0.338646  0.625856  1
  Fe  Fe9  1  0.668127  0.009269  0.128672  1
  Fe  Fe10  1  0.836875  0.168777  0.373815  1
  Fe  Fe11  1  0.828844  0.496126  0.888003  1
  B  B12  1  0.168978  0.498093  0.630536  1
  B  B13  1  0.176041  0.837218  0.142561  1
  B  B14  1  0.331825  0.992895  0.381254  1
  B  B15  1  0.325633  0.657786  0.866544  1
  B  B16  1  0.652643  0.005094  0.627318  1
  B  B17  1  0.660649  0.328480  0.117734  1
  B  B18  1  0.835019  0.505990  0.390941  1
  B  B19  1  0.835602  0.172255  0.876358  1
  O  O20  1  0.087542  0.504068  0.349863  1
  O  O21  1  0.091893  0.168150  0.856935  1
  O  O22  1  0.205958  0.785768  0.834768  1
  O  O23  1  0.222319  0.855197  0.418074  1
  O  O24  1  0.195348  0.115123  0.397496  1
  O  O25  1  0.187419  0.535612  0.910906  1
  O  O26  1  0.302533  0.368320  0.644345  1
  O  O27  1  0.329026  0.943570  0.085502  1
  O  O28  1  0.288738  0.624628  0.587538  1
  O  O29  1  0.287022  0.704857  0.184049  1
  O  O30  1  0.407044  0.334537  0.097447  1
  O  O31  1  0.400378  0.009114  0.665913  1
  O  O32  1  0.584444  0.990824  0.334134  1
  O  O33  1  0.586817  0.642100  0.848287  1
  O  O34  1  0.696162  0.303660  0.833355  1
  O  O35  1  0.725204  0.376748  0.436238  1
  O  O36  1  0.696975  0.634872  0.388820  1
  O  O37  1  0.690421  0.063068  0.933315  1
  O  O38  1  0.817112  0.444930  0.076352  1
  O  O39  1  0.781864  0.875039  0.612739  1
  O  O40  1  0.780340  0.138803  0.599562  1
  O  O41  1  0.780053  0.205393  0.171516  1
  O  O42  1  0.920606  0.860879  0.163543  1
  O  O43  1  0.907537  0.502128  0.665143  1
