# generated using pymatgen
data_Li32Mn11Cr5O48
_symmetry_space_group_name_H-M   'P 1'
_cell_length_a   5.00291839
_cell_length_b   5.01190521
_cell_length_c   38.41851271
_cell_angle_alpha   91.13435029
_cell_angle_beta   90.97973537
_cell_angle_gamma   119.78420184
_symmetry_Int_Tables_number   1
_chemical_formula_structural   Li32Mn11Cr5O48
_chemical_formula_sum   'Li32 Mn11 Cr5 O48'
_cell_volume   835.49397090
_cell_formula_units_Z   1
loop_
 _symmetry_equiv_pos_site_id
 _symmetry_equiv_pos_as_xyz
  1  'x, y, z'
loop_
 _atom_site_type_symbol
 _atom_site_label
 _atom_site_symmetry_multiplicity
 _atom_site_fract_x
 _atom_site_fract_y
 _atom_site_fract_z
 _atom_site_occupancy
  Li  Li0  1  0.906041  0.083357  0.249932  1
  Li  Li1  1  0.500759  0.000426  0.999968  1
  Li  Li2  1  0.563854  0.060772  0.187491  1
  Li  Li3  1  0.625599  0.124982  0.375030  1
  Li  Li4  1  0.691592  0.190085  0.562511  1
  Li  Li5  1  0.750386  0.252636  0.749953  1
  Li  Li6  1  0.812374  0.312538  0.937496  1
  Li  Li7  1  0.211736  0.036349  0.124791  1
  Li  Li8  1  0.875699  0.374918  0.124915  1
  Li  Li9  1  0.339300  0.166488  0.500030  1
  Li  Li10  1  0.461979  0.287768  0.874975  1
  Li  Li11  1  0.936667  0.438278  0.312523  1
  Li  Li12  1  0.998778  0.497561  0.499922  1
  Li  Li13  1  0.593795  0.417699  0.250139  1
  Li  Li14  1  0.712661  0.536626  0.624943  1
  Li  Li15  1  0.037569  0.216050  0.625255  1
  Li  Li16  1  0.162405  0.339254  0.999886  1
  Li  Li17  1  0.836134  0.660638  0.000041  1
  Li  Li18  1  0.959657  0.783697  0.374916  1
  Li  Li19  1  0.289915  0.465914  0.375197  1
  Li  Li20  1  0.410751  0.587352  0.749867  1
  Li  Li21  1  0.062306  0.562459  0.687505  1
  Li  Li22  1  0.536869  0.714606  0.125011  1
  Li  Li23  1  0.661258  0.835501  0.499815  1
  Li  Li24  1  0.126589  0.627576  0.875086  1
  Li  Li25  1  0.786975  0.960240  0.875204  1
  Li  Li26  1  0.188869  0.685132  0.062472  1
  Li  Li27  1  0.250338  0.749268  0.250045  1
  Li  Li28  1  0.312351  0.812609  0.437483  1
  Li  Li29  1  0.374553  0.871766  0.625066  1
  Li  Li30  1  0.434280  0.934156  0.812500  1
  Li  Li31  1  0.089003  0.910787  0.749992  1
  Mn  Mn32  1  0.979565  0.145193  0.437495  1
  Mn  Mn33  1  0.395549  0.229390  0.687486  1
  Mn  Mn34  1  0.520153  0.354728  0.062480  1
  Mn  Mn35  1  0.645547  0.479516  0.437490  1
  Mn  Mn36  1  0.770641  0.604101  0.812502  1
  Mn  Mn37  1  0.895446  0.729480  0.187514  1
  Mn  Mn38  1  0.354155  0.521130  0.562498  1
  Mn  Mn39  1  0.479499  0.645169  0.937503  1
  Mn  Mn40  1  0.604438  0.770566  0.312500  1
  Mn  Mn41  1  0.729541  0.895310  0.687497  1
  Mn  Mn42  1  0.145533  0.979527  0.937499  1
  Cr  Cr43  1  0.856986  0.017088  0.062512  1
  Cr  Cr44  1  0.267690  0.107655  0.312480  1
  Cr  Cr45  1  0.099840  0.265443  0.812458  1
  Cr  Cr46  1  0.232076  0.391526  0.187529  1
  Cr  Cr47  1  0.025386  0.859805  0.562552  1
  O  O48  1  0.946728  0.086805  0.340517  1
  O  O49  1  0.906460  0.047766  0.159175  1
  O  O50  1  0.570481  0.069379  0.283991  1
  O  O51  1  0.695256  0.194729  0.658918  1
  O  O52  1  0.554997  0.056163  0.090960  1
  O  O53  1  0.678570  0.178912  0.465991  1
  O  O54  1  0.809639  0.307537  0.840919  1
  O  O55  1  0.819518  0.320398  0.033949  1
  O  O56  1  0.946080  0.445437  0.409052  1
  O  O57  1  0.211704  0.072640  0.215504  1
  O  O58  1  0.930678  0.431183  0.215999  1
  O  O59  1  0.336720  0.195452  0.590470  1
  O  O60  1  0.463518  0.320757  0.965446  1
  O  O61  1  0.177100  0.038524  0.034504  1
  O  O62  1  0.304280  0.161459  0.409499  1
  O  O63  1  0.428391  0.289421  0.784505  1
  O  O64  1  0.070612  0.212397  0.715489  1
  O  O65  1  0.037303  0.184440  0.534270  1
  O  O66  1  0.161123  0.303724  0.909525  1
  O  O67  1  0.593328  0.451517  0.340775  1
  O  O68  1  0.712698  0.570938  0.715367  1
  O  O69  1  0.552642  0.413727  0.159557  1
  O  O70  1  0.676637  0.535085  0.534391  1
  O  O71  1  0.804331  0.660866  0.909605  1
  O  O72  1  0.201943  0.344067  0.090838  1
  O  O73  1  0.320806  0.464017  0.465468  1
  O  O74  1  0.448846  0.590704  0.840638  1
  O  O75  1  0.288515  0.427821  0.284559  1
  O  O76  1  0.411864  0.553647  0.659511  1
  O  O77  1  0.836867  0.697615  0.090370  1
  O  O78  1  0.963945  0.821046  0.465512  1
  O  O79  1  0.924311  0.782094  0.284315  1
  O  O80  1  0.576717  0.718900  0.215792  1
  O  O81  1  0.696015  0.835758  0.590492  1
  O  O82  1  0.820804  0.963583  0.965558  1
  O  O83  1  0.530843  0.673005  0.034202  1
  O  O84  1  0.661516  0.803935  0.409586  1
  O  O85  1  0.069859  0.575361  0.783580  1
  O  O86  1  0.787443  0.929270  0.784548  1
  O  O87  1  0.054775  0.549354  0.591413  1
  O  O88  1  0.178951  0.679397  0.966008  1
  O  O89  1  0.194464  0.695333  0.158948  1
  O  O90  1  0.315706  0.818171  0.534103  1
  O  O91  1  0.446464  0.945887  0.909063  1
  O  O92  1  0.305278  0.804867  0.341061  1
  O  O93  1  0.430008  0.930293  0.715975  1
  O  O94  1  0.087745  0.941432  0.840722  1
  O  O95  1  0.054431  0.912072  0.659416  1
