# generated using pymatgen
data_Li2Cr2O7
_symmetry_space_group_name_H-M   'P 1'
_cell_length_a   6.71074883
_cell_length_b   6.87500880
_cell_length_c   12.98584311
_cell_angle_alpha   90.00000000
_cell_angle_beta   107.56619886
_cell_angle_gamma   90.00000000
_symmetry_Int_Tables_number   1
_chemical_formula_structural   Li2Cr2O7
_chemical_formula_sum   'Li8 Cr8 O28'
_cell_volume   571.18312294
_cell_formula_units_Z   4
loop_
 _symmetry_equiv_pos_site_id
 _symmetry_equiv_pos_as_xyz
  1  'x, y, z'
loop_
 _atom_site_type_symbol
 _atom_site_label
 _atom_site_symmetry_multiplicity
 _atom_site_fract_x
 _atom_site_fract_y
 _atom_site_fract_z
 _atom_site_occupancy
  Li  Li0  1  0.952897  0.890821  0.613901  1
  Li  Li1  1  0.047103  0.390821  0.886099  1
  Li  Li2  1  0.700427  0.674417  0.344213  1
  Li  Li3  1  0.299573  0.174417  0.155787  1
  Li  Li4  1  0.700427  0.825583  0.844213  1
  Li  Li5  1  0.299573  0.325583  0.655787  1
  Li  Li6  1  0.952897  0.609179  0.113901  1
  Li  Li7  1  0.047103  0.109179  0.386099  1
  Cr  Cr8  1  0.196651  0.928330  0.883641  1
  Cr  Cr9  1  0.803349  0.428330  0.616359  1
  Cr  Cr10  1  0.608878  0.172951  0.409205  1
  Cr  Cr11  1  0.391122  0.672951  0.090795  1
  Cr  Cr12  1  0.608878  0.327049  0.909205  1
  Cr  Cr13  1  0.391122  0.827049  0.590795  1
  Cr  Cr14  1  0.196651  0.571670  0.383641  1
  Cr  Cr15  1  0.803349  0.071670  0.116359  1
  O  O16  1  0.406139  0.787563  0.970212  1
  O  O17  1  0.273469  0.992943  0.782054  1
  O  O18  1  0.012722  0.292091  0.659598  1
  O  O19  1  0.145463  0.120738  0.945957  1
  O  O20  1  0.623797  0.597661  0.160380  1
  O  O21  1  0.854537  0.620738  0.554043  1
  O  O22  1  0.779144  0.991517  0.442910  1
  O  O23  1  0.987278  0.792091  0.840402  1
  O  O24  1  0.697374  0.336917  0.343750  1
  O  O25  1  0.726531  0.492943  0.717946  1
  O  O26  1  0.593861  0.287563  0.529788  1
  O  O27  1  0.623797  0.902339  0.660380  1
  O  O28  1  0.302626  0.836917  0.156250  1
  O  O29  1  0.779144  0.508483  0.942910  1
  O  O30  1  0.220856  0.491517  0.057090  1
  O  O31  1  0.697374  0.163083  0.843750  1
  O  O32  1  0.376203  0.097661  0.339620  1
  O  O33  1  0.406139  0.712437  0.470212  1
  O  O34  1  0.273469  0.507057  0.282054  1
  O  O35  1  0.302626  0.663083  0.656250  1
  O  O36  1  0.012722  0.207909  0.159598  1
  O  O37  1  0.220856  0.008483  0.557090  1
  O  O38  1  0.145463  0.379262  0.445957  1
  O  O39  1  0.376203  0.402339  0.839620  1
  O  O40  1  0.854537  0.879262  0.054043  1
  O  O41  1  0.987278  0.707909  0.340402  1
  O  O42  1  0.726531  0.007057  0.217946  1
  O  O43  1  0.593861  0.212437  0.029788  1
