# generated using pymatgen
data_Li4Mn3Fe3(WO8)2
_symmetry_space_group_name_H-M   'P 1'
_cell_length_a   5.96236026
_cell_length_b   6.04873240
_cell_length_c   9.87243276
_cell_angle_alpha   88.54895792
_cell_angle_beta   89.19172486
_cell_angle_gamma   60.51180335
_symmetry_Int_Tables_number   1
_chemical_formula_structural   Li4Mn3Fe3(WO8)2
_chemical_formula_sum   'Li4 Mn3 Fe3 W2 O16'
_cell_volume   309.82331086
_cell_formula_units_Z   1
loop_
 _symmetry_equiv_pos_site_id
 _symmetry_equiv_pos_as_xyz
  1  'x, y, z'
loop_
 _atom_site_type_symbol
 _atom_site_label
 _atom_site_symmetry_multiplicity
 _atom_site_fract_x
 _atom_site_fract_y
 _atom_site_fract_z
 _atom_site_occupancy
  Li  Li0  1  0.659983  0.677170  0.909890  1
  Li  Li1  1  0.995706  0.008097  0.987842  1
  Li  Li2  1  0.000063  0.993034  0.485225  1
  Li  Li3  1  0.340564  0.329362  0.408171  1
  Mn  Mn4  1  0.830164  0.340164  0.210597  1
  Mn  Mn5  1  0.661513  0.171236  0.713655  1
  Mn  Mn6  1  0.166652  0.174742  0.713395  1
  Fe  Fe7  1  0.823928  0.833519  0.215912  1
  Fe  Fe8  1  0.337200  0.831978  0.214197  1
  Fe  Fe9  1  0.169402  0.660963  0.713442  1
  W  W10  1  0.671392  0.665224  0.483632  1
  W  W11  1  0.316978  0.355713  0.987141  1
  O  O12  1  0.835776  0.809543  0.585332  1
  O  O13  1  0.534279  0.957051  0.354492  1
  O  O14  1  0.676931  0.658590  0.113730  1
  O  O15  1  0.986249  0.012157  0.297836  1
  O  O16  1  0.991931  0.012287  0.799900  1
  O  O17  1  0.354041  0.813220  0.578813  1
  O  O18  1  0.969121  0.526684  0.350785  1
  O  O19  1  0.542774  0.501059  0.353809  1
  O  O20  1  0.160812  0.656340  0.089889  1
  O  O21  1  0.839643  0.329212  0.591122  1
  O  O22  1  0.479161  0.486243  0.860961  1
  O  O23  1  0.031922  0.485349  0.858891  1
  O  O24  1  0.346824  0.316744  0.613643  1
  O  O25  1  0.645069  0.163113  0.086559  1
  O  O26  1  0.471999  0.050012  0.843337  1
  O  O27  1  0.160220  0.181192  0.085645  1
