# generated using pymatgen
data_LiFe2(BO3)2
_symmetry_space_group_name_H-M   'P 1'
_cell_length_a   5.25601185
_cell_length_b   9.13807397
_cell_length_c   10.11748506
_cell_angle_alpha   88.73791142
_cell_angle_beta   88.97604154
_cell_angle_gamma   89.39302811
_symmetry_Int_Tables_number   1
_chemical_formula_structural   LiFe2(BO3)2
_chemical_formula_sum   'Li4 Fe8 B8 O24'
_cell_volume   485.72027975
_cell_formula_units_Z   4
loop_
 _symmetry_equiv_pos_site_id
 _symmetry_equiv_pos_as_xyz
  1  'x, y, z'
loop_
 _atom_site_type_symbol
 _atom_site_label
 _atom_site_symmetry_multiplicity
 _atom_site_fract_x
 _atom_site_fract_y
 _atom_site_fract_z
 _atom_site_occupancy
  Li  Li0  1  0.180711  0.168819  0.155564  1
  Li  Li1  1  0.331324  0.329956  0.875908  1
  Li  Li2  1  0.657510  0.672702  0.652354  1
  Li  Li3  1  0.834579  0.831611  0.384710  1
  Fe  Fe4  1  0.161397  0.838071  0.633429  1
  Fe  Fe5  1  0.170260  0.506146  0.132771  1
  Fe  Fe6  1  0.314548  0.992418  0.878312  1
  Fe  Fe7  1  0.344481  0.654438  0.377552  1
  Fe  Fe8  1  0.676319  0.334046  0.629459  1
  Fe  Fe9  1  0.670272  0.997774  0.125765  1
  Fe  Fe10  1  0.830857  0.163466  0.381571  1
  Fe  Fe11  1  0.823309  0.506862  0.884850  1
  B  B12  1  0.172930  0.505551  0.637280  1
  B  B13  1  0.169960  0.834618  0.134967  1
  B  B14  1  0.327369  0.991785  0.370785  1
  B  B15  1  0.324219  0.663297  0.870236  1
  B  B16  1  0.657367  0.996573  0.624822  1
  B  B17  1  0.669172  0.329789  0.125865  1
  B  B18  1  0.840289  0.501800  0.384857  1
  B  B19  1  0.832105  0.169902  0.884058  1
  O  O20  1  0.085101  0.495320  0.327554  1
  O  O21  1  0.090723  0.170210  0.892628  1
  O  O22  1  0.175025  0.784651  0.830220  1
  O  O23  1  0.217152  0.865628  0.429101  1
  O  O24  1  0.189304  0.113822  0.344616  1
  O  O25  1  0.201749  0.541414  0.930440  1
  O  O26  1  0.328164  0.387578  0.659757  1
  O  O27  1  0.311434  0.956809  0.091994  1
  O  O28  1  0.279735  0.637934  0.592385  1
  O  O29  1  0.294146  0.703293  0.163842  1
  O  O30  1  0.407447  0.338903  0.117609  1
  O  O31  1  0.407227  0.987313  0.669257  1
  O  O32  1  0.586719  0.984100  0.333121  1
  O  O33  1  0.576622  0.661306  0.845295  1
  O  O34  1  0.701115  0.293437  0.832027  1
  O  O35  1  0.729095  0.373250  0.433874  1
  O  O36  1  0.716270  0.633640  0.396613  1
  O  O37  1  0.684632  0.052879  0.930842  1
  O  O38  1  0.821825  0.446802  0.089639  1
  O  O39  1  0.800720  0.869295  0.611391  1
  O  O40  1  0.760039  0.130689  0.589871  1
  O  O41  1  0.788071  0.198460  0.165462  1
  O  O42  1  0.913952  0.848508  0.152504  1
  O  O43  1  0.911183  0.501566  0.663328  1
