# generated using pymatgen
data_LiFe8(BO3)8
_symmetry_space_group_name_H-M   'P 1'
_cell_length_a   5.21653994
_cell_length_b   9.18765890
_cell_length_c   10.20243753
_cell_angle_alpha   89.93298678
_cell_angle_beta   89.92993136
_cell_angle_gamma   89.01908580
_symmetry_Int_Tables_number   1
_chemical_formula_structural   LiFe8(BO3)8
_chemical_formula_sum   'Li1 Fe8 B8 O24'
_cell_volume   488.90793249
_cell_formula_units_Z   1
loop_
 _symmetry_equiv_pos_site_id
 _symmetry_equiv_pos_as_xyz
  1  'x, y, z'
loop_
 _atom_site_type_symbol
 _atom_site_label
 _atom_site_symmetry_multiplicity
 _atom_site_fract_x
 _atom_site_fract_y
 _atom_site_fract_z
 _atom_site_occupancy
  Li  Li0  1  0.840647  0.826998  0.655538  1
  Fe  Fe1  1  0.825674  0.168823  0.627443  1
  Fe  Fe2  1  0.826376  0.497842  0.128029  1
  Fe  Fe3  1  0.670147  0.008770  0.882371  1
  Fe  Fe4  1  0.668470  0.338942  0.375446  1
  Fe  Fe5  1  0.338719  0.655464  0.627067  1
  Fe  Fe6  1  0.328971  0.996786  0.125230  1
  Fe  Fe7  1  0.173462  0.835221  0.375227  1
  Fe  Fe8  1  0.173237  0.506300  0.880221  1
  B  B9  1  0.847753  0.501377  0.624235  1
  B  B10  1  0.829039  0.168508  0.132646  1
  B  B11  1  0.663567  0.003552  0.383353  1
  B  B12  1  0.672682  0.336095  0.875314  1
  B  B13  1  0.333331  0.993415  0.624910  1
  B  B14  1  0.325182  0.670809  0.128504  1
  B  B15  1  0.160407  0.502208  0.376596  1
  B  B16  1  0.176992  0.829496  0.870021  1
  O  O17  1  0.910182  0.498320  0.327290  1
  O  O18  1  0.930510  0.851123  0.837360  1
  O  O19  1  0.781879  0.214008  0.816086  1
  O  O20  1  0.737795  0.139466  0.431414  1
  O  O21  1  0.827625  0.887510  0.390135  1
  O  O22  1  0.835190  0.437317  0.934318  1
  O  O23  1  0.700640  0.626548  0.625725  1
  O  O24  1  0.668465  0.065149  0.081924  1
  O  O25  1  0.757046  0.372934  0.571295  1
  O  O26  1  0.717139  0.299595  0.179748  1
  O  O27  1  0.580228  0.646569  0.132066  1
  O  O28  1  0.592134  0.996819  0.658094  1
  O  O29  1  0.416312  0.990147  0.332649  1
  O  O30  1  0.416494  0.358721  0.878178  1
  O  O31  1  0.303617  0.699750  0.823664  1
  O  O32  1  0.240544  0.633463  0.433449  1
  O  O33  1  0.319866  0.385734  0.372321  1
  O  O34  1  0.325237  0.927839  0.938754  1
  O  O35  1  0.162087  0.568941  0.072072  1
  O  O36  1  0.171248  0.108966  0.631443  1
  O  O37  1  0.237350  0.857291  0.580990  1
  O  O38  1  0.210931  0.796893  0.181612  1
  O  O39  1  0.086164  0.146414  0.137436  1
  O  O40  1  0.095581  0.502492  0.676672  1
