# generated using pymatgen
data_Li2VAsCO7
_symmetry_space_group_name_H-M   'P 1'
_cell_length_a   5.10502901
_cell_length_b   6.57769521
_cell_length_c   8.75650050
_cell_angle_alpha   90.00000000
_cell_angle_beta   93.06518210
_cell_angle_gamma   90.00000000
_symmetry_Int_Tables_number   1
_chemical_formula_structural   Li2VAsCO7
_chemical_formula_sum   'Li4 V2 As2 C2 O14'
_cell_volume   293.61671008
_cell_formula_units_Z   2
loop_
 _symmetry_equiv_pos_site_id
 _symmetry_equiv_pos_as_xyz
  1  'x, y, z'
loop_
 _atom_site_type_symbol
 _atom_site_label
 _atom_site_symmetry_multiplicity
 _atom_site_fract_x
 _atom_site_fract_y
 _atom_site_fract_z
 _atom_site_occupancy
  Li  Li0  1  0.778688  0.490600  0.207523  1
  Li  Li1  1  0.778688  0.009400  0.207523  1
  Li  Li2  1  0.221312  0.509400  0.792477  1
  Li  Li3  1  0.221312  0.990600  0.792477  1
  V  V4  1  0.201265  0.250000  0.335262  1
  V  V5  1  0.798735  0.750000  0.664738  1
  As  As6  1  0.291694  0.750000  0.419798  1
  As  As7  1  0.708306  0.250000  0.580202  1
  C  C8  1  0.267715  0.250000  0.054280  1
  C  C9  1  0.732285  0.750000  0.945720  1
  O  O10  1  0.697406  0.750000  0.087292  1
  O  O11  1  0.033938  0.250000  0.110914  1
  O  O12  1  0.464833  0.250000  0.160135  1
  O  O13  1  0.176960  0.952505  0.312910  1
  O  O14  1  0.176960  0.547495  0.312910  1
  O  O15  1  0.828547  0.250000  0.398963  1
  O  O16  1  0.627440  0.750000  0.442937  1
  O  O17  1  0.372560  0.250000  0.557063  1
  O  O18  1  0.171453  0.750000  0.601037  1
  O  O19  1  0.823040  0.452505  0.687090  1
  O  O20  1  0.823040  0.047495  0.687090  1
  O  O21  1  0.535167  0.750000  0.839865  1
  O  O22  1  0.966062  0.750000  0.889086  1
  O  O23  1  0.302594  0.250000  0.912708  1
