# generated using pymatgen
data_V3O5F
_symmetry_space_group_name_H-M   'P 1'
_cell_length_a   5.01196487
_cell_length_b   5.11921916
_cell_length_c   5.44562655
_cell_angle_alpha   92.76509926
_cell_angle_beta   114.53300619
_cell_angle_gamma   118.87535018
_symmetry_Int_Tables_number   1
_chemical_formula_structural   V3O5F
_chemical_formula_sum   'V3 O5 F1'
_cell_volume   105.73825111
_cell_formula_units_Z   1
loop_
 _symmetry_equiv_pos_site_id
 _symmetry_equiv_pos_as_xyz
  1  'x, y, z'
loop_
 _atom_site_type_symbol
 _atom_site_label
 _atom_site_symmetry_multiplicity
 _atom_site_fract_x
 _atom_site_fract_y
 _atom_site_fract_z
 _atom_site_occupancy
  V  V0  1  0.322730  0.651971  0.944584  1
  V  V1  1  0.729021  0.867394  0.554995  1
  V  V2  1  0.655035  0.309883  0.021411  1
  O  O3  1  0.518609  0.586568  0.763218  1
  O  O4  1  0.193169  0.929798  0.778575  1
  O  O5  1  0.854442  0.265892  0.798946  1
  O  O6  1  0.730948  0.047756  0.236385  1
  O  O7  1  0.544151  0.484175  0.234271  1
  F  F8  1  0.176405  0.702697  0.255755  1
