# generated using pymatgen
data_Rb2CoB12(H2O3)10
_symmetry_space_group_name_H-M   'P 1'
_cell_length_a   7.57697290
_cell_length_b   7.91744080
_cell_length_c   11.13535536
_cell_angle_alpha   107.41684434
_cell_angle_beta   93.51607209
_cell_angle_gamma   92.14368944
_symmetry_Int_Tables_number   1
_chemical_formula_structural   Rb2CoB12(H2O3)10
_chemical_formula_sum   'Rb2 Co1 B12 H20 O30'
_cell_volume   635.09451624
_cell_formula_units_Z   1
loop_
 _symmetry_equiv_pos_site_id
 _symmetry_equiv_pos_as_xyz
  1  'x, y, z'
loop_
 _atom_site_type_symbol
 _atom_site_label
 _atom_site_symmetry_multiplicity
 _atom_site_fract_x
 _atom_site_fract_y
 _atom_site_fract_z
 _atom_site_occupancy
  Rb  Rb0  1  0.232932  0.364016  0.405126  1
  Rb  Rb1  1  0.767068  0.635984  0.594874  1
  Co  Co2  1  0.500000  0.000000  0.000000  1
  B  B3  1  0.045644  0.247349  0.953075  1
  B  B4  1  0.173294  0.992068  0.797741  1
  B  B5  1  0.150118  0.863830  0.564001  1
  B  B6  1  0.342384  0.302305  0.884155  1
  B  B7  1  0.383844  0.112777  0.651350  1
  B  B8  1  0.396827  0.437957  0.712841  1
  B  B9  1  0.603173  0.562043  0.287159  1
  B  B10  1  0.616156  0.887223  0.348650  1
  B  B11  1  0.657616  0.697695  0.115845  1
  B  B12  1  0.849882  0.136170  0.435999  1
  B  B13  1  0.826706  0.007932  0.202259  1
  B  B14  1  0.954356  0.752651  0.046925  1
  H  H15  1  0.114647  0.570582  0.949294  1
  H  H16  1  0.109599  0.711580  0.379092  1
  H  H17  1  0.209604  0.814778  0.897201  1
  H  H18  1  0.229186  0.555470  0.165269  1
  H  H19  1  0.196858  0.017896  0.124700  1
  H  H20  1  0.284253  0.750915  0.248309  1
  H  H21  1  0.367588  0.698101  0.743630  1
  H  H22  1  0.366651  0.017518  0.215545  1
  H  H23  1  0.373133  0.957690  0.407994  1
  H  H24  1  0.490281  0.647401  0.956276  1
  H  H25  1  0.509719  0.352599  0.043724  1
  H  H26  1  0.626867  0.042310  0.592006  1
  H  H27  1  0.633349  0.982482  0.784455  1
  H  H28  1  0.632412  0.301899  0.256370  1
  H  H29  1  0.715747  0.249085  0.751691  1
  H  H30  1  0.803142  0.982104  0.875300  1
  H  H31  1  0.770814  0.444530  0.834731  1
  H  H32  1  0.790396  0.185222  0.102799  1
  H  H33  1  0.890401  0.288420  0.620908  1
  H  H34  1  0.885353  0.429418  0.050706  1
  O  O35  1  0.040720  0.072416  0.884196  1
  O  O36  1  0.086687  0.697231  0.965876  1
  O  O37  1  0.085632  0.882746  0.679329  1
  O  O38  1  0.069457  0.727860  0.464749  1
  O  O39  1  0.180799  0.366214  0.948201  1
  O  O40  1  0.293141  0.137219  0.773821  1
  O  O41  1  0.288024  0.883335  0.856383  1
  O  O42  1  0.189081  0.655097  0.231908  1
  O  O43  1  0.286056  0.973869  0.548254  1
  O  O44  1  0.384068  0.278993  0.619507  1
  O  O45  1  0.321318  0.065693  0.146003  1
  O  O46  1  0.396297  0.589584  0.675923  1
  O  O47  1  0.469631  0.250155  0.969296  1
  O  O48  1  0.587229  0.553892  0.161044  1
  O  O49  1  0.432729  0.935674  0.327420  1
  O  O50  1  0.567271  0.064326  0.672580  1
  O  O51  1  0.412771  0.446108  0.838956  1
  O  O52  1  0.530369  0.749845  0.030704  1
  O  O53  1  0.603703  0.410416  0.324077  1
  O  O54  1  0.678682  0.934307  0.853997  1
  O  O55  1  0.615932  0.721007  0.380493  1
  O  O56  1  0.713944  0.026131  0.451746  1
  O  O57  1  0.810919  0.344903  0.768092  1
  O  O58  1  0.711976  0.116665  0.143617  1
  O  O59  1  0.706859  0.862781  0.226179  1
  O  O60  1  0.819201  0.633786  0.051799  1
  O  O61  1  0.930543  0.272140  0.535251  1
  O  O62  1  0.914368  0.117254  0.320671  1
  O  O63  1  0.913313  0.302769  0.034124  1
  O  O64  1  0.959280  0.927584  0.115804  1
