# generated using pymatgen
data_KLi4CrO5
_symmetry_space_group_name_H-M   'P 1'
_cell_length_a   5.60208397
_cell_length_b   5.86560309
_cell_length_c   8.29543974
_cell_angle_alpha   91.37255948
_cell_angle_beta   98.38874262
_cell_angle_gamma   118.23065819
_symmetry_Int_Tables_number   1
_chemical_formula_structural   KLi4CrO5
_chemical_formula_sum   'K2 Li8 Cr2 O10'
_cell_volume   236.23635419
_cell_formula_units_Z   2
loop_
 _symmetry_equiv_pos_site_id
 _symmetry_equiv_pos_as_xyz
  1  'x, y, z'
loop_
 _atom_site_type_symbol
 _atom_site_label
 _atom_site_symmetry_multiplicity
 _atom_site_fract_x
 _atom_site_fract_y
 _atom_site_fract_z
 _atom_site_occupancy
  K  K0  1  0.390853  0.247070  0.588282  1
  K  K1  1  0.609147  0.752930  0.411718  1
  Li  Li2  1  0.439691  0.642582  0.914854  1
  Li  Li3  1  0.333059  0.004681  0.875720  1
  Li  Li4  1  0.901665  0.617590  0.913576  1
  Li  Li5  1  0.123395  0.677183  0.624972  1
  Li  Li6  1  0.876605  0.322817  0.375028  1
  Li  Li7  1  0.098335  0.382410  0.086424  1
  Li  Li8  1  0.666941  0.995319  0.124280  1
  Li  Li9  1  0.560309  0.357418  0.085146  1
  Cr  Cr10  1  0.868008  0.097899  0.779440  1
  Cr  Cr11  1  0.131992  0.902101  0.220560  1
  O  O12  1  0.224363  0.271029  0.912602  1
  O  O13  1  0.749224  0.233155  0.940003  1
  O  O14  1  0.497351  0.841581  0.728035  1
  O  O15  1  0.953835  0.839027  0.729942  1
  O  O16  1  0.911174  0.283271  0.618905  1
  O  O17  1  0.088826  0.716729  0.381095  1
  O  O18  1  0.046165  0.160973  0.270058  1
  O  O19  1  0.502649  0.158419  0.271965  1
  O  O20  1  0.250776  0.766845  0.059997  1
  O  O21  1  0.775637  0.728971  0.087398  1
