# generated using pymatgen
data_Mn5SbO12
_symmetry_space_group_name_H-M   'P 1'
_cell_length_a   5.22049784
_cell_length_b   5.22049784
_cell_length_c   9.72361711
_cell_angle_alpha   89.80526732
_cell_angle_beta   90.19473268
_cell_angle_gamma   59.30320839
_symmetry_Int_Tables_number   1
_chemical_formula_structural   Mn5SbO12
_chemical_formula_sum   'Mn5 Sb1 O12'
_cell_volume   227.86610207
_cell_formula_units_Z   1
loop_
 _symmetry_equiv_pos_site_id
 _symmetry_equiv_pos_as_xyz
  1  'x, y, z'
loop_
 _atom_site_type_symbol
 _atom_site_label
 _atom_site_symmetry_multiplicity
 _atom_site_fract_x
 _atom_site_fract_y
 _atom_site_fract_z
 _atom_site_occupancy
  Mn  Mn0  1  0.166770  0.166770  0.500000  1
  Mn  Mn1  1  0.333726  0.333726  0.000000  1
  Mn  Mn2  1  0.500000  0.500000  0.500000  1
  Mn  Mn3  1  0.666274  0.666274  0.000000  1
  Mn  Mn4  1  0.833230  0.833230  0.500000  1
  Sb  Sb5  1  0.000000  0.000000  0.000000  1
  O  O6  1  0.993119  0.338975  0.102144  1
  O  O7  1  0.338975  0.993119  0.897856  1
  O  O8  1  0.165609  0.501252  0.404710  1
  O  O9  1  0.501252  0.165609  0.595290  1
  O  O10  1  0.167415  0.832585  0.595491  1
  O  O11  1  0.335869  0.664131  0.104177  1
  O  O12  1  0.664131  0.335869  0.895823  1
  O  O13  1  0.832585  0.167415  0.404509  1
  O  O14  1  0.498748  0.834391  0.404710  1
  O  O15  1  0.834391  0.498748  0.595290  1
  O  O16  1  0.661025  0.006881  0.102144  1
  O  O17  1  0.006881  0.661025  0.897856  1
