# generated using pymatgen
data_HfBiO4
_symmetry_space_group_name_H-M   'P 1'
_cell_length_a   5.47816318
_cell_length_b   7.79357172
_cell_length_c   7.80489579
_cell_angle_alpha   98.44678208
_cell_angle_beta   91.45663959
_cell_angle_gamma   92.63142536
_symmetry_Int_Tables_number   1
_chemical_formula_structural   HfBiO4
_chemical_formula_sum   'Hf4 Bi4 O16'
_cell_volume   329.08915069
_cell_formula_units_Z   4
loop_
 _symmetry_equiv_pos_site_id
 _symmetry_equiv_pos_as_xyz
  1  'x, y, z'
loop_
 _atom_site_type_symbol
 _atom_site_label
 _atom_site_symmetry_multiplicity
 _atom_site_fract_x
 _atom_site_fract_y
 _atom_site_fract_z
 _atom_site_occupancy
  Hf  Hf0  1  0.778670  0.323802  0.642499  1
  Hf  Hf1  1  0.742291  0.821384  0.670962  1
  Hf  Hf2  1  0.257709  0.178616  0.329038  1
  Hf  Hf3  1  0.221330  0.676198  0.357501  1
  Bi  Bi4  1  0.278394  0.147512  0.819509  1
  Bi  Bi5  1  0.244131  0.636579  0.861260  1
  Bi  Bi6  1  0.755869  0.363421  0.138740  1
  Bi  Bi7  1  0.721606  0.852488  0.180491  1
  O  O8  1  0.990228  0.317145  0.886152  1
  O  O9  1  0.501062  0.385316  0.814506  1
  O  O10  1  0.590351  0.827380  0.918810  1
  O  O11  1  0.606368  0.070042  0.680933  1
  O  O12  1  0.077322  0.907997  0.807476  1
  O  O13  1  0.890645  0.578112  0.677148  1
  O  O14  1  0.095978  0.187340  0.568887  1
  O  O15  1  0.585041  0.304213  0.414568  1
  O  O16  1  0.414959  0.695787  0.585432  1
  O  O17  1  0.904022  0.812660  0.431113  1
  O  O18  1  0.109355  0.421888  0.322852  1
  O  O19  1  0.922678  0.092003  0.192524  1
  O  O20  1  0.393632  0.929958  0.319067  1
  O  O21  1  0.409649  0.172620  0.081190  1
  O  O22  1  0.498938  0.614684  0.185494  1
  O  O23  1  0.009772  0.682855  0.113848  1
