# generated using pymatgen
data_Li4MnFe3(PO4)4
_symmetry_space_group_name_H-M   'P 1'
_cell_length_a   4.76208821
_cell_length_b   6.10507960
_cell_length_c   10.46704200
_cell_angle_alpha   90.00000000
_cell_angle_beta   90.12438993
_cell_angle_gamma   90.00000000
_symmetry_Int_Tables_number   1
_chemical_formula_structural   Li4MnFe3(PO4)4
_chemical_formula_sum   'Li4 Mn1 Fe3 P4 O16'
_cell_volume   304.30683715
_cell_formula_units_Z   1
loop_
 _symmetry_equiv_pos_site_id
 _symmetry_equiv_pos_as_xyz
  1  'x, y, z'
loop_
 _atom_site_type_symbol
 _atom_site_label
 _atom_site_symmetry_multiplicity
 _atom_site_fract_x
 _atom_site_fract_y
 _atom_site_fract_z
 _atom_site_occupancy
  Li  Li0  1  0.999983  0.249371  0.999467  1
  Li  Li1  1  0.999983  0.750629  0.999467  1
  Li  Li2  1  0.500214  0.249132  0.500304  1
  Li  Li3  1  0.500214  0.750868  0.500304  1
  Mn  Mn4  1  0.977983  0.500000  0.281492  1
  Fe  Fe5  1  0.474912  0.000000  0.218416  1
  Fe  Fe6  1  0.024915  0.000000  0.718517  1
  Fe  Fe7  1  0.525491  0.500000  0.781444  1
  P  P8  1  0.419934  0.500000  0.092584  1
  P  P9  1  0.915608  0.000000  0.406124  1
  P  P10  1  0.082262  0.500000  0.595808  1
  P  P11  1  0.581534  0.000000  0.905153  1
  O  O12  1  0.707235  0.000000  0.042701  1
  O  O13  1  0.741927  0.500000  0.094688  1
  O  O14  1  0.289132  0.296996  0.163925  1
  O  O15  1  0.289132  0.703004  0.163925  1
  O  O16  1  0.779617  0.798450  0.335977  1
  O  O17  1  0.779617  0.201550  0.335977  1
  O  O18  1  0.238365  0.000000  0.403206  1
  O  O19  1  0.209443  0.500000  0.458796  1
  O  O20  1  0.794012  0.000000  0.544218  1
  O  O21  1  0.759883  0.500000  0.596617  1
  O  O22  1  0.214586  0.296906  0.666442  1
  O  O23  1  0.214586  0.703094  0.666442  1
  O  O24  1  0.714353  0.797112  0.834479  1
  O  O25  1  0.714353  0.202888  0.834479  1
  O  O26  1  0.259022  0.000000  0.903195  1
  O  O27  1  0.291704  0.500000  0.955850  1
