# generated using pymatgen
data_Li5Fe8(BO3)8
_symmetry_space_group_name_H-M   'P 1'
_cell_length_a   5.23516865
_cell_length_b   9.11687602
_cell_length_c   11.34388283
_cell_angle_alpha   112.47872894
_cell_angle_beta   102.93852343
_cell_angle_gamma   89.37135288
_symmetry_Int_Tables_number   1
_chemical_formula_structural   Li5Fe8(BO3)8
_chemical_formula_sum   'Li5 Fe8 B8 O24'
_cell_volume   485.90921970
_cell_formula_units_Z   1
loop_
 _symmetry_equiv_pos_site_id
 _symmetry_equiv_pos_as_xyz
  1  'x, y, z'
loop_
 _atom_site_type_symbol
 _atom_site_label
 _atom_site_symmetry_multiplicity
 _atom_site_fract_x
 _atom_site_fract_y
 _atom_site_fract_z
 _atom_site_occupancy
  Li  Li0  1  0.027829  0.026875  0.394439  1
  Li  Li1  1  0.290669  0.282168  0.914205  1
  Li  Li2  1  0.262692  0.249602  0.163059  1
  Li  Li3  1  0.529474  0.539786  0.418710  1
  Li  Li4  1  0.977168  0.997909  0.651624  1
  Fe  Fe5  1  0.025539  0.348140  0.381043  1
  Fe  Fe6  1  0.258879  0.930101  0.880037  1
  Fe  Fe7  1  0.469643  0.161162  0.626552  1
  Fe  Fe8  1  0.245450  0.576620  0.134809  1
  Fe  Fe9  1  0.773321  0.444344  0.880015  1
  Fe  Fe10  1  0.533791  0.853261  0.379277  1
  Fe  Fe11  1  0.987126  0.645620  0.634872  1
  Fe  Fe12  1  0.728901  0.060016  0.123892  1
  B  B13  1  0.031637  0.690590  0.386722  1
  B  B14  1  0.272423  0.595741  0.872827  1
  B  B15  1  0.484686  0.816433  0.627619  1
  B  B16  1  0.234483  0.906455  0.136178  1
  B  B17  1  0.519068  0.184119  0.371292  1
  B  B18  1  0.764832  0.113994  0.879782  1
  B  B19  1  0.966031  0.312620  0.628409  1
  B  B20  1  0.730867  0.383017  0.118262  1
  O  O21  1  0.019037  0.101743  0.862792  1
  O  O22  1  0.117448  0.698693  0.827937  1
  O  O23  1  0.154335  0.491797  0.913658  1
  O  O24  1  0.080187  0.171060  0.607475  1
  O  O25  1  0.056442  0.422509  0.585724  1
  O  O26  1  0.238801  0.827877  0.661438  1
  O  O27  1  0.269092  0.659655  0.347998  1
  O  O28  1  0.532257  0.595497  0.877724  1
  O  O29  1  0.609262  0.226243  0.847082  1
  O  O30  1  0.410029  0.083749  0.415934  1
  O  O31  1  0.394371  0.314231  0.359720  1
  O  O32  1  0.653984  0.019683  0.930145  1
  O  O33  1  0.348653  0.012238  0.093344  1
  O  O34  1  0.621784  0.683995  0.617115  1
  O  O35  1  0.585805  0.936859  0.599957  1
  O  O36  1  0.381345  0.796999  0.169977  1
  O  O37  1  0.464885  0.381722  0.113094  1
  O  O38  1  0.754033  0.344597  0.685307  1
  O  O39  1  0.756817  0.151831  0.332626  1
  O  O40  1  0.918371  0.581435  0.425419  1
  O  O41  1  0.913565  0.826996  0.391584  1
  O  O42  1  0.857072  0.478586  0.075795  1
  O  O43  1  0.882753  0.277949  0.164757  1
  O  O44  1  0.980067  0.921638  0.145341  1
