# generated using pymatgen
data_Li3VF6
_symmetry_space_group_name_H-M   'P 1'
_cell_length_a   5.15419466
_cell_length_b   5.15419466
_cell_length_c   9.70422681
_cell_angle_alpha   90.00000000
_cell_angle_beta   90.00000000
_cell_angle_gamma   120.00000000
_symmetry_Int_Tables_number   1
_chemical_formula_structural   Li3VF6
_chemical_formula_sum   'Li6 V2 F12'
_cell_volume   223.26117395
_cell_formula_units_Z   2
loop_
 _symmetry_equiv_pos_site_id
 _symmetry_equiv_pos_as_xyz
  1  'x, y, z'
loop_
 _atom_site_type_symbol
 _atom_site_label
 _atom_site_symmetry_multiplicity
 _atom_site_fract_x
 _atom_site_fract_y
 _atom_site_fract_z
 _atom_site_occupancy
  Li  Li0  1  0.333333  0.666667  0.947046  1
  Li  Li1  1  0.000000  0.000000  0.250000  1
  Li  Li2  1  0.000000  0.000000  0.750000  1
  Li  Li3  1  0.333333  0.666667  0.552954  1
  Li  Li4  1  0.666667  0.333333  0.052954  1
  Li  Li5  1  0.666667  0.333333  0.447046  1
  V  V6  1  0.333333  0.666667  0.250000  1
  V  V7  1  0.666667  0.333333  0.750000  1
  F  F8  1  0.027786  0.672494  0.369106  1
  F  F9  1  0.327506  0.972214  0.130894  1
  F  F10  1  0.027786  0.355293  0.130894  1
  F  F11  1  0.327506  0.355293  0.369106  1
  F  F12  1  0.644707  0.972214  0.369106  1
  F  F13  1  0.355293  0.327506  0.869106  1
  F  F14  1  0.644707  0.672494  0.130894  1
  F  F15  1  0.355293  0.027786  0.630894  1
  F  F16  1  0.672494  0.644707  0.630894  1
  F  F17  1  0.972214  0.644707  0.869106  1
  F  F18  1  0.672494  0.027786  0.869106  1
  F  F19  1  0.972214  0.327506  0.630894  1
