# generated using pymatgen
data_V(SO4)2
_symmetry_space_group_name_H-M   'P 1'
_cell_length_a   8.89262300
_cell_length_b   8.89262300
_cell_length_c   8.89262300
_cell_angle_alpha   56.19744057
_cell_angle_beta   56.19744057
_cell_angle_gamma   56.19744057
_symmetry_Int_Tables_number   1
_chemical_formula_structural   V(SO4)2
_chemical_formula_sum   'V3 S6 O24'
_cell_volume   453.48444597
_cell_formula_units_Z   3
loop_
 _symmetry_equiv_pos_site_id
 _symmetry_equiv_pos_as_xyz
  1  'x, y, z'
loop_
 _atom_site_type_symbol
 _atom_site_label
 _atom_site_symmetry_multiplicity
 _atom_site_fract_x
 _atom_site_fract_y
 _atom_site_fract_z
 _atom_site_occupancy
  V  V0  1  0.645304  0.645304  0.645304  1
  V  V1  1  0.355651  0.355651  0.355651  1
  V  V2  1  0.147869  0.147869  0.147869  1
  S  S3  1  0.254986  0.529961  0.964669  1
  S  S4  1  0.964669  0.254986  0.529961  1
  S  S5  1  0.529961  0.964669  0.254986  1
  S  S6  1  0.470297  0.038990  0.743719  1
  S  S7  1  0.038990  0.743719  0.470297  1
  S  S8  1  0.743719  0.470297  0.038990  1
  O  O9  1  0.705338  0.488854  0.882144  1
  O  O10  1  0.488854  0.882144  0.705338  1
  O  O11  1  0.063381  0.668782  0.991401  1
  O  O12  1  0.882144  0.705338  0.488854  1
  O  O13  1  0.284400  0.340673  0.979012  1
  O  O14  1  0.403930  0.598267  0.773021  1
  O  O15  1  0.773021  0.403930  0.598267  1
  O  O16  1  0.991401  0.063381  0.668782  1
  O  O17  1  0.598267  0.773021  0.403930  1
  O  O18  1  0.321488  0.025685  0.940709  1
  O  O19  1  0.649075  0.033422  0.710982  1
  O  O20  1  0.033422  0.710982  0.649075  1
  O  O21  1  0.979013  0.284400  0.340673  1
  O  O22  1  0.340673  0.979012  0.284400  1
  O  O23  1  0.668782  0.991401  0.063381  1
  O  O24  1  0.377147  0.231992  0.602487  1
  O  O25  1  0.025685  0.940709  0.321488  1
  O  O26  1  0.231992  0.602487  0.377147  1
  O  O27  1  0.602487  0.377147  0.231992  1
  O  O28  1  0.710982  0.649075  0.033422  1
  O  O29  1  0.114216  0.326281  0.483507  1
  O  O30  1  0.940709  0.321488  0.025685  1
  O  O31  1  0.483507  0.114216  0.326281  1
  O  O32  1  0.326281  0.483507  0.114216  1
