# generated using pymatgen
data_ZrCoO3
_symmetry_space_group_name_H-M   'P 1'
_cell_length_a   5.02803624
_cell_length_b   5.40887548
_cell_length_c   8.39737126
_cell_angle_alpha   90.00000000
_cell_angle_beta   90.00000000
_cell_angle_gamma   90.00000000
_symmetry_Int_Tables_number   1
_chemical_formula_structural   ZrCoO3
_chemical_formula_sum   'Zr4 Co4 O12'
_cell_volume   228.37509323
_cell_formula_units_Z   4
loop_
 _symmetry_equiv_pos_site_id
 _symmetry_equiv_pos_as_xyz
  1  'x, y, z'
loop_
 _atom_site_type_symbol
 _atom_site_label
 _atom_site_symmetry_multiplicity
 _atom_site_fract_x
 _atom_site_fract_y
 _atom_site_fract_z
 _atom_site_occupancy
  Zr  Zr0  1  0.542932  0.430871  0.750000  1
  Zr  Zr1  1  0.957068  0.930871  0.750000  1
  Zr  Zr2  1  0.042932  0.069129  0.250000  1
  Zr  Zr3  1  0.457068  0.569129  0.250000  1
  Co  Co4  1  0.500000  0.000000  0.000000  1
  Co  Co5  1  0.500000  0.000000  0.500000  1
  Co  Co6  1  0.000000  0.500000  0.000000  1
  Co  Co7  1  0.000000  0.500000  0.500000  1
  O  O8  1  0.668828  0.914154  0.250000  1
  O  O9  1  0.695083  0.699525  0.590681  1
  O  O10  1  0.695083  0.699525  0.909319  1
  O  O11  1  0.804917  0.199525  0.909319  1
  O  O12  1  0.804917  0.199525  0.590681  1
  O  O13  1  0.831172  0.414154  0.250000  1
  O  O14  1  0.168828  0.585846  0.750000  1
  O  O15  1  0.195083  0.800475  0.409319  1
  O  O16  1  0.195083  0.800475  0.090681  1
  O  O17  1  0.304917  0.300475  0.090681  1
  O  O18  1  0.304917  0.300475  0.409319  1
  O  O19  1  0.331172  0.085846  0.750000  1
