# generated using pymatgen
data_LiFePO4
_symmetry_space_group_name_H-M   'P 1'
_cell_length_a   5.75725015
_cell_length_b   5.75725015
_cell_length_c   8.14199144
_cell_angle_alpha   90.00000000
_cell_angle_beta   90.00000000
_cell_angle_gamma   90.00000000
_symmetry_Int_Tables_number   1
_chemical_formula_structural   LiFePO4
_chemical_formula_sum   'Li4 Fe4 P4 O16'
_cell_volume   269.87387255
_cell_formula_units_Z   4
loop_
 _symmetry_equiv_pos_site_id
 _symmetry_equiv_pos_as_xyz
  1  'x, y, z'
loop_
 _atom_site_type_symbol
 _atom_site_label
 _atom_site_symmetry_multiplicity
 _atom_site_fract_x
 _atom_site_fract_y
 _atom_site_fract_z
 _atom_site_occupancy
  Li  Li0  1  0.000000  0.225760  0.000000  1
  Li  Li1  1  0.000000  0.774240  0.500000  1
  Li  Li2  1  0.225760  0.000000  0.250000  1
  Li  Li3  1  0.774240  0.000000  0.750000  1
  Fe  Fe4  1  0.238677  0.500000  0.250000  1
  Fe  Fe5  1  0.500000  0.238677  0.000000  1
  Fe  Fe6  1  0.500000  0.761323  0.500000  1
  Fe  Fe7  1  0.761323  0.500000  0.750000  1
  P  P8  1  0.249904  0.249904  0.625000  1
  P  P9  1  0.249904  0.750096  0.875000  1
  P  P10  1  0.750096  0.249904  0.375000  1
  P  P11  1  0.750096  0.750096  0.125000  1
  O  O12  1  0.971405  0.250753  0.264634  1
  O  O13  1  0.971405  0.749247  0.235366  1
  O  O14  1  0.250753  0.971405  0.985366  1
  O  O15  1  0.250753  0.028595  0.514634  1
  O  O16  1  0.252460  0.474866  0.512610  1
  O  O17  1  0.252460  0.525134  0.987390  1
  O  O18  1  0.525134  0.252460  0.262610  1
  O  O19  1  0.525134  0.747540  0.237390  1
  O  O20  1  0.474866  0.252460  0.737390  1
  O  O21  1  0.474866  0.747540  0.762610  1
  O  O22  1  0.747540  0.474866  0.487390  1
  O  O23  1  0.747540  0.525134  0.012610  1
  O  O24  1  0.749247  0.971405  0.014634  1
  O  O25  1  0.749247  0.028595  0.485366  1
  O  O26  1  0.028595  0.250753  0.735366  1
  O  O27  1  0.028595  0.749247  0.764634  1
