# generated using pymatgen
data_Fe2Ni3Sb(PO4)6
_symmetry_space_group_name_H-M   'P 1'
_cell_length_a   8.45525771
_cell_length_b   8.45525771
_cell_length_c   8.45525771
_cell_angle_alpha   61.73663954
_cell_angle_beta   61.73663954
_cell_angle_gamma   61.73663954
_symmetry_Int_Tables_number   1
_chemical_formula_structural   Fe2Ni3Sb(PO4)6
_chemical_formula_sum   'Fe2 Ni3 Sb1 P6 O24'
_cell_volume   444.06527609
_cell_formula_units_Z   1
loop_
 _symmetry_equiv_pos_site_id
 _symmetry_equiv_pos_as_xyz
  1  'x, y, z'
loop_
 _atom_site_type_symbol
 _atom_site_label
 _atom_site_symmetry_multiplicity
 _atom_site_fract_x
 _atom_site_fract_y
 _atom_site_fract_z
 _atom_site_occupancy
  Fe  Fe0  1  0.989958  0.989958  0.989958  1
  Fe  Fe1  1  0.500794  0.500794  0.500794  1
  Ni  Ni2  1  0.853984  0.853984  0.853984  1
  Ni  Ni3  1  0.643935  0.643935  0.643935  1
  Ni  Ni4  1  0.358030  0.358030  0.358030  1
  Sb  Sb5  1  0.142781  0.142781  0.142781  1
  P  P6  1  0.256925  0.546647  0.951973  1
  P  P7  1  0.745815  0.457930  0.049933  1
  P  P8  1  0.457930  0.049933  0.745815  1
  P  P9  1  0.049933  0.745815  0.457930  1
  P  P10  1  0.951973  0.256925  0.546647  1
  P  P11  1  0.546647  0.951973  0.256925  1
  O  O12  1  0.896561  0.682055  0.487298  1
  O  O13  1  0.682055  0.487298  0.896561  1
  O  O14  1  0.940329  0.097136  0.744922  1
  O  O15  1  0.487298  0.896561  0.682055  1
  O  O16  1  0.990037  0.180273  0.389698  1
  O  O17  1  0.749781  0.403239  0.557392  1
  O  O18  1  0.744922  0.940329  0.097136  1
  O  O19  1  0.557392  0.749781  0.403239  1
  O  O20  1  0.823064  0.604823  0.012296  1
  O  O21  1  0.403239  0.557392  0.749781  1
  O  O22  1  0.909672  0.247669  0.063400  1
  O  O23  1  0.604823  0.012296  0.823064  1
  O  O24  1  0.389698  0.990037  0.180273  1
  O  O25  1  0.097136  0.744922  0.940329  1
  O  O26  1  0.599399  0.435480  0.253858  1
  O  O27  1  0.180273  0.389698  0.990037  1
  O  O28  1  0.435480  0.253858  0.599399  1
  O  O29  1  0.247669  0.063400  0.909672  1
  O  O30  1  0.253858  0.599399  0.435480  1
  O  O31  1  0.012296  0.823064  0.604823  1
  O  O32  1  0.499621  0.105041  0.328248  1
  O  O33  1  0.063400  0.909672  0.247669  1
  O  O34  1  0.328248  0.499621  0.105041  1
  O  O35  1  0.105041  0.328248  0.499621  1
