# generated using pymatgen
data_Li3V4CuO12
_symmetry_space_group_name_H-M   'P 1'
_cell_length_a   6.86515808
_cell_length_b   6.86515808
_cell_length_c   5.86640360
_cell_angle_alpha   74.08733752
_cell_angle_beta   105.91266248
_cell_angle_gamma   96.71929469
_symmetry_Int_Tables_number   1
_chemical_formula_structural   Li3V4CuO12
_chemical_formula_sum   'Li3 V4 Cu1 O12'
_cell_volume   255.44068473
_cell_formula_units_Z   1
loop_
 _symmetry_equiv_pos_site_id
 _symmetry_equiv_pos_as_xyz
  1  'x, y, z'
loop_
 _atom_site_type_symbol
 _atom_site_label
 _atom_site_symmetry_multiplicity
 _atom_site_fract_x
 _atom_site_fract_y
 _atom_site_fract_z
 _atom_site_occupancy
  Li  Li0  1  0.904932  0.904932  0.000000  1
  Li  Li1  1  0.756684  0.756684  0.500000  1
  Li  Li2  1  0.243335  0.243335  0.000000  1
  V  V3  1  0.389678  0.799482  0.019815  1
  V  V4  1  0.200633  0.610926  0.518790  1
  V  V5  1  0.799482  0.389678  0.980185  1
  V  V6  1  0.610926  0.200633  0.481210  1
  Cu  Cu7  1  0.092333  0.092333  0.500000  1
  O  O8  1  0.216317  0.984212  0.900729  1
  O  O9  1  0.626468  0.901228  0.076354  1
  O  O10  1  0.018464  0.786522  0.409277  1
  O  O11  1  0.357839  0.640128  0.810359  1
  O  O12  1  0.901228  0.626468  0.923646  1
  O  O13  1  0.360807  0.639857  0.310688  1
  O  O14  1  0.640128  0.357838  0.189641  1
  O  O15  1  0.098762  0.371398  0.577915  1
  O  O16  1  0.639857  0.360807  0.689312  1
  O  O17  1  0.984212  0.216317  0.099271  1
  O  O18  1  0.371398  0.098762  0.422085  1
  O  O19  1  0.786522  0.018464  0.590723  1
