# generated using pymatgen
data_Cr2(WO4)3
_symmetry_space_group_name_H-M   'P 1'
_cell_length_a   9.68710204
_cell_length_b   9.68710204
_cell_length_c   9.68710204
_cell_angle_alpha   56.30012018
_cell_angle_beta   56.30012018
_cell_angle_gamma   56.30012018
_symmetry_Int_Tables_number   1
_chemical_formula_structural   Cr2(WO4)3
_chemical_formula_sum   'Cr4 W6 O24'
_cell_volume   587.76535668
_cell_formula_units_Z   2
loop_
 _symmetry_equiv_pos_site_id
 _symmetry_equiv_pos_as_xyz
  1  'x, y, z'
loop_
 _atom_site_type_symbol
 _atom_site_label
 _atom_site_symmetry_multiplicity
 _atom_site_fract_x
 _atom_site_fract_y
 _atom_site_fract_z
 _atom_site_occupancy
  Cr  Cr0  1  0.859488  0.859488  0.859488  1
  Cr  Cr1  1  0.646780  0.646780  0.646780  1
  Cr  Cr2  1  0.353220  0.353220  0.353220  1
  Cr  Cr3  1  0.140512  0.140512  0.140512  1
  W  W4  1  0.031325  0.465488  0.749718  1
  W  W5  1  0.534512  0.250282  0.968675  1
  W  W6  1  0.250282  0.968675  0.534512  1
  W  W7  1  0.749718  0.031325  0.465488  1
  W  W8  1  0.465488  0.749718  0.031325  1
  W  W9  1  0.968675  0.534512  0.250282  1
  O  O10  1  0.993720  0.637784  0.803126  1
  O  O11  1  0.115611  0.253217  0.906551  1
  O  O12  1  0.093449  0.884389  0.746783  1
  O  O13  1  0.362216  0.196874  0.006280  1
  O  O14  1  0.190099  0.481230  0.525566  1
  O  O15  1  0.489416  0.776962  0.818460  1
  O  O16  1  0.518770  0.474434  0.809901  1
  O  O17  1  0.223038  0.181540  0.510584  1
  O  O18  1  0.196874  0.006280  0.362216  1
  O  O19  1  0.746783  0.093449  0.884389  1
  O  O20  1  0.181540  0.510584  0.223038  1
  O  O21  1  0.474434  0.809901  0.518770  1
  O  O22  1  0.525566  0.190099  0.481230  1
  O  O23  1  0.818460  0.489416  0.776962  1
  O  O24  1  0.253217  0.906551  0.115611  1
  O  O25  1  0.803126  0.993720  0.637784  1
  O  O26  1  0.776962  0.818460  0.489416  1
  O  O27  1  0.481230  0.525566  0.190099  1
  O  O28  1  0.510584  0.223038  0.181540  1
  O  O29  1  0.809901  0.518770  0.474434  1
  O  O30  1  0.637784  0.803126  0.993720  1
  O  O31  1  0.906551  0.115611  0.253217  1
  O  O32  1  0.884389  0.746783  0.093449  1
  O  O33  1  0.006280  0.362216  0.196874  1
