# generated using pymatgen
data_Os(OF2)2
_symmetry_space_group_name_H-M   'P 1'
_cell_length_a   5.02116135
_cell_length_b   5.02116135
_cell_length_c   27.87245729
_cell_angle_alpha   90.00000000
_cell_angle_beta   90.00000000
_cell_angle_gamma   120.00000000
_symmetry_Int_Tables_number   1
_chemical_formula_structural   Os(OF2)2
_chemical_formula_sum   'Os6 O12 F24'
_cell_volume   608.57519163
_cell_formula_units_Z   6
loop_
 _symmetry_equiv_pos_site_id
 _symmetry_equiv_pos_as_xyz
  1  'x, y, z'
loop_
 _atom_site_type_symbol
 _atom_site_label
 _atom_site_symmetry_multiplicity
 _atom_site_fract_x
 _atom_site_fract_y
 _atom_site_fract_z
 _atom_site_occupancy
  Os  Os0  1  0.009671  0.465323  0.834684  1
  Os  Os1  1  0.455652  0.990329  0.501350  1
  Os  Os2  1  0.465323  0.455652  0.668017  1
  Os  Os3  1  0.534677  0.544348  0.168017  1
  Os  Os4  1  0.544348  0.009671  0.001350  1
  Os  Os5  1  0.990329  0.534677  0.334684  1
  O  O6  1  0.179800  0.736810  0.540160  1
  O  O7  1  0.256784  0.738813  0.795162  1
  O  O8  1  0.261187  0.517970  0.128496  1
  O  O9  1  0.263190  0.442990  0.873493  1
  O  O10  1  0.482030  0.743216  0.461829  1
  O  O11  1  0.557010  0.820200  0.206827  1
  O  O12  1  0.442990  0.179800  0.706827  1
  O  O13  1  0.517970  0.256784  0.961829  1
  O  O14  1  0.736810  0.557010  0.373493  1
  O  O15  1  0.738813  0.482030  0.628496  1
  O  O16  1  0.743216  0.261187  0.295162  1
  O  O17  1  0.820200  0.263190  0.040160  1
  F  F18  1  0.044207  0.864786  0.296175  1
  F  F19  1  0.216439  0.960890  0.039941  1
  F  F20  1  0.227201  0.661933  0.966310  1
  F  F21  1  0.329139  0.850608  0.371505  1
  F  F22  1  0.149392  0.478531  0.704838  1
  F  F23  1  0.039110  0.255549  0.373275  1
  F  F24  1  0.135214  0.179421  0.629508  1
  F  F25  1  0.434732  0.772799  0.632976  1
  F  F26  1  0.338067  0.565268  0.299643  1
  F  F27  1  0.255549  0.216439  0.206608  1
  F  F28  1  0.179421  0.044207  0.462841  1
  F  F29  1  0.521469  0.670861  0.038172  1
  F  F30  1  0.478531  0.329139  0.538172  1
  F  F31  1  0.820579  0.955793  0.962841  1
  F  F32  1  0.744451  0.783561  0.706608  1
  F  F33  1  0.661933  0.434732  0.799643  1
  F  F34  1  0.565268  0.227201  0.132976  1
  F  F35  1  0.864786  0.820579  0.129508  1
  F  F36  1  0.960890  0.744451  0.873275  1
  F  F37  1  0.850608  0.521469  0.204838  1
  F  F38  1  0.670861  0.149392  0.871505  1
  F  F39  1  0.772799  0.338067  0.466310  1
  F  F40  1  0.783561  0.039110  0.539941  1
  F  F41  1  0.955793  0.135214  0.796175  1
