# generated using pymatgen
data_Sm4U2O11
_symmetry_space_group_name_H-M   'P 1'
_cell_length_a   6.79122506
_cell_length_b   6.79122506
_cell_length_c   7.59996335
_cell_angle_alpha   73.94109360
_cell_angle_beta   106.05890640
_cell_angle_gamma   132.28352019
_symmetry_Int_Tables_number   1
_chemical_formula_structural   Sm4U2O11
_chemical_formula_sum   'Sm4 U2 O11'
_cell_volume   247.17329804
_cell_formula_units_Z   1
loop_
 _symmetry_equiv_pos_site_id
 _symmetry_equiv_pos_as_xyz
  1  'x, y, z'
loop_
 _atom_site_type_symbol
 _atom_site_label
 _atom_site_symmetry_multiplicity
 _atom_site_fract_x
 _atom_site_fract_y
 _atom_site_fract_z
 _atom_site_occupancy
  Sm  Sm0  1  0.960582  0.319391  0.412704  1
  Sm  Sm1  1  0.689607  0.687917  0.238594  1
  Sm  Sm2  1  0.687917  0.689607  0.761406  1
  Sm  Sm3  1  0.319391  0.960582  0.587296  1
  U  U4  1  0.019855  0.340148  0.925629  1
  U  U5  1  0.340148  0.019855  0.074371  1
  O  O6  1  0.915909  0.915909  0.500000  1
  O  O7  1  0.765647  0.108597  0.697333  1
  O  O8  1  0.718750  0.083114  0.141362  1
  O  O9  1  0.945447  0.945447  0.000000  1
  O  O10  1  0.242239  0.537465  0.175129  1
  O  O11  1  0.410538  0.410538  0.000000  1
  O  O12  1  0.574831  0.263291  0.339350  1
  O  O13  1  0.537465  0.242239  0.824871  1
  O  O14  1  0.263291  0.574831  0.660650  1
  O  O15  1  0.108597  0.765647  0.302667  1
  O  O16  1  0.083114  0.718750  0.858638  1
