# generated using pymatgen
data_V(SiO3)2
_symmetry_space_group_name_H-M   'P 1'
_cell_length_a   7.04401285
_cell_length_b   7.27716677
_cell_length_c   7.54204034
_cell_angle_alpha   78.98567915
_cell_angle_beta   64.10885824
_cell_angle_gamma   76.00520654
_symmetry_Int_Tables_number   1
_chemical_formula_structural   V(SiO3)2
_chemical_formula_sum   'V3 Si6 O18'
_cell_volume   335.85814968
_cell_formula_units_Z   3
loop_
 _symmetry_equiv_pos_site_id
 _symmetry_equiv_pos_as_xyz
  1  'x, y, z'
loop_
 _atom_site_type_symbol
 _atom_site_label
 _atom_site_symmetry_multiplicity
 _atom_site_fract_x
 _atom_site_fract_y
 _atom_site_fract_z
 _atom_site_occupancy
  V  V0  1  0.058502  0.775705  0.739501  1
  V  V1  1  0.000000  0.500000  0.500000  1
  V  V2  1  0.941498  0.224295  0.260499  1
  Si  Si3  1  0.314408  0.832551  0.256829  1
  Si  Si4  1  0.755167  0.842106  0.281666  1
  Si  Si5  1  0.186763  0.614040  0.044904  1
  Si  Si6  1  0.813237  0.385960  0.955096  1
  Si  Si7  1  0.244833  0.157894  0.718334  1
  Si  Si8  1  0.685592  0.167449  0.743171  1
  O  O9  1  0.240328  0.954565  0.667418  1
  O  O10  1  0.817144  0.954585  0.770059  1
  O  O11  1  0.541965  0.843192  0.250893  1
  O  O12  1  0.162931  0.716846  0.466290  1
  O  O13  1  0.355944  0.708285  0.078476  1
  O  O14  1  0.965639  0.780932  0.069684  1
  O  O15  1  0.790750  0.677362  0.450805  1
  O  O16  1  0.877615  0.563859  0.784755  1
  O  O17  1  0.751298  0.417817  0.182253  1
  O  O18  1  0.248702  0.582183  0.817747  1
  O  O19  1  0.122385  0.436141  0.215245  1
  O  O20  1  0.209250  0.322638  0.549195  1
  O  O21  1  0.034361  0.219068  0.930316  1
  O  O22  1  0.644056  0.291715  0.921524  1
  O  O23  1  0.837069  0.283154  0.533710  1
  O  O24  1  0.458035  0.156808  0.749107  1
  O  O25  1  0.182856  0.045415  0.229941  1
  O  O26  1  0.759672  0.045435  0.332582  1
