# generated using pymatgen
data_LiFe2(BO3)2
_symmetry_space_group_name_H-M   'P 1'
_cell_length_a   5.27569245
_cell_length_b   9.11362110
_cell_length_c   11.35906988
_cell_angle_alpha   113.53310537
_cell_angle_beta   103.05837848
_cell_angle_gamma   89.73799027
_symmetry_Int_Tables_number   1
_chemical_formula_structural   LiFe2(BO3)2
_chemical_formula_sum   'Li4 Fe8 B8 O24'
_cell_volume   485.53153359
_cell_formula_units_Z   4
loop_
 _symmetry_equiv_pos_site_id
 _symmetry_equiv_pos_as_xyz
  1  'x, y, z'
loop_
 _atom_site_type_symbol
 _atom_site_label
 _atom_site_symmetry_multiplicity
 _atom_site_fract_x
 _atom_site_fract_y
 _atom_site_fract_z
 _atom_site_occupancy
  Li  Li0  1  0.832256  0.183591  0.346332  1
  Li  Li1  1  0.393886  0.049025  0.103620  1
  Li  Li2  1  0.071151  0.410181  0.838750  1
  Li  Li3  1  0.570459  0.905066  0.834359  1
  Fe  Fe4  1  0.600579  0.588229  0.868963  1
  Fe  Fe5  1  0.905142  0.885395  0.121623  1
  Fe  Fe6  1  0.157200  0.477667  0.614102  1
  Fe  Fe7  1  0.342808  0.021834  0.375492  1
  Fe  Fe8  1  0.654456  0.977323  0.618142  1
  Fe  Fe9  1  0.852551  0.533840  0.366798  1
  Fe  Fe10  1  0.091618  0.095202  0.872794  1
  Fe  Fe11  1  0.397732  0.404007  0.128210  1
  B  B12  1  0.352375  0.345941  0.364266  1
  B  B13  1  0.105172  0.769315  0.875433  1
  B  B14  1  0.854858  0.857635  0.371064  1
  B  B15  1  0.594664  0.265508  0.874648  1
  B  B16  1  0.152418  0.147365  0.629138  1
  B  B17  1  0.398030  0.729040  0.117305  1
  B  B18  1  0.658480  0.642578  0.623146  1
  B  B19  1  0.897225  0.226064  0.123936  1
  O  O20  1  0.869619  0.789840  0.916062  1
  O  O21  1  0.525990  0.539787  0.657444  1
  O  O22  1  0.787765  0.092803  0.132663  1
  O  O23  1  0.477639  0.211586  0.355405  1
  O  O24  1  0.121918  0.370854  0.411572  1
  O  O25  1  0.186379  0.615383  0.823629  1
  O  O26  1  0.731832  0.385844  0.867275  1
  O  O27  1  0.935085  0.965652  0.319174  1
  O  O28  1  0.282323  0.875655  0.154483  1
  O  O29  1  0.368409  0.097728  0.580124  1
  O  O30  1  0.066139  0.293492  0.641173  1
  O  O31  1  0.623893  0.727017  0.074097  1
  O  O32  1  0.362173  0.291269  0.919660  1
  O  O33  1  0.642536  0.900831  0.428376  1
  O  O34  1  0.680381  0.110154  0.834099  1
  O  O35  1  0.023839  0.049939  0.669890  1
  O  O36  1  0.287448  0.595916  0.117161  1
  O  O37  1  0.770191  0.363360  0.152837  1
  O  O38  1  0.873436  0.594968  0.572311  1
  O  O39  1  0.579610  0.793460  0.647769  1
  O  O40  1  0.978865  0.729101  0.363114  1
  O  O41  1  0.255303  0.903897  0.893074  1
  O  O42  1  0.445194  0.455219  0.322425  1
  O  O43  1  0.137225  0.218211  0.089183  1
