# generated using pymatgen
data_Li4V3CrO8
_symmetry_space_group_name_H-M   'P 1'
_cell_length_a   5.17035819
_cell_length_b   7.91002186
_cell_length_c   7.91484499
_cell_angle_alpha   81.97444144
_cell_angle_beta   83.75237422
_cell_angle_gamma   70.96499892
_symmetry_Int_Tables_number   1
_chemical_formula_structural   Li4V3CrO8
_chemical_formula_sum   'Li8 V6 Cr2 O16'
_cell_volume   302.30815002
_cell_formula_units_Z   2
loop_
 _symmetry_equiv_pos_site_id
 _symmetry_equiv_pos_as_xyz
  1  'x, y, z'
loop_
 _atom_site_type_symbol
 _atom_site_label
 _atom_site_symmetry_multiplicity
 _atom_site_fract_x
 _atom_site_fract_y
 _atom_site_fract_z
 _atom_site_occupancy
  Li  Li0  1  0.999634  0.686626  0.937868  1
  Li  Li1  1  0.002321  0.435572  0.687481  1
  Li  Li2  1  0.997679  0.564428  0.312519  1
  Li  Li3  1  0.999709  0.063110  0.809947  1
  Li  Li4  1  0.002048  0.185315  0.439004  1
  Li  Li5  1  0.000366  0.313374  0.062132  1
  Li  Li6  1  0.997952  0.814685  0.560996  1
  Li  Li7  1  0.000291  0.936890  0.190053  1
  V  V8  1  0.500083  0.374993  0.874711  1
  V  V9  1  0.500000  0.500000  0.500000  1
  V  V10  1  0.499917  0.625007  0.125289  1
  V  V11  1  0.498813  0.250794  0.249834  1
  V  V12  1  0.501187  0.749206  0.750166  1
  V  V13  1  0.500000  0.000000  0.000000  1
  Cr  Cr14  1  0.500330  0.124010  0.623988  1
  Cr  Cr15  1  0.499670  0.875990  0.376012  1
  O  O16  1  0.733135  0.533142  0.908143  1
  O  O17  1  0.270387  0.589056  0.717887  1
  O  O18  1  0.726954  0.663225  0.532111  1
  O  O19  1  0.274155  0.212332  0.841002  1
  O  O20  1  0.726688  0.284698  0.655755  1
  O  O21  1  0.729613  0.410944  0.282113  1
  O  O22  1  0.273046  0.336775  0.467889  1
  O  O23  1  0.726818  0.911051  0.780212  1
  O  O24  1  0.725663  0.035146  0.408502  1
  O  O25  1  0.266865  0.466858  0.091857  1
  O  O26  1  0.274337  0.964854  0.591498  1
  O  O27  1  0.729532  0.161050  0.032011  1
  O  O28  1  0.273182  0.088949  0.219788  1
  O  O29  1  0.725845  0.787668  0.158998  1
  O  O30  1  0.273312  0.715302  0.344245  1
  O  O31  1  0.270468  0.838950  0.967989  1
