# generated using pymatgen
data_Ba3Sn2O7
_symmetry_space_group_name_H-M   'P 1'
_cell_length_a   11.27634871
_cell_length_b   11.27634871
_cell_length_c   5.94049581
_cell_angle_alpha   90.00000000
_cell_angle_beta   90.00000000
_cell_angle_gamma   149.39540267
_symmetry_Int_Tables_number   1
_chemical_formula_structural   Ba3Sn2O7
_chemical_formula_sum   'Ba6 Sn4 O14'
_cell_volume   384.56674404
_cell_formula_units_Z   2
loop_
 _symmetry_equiv_pos_site_id
 _symmetry_equiv_pos_as_xyz
  1  'x, y, z'
loop_
 _atom_site_type_symbol
 _atom_site_label
 _atom_site_symmetry_multiplicity
 _atom_site_fract_x
 _atom_site_fract_y
 _atom_site_fract_z
 _atom_site_occupancy
  Ba  Ba0  1  0.431922  0.062088  0.750000  1
  Ba  Ba1  1  0.937912  0.568078  0.250000  1
  Ba  Ba2  1  0.568078  0.937912  0.250000  1
  Ba  Ba3  1  0.062088  0.431922  0.750000  1
  Ba  Ba4  1  0.748887  0.748887  0.250000  1
  Ba  Ba5  1  0.251113  0.251113  0.750000  1
  Sn  Sn6  1  0.346152  0.153615  0.250000  1
  Sn  Sn7  1  0.846385  0.653848  0.750000  1
  Sn  Sn8  1  0.653848  0.846385  0.750000  1
  Sn  Sn9  1  0.153615  0.346152  0.250000  1
  O  O10  1  0.091554  0.908446  0.500000  1
  O  O11  1  0.091554  0.908446  0.000000  1
  O  O12  1  0.599215  0.400785  0.000000  1
  O  O13  1  0.599215  0.400785  0.500000  1
  O  O14  1  0.425760  0.042140  0.250000  1
  O  O15  1  0.957860  0.574240  0.750000  1
  O  O16  1  0.042140  0.425760  0.250000  1
  O  O17  1  0.574240  0.957860  0.750000  1
  O  O18  1  0.400785  0.599215  0.500000  1
  O  O19  1  0.400785  0.599215  0.000000  1
  O  O20  1  0.908446  0.091554  0.000000  1
  O  O21  1  0.908446  0.091554  0.500000  1
  O  O22  1  0.727369  0.727369  0.750000  1
  O  O23  1  0.272631  0.272631  0.250000  1
