# generated using pymatgen
data_Sm2Ge2O7
_symmetry_space_group_name_H-M   'P 1'
_cell_length_a   6.93726096
_cell_length_b   6.95693784
_cell_length_c   12.58647148
_cell_angle_alpha   93.80639140
_cell_angle_beta   91.58688290
_cell_angle_gamma   91.82011171
_symmetry_Int_Tables_number   1
_chemical_formula_structural   Sm2Ge2O7
_chemical_formula_sum   'Sm8 Ge8 O28'
_cell_volume   605.53313423
_cell_formula_units_Z   4
loop_
 _symmetry_equiv_pos_site_id
 _symmetry_equiv_pos_as_xyz
  1  'x, y, z'
loop_
 _atom_site_type_symbol
 _atom_site_label
 _atom_site_symmetry_multiplicity
 _atom_site_fract_x
 _atom_site_fract_y
 _atom_site_fract_z
 _atom_site_occupancy
  Sm  Sm0  1  0.679841  0.168420  0.886673  1
  Sm  Sm1  1  0.948146  0.670628  0.886191  1
  Sm  Sm2  1  0.366857  0.236716  0.628579  1
  Sm  Sm3  1  0.884278  0.917737  0.641598  1
  Sm  Sm4  1  0.115722  0.082263  0.358402  1
  Sm  Sm5  1  0.633143  0.763284  0.371421  1
  Sm  Sm6  1  0.051854  0.329372  0.113809  1
  Sm  Sm7  1  0.320159  0.831580  0.113327  1
  Ge  Ge8  1  0.163722  0.148206  0.883648  1
  Ge  Ge9  1  0.486591  0.670067  0.833207  1
  Ge  Ge10  1  0.854590  0.383908  0.619155  1
  Ge  Ge11  1  0.381232  0.735567  0.599483  1
  Ge  Ge12  1  0.618768  0.264433  0.400517  1
  Ge  Ge13  1  0.145410  0.616092  0.380845  1
  Ge  Ge14  1  0.513409  0.329933  0.166793  1
  Ge  Ge15  1  0.836278  0.851794  0.116352  1
  O  O16  1  0.753115  0.900805  0.988349  1
  O  O17  1  0.996318  0.334309  0.919051  1
  O  O18  1  0.292993  0.719254  0.915655  1
  O  O19  1  0.651948  0.506844  0.878991  1
  O  O20  1  0.360632  0.212296  0.809665  1
  O  O21  1  0.991895  0.984519  0.816500  1
  O  O22  1  0.618381  0.865881  0.783461  1
  O  O23  1  0.392424  0.565262  0.699978  1
  O  O24  1  0.707207  0.215711  0.685650  1
  O  O25  1  0.930687  0.596745  0.691792  1
  O  O26  1  0.224201  0.922097  0.622927  1
  O  O27  1  0.036320  0.226319  0.573559  1
  O  O28  1  0.593785  0.838792  0.551748  1
  O  O29  1  0.701705  0.440392  0.506894  1
  O  O30  1  0.298295  0.559608  0.493106  1
  O  O31  1  0.406215  0.161208  0.448252  1
  O  O32  1  0.963680  0.773681  0.426441  1
  O  O33  1  0.775799  0.077903  0.377073  1
  O  O34  1  0.069313  0.403255  0.308208  1
  O  O35  1  0.292793  0.784289  0.314350  1
  O  O36  1  0.607576  0.434738  0.300022  1
  O  O37  1  0.381619  0.134119  0.216539  1
  O  O38  1  0.008105  0.015481  0.183500  1
  O  O39  1  0.639368  0.787704  0.190335  1
  O  O40  1  0.348052  0.493156  0.121009  1
  O  O41  1  0.707007  0.280746  0.084345  1
  O  O42  1  0.003682  0.665691  0.080949  1
  O  O43  1  0.246885  0.099195  0.011651  1
