# generated using pymatgen
data_V3O5F
_symmetry_space_group_name_H-M   'P 1'
_cell_length_a   5.52305269
_cell_length_b   5.54126518
_cell_length_c   7.09795388
_cell_angle_alpha   72.68521903
_cell_angle_beta   72.55067144
_cell_angle_gamma   74.68903575
_symmetry_Int_Tables_number   1
_chemical_formula_structural   V3O5F
_chemical_formula_sum   'V6 O10 F2'
_cell_volume   194.16463737
_cell_formula_units_Z   2
loop_
 _symmetry_equiv_pos_site_id
 _symmetry_equiv_pos_as_xyz
  1  'x, y, z'
loop_
 _atom_site_type_symbol
 _atom_site_label
 _atom_site_symmetry_multiplicity
 _atom_site_fract_x
 _atom_site_fract_y
 _atom_site_fract_z
 _atom_site_occupancy
  V  V0  1  0.351318  0.346079  0.151160  1
  V  V1  1  0.626475  0.707987  0.334223  1
  V  V2  1  0.373525  0.292013  0.665777  1
  V  V3  1  0.648682  0.653921  0.848840  1
  V  V4  1  0.000000  0.000000  0.500000  1
  V  V5  1  0.000000  0.000000  0.000000  1
  O  O6  1  0.363491  0.981496  0.327326  1
  O  O7  1  0.766729  0.761236  0.040899  1
  O  O8  1  0.435685  0.439597  0.369075  1
  O  O9  1  0.103633  0.103824  0.701922  1
  O  O10  1  0.896367  0.896176  0.298078  1
  O  O11  1  0.233271  0.238764  0.959101  1
  O  O12  1  0.564315  0.560403  0.630925  1
  O  O13  1  0.295012  0.710025  0.999002  1
  O  O14  1  0.636509  0.018504  0.672674  1
  O  O15  1  0.704988  0.289975  0.000998  1
  F  F16  1  0.026515  0.627456  0.674834  1
  F  F17  1  0.973485  0.372544  0.325166  1
