# generated using pymatgen
data_Li2VF6
_symmetry_space_group_name_H-M   'P 1'
_cell_length_a   8.58034309
_cell_length_b   8.69196209
_cell_length_c   10.25787945
_cell_angle_alpha   85.85522051
_cell_angle_beta   84.81389127
_cell_angle_gamma   61.67895555
_symmetry_Int_Tables_number   1
_chemical_formula_structural   Li2VF6
_chemical_formula_sum   'Li12 V6 F36'
_cell_volume   670.32680234
_cell_formula_units_Z   6
loop_
 _symmetry_equiv_pos_site_id
 _symmetry_equiv_pos_as_xyz
  1  'x, y, z'
loop_
 _atom_site_type_symbol
 _atom_site_label
 _atom_site_symmetry_multiplicity
 _atom_site_fract_x
 _atom_site_fract_y
 _atom_site_fract_z
 _atom_site_occupancy
  Li  Li0  1  0.304806  0.984927  0.725303  1
  Li  Li1  1  0.945411  0.654915  0.434018  1
  Li  Li2  1  0.874123  0.457260  0.958195  1
  Li  Li3  1  0.201882  0.803093  0.247389  1
  Li  Li4  1  0.997756  0.727995  0.773428  1
  Li  Li5  1  0.668268  0.379822  0.469142  1
  Li  Li6  1  0.623606  0.336891  0.024984  1
  Li  Li7  1  0.122422  0.562638  0.045410  1
  Li  Li8  1  0.550977  0.098230  0.548678  1
  Li  Li9  1  0.053295  0.343185  0.569886  1
  Li  Li10  1  0.707167  0.003808  0.269659  1
  Li  Li11  1  0.356519  0.045326  0.061355  1
  V  V12  1  0.002314  0.002055  0.498949  1
  V  V13  1  0.662250  0.661417  0.711539  1
  V  V14  1  0.989292  0.007302  0.995516  1
  V  V15  1  0.665349  0.664827  0.206716  1
  V  V16  1  0.336478  0.333023  0.793853  1
  V  V17  1  0.338421  0.335518  0.294014  1
  F  F18  1  0.925075  0.921771  0.649705  1
  F  F19  1  0.927856  0.932482  0.161871  1
  F  F20  1  0.572635  0.889270  0.628246  1
  F  F21  1  0.582238  0.884816  0.119718  1
  F  F22  1  0.774259  0.726922  0.827458  1
  F  F23  1  0.751003  0.764507  0.329465  1
  F  F24  1  0.212480  0.940338  0.575102  1
  F  F25  1  0.892602  0.582084  0.605504  1
  F  F26  1  0.446312  0.753266  0.806764  1
  F  F27  1  0.213867  0.929672  0.072333  1
  F  F28  1  0.889642  0.583911  0.109486  1
  F  F29  1  0.441893  0.746221  0.289262  1
  F  F30  1  0.594990  0.574899  0.583883  1
  F  F31  1  0.060139  0.775235  0.937296  1
  F  F32  1  0.753644  0.447599  0.810081  1
  F  F33  1  0.610250  0.559790  0.075444  1
  F  F34  1  0.078728  0.777572  0.424041  1
  F  F35  1  0.749923  0.462203  0.310743  1
  F  F36  1  0.234582  0.542321  0.703723  1
  F  F37  1  0.908218  0.238595  0.549407  1
  F  F38  1  0.414174  0.411740  0.926736  1
  F  F39  1  0.242018  0.559554  0.200219  1
  F  F40  1  0.908155  0.238813  0.049529  1
  F  F41  1  0.434398  0.408850  0.412607  1
  F  F42  1  0.546891  0.248430  0.688325  1
  F  F43  1  0.108705  0.429069  0.897448  1
  F  F44  1  0.761665  0.086546  0.949560  1
  F  F45  1  0.560256  0.245230  0.192081  1
  F  F46  1  0.120347  0.415651  0.398988  1
  F  F47  1  0.761786  0.082356  0.437829  1
  F  F48  1  0.258345  0.230824  0.664902  1
  F  F49  1  0.254717  0.259133  0.167206  1
  F  F50  1  0.392516  0.123286  0.885262  1
  F  F51  1  0.434520  0.116595  0.384434  1
  F  F52  1  0.088765  0.054665  0.843367  1
  F  F53  1  0.076170  0.056515  0.340538  1
