# generated using pymatgen
data_Mn3CrSn2(PO4)6
_symmetry_space_group_name_H-M   'P 1'
_cell_length_a   8.59513980
_cell_length_b   8.59513980
_cell_length_c   8.59513980
_cell_angle_alpha   61.53151396
_cell_angle_beta   61.53151396
_cell_angle_gamma   61.53151396
_symmetry_Int_Tables_number   1
_chemical_formula_structural   Mn3CrSn2(PO4)6
_chemical_formula_sum   'Mn3 Cr1 Sn2 P6 O24'
_cell_volume   464.42988420
_cell_formula_units_Z   1
loop_
 _symmetry_equiv_pos_site_id
 _symmetry_equiv_pos_as_xyz
  1  'x, y, z'
loop_
 _atom_site_type_symbol
 _atom_site_label
 _atom_site_symmetry_multiplicity
 _atom_site_fract_x
 _atom_site_fract_y
 _atom_site_fract_z
 _atom_site_occupancy
  Mn  Mn0  1  0.848080  0.848080  0.848080  1
  Mn  Mn1  1  0.653190  0.653190  0.653190  1
  Mn  Mn2  1  0.349565  0.349565  0.349565  1
  Cr  Cr3  1  0.145496  0.145496  0.145496  1
  Sn  Sn4  1  0.997705  0.997705  0.997705  1
  Sn  Sn5  1  0.500790  0.500790  0.500790  1
  P  P6  1  0.249486  0.545242  0.952640  1
  P  P7  1  0.751312  0.446071  0.055583  1
  P  P8  1  0.446071  0.055583  0.751312  1
  P  P9  1  0.055583  0.751312  0.446071  1
  P  P10  1  0.952640  0.249486  0.545242  1
  P  P11  1  0.545242  0.952640  0.249486  1
  O  O12  1  0.909342  0.682701  0.475266  1
  O  O13  1  0.682701  0.475266  0.909342  1
  O  O14  1  0.933732  0.094899  0.748343  1
  O  O15  1  0.475266  0.909342  0.682701  1
  O  O16  1  0.000208  0.175961  0.393476  1
  O  O17  1  0.749191  0.398385  0.562958  1
  O  O18  1  0.748343  0.933732  0.094899  1
  O  O19  1  0.562958  0.749191  0.398385  1
  O  O20  1  0.821607  0.595680  0.017602  1
  O  O21  1  0.398385  0.562958  0.749191  1
  O  O22  1  0.909270  0.242813  0.074995  1
  O  O23  1  0.595680  0.017602  0.821607  1
  O  O24  1  0.393476  0.000208  0.175961  1
  O  O25  1  0.094899  0.748343  0.933732  1
  O  O26  1  0.601395  0.423792  0.258925  1
  O  O27  1  0.175961  0.393476  0.000208  1
  O  O28  1  0.423792  0.258925  0.601395  1
  O  O29  1  0.242813  0.074995  0.909270  1
  O  O30  1  0.258925  0.601395  0.423792  1
  O  O31  1  0.017602  0.821607  0.595680  1
  O  O32  1  0.514446  0.096030  0.323818  1
  O  O33  1  0.074995  0.909270  0.242813  1
  O  O34  1  0.323818  0.514446  0.096030  1
  O  O35  1  0.096030  0.323818  0.514446  1
