# generated using pymatgen
data_Mn7Fe(PO4)12
_symmetry_space_group_name_H-M   'P 1'
_cell_length_a   8.50179123
_cell_length_b   8.50277480
_cell_length_c   11.84341122
_cell_angle_alpha   90.00256550
_cell_angle_beta   90.00116384
_cell_angle_gamma   90.00558677
_symmetry_Int_Tables_number   1
_chemical_formula_structural   Mn7Fe(PO4)12
_chemical_formula_sum   'Mn7 Fe1 P12 O48'
_cell_volume   856.14617260
_cell_formula_units_Z   1
loop_
 _symmetry_equiv_pos_site_id
 _symmetry_equiv_pos_as_xyz
  1  'x, y, z'
loop_
 _atom_site_type_symbol
 _atom_site_label
 _atom_site_symmetry_multiplicity
 _atom_site_fract_x
 _atom_site_fract_y
 _atom_site_fract_z
 _atom_site_occupancy
  Mn  Mn0  1  0.965050  0.249977  0.382700  1
  Mn  Mn1  1  0.535095  0.250629  0.617976  1
  Mn  Mn2  1  0.035421  0.249800  0.882394  1
  Mn  Mn3  1  0.464514  0.249975  0.117348  1
  Mn  Mn4  1  0.535794  0.750476  0.882142  1
  Mn  Mn5  1  0.964592  0.750171  0.117522  1
  Mn  Mn6  1  0.036042  0.749287  0.617813  1
  Fe  Fe7  1  0.463428  0.749919  0.381562  1
  P  P8  1  0.249693  0.038772  0.500924  1
  P  P9  1  0.750046  0.462997  0.999908  1
  P  P10  1  0.249986  0.537231  0.000012  1
  P  P11  1  0.751676  0.963719  0.500270  1
  P  P12  1  0.391907  0.107004  0.854516  1
  P  P13  1  0.107929  0.106885  0.145408  1
  P  P14  1  0.608023  0.391143  0.354304  1
  P  P15  1  0.892184  0.392808  0.645605  1
  P  P16  1  0.106550  0.607191  0.353598  1
  P  P17  1  0.391480  0.605927  0.646456  1
  P  P18  1  0.608089  0.893559  0.144005  1
  P  P19  1  0.892043  0.893013  0.854454  1
  O  O20  1  0.640888  0.058944  0.576597  1
  O  O21  1  0.859918  0.060335  0.423262  1
  O  O22  1  0.900765  0.074430  0.840911  1
  O  O23  1  0.600973  0.075189  0.157814  1
  O  O24  1  0.158646  0.148764  0.419491  1
  O  O25  1  0.340168  0.147429  0.582847  1
  O  O26  1  0.437845  0.159009  0.973200  1
  O  O27  1  0.061627  0.158993  0.026823  1
  O  O28  1  0.222732  0.153327  0.823431  1
  O  O29  1  0.277142  0.153343  0.176412  1
  O  O30  1  0.514032  0.179066  0.772574  1
  O  O31  1  0.986572  0.178806  0.227727  1
  O  O32  1  0.014103  0.321150  0.727801  1
  O  O33  1  0.485745  0.318352  0.272875  1
  O  O34  1  0.777919  0.344823  0.323157  1
  O  O35  1  0.723080  0.346306  0.676803  1
  O  O36  1  0.562320  0.339942  0.473327  1
  O  O37  1  0.938090  0.340886  0.526905  1
  O  O38  1  0.840629  0.353431  0.918577  1
  O  O39  1  0.659268  0.353791  0.081423  1
  O  O40  1  0.098009  0.425473  0.341005  1
  O  O41  1  0.400075  0.424491  0.660130  1
  O  O42  1  0.140600  0.441163  0.923512  1
  O  O43  1  0.359454  0.441268  0.076550  1
  O  O44  1  0.640613  0.558886  0.923445  1
  O  O45  1  0.859500  0.558871  0.076302  1
  O  O46  1  0.603489  0.570264  0.340209  1
  O  O47  1  0.900718  0.574280  0.658588  1
  O  O48  1  0.340592  0.646852  0.918673  1
  O  O49  1  0.159217  0.646181  0.081615  1
  O  O50  1  0.061811  0.659184  0.473053  1
  O  O51  1  0.437981  0.657640  0.529509  1
  O  O52  1  0.222223  0.653240  0.677609  1
  O  O53  1  0.273297  0.652102  0.321958  1
  O  O54  1  0.513907  0.678258  0.728563  1
  O  O55  1  0.983700  0.679823  0.272410  1
  O  O56  1  0.014059  0.821023  0.772343  1
  O  O57  1  0.487323  0.822072  0.224032  1
  O  O58  1  0.723017  0.846518  0.823066  1
  O  O59  1  0.777280  0.846929  0.176107  1
  O  O60  1  0.562786  0.841298  0.025184  1
  O  O61  1  0.938212  0.840967  0.972981  1
  O  O62  1  0.662712  0.854744  0.420167  1
  O  O63  1  0.841492  0.854199  0.582153  1
  O  O64  1  0.099194  0.925696  0.158707  1
  O  O65  1  0.400827  0.925724  0.840871  1
  O  O66  1  0.140303  0.941590  0.577069  1
  O  O67  1  0.355591  0.944464  0.423314  1
