# generated using pymatgen
data_Na2Ge2O5
_symmetry_space_group_name_H-M   'P 1'
_cell_length_a   8.51221191
_cell_length_b   5.05538945
_cell_length_c   12.70778921
_cell_angle_alpha   90.00000000
_cell_angle_beta   103.50135909
_cell_angle_gamma   90.00000000
_symmetry_Int_Tables_number   1
_chemical_formula_structural   Na2Ge2O5
_chemical_formula_sum   'Na8 Ge8 O20'
_cell_volume   531.73603071
_cell_formula_units_Z   4
loop_
 _symmetry_equiv_pos_site_id
 _symmetry_equiv_pos_as_xyz
  1  'x, y, z'
loop_
 _atom_site_type_symbol
 _atom_site_label
 _atom_site_symmetry_multiplicity
 _atom_site_fract_x
 _atom_site_fract_y
 _atom_site_fract_z
 _atom_site_occupancy
  Na  Na0  1  0.139790  0.718281  0.973503  1
  Na  Na1  1  0.380892  0.258174  0.946384  1
  Na  Na2  1  0.619108  0.758174  0.553616  1
  Na  Na3  1  0.139790  0.781719  0.473503  1
  Na  Na4  1  0.860210  0.218281  0.526497  1
  Na  Na5  1  0.380892  0.241826  0.446384  1
  Na  Na6  1  0.619108  0.741826  0.053616  1
  Na  Na7  1  0.860210  0.281719  0.026497  1
  Ge  Ge8  1  0.400760  0.796478  0.777389  1
  Ge  Ge9  1  0.022401  0.681654  0.677686  1
  Ge  Ge10  1  0.977599  0.181654  0.822314  1
  Ge  Ge11  1  0.599240  0.296478  0.722611  1
  Ge  Ge12  1  0.400760  0.703522  0.277389  1
  Ge  Ge13  1  0.022401  0.818346  0.177686  1
  Ge  Ge14  1  0.977599  0.318346  0.322314  1
  Ge  Ge15  1  0.599240  0.203522  0.222611  1
  O  O16  1  0.106007  0.252750  0.945011  1
  O  O17  1  0.388232  0.722296  0.907936  1
  O  O18  1  0.011579  0.330802  0.701944  1
  O  O19  1  0.441462  0.148032  0.775149  1
  O  O20  1  0.773678  0.246108  0.832172  1
  O  O21  1  0.226322  0.746108  0.667828  1
  O  O22  1  0.558538  0.648032  0.724851  1
  O  O23  1  0.988421  0.830802  0.798056  1
  O  O24  1  0.611768  0.222296  0.592064  1
  O  O25  1  0.106007  0.247250  0.445011  1
  O  O26  1  0.893993  0.752750  0.554989  1
  O  O27  1  0.388232  0.777704  0.407936  1
  O  O28  1  0.011579  0.169198  0.201944  1
  O  O29  1  0.441462  0.351968  0.275149  1
  O  O30  1  0.773678  0.253892  0.332172  1
  O  O31  1  0.226322  0.753892  0.167828  1
  O  O32  1  0.558538  0.851968  0.224851  1
  O  O33  1  0.988421  0.669198  0.298056  1
  O  O34  1  0.611768  0.277704  0.092064  1
  O  O35  1  0.893993  0.747250  0.054989  1
