# generated using pymatgen
data_LiNiPO4
_symmetry_space_group_name_H-M   'P 1'
_cell_length_a   4.83951822
_cell_length_b   7.98340179
_cell_length_c   16.71133691
_cell_angle_alpha   90.00000000
_cell_angle_beta   90.00000000
_cell_angle_gamma   90.00000000
_symmetry_Int_Tables_number   1
_chemical_formula_structural   LiNiPO4
_chemical_formula_sum   'Li8 Ni8 P8 O32'
_cell_volume   645.65617841
_cell_formula_units_Z   8
loop_
 _symmetry_equiv_pos_site_id
 _symmetry_equiv_pos_as_xyz
  1  'x, y, z'
loop_
 _atom_site_type_symbol
 _atom_site_label
 _atom_site_symmetry_multiplicity
 _atom_site_fract_x
 _atom_site_fract_y
 _atom_site_fract_z
 _atom_site_occupancy
  Li  Li0  1  0.247895  0.536141  0.055788  1
  Li  Li1  1  0.247895  0.036141  0.444212  1
  Li  Li2  1  0.271169  0.377067  0.364205  1
  Li  Li3  1  0.271169  0.877067  0.135795  1
  Li  Li4  1  0.747895  0.963859  0.555788  1
  Li  Li5  1  0.747895  0.463859  0.944212  1
  Li  Li6  1  0.771169  0.122933  0.864205  1
  Li  Li7  1  0.771169  0.622933  0.635795  1
  Ni  Ni8  1  0.275909  0.353929  0.552106  1
  Ni  Ni9  1  0.275909  0.853929  0.947894  1
  Ni  Ni10  1  0.423861  0.919241  0.719310  1
  Ni  Ni11  1  0.423861  0.419241  0.780690  1
  Ni  Ni12  1  0.775909  0.146071  0.052106  1
  Ni  Ni13  1  0.775909  0.646071  0.447894  1
  Ni  Ni14  1  0.923861  0.080759  0.280690  1
  Ni  Ni15  1  0.923861  0.580759  0.219310  1
  P  P16  1  0.238230  0.252098  0.173070  1
  P  P17  1  0.238230  0.752098  0.326930  1
  P  P18  1  0.240371  0.247202  0.938128  1
  P  P19  1  0.240371  0.747202  0.561872  1
  P  P20  1  0.738230  0.747902  0.826930  1
  P  P21  1  0.738230  0.247902  0.673070  1
  P  P22  1  0.740371  0.252798  0.438128  1
  P  P23  1  0.740371  0.752798  0.061872  1
  O  O24  1  0.031065  0.262446  0.641224  1
  O  O25  1  0.031065  0.762446  0.858776  1
  O  O26  1  0.055358  0.761498  0.043699  1
  O  O27  1  0.055358  0.261498  0.456301  1
  O  O28  1  0.089745  0.881208  0.513684  1
  O  O29  1  0.089745  0.381208  0.986316  1
  O  O30  1  0.202325  0.276159  0.847579  1
  O  O31  1  0.202325  0.776159  0.652421  1
  O  O32  1  0.055942  0.097261  0.144939  1
  O  O33  1  0.055942  0.597261  0.355061  1
  O  O34  1  0.220908  0.743015  0.234371  1
  O  O35  1  0.220908  0.243015  0.265629  1
  O  O36  1  0.103069  0.420597  0.148547  1
  O  O37  1  0.103069  0.920597  0.351453  1
  O  O38  1  0.086242  0.579322  0.541514  1
  O  O39  1  0.086242  0.079322  0.958486  1
  O  O40  1  0.531065  0.237554  0.141224  1
  O  O41  1  0.531065  0.737554  0.358776  1
  O  O42  1  0.555358  0.238502  0.956301  1
  O  O43  1  0.555358  0.738502  0.543699  1
  O  O44  1  0.589745  0.118792  0.486316  1
  O  O45  1  0.589745  0.618792  0.013684  1
  O  O46  1  0.702325  0.223841  0.347579  1
  O  O47  1  0.702325  0.723841  0.152421  1
  O  O48  1  0.555942  0.902739  0.855061  1
  O  O49  1  0.555942  0.402739  0.644939  1
  O  O50  1  0.720908  0.756985  0.734371  1
  O  O51  1  0.720908  0.256985  0.765629  1
  O  O52  1  0.603069  0.579403  0.851453  1
  O  O53  1  0.603069  0.079403  0.648547  1
  O  O54  1  0.586242  0.420678  0.458486  1
  O  O55  1  0.586242  0.920678  0.041514  1
