# generated using pymatgen
data_Cu3Sb(PO4)4
_symmetry_space_group_name_H-M   'P 1'
_cell_length_a   4.88927588
_cell_length_b   5.97833896
_cell_length_c   9.85941564
_cell_angle_alpha   90.00000000
_cell_angle_beta   91.21465101
_cell_angle_gamma   90.00000000
_symmetry_Int_Tables_number   1
_chemical_formula_structural   Cu3Sb(PO4)4
_chemical_formula_sum   'Cu3 Sb1 P4 O16'
_cell_volume   288.12348228
_cell_formula_units_Z   1
loop_
 _symmetry_equiv_pos_site_id
 _symmetry_equiv_pos_as_xyz
  1  'x, y, z'
loop_
 _atom_site_type_symbol
 _atom_site_label
 _atom_site_symmetry_multiplicity
 _atom_site_fract_x
 _atom_site_fract_y
 _atom_site_fract_z
 _atom_site_occupancy
  Cu  Cu0  1  0.958500  0.500000  0.727283  1
  Cu  Cu1  1  0.580416  0.500000  0.212832  1
  Cu  Cu2  1  0.433760  0.000000  0.774417  1
  Sb  Sb3  1  0.035800  0.000000  0.282291  1
  P  P4  1  0.910403  0.000000  0.604350  1
  P  P5  1  0.591045  0.000000  0.090645  1
  P  P6  1  0.418333  0.500000  0.902340  1
  P  P7  1  0.077384  0.500000  0.409540  1
  O  O8  1  0.815550  0.000000  0.445690  1
  O  O9  1  0.771217  0.204783  0.668831  1
  O  O10  1  0.771217  0.795217  0.668831  1
  O  O11  1  0.770541  0.500000  0.384490  1
  O  O12  1  0.729263  0.500000  0.888766  1
  O  O13  1  0.748090  0.194893  0.171492  1
  O  O14  1  0.748090  0.805107  0.171492  1
  O  O15  1  0.646788  0.000000  0.941815  1
  O  O16  1  0.352004  0.500000  0.055538  1
  O  O17  1  0.264445  0.699778  0.828644  1
  O  O18  1  0.264445  0.300222  0.828644  1
  O  O19  1  0.279577  0.000000  0.119298  1
  O  O20  1  0.223822  0.000000  0.604473  1
  O  O21  1  0.219813  0.707346  0.331235  1
  O  O22  1  0.219813  0.292654  0.331235  1
  O  O23  1  0.169683  0.500000  0.555827  1
