# generated using pymatgen
data_BaY3F11
_symmetry_space_group_name_H-M   'P 1'
_cell_length_a   6.27044684
_cell_length_b   7.85529669
_cell_length_c   29.68113360
_cell_angle_alpha   90.00000000
_cell_angle_beta   90.00000000
_cell_angle_gamma   90.00000000
_symmetry_Int_Tables_number   1
_chemical_formula_structural   BaY3F11
_chemical_formula_sum   'Ba4 Y12 F44'
_cell_volume   1461.98045557
_cell_formula_units_Z   4
loop_
 _symmetry_equiv_pos_site_id
 _symmetry_equiv_pos_as_xyz
  1  'x, y, z'
loop_
 _atom_site_type_symbol
 _atom_site_label
 _atom_site_symmetry_multiplicity
 _atom_site_fract_x
 _atom_site_fract_y
 _atom_site_fract_z
 _atom_site_occupancy
  Ba  Ba0  1  0.229687  0.905991  0.209561  1
  Ba  Ba1  1  0.270313  0.094009  0.709561  1
  Ba  Ba2  1  0.729687  0.594009  0.790439  1
  Ba  Ba3  1  0.770313  0.405991  0.290439  1
  Y  Y4  1  0.241467  0.250309  0.086348  1
  Y  Y5  1  0.241410  0.589921  0.968787  1
  Y  Y6  1  0.235027  0.940626  0.852631  1
  Y  Y7  1  0.264973  0.059374  0.352631  1
  Y  Y8  1  0.258590  0.410079  0.468787  1
  Y  Y9  1  0.258533  0.749691  0.586348  1
  Y  Y10  1  0.741467  0.249691  0.913652  1
  Y  Y11  1  0.741410  0.910079  0.031213  1
  Y  Y12  1  0.735027  0.559374  0.147369  1
  Y  Y13  1  0.764973  0.440626  0.647369  1
  Y  Y14  1  0.758590  0.089921  0.531213  1
  Y  Y15  1  0.758533  0.750309  0.413652  1
  F  F16  1  0.020741  0.105558  0.890976  1
  F  F17  1  0.015499  0.429872  0.118229  1
  F  F18  1  0.091280  0.233496  0.307309  1
  F  F19  1  0.000729  0.757786  0.000345  1
  F  F20  1  0.017821  0.583886  0.438947  1
  F  F21  1  0.021378  0.933367  0.559019  1
  F  F22  1  0.044592  0.308892  0.673156  1
  F  F23  1  0.228599  0.108986  0.793873  1
  F  F24  1  0.240737  0.130296  0.151603  1
  F  F25  1  0.237378  0.420682  0.027471  1
  F  F26  1  0.245581  0.246154  0.409049  1
  F  F27  1  0.254419  0.753846  0.909049  1
  F  F28  1  0.262622  0.579318  0.527471  1
  F  F29  1  0.259263  0.869704  0.651603  1
  F  F30  1  0.271401  0.891014  0.293873  1
  F  F31  1  0.455408  0.691108  0.173156  1
  F  F32  1  0.478622  0.066633  0.059019  1
  F  F33  1  0.482179  0.416114  0.938947  1
  F  F34  1  0.499271  0.242214  0.500345  1
  F  F35  1  0.408720  0.766504  0.807309  1
  F  F36  1  0.484501  0.570128  0.618229  1
  F  F37  1  0.479259  0.894442  0.390976  1
  F  F38  1  0.520741  0.394442  0.109024  1
  F  F39  1  0.515499  0.070128  0.881771  1
  F  F40  1  0.591280  0.266504  0.692691  1
  F  F41  1  0.500729  0.742214  0.999655  1
  F  F42  1  0.517821  0.916114  0.561053  1
  F  F43  1  0.521378  0.566633  0.440981  1
  F  F44  1  0.544592  0.191108  0.326844  1
  F  F45  1  0.728599  0.391014  0.206127  1
  F  F46  1  0.740737  0.369704  0.848397  1
  F  F47  1  0.737378  0.079318  0.972529  1
  F  F48  1  0.745581  0.253846  0.590951  1
  F  F49  1  0.754419  0.746154  0.090951  1
  F  F50  1  0.762622  0.920682  0.472529  1
  F  F51  1  0.759263  0.630296  0.348397  1
  F  F52  1  0.771401  0.608986  0.706127  1
  F  F53  1  0.955408  0.808892  0.826844  1
  F  F54  1  0.978622  0.433367  0.940981  1
  F  F55  1  0.982179  0.083886  0.061053  1
  F  F56  1  0.999271  0.257786  0.499655  1
  F  F57  1  0.908720  0.733496  0.192691  1
  F  F58  1  0.984501  0.929872  0.381771  1
  F  F59  1  0.979259  0.605558  0.609024  1
