# generated using pymatgen
data_Sr3CaI8
_symmetry_space_group_name_H-M   'P 1'
_cell_length_a   7.99726687
_cell_length_b   7.99726687
_cell_length_c   9.77098465
_cell_angle_alpha   66.07116460
_cell_angle_beta   113.92883540
_cell_angle_gamma   89.81366841
_symmetry_Int_Tables_number   1
_chemical_formula_structural   Sr3CaI8
_chemical_formula_sum   'Sr3 Ca1 I8'
_cell_volume   511.47516550
_cell_formula_units_Z   1
loop_
 _symmetry_equiv_pos_site_id
 _symmetry_equiv_pos_as_xyz
  1  'x, y, z'
loop_
 _atom_site_type_symbol
 _atom_site_label
 _atom_site_symmetry_multiplicity
 _atom_site_fract_x
 _atom_site_fract_y
 _atom_site_fract_z
 _atom_site_occupancy
  Sr  Sr0  1  0.749158  0.753760  0.498036  1
  Sr  Sr1  1  0.497542  0.502458  0.000343  1
  Sr  Sr2  1  0.246240  0.250842  0.498036  1
  Ca  Ca3  1  0.996300  0.003700  0.000479  1
  I  I4  1  0.119500  0.880500  0.749814  1
  I  I5  1  0.631220  0.876954  0.755148  1
  I  I6  1  0.366207  0.633793  0.246062  1
  I  I7  1  0.876797  0.629083  0.247426  1
  I  I8  1  0.625148  0.374852  0.750603  1
  I  I9  1  0.123046  0.368780  0.755148  1
  I  I10  1  0.875537  0.124463  0.242644  1
  I  I11  1  0.370917  0.123203  0.247426  1
