# generated using pymatgen
data_USi2
_symmetry_space_group_name_H-M   'P 1'
_cell_length_a   7.58060234
_cell_length_b   7.58060234
_cell_length_c   7.58060234
_cell_angle_alpha   150.22186169
_cell_angle_beta   150.22186169
_cell_angle_gamma   42.61583155
_symmetry_Int_Tables_number   1
_chemical_formula_structural   USi2
_chemical_formula_sum   'U2 Si4'
_cell_volume   107.17948413
_cell_formula_units_Z   2
loop_
 _symmetry_equiv_pos_site_id
 _symmetry_equiv_pos_as_xyz
  1  'x, y, z'
loop_
 _atom_site_type_symbol
 _atom_site_label
 _atom_site_symmetry_multiplicity
 _atom_site_fract_x
 _atom_site_fract_y
 _atom_site_fract_z
 _atom_site_occupancy
  U  U0  1  0.750000  0.250000  0.500000  1
  U  U1  1  0.000000  0.000000  0.000000  1
  Si  Si2  1  0.168388  0.668388  0.500000  1
  Si  Si3  1  0.581612  0.581612  0.000000  1
  Si  Si4  1  0.331612  0.831612  0.500000  1
  Si  Si5  1  0.418388  0.418388  0.000000  1
