# generated using pymatgen
data_K2TiPCO7
_symmetry_space_group_name_H-M   'P 1'
_cell_length_a   5.73155014
_cell_length_b   6.83681563
_cell_length_c   9.68983887
_cell_angle_alpha   90.00000000
_cell_angle_beta   90.90996817
_cell_angle_gamma   90.00000000
_symmetry_Int_Tables_number   1
_chemical_formula_structural   K2TiPCO7
_chemical_formula_sum   'K4 Ti2 P2 C2 O14'
_cell_volume   379.65379504
_cell_formula_units_Z   2
loop_
 _symmetry_equiv_pos_site_id
 _symmetry_equiv_pos_as_xyz
  1  'x, y, z'
loop_
 _atom_site_type_symbol
 _atom_site_label
 _atom_site_symmetry_multiplicity
 _atom_site_fract_x
 _atom_site_fract_y
 _atom_site_fract_z
 _atom_site_occupancy
  K  K0  1  0.247437  0.017135  0.236090  1
  K  K1  1  0.247437  0.482865  0.236090  1
  K  K2  1  0.752563  0.517135  0.763910  1
  K  K3  1  0.752563  0.982865  0.763910  1
  Ti  Ti4  1  0.773343  0.750000  0.363654  1
  Ti  Ti5  1  0.226657  0.250000  0.636346  1
  P  P6  1  0.723386  0.250000  0.435626  1
  P  P7  1  0.276614  0.750000  0.564374  1
  C  C8  1  0.728368  0.750000  0.101766  1
  C  C9  1  0.271632  0.250000  0.898234  1
  O  O10  1  0.290566  0.250000  0.027446  1
  O  O11  1  0.930097  0.750000  0.169673  1
  O  O12  1  0.550421  0.750000  0.186530  1
  O  O13  1  0.758533  0.063361  0.348544  1
  O  O14  1  0.758533  0.436639  0.348544  1
  O  O15  1  0.105392  0.750000  0.436986  1
  O  O16  1  0.467051  0.250000  0.491972  1
  O  O17  1  0.532949  0.750000  0.508028  1
  O  O18  1  0.894608  0.250000  0.563014  1
  O  O19  1  0.241467  0.563361  0.651456  1
  O  O20  1  0.241467  0.936639  0.651456  1
  O  O21  1  0.449579  0.250000  0.813470  1
  O  O22  1  0.069903  0.250000  0.830327  1
  O  O23  1  0.709434  0.750000  0.972554  1
