# generated using pymatgen
data_H2O
_symmetry_space_group_name_H-M   'P 1'
_cell_length_a   7.60356671
_cell_length_b   7.60356671
_cell_length_c   7.14296193
_cell_angle_alpha   90.00000000
_cell_angle_beta   90.00000000
_cell_angle_gamma   120.00000000
_symmetry_Int_Tables_number   1
_chemical_formula_structural   H2O
_chemical_formula_sum   'H24 O12'
_cell_volume   357.63802497
_cell_formula_units_Z   12
loop_
 _symmetry_equiv_pos_site_id
 _symmetry_equiv_pos_as_xyz
  1  'x, y, z'
loop_
 _atom_site_type_symbol
 _atom_site_label
 _atom_site_symmetry_multiplicity
 _atom_site_fract_x
 _atom_site_fract_y
 _atom_site_fract_z
 _atom_site_occupancy
  H  H0  1  0.330823  0.330823  0.696428  1
  H  H1  1  0.669177  0.000000  0.696428  1
  H  H2  1  0.000000  0.669177  0.696428  1
  H  H3  1  0.669177  0.669177  0.196428  1
  H  H4  1  0.330823  0.000000  0.196428  1
  H  H5  1  0.000000  0.330823  0.196428  1
  H  H6  1  0.452347  0.452347  0.510646  1
  H  H7  1  0.547653  0.000000  0.510646  1
  H  H8  1  0.000000  0.547653  0.510646  1
  H  H9  1  0.547653  0.547653  0.010646  1
  H  H10  1  0.452347  0.000000  0.010646  1
  H  H11  1  0.000000  0.452347  0.010646  1
  H  H12  1  0.786171  0.663716  0.478847  1
  H  H13  1  0.336284  0.122455  0.478847  1
  H  H14  1  0.877545  0.213829  0.478847  1
  H  H15  1  0.663716  0.786171  0.478847  1
  H  H16  1  0.122455  0.336284  0.478847  1
  H  H17  1  0.213829  0.877545  0.478847  1
  H  H18  1  0.213829  0.336284  0.978847  1
  H  H19  1  0.663716  0.877545  0.978847  1
  H  H20  1  0.122455  0.786171  0.978847  1
  H  H21  1  0.336284  0.213829  0.978847  1
  H  H22  1  0.877545  0.663716  0.978847  1
  H  H23  1  0.786171  0.122455  0.978847  1
  O  O24  1  0.326642  0.326642  0.555658  1
  O  O25  1  0.673358  0.000000  0.555658  1
  O  O26  1  0.000000  0.673358  0.555658  1
  O  O27  1  0.673358  0.673358  0.055658  1
  O  O28  1  0.326642  0.000000  0.055658  1
  O  O29  1  0.000000  0.326642  0.055658  1
  O  O30  1  0.660605  0.660605  0.429575  1
  O  O31  1  0.339395  0.000000  0.429575  1
  O  O32  1  0.000000  0.339395  0.429575  1
  O  O33  1  0.339395  0.339395  0.929575  1
  O  O34  1  0.660605  0.000000  0.929575  1
  O  O35  1  0.000000  0.660605  0.929575  1
