# generated using pymatgen
data_Li8VNi3(PO4)6
_symmetry_space_group_name_H-M   'P 1'
_cell_length_a   8.54238759
_cell_length_b   8.54238759
_cell_length_c   8.54238759
_cell_angle_alpha   61.95681255
_cell_angle_beta   61.95681255
_cell_angle_gamma   61.95681255
_symmetry_Int_Tables_number   1
_chemical_formula_structural   Li8VNi3(PO4)6
_chemical_formula_sum   'Li8 V1 Ni3 P6 O24'
_cell_volume   460.07958817
_cell_formula_units_Z   1
loop_
 _symmetry_equiv_pos_site_id
 _symmetry_equiv_pos_as_xyz
  1  'x, y, z'
loop_
 _atom_site_type_symbol
 _atom_site_label
 _atom_site_symmetry_multiplicity
 _atom_site_fract_x
 _atom_site_fract_y
 _atom_site_fract_z
 _atom_site_occupancy
  Li  Li0  1  0.291247  0.843565  0.643496  1
  Li  Li1  1  0.843565  0.643496  0.291247  1
  Li  Li2  1  0.643496  0.291247  0.843565  1
  Li  Li3  1  0.499541  0.499541  0.499541  1
  Li  Li4  1  0.982064  0.982064  0.982064  1
  Li  Li5  1  0.356143  0.697748  0.158702  1
  Li  Li6  1  0.158702  0.356143  0.697748  1
  Li  Li7  1  0.697748  0.158702  0.356143  1
  V  V8  1  0.144029  0.144029  0.144029  1
  Ni  Ni9  1  0.647401  0.647401  0.647401  1
  Ni  Ni10  1  0.853490  0.853490  0.853490  1
  Ni  Ni11  1  0.354077  0.354077  0.354077  1
  P  P12  1  0.546376  0.955239  0.251786  1
  P  P13  1  0.251786  0.546376  0.955239  1
  P  P14  1  0.955239  0.251786  0.546376  1
  P  P15  1  0.047126  0.753873  0.452821  1
  P  P16  1  0.753873  0.452821  0.047126  1
  P  P17  1  0.452821  0.047126  0.753873  1
  O  O18  1  0.292604  0.531733  0.118375  1
  O  O19  1  0.118375  0.292604  0.531733  1
  O  O20  1  0.531733  0.118375  0.292604  1
  O  O21  1  0.175019  0.386024  0.016662  1
  O  O22  1  0.016662  0.175019  0.386024  1
  O  O23  1  0.745600  0.897063  0.114657  1
  O  O24  1  0.386024  0.016662  0.175019  1
  O  O25  1  0.522497  0.779499  0.427956  1
  O  O26  1  0.114657  0.745600  0.897063  1
  O  O27  1  0.427956  0.522497  0.779499  1
  O  O28  1  0.003579  0.829177  0.601312  1
  O  O29  1  0.106471  0.895249  0.247122  1
  O  O30  1  0.779499  0.427956  0.522497  1
  O  O31  1  0.829177  0.601312  0.003579  1
  O  O32  1  0.897063  0.114657  0.745600  1
  O  O33  1  0.226033  0.577804  0.460641  1
  O  O34  1  0.577804  0.460641  0.226033  1
  O  O35  1  0.895249  0.247122  0.106471  1
  O  O36  1  0.460641  0.226033  0.577804  1
  O  O37  1  0.601312  0.003579  0.829177  1
  O  O38  1  0.247122  0.106471  0.895249  1
  O  O39  1  0.462353  0.881468  0.718506  1
  O  O40  1  0.881468  0.718506  0.462353  1
  O  O41  1  0.718506  0.462353  0.881468  1
