# generated using pymatgen
data_Sn2Ge2O7
_symmetry_space_group_name_H-M   'P 1'
_cell_length_a   6.90785531
_cell_length_b   6.97796255
_cell_length_c   13.26423952
_cell_angle_alpha   80.91648262
_cell_angle_beta   84.63336010
_cell_angle_gamma   81.53032375
_symmetry_Int_Tables_number   1
_chemical_formula_structural   Sn2Ge2O7
_chemical_formula_sum   'Sn8 Ge8 O28'
_cell_volume   622.85048618
_cell_formula_units_Z   4
loop_
 _symmetry_equiv_pos_site_id
 _symmetry_equiv_pos_as_xyz
  1  'x, y, z'
loop_
 _atom_site_type_symbol
 _atom_site_label
 _atom_site_symmetry_multiplicity
 _atom_site_fract_x
 _atom_site_fract_y
 _atom_site_fract_z
 _atom_site_occupancy
  Sn  Sn0  1  0.418207  0.225068  0.131760  1
  Sn  Sn1  1  0.062767  0.669109  0.137198  1
  Sn  Sn2  1  0.655835  0.228997  0.359677  1
  Sn  Sn3  1  0.131866  0.893931  0.345563  1
  Sn  Sn4  1  0.868134  0.106069  0.654437  1
  Sn  Sn5  1  0.344165  0.771003  0.640323  1
  Sn  Sn6  1  0.937233  0.330891  0.862802  1
  Sn  Sn7  1  0.581793  0.774932  0.868240  1
  Ge  Ge8  1  0.922806  0.193670  0.126561  1
  Ge  Ge9  1  0.549872  0.683264  0.196015  1
  Ge  Ge10  1  0.139184  0.376709  0.370774  1
  Ge  Ge11  1  0.639959  0.719602  0.423405  1
  Ge  Ge12  1  0.360041  0.280398  0.576595  1
  Ge  Ge13  1  0.860816  0.623291  0.629226  1
  Ge  Ge14  1  0.450128  0.316736  0.803985  1
  Ge  Ge15  1  0.077194  0.806330  0.873439  1
  O  O16  1  0.150312  0.795710  0.996166  1
  O  O17  1  0.087494  0.361625  0.137538  1
  O  O18  1  0.767303  0.693770  0.117073  1
  O  O19  1  0.378383  0.564350  0.144327  1
  O  O20  1  0.699879  0.256759  0.202242  1
  O  O21  1  0.032605  0.957250  0.182035  1
  O  O22  1  0.424929  0.898570  0.235793  1
  O  O23  1  0.614468  0.555717  0.330308  1
  O  O24  1  0.360766  0.245333  0.318885  1
  O  O25  1  0.065863  0.608777  0.298142  1
  O  O26  1  0.745350  0.930285  0.371026  1
  O  O27  1  0.956102  0.224467  0.371749  1
  O  O28  1  0.408874  0.769090  0.488683  1
  O  O29  1  0.190734  0.425414  0.492715  1
  O  O30  1  0.809266  0.574586  0.507285  1
  O  O31  1  0.591126  0.230910  0.511317  1
  O  O32  1  0.043898  0.775533  0.628251  1
  O  O33  1  0.254650  0.069715  0.628974  1
  O  O34  1  0.934137  0.391223  0.701858  1
  O  O35  1  0.639234  0.754667  0.681115  1
  O  O36  1  0.385532  0.444283  0.669692  1
  O  O37  1  0.575071  0.101430  0.764207  1
  O  O38  1  0.967395  0.042750  0.817965  1
  O  O39  1  0.300121  0.743241  0.797758  1
  O  O40  1  0.621617  0.435650  0.855673  1
  O  O41  1  0.232697  0.306230  0.882927  1
  O  O42  1  0.912506  0.638375  0.862462  1
  O  O43  1  0.849688  0.204290  0.003834  1
