# generated using pymatgen
data_V2PH10NO11
_symmetry_space_group_name_H-M   'P 1'
_cell_length_a   7.11698977
_cell_length_b   10.68255121
_cell_length_c   12.52141452
_cell_angle_alpha   90.00000000
_cell_angle_beta   90.00000000
_cell_angle_gamma   90.00000000
_symmetry_Int_Tables_number   1
_chemical_formula_structural   V2PH10NO11
_chemical_formula_sum   'V8 P4 H40 N4 O44'
_cell_volume   951.97319071
_cell_formula_units_Z   4
loop_
 _symmetry_equiv_pos_site_id
 _symmetry_equiv_pos_as_xyz
  1  'x, y, z'
loop_
 _atom_site_type_symbol
 _atom_site_label
 _atom_site_symmetry_multiplicity
 _atom_site_fract_x
 _atom_site_fract_y
 _atom_site_fract_z
 _atom_site_occupancy
  V  V0  1  0.513916  0.228826  0.009345  1
  V  V1  1  0.700683  0.529331  0.918031  1
  V  V2  1  0.799317  0.470669  0.418031  1
  V  V3  1  0.986084  0.771174  0.509345  1
  V  V4  1  0.013916  0.271174  0.990655  1
  V  V5  1  0.200683  0.970669  0.081969  1
  V  V6  1  0.299317  0.029331  0.581969  1
  V  V7  1  0.486084  0.728826  0.490655  1
  P  P8  1  0.748480  0.416714  0.151900  1
  P  P9  1  0.751520  0.583286  0.651900  1
  P  P10  1  0.248480  0.083286  0.848100  1
  P  P11  1  0.251520  0.916714  0.348100  1
  H  H12  1  0.566673  0.276236  0.465432  1
  H  H13  1  0.560997  0.895312  0.033895  1
  H  H14  1  0.627175  0.797430  0.264534  1
  H  H15  1  0.643291  0.087335  0.507392  1
  H  H16  1  0.660380  0.918025  0.680448  1
  H  H17  1  0.637718  0.198089  0.785158  1
  H  H18  1  0.740374  0.331384  0.739027  1
  H  H19  1  0.751633  0.971921  0.463930  1
  H  H20  1  0.758220  0.083582  0.296942  1
  H  H21  1  0.779791  0.797440  0.161872  1
  H  H22  1  0.720209  0.202560  0.661872  1
  H  H23  1  0.741780  0.916418  0.796942  1
  H  H24  1  0.748367  0.028079  0.963930  1
  H  H25  1  0.759626  0.668616  0.239027  1
  H  H26  1  0.862282  0.801911  0.285158  1
  H  H27  1  0.839620  0.081975  0.180448  1
  H  H28  1  0.856709  0.912665  0.007392  1
  H  H29  1  0.872825  0.202570  0.764534  1
  H  H30  1  0.939003  0.104688  0.533895  1
  H  H31  1  0.933327  0.723764  0.965432  1
  H  H32  1  0.066673  0.223764  0.534568  1
  H  H33  1  0.060997  0.604688  0.966105  1
  H  H34  1  0.127175  0.702570  0.735466  1
  H  H35  1  0.143291  0.412665  0.492608  1
  H  H36  1  0.160380  0.581975  0.319552  1
  H  H37  1  0.137718  0.301911  0.214842  1
  H  H38  1  0.240374  0.168616  0.260973  1
  H  H39  1  0.251633  0.528079  0.536070  1
  H  H40  1  0.258220  0.416418  0.703058  1
  H  H41  1  0.279791  0.702560  0.838128  1
  H  H42  1  0.220209  0.297440  0.338128  1
  H  H43  1  0.241780  0.583582  0.203058  1
  H  H44  1  0.248367  0.471921  0.036070  1
  H  H45  1  0.259626  0.831384  0.760973  1
  H  H46  1  0.362282  0.698089  0.714842  1
  H  H47  1  0.339620  0.418025  0.819552  1
  H  H48  1  0.356709  0.587335  0.992608  1
  H  H49  1  0.372825  0.297430  0.235466  1
  H  H50  1  0.439003  0.395312  0.466105  1
  H  H51  1  0.433327  0.776236  0.034568  1
  N  N52  1  0.756230  0.765273  0.237444  1
  N  N53  1  0.743770  0.234727  0.737444  1
  N  N54  1  0.256230  0.734727  0.762556  1
  N  N55  1  0.243770  0.265273  0.262556  1
  O  O56  1  0.565873  0.603714  0.424943  1
  O  O57  1  0.557042  0.400836  0.922290  1
  O  O58  1  0.553537  0.651039  0.921809  1
  O  O59  1  0.546616  0.353933  0.425397  1
  O  O60  1  0.572120  0.331542  0.136215  1
  O  O61  1  0.572468  0.664696  0.632753  1
  O  O62  1  0.750805  0.524833  0.763811  1
  O  O63  1  0.752758  0.808996  0.484042  1
  O  O64  1  0.757863  0.471685  0.573102  1
  O  O65  1  0.761134  0.035321  0.230954  1
  O  O66  1  0.755157  0.064992  0.464489  1
  O  O67  1  0.744843  0.935008  0.964489  1
  O  O68  1  0.738866  0.964679  0.730954  1
  O  O69  1  0.742137  0.528315  0.073102  1
  O  O70  1  0.747242  0.191004  0.984042  1
  O  O71  1  0.749195  0.475167  0.263811  1
  O  O72  1  0.927532  0.335304  0.132753  1
  O  O73  1  0.927880  0.668458  0.636215  1
  O  O74  1  0.953384  0.646067  0.925397  1
  O  O75  1  0.946463  0.348961  0.421809  1
  O  O76  1  0.942958  0.599164  0.422290  1
  O  O77  1  0.934127  0.396286  0.924943  1
  O  O78  1  0.065873  0.896286  0.575057  1
  O  O79  1  0.057042  0.099164  0.077710  1
  O  O80  1  0.053537  0.848961  0.078191  1
  O  O81  1  0.046616  0.146067  0.574603  1
  O  O82  1  0.072120  0.168458  0.863785  1
  O  O83  1  0.072468  0.835304  0.367247  1
  O  O84  1  0.250805  0.975167  0.236189  1
  O  O85  1  0.252758  0.691004  0.515958  1
  O  O86  1  0.257863  0.028315  0.426898  1
  O  O87  1  0.261134  0.464679  0.769046  1
  O  O88  1  0.255157  0.435008  0.535511  1
  O  O89  1  0.244843  0.564992  0.035511  1
  O  O90  1  0.238866  0.535321  0.269046  1
  O  O91  1  0.242137  0.971685  0.926898  1
  O  O92  1  0.247242  0.308996  0.015958  1
  O  O93  1  0.249195  0.024833  0.736189  1
  O  O94  1  0.427532  0.164696  0.867247  1
  O  O95  1  0.427880  0.831542  0.363785  1
  O  O96  1  0.453384  0.853933  0.074603  1
  O  O97  1  0.446463  0.151039  0.578191  1
  O  O98  1  0.442958  0.900836  0.577710  1
  O  O99  1  0.434127  0.103714  0.075057  1
