# generated using pymatgen
data_Li3CrO4
_symmetry_space_group_name_H-M   'P 1'
_cell_length_a   5.00897424
_cell_length_b   5.46588948
_cell_length_c   6.40288410
_cell_angle_alpha   90.00000000
_cell_angle_beta   90.00000000
_cell_angle_gamma   90.00000000
_symmetry_Int_Tables_number   1
_chemical_formula_structural   Li3CrO4
_chemical_formula_sum   'Li6 Cr2 O8'
_cell_volume   175.30135980
_cell_formula_units_Z   2
loop_
 _symmetry_equiv_pos_site_id
 _symmetry_equiv_pos_as_xyz
  1  'x, y, z'
loop_
 _atom_site_type_symbol
 _atom_site_label
 _atom_site_symmetry_multiplicity
 _atom_site_fract_x
 _atom_site_fract_y
 _atom_site_fract_z
 _atom_site_occupancy
  Li  Li0  1  0.510294  0.836263  0.000000  1
  Li  Li1  1  0.009347  0.669379  0.247426  1
  Li  Li2  1  0.509347  0.330621  0.252574  1
  Li  Li3  1  0.010294  0.163737  0.500000  1
  Li  Li4  1  0.509347  0.330621  0.747426  1
  Li  Li5  1  0.009347  0.669379  0.752574  1
  Cr  Cr6  1  0.002016  0.172201  0.000000  1
  Cr  Cr7  1  0.502016  0.827799  0.500000  1
  O  O8  1  0.112870  0.872169  0.000000  1
  O  O9  1  0.656582  0.178389  0.000000  1
  O  O10  1  0.107405  0.316934  0.225863  1
  O  O11  1  0.607405  0.683066  0.274137  1
  O  O12  1  0.156582  0.821611  0.500000  1
  O  O13  1  0.612870  0.127831  0.500000  1
  O  O14  1  0.607405  0.683066  0.725863  1
  O  O15  1  0.107405  0.316934  0.774137  1
