# generated using pymatgen
data_Li5Fe2P2(CO7)2
_symmetry_space_group_name_H-M   'P 1'
_cell_length_a   5.04697900
_cell_length_b   6.49638817
_cell_length_c   8.43464866
_cell_angle_alpha   90.00000000
_cell_angle_beta   94.77941694
_cell_angle_gamma   90.00000000
_symmetry_Int_Tables_number   1
_chemical_formula_structural   Li5Fe2P2(CO7)2
_chemical_formula_sum   'Li5 Fe2 P2 C2 O14'
_cell_volume   275.58636397
_cell_formula_units_Z   1
loop_
 _symmetry_equiv_pos_site_id
 _symmetry_equiv_pos_as_xyz
  1  'x, y, z'
loop_
 _atom_site_type_symbol
 _atom_site_label
 _atom_site_symmetry_multiplicity
 _atom_site_fract_x
 _atom_site_fract_y
 _atom_site_fract_z
 _atom_site_occupancy
  Li  Li0  1  0.249398  0.266989  0.740430  1
  Li  Li1  1  0.249398  0.733011  0.740430  1
  Li  Li2  1  0.746248  0.764618  0.258934  1
  Li  Li3  1  0.746248  0.235382  0.258934  1
  Li  Li4  1  0.235638  0.000000  0.089935  1
  Fe  Fe5  1  0.787941  0.000000  0.662878  1
  Fe  Fe6  1  0.210895  0.500000  0.336437  1
  P  P7  1  0.736812  0.500000  0.582308  1
  P  P8  1  0.286093  0.000000  0.414848  1
  C  C9  1  0.698193  0.000000  0.963091  1
  C  C10  1  0.284988  0.500000  0.046274  1
  O  O11  1  0.941498  0.000000  0.926492  1
  O  O12  1  0.328161  0.500000  0.901028  1
  O  O13  1  0.507686  0.000000  0.849009  1
  O  O14  1  0.837025  0.309767  0.674808  1
  O  O15  1  0.837025  0.690233  0.674808  1
  O  O16  1  0.186604  0.000000  0.581810  1
  O  O17  1  0.422149  0.500000  0.552569  1
  O  O18  1  0.594671  0.000000  0.425709  1
  O  O19  1  0.838602  0.500000  0.410102  1
  O  O20  1  0.177239  0.812282  0.312177  1
  O  O21  1  0.177239  0.187718  0.312177  1
  O  O22  1  0.481501  0.500000  0.162928  1
  O  O23  1  0.638359  0.000000  0.109566  1
  O  O24  1  0.049645  0.500000  0.099248  1
