# generated using pymatgen
data_Na2SnPCO7
_symmetry_space_group_name_H-M   'P 1'
_cell_length_a   5.32092322
_cell_length_b   6.87703761
_cell_length_c   9.19870171
_cell_angle_alpha   90.00000000
_cell_angle_beta   92.66824307
_cell_angle_gamma   90.00000000
_symmetry_Int_Tables_number   1
_chemical_formula_structural   Na2SnPCO7
_chemical_formula_sum   'Na4 Sn2 P2 C2 O14'
_cell_volume   336.23570079
_cell_formula_units_Z   2
loop_
 _symmetry_equiv_pos_site_id
 _symmetry_equiv_pos_as_xyz
  1  'x, y, z'
loop_
 _atom_site_type_symbol
 _atom_site_label
 _atom_site_symmetry_multiplicity
 _atom_site_fract_x
 _atom_site_fract_y
 _atom_site_fract_z
 _atom_site_occupancy
  Na  Na0  1  0.234927  0.496074  0.220674  1
  Na  Na1  1  0.234927  0.003926  0.220674  1
  Na  Na2  1  0.765073  0.503926  0.779326  1
  Na  Na3  1  0.765073  0.996074  0.779326  1
  Sn  Sn4  1  0.780906  0.750000  0.364937  1
  Sn  Sn5  1  0.219094  0.250000  0.635063  1
  P  P6  1  0.713115  0.250000  0.413283  1
  P  P7  1  0.286885  0.750000  0.586717  1
  C  C8  1  0.727426  0.750000  0.071661  1
  C  C9  1  0.272574  0.250000  0.928339  1
  O  O10  1  0.289887  0.250000  0.065382  1
  O  O11  1  0.946743  0.750000  0.146288  1
  O  O12  1  0.528603  0.750000  0.152905  1
  O  O13  1  0.823498  0.069099  0.336806  1
  O  O14  1  0.823498  0.430901  0.336806  1
  O  O15  1  0.200893  0.750000  0.420014  1
  O  O16  1  0.420624  0.250000  0.400561  1
  O  O17  1  0.579376  0.750000  0.599439  1
  O  O18  1  0.799107  0.250000  0.579986  1
  O  O19  1  0.176502  0.569099  0.663194  1
  O  O20  1  0.176502  0.930901  0.663194  1
  O  O21  1  0.471397  0.250000  0.847095  1
  O  O22  1  0.053257  0.250000  0.853712  1
  O  O23  1  0.710113  0.750000  0.934618  1
