# generated using pymatgen
data_Li2MnSiO4
_symmetry_space_group_name_H-M   'P 1'
_cell_length_a   5.38938914
_cell_length_b   5.38938914
_cell_length_c   6.32664041
_cell_angle_alpha   90.00000000
_cell_angle_beta   90.00000000
_cell_angle_gamma   92.96976168
_symmetry_Int_Tables_number   1
_chemical_formula_structural   Li2MnSiO4
_chemical_formula_sum   'Li4 Mn2 Si2 O8'
_cell_volume   183.51374349
_cell_formula_units_Z   2
loop_
 _symmetry_equiv_pos_site_id
 _symmetry_equiv_pos_as_xyz
  1  'x, y, z'
loop_
 _atom_site_type_symbol
 _atom_site_label
 _atom_site_symmetry_multiplicity
 _atom_site_fract_x
 _atom_site_fract_y
 _atom_site_fract_z
 _atom_site_occupancy
  Li  Li0  1  0.690581  0.309419  0.250000  1
  Li  Li1  1  0.177474  0.177474  0.000000  1
  Li  Li2  1  0.822526  0.822526  0.500000  1
  Li  Li3  1  0.309419  0.690581  0.750000  1
  Mn  Mn4  1  0.678796  0.321204  0.750000  1
  Mn  Mn5  1  0.321204  0.678796  0.250000  1
  Si  Si6  1  0.173993  0.173993  0.500000  1
  Si  Si7  1  0.826007  0.826007  0.000000  1
  O  O8  1  0.870207  0.204179  0.492549  1
  O  O9  1  0.795821  0.129793  0.007451  1
  O  O10  1  0.292085  0.308596  0.715451  1
  O  O11  1  0.691404  0.707915  0.784549  1
  O  O12  1  0.308596  0.292085  0.284549  1
  O  O13  1  0.707915  0.691404  0.215451  1
  O  O14  1  0.129793  0.795821  0.992549  1
  O  O15  1  0.204179  0.870207  0.507451  1
