# generated using pymatgen
data_Fe5O7F3
_symmetry_space_group_name_H-M   'P 1'
_cell_length_a   4.66366702
_cell_length_b   4.65767053
_cell_length_c   15.20911370
_cell_angle_alpha   90.00000000
_cell_angle_beta   90.13320597
_cell_angle_gamma   90.00000000
_symmetry_Int_Tables_number   1
_chemical_formula_structural   Fe5O7F3
_chemical_formula_sum   'Fe10 O14 F6'
_cell_volume   330.36880474
_cell_formula_units_Z   2
loop_
 _symmetry_equiv_pos_site_id
 _symmetry_equiv_pos_as_xyz
  1  'x, y, z'
loop_
 _atom_site_type_symbol
 _atom_site_label
 _atom_site_symmetry_multiplicity
 _atom_site_fract_x
 _atom_site_fract_y
 _atom_site_fract_z
 _atom_site_occupancy
  Fe  Fe0  1  0.253621  0.000054  0.149716  1
  Fe  Fe1  1  0.215152  0.979301  0.943228  1
  Fe  Fe2  1  0.270922  0.018735  0.749179  1
  Fe  Fe3  1  0.278289  0.012910  0.555901  1
  Fe  Fe4  1  0.262096  0.981188  0.350526  1
  Fe  Fe5  1  0.784848  0.479301  0.056772  1
  Fe  Fe6  1  0.737904  0.481188  0.649474  1
  Fe  Fe7  1  0.746379  0.500054  0.850284  1
  Fe  Fe8  1  0.721711  0.512910  0.444099  1
  Fe  Fe9  1  0.729078  0.518735  0.250821  1
  O  O10  1  0.443679  0.802900  0.847526  1
  O  O11  1  0.458255  0.809422  0.652947  1
  O  O12  1  0.436490  0.818908  0.452861  1
  O  O13  1  0.432890  0.816104  0.247330  1
  O  O14  1  0.556321  0.302900  0.152474  1
  O  O15  1  0.567110  0.316104  0.752670  1
  O  O16  1  0.563510  0.318908  0.547139  1
  O  O17  1  0.541745  0.309422  0.347053  1
  O  O18  1  0.947121  0.696520  0.154065  1
  O  O19  1  0.932055  0.670939  0.949543  1
  O  O20  1  0.936412  0.702048  0.349021  1
  O  O21  1  0.067945  0.170939  0.050457  1
  O  O22  1  0.063588  0.202048  0.650979  1
  O  O23  1  0.052879  0.196520  0.845935  1
  F  F24  1  0.449635  0.784944  0.046714  1
  F  F25  1  0.550365  0.284944  0.953286  1
  F  F26  1  0.952149  0.701294  0.747500  1
  F  F27  1  0.951006  0.704732  0.548801  1
  F  F28  1  0.047851  0.201294  0.252500  1
  F  F29  1  0.048994  0.204732  0.451199  1
