# generated using pymatgen
data_LiFeF3
_symmetry_space_group_name_H-M   'P 1'
_cell_length_a   8.73206857
_cell_length_b   8.73206857
_cell_length_c   6.21044361
_cell_angle_alpha   90.00000000
_cell_angle_beta   90.00000000
_cell_angle_gamma   90.00000000
_symmetry_Int_Tables_number   1
_chemical_formula_structural   LiFeF3
_chemical_formula_sum   'Li8 Fe8 F24'
_cell_volume   473.54024841
_cell_formula_units_Z   8
loop_
 _symmetry_equiv_pos_site_id
 _symmetry_equiv_pos_as_xyz
  1  'x, y, z'
loop_
 _atom_site_type_symbol
 _atom_site_label
 _atom_site_symmetry_multiplicity
 _atom_site_fract_x
 _atom_site_fract_y
 _atom_site_fract_z
 _atom_site_occupancy
  Li  Li0  1  0.957617  0.849506  0.163961  1
  Li  Li1  1  0.849506  0.042383  0.836039  1
  Li  Li2  1  0.150494  0.957617  0.836039  1
  Li  Li3  1  0.042383  0.150494  0.163961  1
  Li  Li4  1  0.457617  0.349506  0.336039  1
  Li  Li5  1  0.349506  0.542383  0.663961  1
  Li  Li6  1  0.650494  0.457617  0.663961  1
  Li  Li7  1  0.542383  0.650494  0.336039  1
  Fe  Fe8  1  0.518412  0.807434  0.896792  1
  Fe  Fe9  1  0.307434  0.981588  0.396792  1
  Fe  Fe10  1  0.692566  0.018412  0.396792  1
  Fe  Fe11  1  0.481588  0.192566  0.896792  1
  Fe  Fe12  1  0.018412  0.307434  0.603208  1
  Fe  Fe13  1  0.807434  0.481588  0.103208  1
  Fe  Fe14  1  0.192566  0.518412  0.103208  1
  Fe  Fe15  1  0.981588  0.692566  0.603208  1
  F  F16  1  0.827294  0.832162  0.439155  1
  F  F17  1  0.953481  0.841043  0.857234  1
  F  F18  1  0.484525  0.859262  0.267860  1
  F  F19  1  0.167838  0.827294  0.560845  1
  F  F20  1  0.640738  0.984525  0.767860  1
  F  F21  1  0.158957  0.953481  0.142766  1
  F  F22  1  0.841043  0.046519  0.142766  1
  F  F23  1  0.359262  0.015475  0.767860  1
  F  F24  1  0.832162  0.172706  0.560845  1
  F  F25  1  0.515475  0.140738  0.267860  1
  F  F26  1  0.046519  0.158957  0.857234  1
  F  F27  1  0.172706  0.167838  0.439155  1
  F  F28  1  0.327294  0.332162  0.060845  1
  F  F29  1  0.453481  0.341043  0.642766  1
  F  F30  1  0.984525  0.359262  0.232140  1
  F  F31  1  0.667838  0.327294  0.939155  1
  F  F32  1  0.140738  0.484525  0.732140  1
  F  F33  1  0.658957  0.453481  0.357234  1
  F  F34  1  0.341043  0.546519  0.357234  1
  F  F35  1  0.859262  0.515475  0.732140  1
  F  F36  1  0.332162  0.672706  0.939155  1
  F  F37  1  0.015475  0.640738  0.232140  1
  F  F38  1  0.546519  0.658957  0.642766  1
  F  F39  1  0.672706  0.667838  0.060845  1
