# generated using pymatgen
data_Li5Co7O3F13
_symmetry_space_group_name_H-M   'P 1'
_cell_length_a   6.06719647
_cell_length_b   6.13954959
_cell_length_c   10.51739891
_cell_angle_alpha   73.07516162
_cell_angle_beta   73.34244287
_cell_angle_gamma   60.38783313
_symmetry_Int_Tables_number   1
_chemical_formula_structural   Li5Co7O3F13
_chemical_formula_sum   'Li5 Co7 O3 F13'
_cell_volume   321.01128525
_cell_formula_units_Z   1
loop_
 _symmetry_equiv_pos_site_id
 _symmetry_equiv_pos_as_xyz
  1  'x, y, z'
loop_
 _atom_site_type_symbol
 _atom_site_label
 _atom_site_symmetry_multiplicity
 _atom_site_fract_x
 _atom_site_fract_y
 _atom_site_fract_z
 _atom_site_occupancy
  Li  Li0  1  0.267206  0.664372  0.128240  1
  Li  Li1  1  0.003813  0.990451  0.987644  1
  Li  Li2  1  0.235504  0.125273  0.635323  1
  Li  Li3  1  0.984541  0.459184  0.497440  1
  Li  Li4  1  0.122050  0.561782  0.810127  1
  Co  Co5  1  0.618865  0.294875  0.065406  1
  Co  Co6  1  0.628529  0.566951  0.314427  1
  Co  Co7  1  0.624104  0.062033  0.312909  1
  Co  Co8  1  0.126395  0.063405  0.312336  1
  Co  Co9  1  0.643994  0.839843  0.567273  1
  Co  Co10  1  0.636273  0.054087  0.805453  1
  Co  Co11  1  0.635429  0.579674  0.804432  1
  O  O12  1  0.395147  0.989831  0.201754  1
  O  O13  1  0.857894  0.136798  0.422820  1
  O  O14  1  0.845396  0.921586  0.694964  1
  F  F15  1  0.869650  0.450927  0.190033  1
  F  F16  1  0.396990  0.452593  0.188811  1
  F  F17  1  0.385376  0.206269  0.435131  1
  F  F18  1  0.872270  0.925692  0.185711  1
  F  F19  1  0.386044  0.679414  0.438482  1
  F  F20  1  0.864011  0.675608  0.433570  1
  F  F21  1  0.364029  0.924234  0.699469  1
  F  F22  1  0.377299  0.465001  0.691825  1
  F  F23  1  0.372155  0.688327  0.929438  1
  F  F24  1  0.853090  0.647705  0.938617  1
  F  F25  1  0.863223  0.428137  0.698982  1
  F  F26  1  0.868478  0.195002  0.934224  1
  F  F27  1  0.402248  0.200947  0.925158  1
