# generated using pymatgen
data_Li2Zn3(Ge3O8)2
_symmetry_space_group_name_H-M   'P 1'
_cell_length_a   8.31675564
_cell_length_b   8.31584565
_cell_length_c   8.32152258
_cell_angle_alpha   90.00000000
_cell_angle_beta   90.25229220
_cell_angle_gamma   90.00000000
_symmetry_Int_Tables_number   1
_chemical_formula_structural   Li2Zn3(Ge3O8)2
_chemical_formula_sum   'Li4 Zn6 Ge12 O32'
_cell_volume   575.51804750
_cell_formula_units_Z   2
loop_
 _symmetry_equiv_pos_site_id
 _symmetry_equiv_pos_as_xyz
  1  'x, y, z'
loop_
 _atom_site_type_symbol
 _atom_site_label
 _atom_site_symmetry_multiplicity
 _atom_site_fract_x
 _atom_site_fract_y
 _atom_site_fract_z
 _atom_site_occupancy
  Li  Li0  1  0.624079  0.623918  0.623851  1
  Li  Li1  1  0.249098  0.750241  0.497511  1
  Li  Li2  1  0.750902  0.250241  0.502489  1
  Li  Li3  1  0.375921  0.123918  0.376149  1
  Zn  Zn4  1  0.000687  0.998006  0.252620  1
  Zn  Zn5  1  0.498323  0.499508  0.251090  1
  Zn  Zn6  1  0.250224  0.251300  0.001673  1
  Zn  Zn7  1  0.749776  0.751300  0.998327  1
  Zn  Zn8  1  0.999313  0.498006  0.747380  1
  Zn  Zn9  1  0.501677  0.999508  0.748910  1
  Ge  Ge10  1  0.117765  0.625143  0.121422  1
  Ge  Ge11  1  0.630735  0.132340  0.132659  1
  Ge  Ge12  1  0.369809  0.878877  0.125858  1
  Ge  Ge13  1  0.369265  0.632340  0.867341  1
  Ge  Ge14  1  0.630191  0.378877  0.874142  1
  Ge  Ge15  1  0.882235  0.125143  0.878578  1
  Ge  Ge16  1  0.127881  0.115516  0.627252  1
  Ge  Ge17  1  0.379997  0.378450  0.621294  1
  Ge  Ge18  1  0.883158  0.873172  0.630068  1
  Ge  Ge19  1  0.116842  0.373172  0.369932  1
  Ge  Ge20  1  0.620003  0.878450  0.378706  1
  Ge  Ge21  1  0.872119  0.615516  0.372748  1
  O  O22  1  0.393623  0.103026  0.121419  1
  O  O23  1  0.362258  0.639478  0.109293  1
  O  O24  1  0.856694  0.111932  0.100894  1
  O  O25  1  0.896257  0.637784  0.144143  1
  O  O26  1  0.137999  0.395889  0.149059  1
  O  O27  1  0.148745  0.854291  0.136491  1
  O  O28  1  0.611799  0.352633  0.103759  1
  O  O29  1  0.612459  0.888827  0.137752  1
  O  O30  1  0.103743  0.137784  0.855857  1
  O  O31  1  0.387541  0.388827  0.862248  1
  O  O32  1  0.143306  0.611932  0.899106  1
  O  O33  1  0.388201  0.852633  0.896241  1
  O  O34  1  0.637742  0.139478  0.890707  1
  O  O35  1  0.851255  0.354291  0.863509  1
  O  O36  1  0.606377  0.603026  0.878581  1
  O  O37  1  0.862001  0.895889  0.850941  1
  O  O38  1  0.141670  0.360103  0.611406  1
  O  O39  1  0.105817  0.897342  0.607965  1
  O  O40  1  0.352949  0.142403  0.628784  1
  O  O41  1  0.369301  0.607313  0.647024  1
  O  O42  1  0.601074  0.370268  0.645542  1
  O  O43  1  0.643703  0.877749  0.602342  1
  O  O44  1  0.889839  0.110959  0.639777  1
  O  O45  1  0.877380  0.648530  0.608009  1
  O  O46  1  0.122620  0.148530  0.391991  1
  O  O47  1  0.110161  0.610959  0.360223  1
  O  O48  1  0.356297  0.377749  0.397658  1
  O  O49  1  0.398926  0.870268  0.354458  1
  O  O50  1  0.630699  0.107313  0.352976  1
  O  O51  1  0.647051  0.642403  0.371216  1
  O  O52  1  0.894183  0.397342  0.392035  1
  O  O53  1  0.858330  0.860103  0.388594  1
