# generated using pymatgen
data_WOF4
_symmetry_space_group_name_H-M   'P 1'
_cell_length_a   5.43969811
_cell_length_b   5.43969811
_cell_length_c   5.43969811
_cell_angle_alpha   97.49940114
_cell_angle_beta   97.49940114
_cell_angle_gamma   137.64360803
_symmetry_Int_Tables_number   1
_chemical_formula_structural   WOF4
_chemical_formula_sum   'W1 O1 F4'
_cell_volume   101.12246857
_cell_formula_units_Z   1
loop_
 _symmetry_equiv_pos_site_id
 _symmetry_equiv_pos_as_xyz
  1  'x, y, z'
loop_
 _atom_site_type_symbol
 _atom_site_label
 _atom_site_symmetry_multiplicity
 _atom_site_fract_x
 _atom_site_fract_y
 _atom_site_fract_z
 _atom_site_occupancy
  W  W0  1  0.011576  0.011576  0.000000  1
  O  O1  1  0.557390  0.557390  0.000000  1
  F  F2  1  0.004791  0.821175  0.679996  1
  F  F3  1  0.821175  0.141179  0.816384  1
  F  F4  1  0.324795  0.004791  0.183616  1
  F  F5  1  0.141179  0.324795  0.320004  1
