# generated using pymatgen
data_Li3Al2FeO6
_symmetry_space_group_name_H-M   'P 1'
_cell_length_a   5.88693868
_cell_length_b   10.21703861
_cell_length_c   9.97052973
_cell_angle_alpha   90.00000000
_cell_angle_beta   125.56869165
_cell_angle_gamma   90.00000000
_symmetry_Int_Tables_number   1
_chemical_formula_structural   Li3Al2FeO6
_chemical_formula_sum   'Li12 Al8 Fe4 O24'
_cell_volume   487.80578733
_cell_formula_units_Z   4
loop_
 _symmetry_equiv_pos_site_id
 _symmetry_equiv_pos_as_xyz
  1  'x, y, z'
loop_
 _atom_site_type_symbol
 _atom_site_label
 _atom_site_symmetry_multiplicity
 _atom_site_fract_x
 _atom_site_fract_y
 _atom_site_fract_z
 _atom_site_occupancy
  Li  Li0  1  0.795642  0.004887  0.639189  1
  Li  Li1  1  0.808206  0.346625  0.623760  1
  Li  Li2  1  0.259733  0.999176  0.114288  1
  Li  Li3  1  0.191794  0.846625  0.876240  1
  Li  Li4  1  0.740267  0.499176  0.385712  1
  Li  Li5  1  0.204358  0.504887  0.860811  1
  Li  Li6  1  0.795642  0.495113  0.139189  1
  Li  Li7  1  0.259733  0.500824  0.614288  1
  Li  Li8  1  0.808206  0.153375  0.123760  1
  Li  Li9  1  0.740267  0.000824  0.885712  1
  Li  Li10  1  0.191794  0.653375  0.376240  1
  Li  Li11  1  0.204358  0.995113  0.360811  1
  Al  Al12  1  0.787279  0.667659  0.620892  1
  Al  Al13  1  0.297922  0.338689  0.126265  1
  Al  Al14  1  0.212721  0.167659  0.879108  1
  Al  Al15  1  0.702078  0.838689  0.373735  1
  Al  Al16  1  0.297922  0.161311  0.626265  1
  Al  Al17  1  0.787279  0.832341  0.120892  1
  Al  Al18  1  0.702078  0.661311  0.873735  1
  Al  Al19  1  0.212721  0.332341  0.379108  1
  Fe  Fe20  1  0.289134  0.664041  0.126335  1
  Fe  Fe21  1  0.710866  0.164041  0.373665  1
  Fe  Fe22  1  0.289134  0.835959  0.626335  1
  Fe  Fe23  1  0.710866  0.335959  0.873665  1
  O  O24  1  0.011419  0.673565  0.873924  1
  O  O25  1  0.508979  0.322580  0.363001  1
  O  O26  1  0.063955  0.019933  0.877523  1
  O  O27  1  0.566102  0.997425  0.371539  1
  O  O28  1  0.534594  0.689878  0.377426  1
  O  O29  1  0.060742  0.323615  0.887148  1
  O  O30  1  0.939258  0.823615  0.612852  1
  O  O31  1  0.465406  0.189878  0.122574  1
  O  O32  1  0.433898  0.497425  0.128461  1
  O  O33  1  0.936045  0.519933  0.622477  1
  O  O34  1  0.988581  0.173565  0.626076  1
  O  O35  1  0.491021  0.822580  0.136999  1
  O  O36  1  0.508979  0.177420  0.863001  1
  O  O37  1  0.011419  0.826435  0.373924  1
  O  O38  1  0.063955  0.480067  0.377523  1
  O  O39  1  0.566102  0.502575  0.871539  1
  O  O40  1  0.534594  0.810122  0.877426  1
  O  O41  1  0.060742  0.176385  0.387148  1
  O  O42  1  0.939258  0.676385  0.112852  1
  O  O43  1  0.465406  0.310122  0.622574  1
  O  O44  1  0.433898  0.002575  0.628461  1
  O  O45  1  0.936045  0.980067  0.122477  1
  O  O46  1  0.491021  0.677420  0.636999  1
  O  O47  1  0.988581  0.326435  0.126076  1
