# generated using pymatgen
data_Li6Fe3Sb3O16
_symmetry_space_group_name_H-M   'P 1'
_cell_length_a   6.08322892
_cell_length_b   6.08322892
_cell_length_c   10.04007117
_cell_angle_alpha   89.57385332
_cell_angle_beta   90.42614668
_cell_angle_gamma   119.60671096
_symmetry_Int_Tables_number   1
_chemical_formula_structural   Li6Fe3Sb3O16
_chemical_formula_sum   'Li6 Fe3 Sb3 O16'
_cell_volume   323.01834107
_cell_formula_units_Z   1
loop_
 _symmetry_equiv_pos_site_id
 _symmetry_equiv_pos_as_xyz
  1  'x, y, z'
loop_
 _atom_site_type_symbol
 _atom_site_label
 _atom_site_symmetry_multiplicity
 _atom_site_fract_x
 _atom_site_fract_y
 _atom_site_fract_z
 _atom_site_occupancy
  Li  Li0  1  0.335072  0.664928  0.501226  1
  Li  Li1  1  0.332250  0.667750  0.875179  1
  Li  Li2  1  0.009034  0.990966  0.999121  1
  Li  Li3  1  0.007077  0.992923  0.504585  1
  Li  Li4  1  0.657973  0.342027  0.000190  1
  Li  Li5  1  0.673305  0.326695  0.389222  1
  Fe  Fe6  1  0.167642  0.832358  0.217896  1
  Fe  Fe7  1  0.830415  0.665037  0.716346  1
  Fe  Fe8  1  0.334963  0.169585  0.716346  1
  Sb  Sb9  1  0.661659  0.831861  0.215379  1
  Sb  Sb10  1  0.168139  0.338341  0.215379  1
  Sb  Sb11  1  0.829380  0.170620  0.714649  1
  O  O12  1  0.696177  0.842678  0.609504  1
  O  O13  1  0.488267  0.511733  0.326912  1
  O  O14  1  0.334823  0.665177  0.100214  1
  O  O15  1  0.996973  0.003027  0.323235  1
  O  O16  1  0.991328  0.008672  0.822045  1
  O  O17  1  0.157322  0.303823  0.609504  1
  O  O18  1  0.491580  0.968949  0.324878  1
  O  O19  1  0.031051  0.508420  0.324878  1
  O  O20  1  0.844594  0.155406  0.104282  1
  O  O21  1  0.150865  0.849135  0.621758  1
  O  O22  1  0.966609  0.491042  0.822405  1
  O  O23  1  0.508958  0.033391  0.822405  1
  O  O24  1  0.672660  0.327340  0.598271  1
  O  O25  1  0.838594  0.694007  0.109441  1
  O  O26  1  0.518073  0.481927  0.813163  1
  O  O27  1  0.305993  0.161406  0.109441  1
