# generated using pymatgen
data_Te(WO4)3
_symmetry_space_group_name_H-M   'P 1'
_cell_length_a   5.25276915
_cell_length_b   5.38404059
_cell_length_c   7.51961212
_cell_angle_alpha   88.11719796
_cell_angle_beta   89.99286208
_cell_angle_gamma   89.98322284
_symmetry_Int_Tables_number   1
_chemical_formula_structural   Te(WO4)3
_chemical_formula_sum   'Te1 W3 O12'
_cell_volume   212.54824765
_cell_formula_units_Z   1
loop_
 _symmetry_equiv_pos_site_id
 _symmetry_equiv_pos_as_xyz
  1  'x, y, z'
loop_
 _atom_site_type_symbol
 _atom_site_label
 _atom_site_symmetry_multiplicity
 _atom_site_fract_x
 _atom_site_fract_y
 _atom_site_fract_z
 _atom_site_occupancy
  Te  Te0  1  0.499633  0.502496  0.500452  1
  W  W1  1  0.002135  0.002251  0.511359  1
  W  W2  1  0.498176  0.520288  0.000315  1
  W  W3  1  0.000073  0.020376  0.011537  1
  O  O4  1  0.707143  0.211943  0.548768  1
  O  O5  1  0.917967  0.006561  0.254816  1
  O  O6  1  0.709350  0.799859  0.961680  1
  O  O7  1  0.791114  0.710443  0.548513  1
  O  O8  1  0.207431  0.716036  0.042982  1
  O  O9  1  0.591561  0.505168  0.251780  1
  O  O10  1  0.409076  0.504162  0.750715  1
  O  O11  1  0.790889  0.299856  0.962036  1
  O  O12  1  0.208119  0.294702  0.455672  1
  O  O13  1  0.292076  0.216806  0.043300  1
  O  O14  1  0.082405  0.003508  0.754512  1
  O  O15  1  0.292853  0.795147  0.456365  1
