# generated using pymatgen
data_CaH8(ClO2)2
_symmetry_space_group_name_H-M   'P 1'
_cell_length_a   9.03907352
_cell_length_b   10.26638975
_cell_length_c   12.90184192
_cell_angle_alpha   90.00000000
_cell_angle_beta   115.20426670
_cell_angle_gamma   90.00000000
_symmetry_Int_Tables_number   1
_chemical_formula_structural   CaH8(ClO2)2
_chemical_formula_sum   'Ca6 H48 Cl12 O24'
_cell_volume   1083.28751939
_cell_formula_units_Z   6
loop_
 _symmetry_equiv_pos_site_id
 _symmetry_equiv_pos_as_xyz
  1  'x, y, z'
loop_
 _atom_site_type_symbol
 _atom_site_label
 _atom_site_symmetry_multiplicity
 _atom_site_fract_x
 _atom_site_fract_y
 _atom_site_fract_z
 _atom_site_occupancy
  Ca  Ca0  1  0.000000  0.500000  0.500000  1
  Ca  Ca1  1  0.000000  0.000000  0.000000  1
  Ca  Ca2  1  0.739306  0.547431  0.863057  1
  Ca  Ca3  1  0.260694  0.047431  0.636943  1
  Ca  Ca4  1  0.260694  0.452569  0.136943  1
  Ca  Ca5  1  0.739306  0.952569  0.363057  1
  H  H6  1  0.839479  0.342238  0.726028  1
  H  H7  1  0.160521  0.842238  0.773972  1
  H  H8  1  0.160521  0.657762  0.273972  1
  H  H9  1  0.839479  0.157762  0.226028  1
  H  H10  1  0.945646  0.314853  0.857058  1
  H  H11  1  0.054354  0.814853  0.642942  1
  H  H12  1  0.054354  0.685147  0.142942  1
  H  H13  1  0.945646  0.185147  0.357058  1
  H  H14  1  0.453268  0.522008  0.615654  1
  H  H15  1  0.546732  0.022008  0.884346  1
  H  H16  1  0.546732  0.477992  0.384346  1
  H  H17  1  0.453268  0.977992  0.115654  1
  H  H18  1  0.607285  0.448736  0.620332  1
  H  H19  1  0.392715  0.948736  0.879668  1
  H  H20  1  0.392715  0.551264  0.379668  1
  H  H21  1  0.607285  0.051264  0.120332  1
  H  H22  1  0.437870  0.433554  0.884549  1
  H  H23  1  0.562130  0.933554  0.615451  1
  H  H24  1  0.562130  0.566446  0.115451  1
  H  H25  1  0.437870  0.066446  0.384549  1
  H  H26  1  0.572290  0.325103  0.939815  1
  H  H27  1  0.427710  0.825103  0.560185  1
  H  H28  1  0.427710  0.674897  0.060185  1
  H  H29  1  0.572290  0.174897  0.439815  1
  H  H30  1  0.808657  0.678207  0.668706  1
  H  H31  1  0.191343  0.178207  0.831294  1
  H  H32  1  0.191343  0.321793  0.331294  1
  H  H33  1  0.808657  0.821793  0.168706  1
  H  H34  1  0.808550  0.788751  0.751104  1
  H  H35  1  0.191450  0.288751  0.748896  1
  H  H36  1  0.191450  0.211249  0.248896  1
  H  H37  1  0.808550  0.711249  0.251104  1
  H  H38  1  0.386729  0.648773  0.786899  1
  H  H39  1  0.613271  0.148773  0.713101  1
  H  H40  1  0.613271  0.351227  0.213101  1
  H  H41  1  0.386729  0.851227  0.286899  1
  H  H42  1  0.493170  0.777068  0.814101  1
  H  H43  1  0.506830  0.277068  0.685899  1
  H  H44  1  0.506830  0.222932  0.185899  1
  H  H45  1  0.493170  0.722932  0.314101  1
  H  H46  1  0.888562  0.457709  0.118588  1
  H  H47  1  0.111438  0.957709  0.381412  1
  H  H48  1  0.111438  0.542291  0.881412  1
  H  H49  1  0.888562  0.042291  0.618588  1
  H  H50  1  0.885895  0.340078  0.043470  1
  H  H51  1  0.114105  0.840078  0.456530  1
  H  H52  1  0.114105  0.659922  0.956530  1
  H  H53  1  0.885895  0.159922  0.543470  1
  Cl  Cl54  1  0.175472  0.502577  0.737490  1
  Cl  Cl55  1  0.824528  0.002577  0.762510  1
  Cl  Cl56  1  0.824528  0.497423  0.262510  1
  Cl  Cl57  1  0.175472  0.997423  0.237490  1
  Cl  Cl58  1  0.247835  0.640744  0.471623  1
  Cl  Cl59  1  0.752165  0.140744  0.028377  1
  Cl  Cl60  1  0.752165  0.359256  0.528377  1
  Cl  Cl61  1  0.247835  0.859256  0.971623  1
  Cl  Cl62  1  0.846355  0.725182  0.512505  1
  Cl  Cl63  1  0.153645  0.225182  0.987495  1
  Cl  Cl64  1  0.153645  0.274818  0.487495  1
  Cl  Cl65  1  0.846355  0.774818  0.012505  1
  O  O66  1  0.845932  0.359644  0.802697  1
  O  O67  1  0.154068  0.859644  0.697303  1
  O  O68  1  0.154068  0.640356  0.197303  1
  O  O69  1  0.845932  0.140356  0.302697  1
  O  O70  1  0.545615  0.467239  0.665683  1
  O  O71  1  0.454385  0.967239  0.834317  1
  O  O72  1  0.454385  0.532761  0.334317  1
  O  O73  1  0.545615  0.032761  0.165683  1
  O  O74  1  0.554264  0.415576  0.912924  1
  O  O75  1  0.445736  0.915576  0.587076  1
  O  O76  1  0.445736  0.584424  0.087076  1
  O  O77  1  0.554264  0.084424  0.412924  1
  O  O78  1  0.799451  0.693359  0.740846  1
  O  O79  1  0.200549  0.193359  0.759154  1
  O  O80  1  0.200549  0.306641  0.259154  1
  O  O81  1  0.799451  0.806641  0.240846  1
  O  O82  1  0.499132  0.681331  0.816500  1
  O  O83  1  0.500868  0.181331  0.683500  1
  O  O84  1  0.500868  0.318669  0.183500  1
  O  O85  1  0.499132  0.818669  0.316500  1
  O  O86  1  0.910628  0.433883  0.051980  1
  O  O87  1  0.089372  0.933883  0.448020  1
  O  O88  1  0.089372  0.566117  0.948020  1
  O  O89  1  0.910628  0.066117  0.551980  1
