# generated using pymatgen
data_MnOF
_symmetry_space_group_name_H-M   'P 1'
_cell_length_a   4.63671666
_cell_length_b   5.65178106
_cell_length_c   10.31061623
_cell_angle_alpha   90.03623542
_cell_angle_beta   91.03329362
_cell_angle_gamma   91.84761285
_symmetry_Int_Tables_number   1
_chemical_formula_structural   MnOF
_chemical_formula_sum   'Mn8 O8 F8'
_cell_volume   270.01240543
_cell_formula_units_Z   8
loop_
 _symmetry_equiv_pos_site_id
 _symmetry_equiv_pos_as_xyz
  1  'x, y, z'
loop_
 _atom_site_type_symbol
 _atom_site_label
 _atom_site_symmetry_multiplicity
 _atom_site_fract_x
 _atom_site_fract_y
 _atom_site_fract_z
 _atom_site_occupancy
  Mn  Mn0  1  0.024699  0.151011  0.374552  1
  Mn  Mn1  1  0.954170  0.860501  0.627334  1
  Mn  Mn2  1  0.977551  0.176375  0.875923  1
  Mn  Mn3  1  0.026361  0.843108  0.134785  1
  Mn  Mn4  1  0.529344  0.343340  0.116693  1
  Mn  Mn5  1  0.460103  0.357082  0.621328  1
  Mn  Mn6  1  0.479444  0.619816  0.874787  1
  Mn  Mn7  1  0.514879  0.651143  0.372610  1
  O  O8  1  0.801760  0.117313  0.043441  1
  O  O9  1  0.814233  0.884087  0.293451  1
  O  O10  1  0.681248  0.389848  0.782163  1
  O  O11  1  0.705906  0.622535  0.543052  1
  O  O12  1  0.282260  0.371193  0.962386  1
  O  O13  1  0.266988  0.391485  0.453427  1
  O  O14  1  0.318520  0.613797  0.204355  1
  O  O15  1  0.174446  0.123224  0.710161  1
  F  F16  1  0.745475  0.110059  0.533638  1
  F  F17  1  0.721470  0.883843  0.801462  1
  F  F18  1  0.773745  0.377422  0.280488  1
  F  F19  1  0.773183  0.610422  0.030859  1
  F  F20  1  0.204761  0.631277  0.711588  1
  F  F21  1  0.242203  0.860708  0.964483  1
  F  F22  1  0.287364  0.109220  0.219148  1
  F  F23  1  0.239882  0.901191  0.467886  1
