# generated using pymatgen
data_Li4CrFe3O8
_symmetry_space_group_name_H-M   'P 1'
_cell_length_a   5.17216022
_cell_length_b   5.18489179
_cell_length_c   5.96628088
_cell_angle_alpha   106.75660876
_cell_angle_beta   89.98289046
_cell_angle_gamma   99.51075386
_symmetry_Int_Tables_number   1
_chemical_formula_structural   Li4CrFe3O8
_chemical_formula_sum   'Li4 Cr1 Fe3 O8'
_cell_volume   150.90865623
_cell_formula_units_Z   1
loop_
 _symmetry_equiv_pos_site_id
 _symmetry_equiv_pos_as_xyz
  1  'x, y, z'
loop_
 _atom_site_type_symbol
 _atom_site_label
 _atom_site_symmetry_multiplicity
 _atom_site_fract_x
 _atom_site_fract_y
 _atom_site_fract_z
 _atom_site_occupancy
  Li  Li0  1  0.247940  0.499681  0.375231  1
  Li  Li1  1  0.750663  0.501354  0.125703  1
  Li  Li2  1  0.249337  0.498646  0.874297  1
  Li  Li3  1  0.752060  0.500319  0.624769  1
  Cr  Cr4  1  0.000000  0.000000  0.500000  1
  Fe  Fe5  1  0.499745  0.999598  0.249867  1
  Fe  Fe6  1  0.000000  0.000000  0.000000  1
  Fe  Fe7  1  0.500255  0.000402  0.750133  1
  O  O8  1  0.127766  0.771553  0.193598  1
  O  O9  1  0.871652  0.227390  0.307734  1
  O  O10  1  0.627133  0.769510  0.942020  1
  O  O11  1  0.372867  0.230490  0.057980  1
  O  O12  1  0.128348  0.772610  0.692266  1
  O  O13  1  0.872234  0.228447  0.806402  1
  O  O14  1  0.631085  0.772644  0.443418  1
  O  O15  1  0.368915  0.227356  0.556582  1
