# generated using pymatgen
data_Na6Cr2C4SO16
_symmetry_space_group_name_H-M   'P 1'
_cell_length_a   9.96695447
_cell_length_b   9.96695447
_cell_length_c   9.96695447
_cell_angle_alpha   60.00000000
_cell_angle_beta   60.00000000
_cell_angle_gamma   60.00000000
_symmetry_Int_Tables_number   1
_chemical_formula_structural   Na6Cr2C4SO16
_chemical_formula_sum   'Na12 Cr4 C8 S2 O32'
_cell_volume   700.11990498
_cell_formula_units_Z   2
loop_
 _symmetry_equiv_pos_site_id
 _symmetry_equiv_pos_as_xyz
  1  'x, y, z'
loop_
 _atom_site_type_symbol
 _atom_site_label
 _atom_site_symmetry_multiplicity
 _atom_site_fract_x
 _atom_site_fract_y
 _atom_site_fract_z
 _atom_site_occupancy
  Na  Na0  1  0.785481  0.214519  0.214519  1
  Na  Na1  1  0.464519  0.035481  0.464519  1
  Na  Na2  1  0.785481  0.785481  0.214519  1
  Na  Na3  1  0.214519  0.214519  0.785481  1
  Na  Na4  1  0.035481  0.464519  0.035481  1
  Na  Na5  1  0.035481  0.464519  0.464519  1
  Na  Na6  1  0.214519  0.785481  0.214519  1
  Na  Na7  1  0.214519  0.785481  0.785481  1
  Na  Na8  1  0.035481  0.035481  0.464519  1
  Na  Na9  1  0.464519  0.464519  0.035481  1
  Na  Na10  1  0.785481  0.214519  0.785481  1
  Na  Na11  1  0.464519  0.035481  0.035481  1
  Cr  Cr12  1  0.125000  0.625000  0.625000  1
  Cr  Cr13  1  0.625000  0.625000  0.125000  1
  Cr  Cr14  1  0.625000  0.125000  0.625000  1
  Cr  Cr15  1  0.625000  0.625000  0.625000  1
  C  C16  1  0.786858  0.404381  0.404381  1
  C  C17  1  0.404381  0.404381  0.404381  1
  C  C18  1  0.404381  0.404381  0.786858  1
  C  C19  1  0.404381  0.786858  0.404381  1
  C  C20  1  0.845619  0.463142  0.845619  1
  C  C21  1  0.845619  0.845619  0.463142  1
  C  C22  1  0.845619  0.845619  0.845619  1
  C  C23  1  0.463142  0.845619  0.845619  1
  S  S24  1  1.000000  1.000000  1.000000  1
  S  S25  1  0.250000  0.250000  0.250000  1
  O  O26  1  0.727791  0.823979  0.461575  1
  O  O27  1  0.461575  0.986655  0.727791  1
  O  O28  1  0.788425  0.426021  0.263345  1
  O  O29  1  0.522209  0.263345  0.426021  1
  O  O30  1  0.788425  0.522209  0.426021  1
  O  O31  1  0.061405  0.815785  0.061405  1
  O  O32  1  0.426021  0.263345  0.788424  1
  O  O33  1  0.061405  0.061405  0.815785  1
  O  O34  1  0.061405  0.061405  0.061405  1
  O  O35  1  0.426021  0.522209  0.263345  1
  O  O36  1  0.263345  0.426021  0.522209  1
  O  O37  1  0.815785  0.061405  0.061405  1
  O  O38  1  0.522209  0.788424  0.263345  1
  O  O39  1  0.263345  0.522209  0.788425  1
  O  O40  1  0.426021  0.788425  0.522209  1
  O  O41  1  0.986655  0.461575  0.823979  1
  O  O42  1  0.263345  0.788424  0.426021  1
  O  O43  1  0.823979  0.461575  0.727791  1
  O  O44  1  0.986655  0.727791  0.461575  1
  O  O45  1  0.727791  0.461575  0.986655  1
  O  O46  1  0.434215  0.188595  0.188595  1
  O  O47  1  0.986655  0.823979  0.727791  1
  O  O48  1  0.823979  0.727791  0.986655  1
  O  O49  1  0.188595  0.188595  0.434215  1
  O  O50  1  0.188595  0.188595  0.188595  1
  O  O51  1  0.823979  0.986655  0.461575  1
  O  O52  1  0.188595  0.434215  0.188595  1
  O  O53  1  0.461575  0.727791  0.823979  1
  O  O54  1  0.727791  0.986655  0.823979  1
  O  O55  1  0.461576  0.823979  0.986655  1
  O  O56  1  0.788425  0.263345  0.522209  1
  O  O57  1  0.522209  0.426021  0.788425  1
