# generated using pymatgen
data_Li2Cu(Si2O5)2
_symmetry_space_group_name_H-M   'P 1'
_cell_length_a   6.88746997
_cell_length_b   7.37537167
_cell_length_c   9.62374750
_cell_angle_alpha   100.56448419
_cell_angle_beta   103.01243532
_cell_angle_gamma   116.84170917
_symmetry_Int_Tables_number   1
_chemical_formula_structural   Li2Cu(Si2O5)2
_chemical_formula_sum   'Li4 Cu2 Si8 O20'
_cell_volume   401.50303056
_cell_formula_units_Z   2
loop_
 _symmetry_equiv_pos_site_id
 _symmetry_equiv_pos_as_xyz
  1  'x, y, z'
loop_
 _atom_site_type_symbol
 _atom_site_label
 _atom_site_symmetry_multiplicity
 _atom_site_fract_x
 _atom_site_fract_y
 _atom_site_fract_z
 _atom_site_occupancy
  Li  Li0  1  0.369052  0.258739  0.024376  1
  Li  Li1  1  0.218407  0.701297  0.565664  1
  Li  Li2  1  0.781593  0.298703  0.434336  1
  Li  Li3  1  0.630948  0.741261  0.975624  1
  Cu  Cu4  1  0.239761  0.295448  0.430081  1
  Cu  Cu5  1  0.760239  0.704552  0.569919  1
  Si  Si6  1  0.239223  0.964233  0.184751  1
  Si  Si7  1  0.403816  0.666929  0.264167  1
  Si  Si8  1  0.801651  0.612647  0.238942  1
  Si  Si9  1  0.902050  0.278074  0.148291  1
  Si  Si10  1  0.097950  0.721926  0.851709  1
  Si  Si11  1  0.198349  0.387353  0.761058  1
  Si  Si12  1  0.596184  0.333071  0.735833  1
  Si  Si13  1  0.760777  0.035767  0.815249  1
  O  O14  1  0.210789  0.934092  0.003139  1
  O  O15  1  0.143197  0.474557  0.148273  1
  O  O16  1  0.427212  0.898162  0.258523  1
  O  O17  1  0.569354  0.629988  0.173738  1
  O  O18  1  0.984571  0.797161  0.187255  1
  O  O19  1  0.719237  0.370327  0.126475  1
  O  O20  1  0.467787  0.667347  0.435847  1
  O  O21  1  0.327881  0.212689  0.258084  1
  O  O22  1  0.069705  0.780955  0.699282  1
  O  O23  1  0.115853  0.372825  0.587299  1
  O  O24  1  0.884147  0.627175  0.412701  1
  O  O25  1  0.930295  0.219045  0.300718  1
  O  O26  1  0.672119  0.787311  0.741916  1
  O  O27  1  0.532213  0.332653  0.564153  1
  O  O28  1  0.280763  0.629673  0.873525  1
  O  O29  1  0.015429  0.202839  0.812745  1
  O  O30  1  0.430646  0.370012  0.826262  1
  O  O31  1  0.572788  0.101838  0.741477  1
  O  O32  1  0.856803  0.525443  0.851727  1
  O  O33  1  0.789211  0.065908  0.996861  1
