# generated using pymatgen
data_Li5WNO4
_symmetry_space_group_name_H-M   'P 1'
_cell_length_a   5.25898506
_cell_length_b   5.25898506
_cell_length_c   9.77979234
_cell_angle_alpha   90.00000000
_cell_angle_beta   90.00000000
_cell_angle_gamma   123.05006101
_symmetry_Int_Tables_number   1
_chemical_formula_structural   Li5WNO4
_chemical_formula_sum   'Li10 W2 N2 O8'
_cell_volume   226.71395448
_cell_formula_units_Z   2
loop_
 _symmetry_equiv_pos_site_id
 _symmetry_equiv_pos_as_xyz
  1  'x, y, z'
loop_
 _atom_site_type_symbol
 _atom_site_label
 _atom_site_symmetry_multiplicity
 _atom_site_fract_x
 _atom_site_fract_y
 _atom_site_fract_z
 _atom_site_occupancy
  Li  Li0  1  0.192955  0.767142  0.992723  1
  Li  Li1  1  0.232858  0.807045  0.492723  1
  Li  Li2  1  0.152326  0.536890  0.744903  1
  Li  Li3  1  0.463110  0.847674  0.244903  1
  Li  Li4  1  0.574416  0.574416  0.473327  1
  Li  Li5  1  0.425584  0.425584  0.973327  1
  Li  Li6  1  0.536890  0.152326  0.744903  1
  Li  Li7  1  0.847674  0.463110  0.244903  1
  Li  Li8  1  0.767142  0.192955  0.992723  1
  Li  Li9  1  0.807045  0.232858  0.492723  1
  W  W10  1  0.195921  0.195921  0.250613  1
  W  W11  1  0.804079  0.804079  0.750613  1
  N  N12  1  0.841602  0.841602  0.274182  1
  N  N13  1  0.158398  0.158398  0.774182  1
  O  O14  1  0.177039  0.473694  0.377606  1
  O  O15  1  0.526306  0.822961  0.877606  1
  O  O16  1  0.130776  0.424632  0.110942  1
  O  O17  1  0.575368  0.869224  0.610942  1
  O  O18  1  0.424632  0.130776  0.110942  1
  O  O19  1  0.869224  0.575368  0.610942  1
  O  O20  1  0.473694  0.177039  0.377606  1
  O  O21  1  0.822961  0.526306  0.877606  1
