# generated using pymatgen
data_Cd6(CoO3)5
_symmetry_space_group_name_H-M   'P 1'
_cell_length_a   6.73869267
_cell_length_b   6.73869267
_cell_length_c   6.73869267
_cell_angle_alpha   87.11446613
_cell_angle_beta   87.11446613
_cell_angle_gamma   87.11446613
_symmetry_Int_Tables_number   1
_chemical_formula_structural   Cd6(CoO3)5
_chemical_formula_sum   'Cd6 Co5 O15'
_cell_volume   304.87764786
_cell_formula_units_Z   1
loop_
 _symmetry_equiv_pos_site_id
 _symmetry_equiv_pos_as_xyz
  1  'x, y, z'
loop_
 _atom_site_type_symbol
 _atom_site_label
 _atom_site_symmetry_multiplicity
 _atom_site_fract_x
 _atom_site_fract_y
 _atom_site_fract_z
 _atom_site_occupancy
  Cd  Cd0  1  0.836768  0.163232  0.500000  1
  Cd  Cd1  1  0.688814  0.311186  0.000000  1
  Cd  Cd2  1  0.000000  0.688814  0.311186  1
  Cd  Cd3  1  0.500000  0.836768  0.163232  1
  Cd  Cd4  1  0.163232  0.500000  0.836768  1
  Cd  Cd5  1  0.311186  0.000000  0.688814  1
  Co  Co6  1  0.500000  0.500000  0.500000  1
  Co  Co7  1  0.698276  0.698276  0.698276  1
  Co  Co8  1  0.898004  0.898004  0.898004  1
  Co  Co9  1  0.301724  0.301724  0.301724  1
  Co  Co10  1  0.101996  0.101996  0.101996  1
  O  O11  1  0.000000  0.156474  0.843526  1
  O  O12  1  0.700088  0.422579  0.679933  1
  O  O13  1  0.577421  0.299912  0.320067  1
  O  O14  1  0.261223  0.024865  0.329694  1
  O  O15  1  0.975135  0.738777  0.670306  1
  O  O16  1  0.738777  0.670306  0.975135  1
  O  O17  1  0.329694  0.261223  0.024865  1
  O  O18  1  0.679933  0.700088  0.422579  1
  O  O19  1  0.299912  0.320067  0.577421  1
  O  O20  1  0.843526  0.000000  0.156474  1
  O  O21  1  0.422579  0.679933  0.700088  1
  O  O22  1  0.320067  0.577421  0.299912  1
  O  O23  1  0.670306  0.975135  0.738777  1
  O  O24  1  0.024865  0.329694  0.261223  1
  O  O25  1  0.156474  0.843526  0.000000  1
