# generated using pymatgen
data_Na5Ti12O24
_symmetry_space_group_name_H-M   'P 1'
_cell_length_a   5.51983243
_cell_length_b   8.97734743
_cell_length_c   9.53170758
_cell_angle_alpha   90.00000000
_cell_angle_beta   90.15315120
_cell_angle_gamma   90.00000000
_symmetry_Int_Tables_number   1
_chemical_formula_structural   Na5Ti12O24
_chemical_formula_sum   'Na5 Ti12 O24'
_cell_volume   472.32734125
_cell_formula_units_Z   1
loop_
 _symmetry_equiv_pos_site_id
 _symmetry_equiv_pos_as_xyz
  1  'x, y, z'
loop_
 _atom_site_type_symbol
 _atom_site_label
 _atom_site_symmetry_multiplicity
 _atom_site_fract_x
 _atom_site_fract_y
 _atom_site_fract_z
 _atom_site_occupancy
  Na  Na0  1  0.456741  0.500000  0.021861  1
  Na  Na1  1  0.537315  0.000000  0.975261  1
  Na  Na2  1  0.961167  0.000000  0.480387  1
  Na  Na3  1  0.954550  0.335168  0.476952  1
  Na  Na4  1  0.954550  0.664832  0.476952  1
  Ti  Ti5  1  0.004055  0.500000  0.851973  1
  Ti  Ti6  1  0.014096  0.826737  0.854419  1
  Ti  Ti7  1  0.014096  0.173263  0.854419  1
  Ti  Ti8  1  0.487560  0.170587  0.352854  1
  Ti  Ti9  1  0.479177  0.500000  0.354450  1
  Ti  Ti10  1  0.487560  0.829413  0.352854  1
  Ti  Ti11  1  0.505828  0.333831  0.648467  1
  Ti  Ti12  1  0.512818  0.000000  0.642707  1
  Ti  Ti13  1  0.505828  0.666169  0.648467  1
  Ti  Ti14  1  0.989551  0.000000  0.144174  1
  Ti  Ti15  1  0.981701  0.675136  0.136893  1
  Ti  Ti16  1  0.981701  0.324864  0.136893  1
  O  O17  1  0.178844  0.328841  0.960929  1
  O  O18  1  0.178844  0.671159  0.960929  1
  O  O19  1  0.154782  0.000000  0.960417  1
  O  O20  1  0.185062  0.832235  0.232370  1
  O  O21  1  0.185062  0.167765  0.232370  1
  O  O22  1  0.196796  0.500000  0.227256  1
  O  O23  1  0.300501  0.837748  0.724545  1
  O  O24  1  0.300501  0.162252  0.724545  1
  O  O25  1  0.300565  0.500000  0.728991  1
  O  O26  1  0.333768  0.331115  0.465933  1
  O  O27  1  0.333768  0.668885  0.465933  1
  O  O28  1  0.340374  0.000000  0.458426  1
  O  O29  1  0.675508  0.500000  0.541564  1
  O  O30  1  0.679447  0.832636  0.537655  1
  O  O31  1  0.679447  0.167364  0.537655  1
  O  O32  1  0.698104  0.000000  0.273454  1
  O  O33  1  0.699963  0.335679  0.276078  1
  O  O34  1  0.699963  0.664321  0.276078  1
  O  O35  1  0.804514  0.331730  0.771089  1
  O  O36  1  0.804514  0.668270  0.771089  1
  O  O37  1  0.797677  0.000000  0.773862  1
  O  O38  1  0.816160  0.829522  0.035416  1
  O  O39  1  0.839486  0.500000  0.037616  1
  O  O40  1  0.816160  0.170478  0.035416  1
