# generated using pymatgen
data_Li3FeF6
_symmetry_space_group_name_H-M   'P 1'
_cell_length_a   6.04126346
_cell_length_b   6.04126346
_cell_length_c   6.04126346
_cell_angle_alpha   91.23840376
_cell_angle_beta   91.23840376
_cell_angle_gamma   91.23840376
_symmetry_Int_Tables_number   1
_chemical_formula_structural   Li3FeF6
_chemical_formula_sum   'Li6 Fe2 F12'
_cell_volume   220.33040557
_cell_formula_units_Z   2
loop_
 _symmetry_equiv_pos_site_id
 _symmetry_equiv_pos_as_xyz
  1  'x, y, z'
loop_
 _atom_site_type_symbol
 _atom_site_label
 _atom_site_symmetry_multiplicity
 _atom_site_fract_x
 _atom_site_fract_y
 _atom_site_fract_z
 _atom_site_occupancy
  Li  Li0  1  0.248522  0.553202  0.061370  1
  Li  Li1  1  0.938630  0.751478  0.446798  1
  Li  Li2  1  0.446798  0.938630  0.751478  1
  Li  Li3  1  0.553202  0.061370  0.248522  1
  Li  Li4  1  0.061370  0.248522  0.553202  1
  Li  Li5  1  0.751478  0.446798  0.938630  1
  Fe  Fe6  1  0.000000  0.000000  0.000000  1
  Fe  Fe7  1  0.500000  0.500000  0.500000  1
  F  F8  1  0.304952  0.927537  0.078603  1
  F  F9  1  0.921397  0.695048  0.072463  1
  F  F10  1  0.598619  0.805158  0.451414  1
  F  F11  1  0.072463  0.921397  0.695048  1
  F  F12  1  0.548586  0.401381  0.194842  1
  F  F13  1  0.194842  0.548586  0.401381  1
  F  F14  1  0.805158  0.451414  0.598619  1
  F  F15  1  0.451414  0.598619  0.805158  1
  F  F16  1  0.927537  0.078603  0.304952  1
  F  F17  1  0.401381  0.194842  0.548586  1
  F  F18  1  0.078603  0.304952  0.927537  1
  F  F19  1  0.695048  0.072463  0.921397  1
