# generated using pymatgen
data_W7(OF5)6
_symmetry_space_group_name_H-M   'P 1'
_cell_length_a   10.98010543
_cell_length_b   10.98010543
_cell_length_c   10.98010543
_cell_angle_alpha   50.24466522
_cell_angle_beta   50.24466522
_cell_angle_gamma   50.24466522
_symmetry_Int_Tables_number   1
_chemical_formula_structural   W7(OF5)6
_chemical_formula_sum   'W7 O6 F30'
_cell_volume   720.42077257
_cell_formula_units_Z   1
loop_
 _symmetry_equiv_pos_site_id
 _symmetry_equiv_pos_as_xyz
  1  'x, y, z'
loop_
 _atom_site_type_symbol
 _atom_site_label
 _atom_site_symmetry_multiplicity
 _atom_site_fract_x
 _atom_site_fract_y
 _atom_site_fract_z
 _atom_site_occupancy
  W  W0  1  0.000000  1.000000  0.000000  1
  W  W1  1  0.079422  0.394773  0.767237  1
  W  W2  1  0.232763  0.920578  0.605227  1
  W  W3  1  0.605227  0.232763  0.920578  1
  W  W4  1  0.394773  0.767237  0.079422  1
  W  W5  1  0.767237  0.079422  0.394773  1
  W  W6  1  0.920578  0.605227  0.232763  1
  O  O7  1  0.091107  0.022604  0.769019  1
  O  O8  1  0.022604  0.769019  0.091107  1
  O  O9  1  0.769019  0.091107  0.022604  1
  O  O10  1  0.230981  0.908893  0.977396  1
  O  O11  1  0.977396  0.230981  0.908893  1
  O  O12  1  0.908893  0.977396  0.230981  1
  F  F13  1  0.089987  0.090250  0.480721  1
  F  F14  1  0.054560  0.459428  0.363708  1
  F  F15  1  0.363708  0.054560  0.459428  1
  F  F16  1  0.090250  0.480721  0.089987  1
  F  F17  1  0.211407  0.252448  0.900065  1
  F  F18  1  0.099935  0.788593  0.747552  1
  F  F19  1  0.480721  0.089987  0.090250  1
  F  F20  1  0.459428  0.363708  0.054560  1
  F  F21  1  0.198750  0.539517  0.621226  1
  F  F22  1  0.249119  0.270858  0.622817  1
  F  F23  1  0.377183  0.750881  0.729142  1
  F  F24  1  0.460483  0.378774  0.801250  1
  F  F25  1  0.378774  0.801250  0.460483  1
  F  F26  1  0.747552  0.099935  0.788593  1
  F  F27  1  0.729142  0.377183  0.750881  1
  F  F28  1  0.270858  0.622817  0.249119  1
  F  F29  1  0.252448  0.900065  0.211407  1
  F  F30  1  0.621226  0.198750  0.539517  1
  F  F31  1  0.539517  0.621226  0.198750  1
  F  F32  1  0.622817  0.249119  0.270858  1
  F  F33  1  0.750881  0.729142  0.377183  1
  F  F34  1  0.801250  0.460483  0.378774  1
  F  F35  1  0.540572  0.636292  0.945440  1
  F  F36  1  0.519279  0.910013  0.909750  1
  F  F37  1  0.900065  0.211407  0.252448  1
  F  F38  1  0.788593  0.747552  0.099935  1
  F  F39  1  0.909750  0.519279  0.910013  1
  F  F40  1  0.636292  0.945440  0.540572  1
  F  F41  1  0.945440  0.540572  0.636292  1
  F  F42  1  0.910013  0.909750  0.519279  1
