# generated using pymatgen
data_Co21Cu3O32
_symmetry_space_group_name_H-M   'P 1'
_cell_length_a   19.08696448
_cell_length_b   19.08696448
_cell_length_c   19.08696448
_cell_angle_alpha   17.36039969
_cell_angle_beta   17.36039969
_cell_angle_gamma   17.36039969
_symmetry_Int_Tables_number   1
_chemical_formula_structural   Co21Cu3O32
_chemical_formula_sum   'Co21 Cu3 O32'
_cell_volume   540.24847711
_cell_formula_units_Z   1
loop_
 _symmetry_equiv_pos_site_id
 _symmetry_equiv_pos_as_xyz
  1  'x, y, z'
loop_
 _atom_site_type_symbol
 _atom_site_label
 _atom_site_symmetry_multiplicity
 _atom_site_fract_x
 _atom_site_fract_y
 _atom_site_fract_z
 _atom_site_occupancy
  Co  Co0  1  0.718753  0.218855  0.218855  1
  Co  Co1  1  0.343748  0.343748  0.343748  1
  Co  Co2  1  0.218855  0.718753  0.218855  1
  Co  Co3  1  0.218855  0.218855  0.718753  1
  Co  Co4  1  0.437788  0.437788  0.437788  1
  Co  Co5  1  0.093771  0.093771  0.093771  1
  Co  Co6  1  0.749681  0.749681  0.749681  1
  Co  Co7  1  0.968601  0.968601  0.468870  1
  Co  Co8  1  0.968601  0.468870  0.968601  1
  Co  Co9  1  0.718823  0.218611  0.718823  1
  Co  Co10  1  0.187350  0.187350  0.187350  1
  Co  Co11  1  0.843705  0.843705  0.843705  1
  Co  Co12  1  0.468870  0.968601  0.968601  1
  Co  Co13  1  0.218611  0.718823  0.718823  1
  Co  Co14  1  0.249990  0.249990  0.249990  1
  Co  Co15  1  0.468812  0.468812  0.968564  1
  Co  Co16  1  0.718823  0.718823  0.218611  1
  Co  Co17  1  0.937689  0.937689  0.937689  1
  Co  Co18  1  0.968564  0.468812  0.468812  1
  Co  Co19  1  0.593698  0.593698  0.593698  1
  Co  Co20  1  0.468812  0.968564  0.468812  1
  Cu  Cu21  1  0.000245  0.000245  0.000245  1
  Cu  Cu22  1  0.687429  0.687429  0.687429  1
  Cu  Cu23  1  0.500049  0.500049  0.500049  1
  O  O24  1  0.513633  0.070311  0.513633  1
  O  O25  1  0.070311  0.513633  0.513633  1
  O  O26  1  0.403129  0.403129  0.403129  1
  O  O27  1  0.034973  0.034973  0.034973  1
  O  O28  1  0.673790  0.117302  0.673790  1
  O  O29  1  0.923183  0.923183  0.369377  1
  O  O30  1  0.923183  0.369377  0.923183  1
  O  O31  1  0.264380  0.264380  0.818190  1
  O  O32  1  0.513633  0.513633  0.070311  1
  O  O33  1  0.818190  0.264380  0.264380  1
  O  O34  1  0.567865  0.014629  0.014629  1
  O  O35  1  0.152808  0.152808  0.152808  1
  O  O36  1  0.369377  0.923183  0.923183  1
  O  O37  1  0.117302  0.673790  0.673790  1
  O  O38  1  0.784372  0.784372  0.784372  1
  O  O39  1  0.673790  0.673790  0.117302  1
  O  O40  1  0.422881  0.422881  0.869763  1
  O  O41  1  0.264380  0.818190  0.264380  1
  O  O42  1  0.014629  0.014629  0.567865  1
  O  O43  1  0.014629  0.567865  0.014629  1
  O  O44  1  0.902996  0.902996  0.902996  1
  O  O45  1  0.534883  0.534883  0.534883  1
  O  O46  1  0.284513  0.284513  0.284513  1
  O  O47  1  0.869763  0.422881  0.422881  1
  O  O48  1  0.617498  0.173752  0.173752  1
  O  O49  1  0.422881  0.869763  0.422881  1
  O  O50  1  0.173752  0.617498  0.173752  1
  O  O51  1  0.173752  0.173752  0.617498  1
  O  O52  1  0.764320  0.764320  0.318128  1
  O  O53  1  0.764320  0.318128  0.764320  1
  O  O54  1  0.652611  0.652611  0.652611  1
  O  O55  1  0.318128  0.764320  0.764320  1
