# generated using pymatgen
data_LiMnBO3
_symmetry_space_group_name_H-M   'P 1'
_cell_length_a   5.19376015
_cell_length_b   5.24501533
_cell_length_c   6.06429616
_cell_angle_alpha   90.48295434
_cell_angle_beta   113.07062009
_cell_angle_gamma   119.12439751
_symmetry_Int_Tables_number   1
_chemical_formula_structural   LiMnBO3
_chemical_formula_sum   'Li2 Mn2 B2 O6'
_cell_volume   128.63006692
_cell_formula_units_Z   2
loop_
 _symmetry_equiv_pos_site_id
 _symmetry_equiv_pos_as_xyz
  1  'x, y, z'
loop_
 _atom_site_type_symbol
 _atom_site_label
 _atom_site_symmetry_multiplicity
 _atom_site_fract_x
 _atom_site_fract_y
 _atom_site_fract_z
 _atom_site_occupancy
  Li  Li0  1  0.435374  0.367629  0.671050  1
  Li  Li1  1  0.564626  0.632371  0.328950  1
  Mn  Mn2  1  0.160271  0.746264  0.766567  1
  Mn  Mn3  1  0.839729  0.253736  0.233433  1
  B  B4  1  0.807436  0.072236  0.737491  1
  B  B5  1  0.192564  0.927764  0.262509  1
  O  O6  1  0.032528  0.302472  0.675834  1
  O  O7  1  0.622952  0.129324  0.826154  1
  O  O8  1  0.754043  0.786711  0.702684  1
  O  O9  1  0.245957  0.213289  0.297316  1
  O  O10  1  0.377048  0.870676  0.173846  1
  O  O11  1  0.967472  0.697528  0.324166  1
