# generated using pymatgen
data_P4WO12
_symmetry_space_group_name_H-M   'P 1'
_cell_length_a   7.35052413
_cell_length_b   7.35052413
_cell_length_c   10.45474811
_cell_angle_alpha   65.52901220
_cell_angle_beta   114.47098780
_cell_angle_gamma   110.41915649
_symmetry_Int_Tables_number   1
_chemical_formula_structural   P4WO12
_chemical_formula_sum   'P8 W2 O24'
_cell_volume   457.10391900
_cell_formula_units_Z   2
loop_
 _symmetry_equiv_pos_site_id
 _symmetry_equiv_pos_as_xyz
  1  'x, y, z'
loop_
 _atom_site_type_symbol
 _atom_site_label
 _atom_site_symmetry_multiplicity
 _atom_site_fract_x
 _atom_site_fract_y
 _atom_site_fract_z
 _atom_site_occupancy
  P  P0  1  0.686846  0.285694  0.195922  1
  P  P1  1  0.271434  0.252999  0.980071  1
  P  P2  1  0.252999  0.271434  0.519929  1
  P  P3  1  0.714306  0.313154  0.695922  1
  P  P4  1  0.285694  0.686846  0.304078  1
  P  P5  1  0.747001  0.728566  0.480071  1
  P  P6  1  0.728566  0.747001  0.019929  1
  P  P7  1  0.313154  0.714306  0.804078  1
  W  W8  1  0.053072  0.053072  0.250000  1
  W  W9  1  0.946928  0.946928  0.750000  1
  O  O10  1  0.356609  0.807895  0.663137  1
  O  O11  1  0.743707  0.803193  0.593707  1
  O  O12  1  0.285171  0.467741  0.855045  1
  O  O13  1  0.196807  0.256293  0.093707  1
  O  O14  1  0.502581  0.224305  0.055376  1
  O  O15  1  0.872462  0.249989  0.186045  1
  O  O16  1  0.775695  0.497419  0.555376  1
  O  O17  1  0.807895  0.356609  0.836863  1
  O  O18  1  0.155876  0.090825  0.905566  1
  O  O19  1  0.249989  0.872462  0.313955  1
  O  O20  1  0.467741  0.285171  0.644955  1
  O  O21  1  0.090825  0.155876  0.594434  1
  O  O22  1  0.909175  0.844124  0.405566  1
  O  O23  1  0.532259  0.714829  0.355045  1
  O  O24  1  0.750011  0.127538  0.686045  1
  O  O25  1  0.844124  0.909175  0.094434  1
  O  O26  1  0.192105  0.643391  0.163137  1
  O  O27  1  0.224305  0.502581  0.444624  1
  O  O28  1  0.127538  0.750011  0.813955  1
  O  O29  1  0.497419  0.775695  0.944624  1
  O  O30  1  0.803193  0.743707  0.906293  1
  O  O31  1  0.714829  0.532259  0.144955  1
  O  O32  1  0.256293  0.196807  0.406293  1
  O  O33  1  0.643391  0.192105  0.336863  1
