# generated using pymatgen
data_Fe6O5F7
_symmetry_space_group_name_H-M   'P 1'
_cell_length_a   4.77820085
_cell_length_b   5.69610219
_cell_length_c   7.82525632
_cell_angle_alpha   85.45839320
_cell_angle_beta   88.27199171
_cell_angle_gamma   87.89294489
_symmetry_Int_Tables_number   1
_chemical_formula_structural   Fe6O5F7
_chemical_formula_sum   'Fe6 O5 F7'
_cell_volume   212.08929743
_cell_formula_units_Z   1
loop_
 _symmetry_equiv_pos_site_id
 _symmetry_equiv_pos_as_xyz
  1  'x, y, z'
loop_
 _atom_site_type_symbol
 _atom_site_label
 _atom_site_symmetry_multiplicity
 _atom_site_fract_x
 _atom_site_fract_y
 _atom_site_fract_z
 _atom_site_occupancy
  Fe  Fe0  1  0.526268  0.851468  0.674289  1
  Fe  Fe1  1  0.519406  0.476571  0.000269  1
  Fe  Fe2  1  0.470036  0.187112  0.333190  1
  Fe  Fe3  1  0.988648  0.325847  0.667216  1
  Fe  Fe4  1  0.018937  0.660072  0.331086  1
  Fe  Fe5  1  0.964120  0.005846  0.995725  1
  O  O6  1  0.806663  0.043055  0.771594  1
  O  O7  1  0.696369  0.194150  0.110772  1
  O  O8  1  0.695146  0.544442  0.769099  1
  O  O9  1  0.304723  0.125993  0.564934  1
  O  O10  1  0.318559  0.467338  0.220079  1
  F  F11  1  0.801092  0.359784  0.438496  1
  F  F12  1  0.804514  0.701782  0.091763  1
  F  F13  1  0.697419  0.864695  0.431082  1
  F  F14  1  0.297113  0.800502  0.905508  1
  F  F15  1  0.196541  0.973103  0.218875  1
  F  F16  1  0.198403  0.625105  0.576302  1
  F  F17  1  0.196044  0.293132  0.899718  1
