# generated using pymatgen
data_SrLaCl5
_symmetry_space_group_name_H-M   'P 1'
_cell_length_a   12.66715619
_cell_length_b   9.26424091
_cell_length_c   18.26317522
_cell_angle_alpha   90.00000000
_cell_angle_beta   130.60933493
_cell_angle_gamma   90.00000000
_symmetry_Int_Tables_number   1
_chemical_formula_structural   SrLaCl5
_chemical_formula_sum   'Sr8 La8 Cl40'
_cell_volume   1627.05256296
_cell_formula_units_Z   8
loop_
 _symmetry_equiv_pos_site_id
 _symmetry_equiv_pos_as_xyz
  1  'x, y, z'
loop_
 _atom_site_type_symbol
 _atom_site_label
 _atom_site_symmetry_multiplicity
 _atom_site_fract_x
 _atom_site_fract_y
 _atom_site_fract_z
 _atom_site_occupancy
  Sr  Sr0  1  0.925581  0.755368  0.768800  1
  Sr  Sr1  1  0.235480  0.753857  0.717223  1
  Sr  Sr2  1  0.074419  0.255368  0.731200  1
  Sr  Sr3  1  0.764520  0.253857  0.782777  1
  Sr  Sr4  1  0.235480  0.746143  0.217223  1
  Sr  Sr5  1  0.925581  0.744632  0.268800  1
  Sr  Sr6  1  0.764520  0.246143  0.282777  1
  Sr  Sr7  1  0.074419  0.244632  0.231200  1
  La  La8  1  0.217797  0.252835  0.024571  1
  La  La9  1  0.540295  0.254908  0.903284  1
  La  La10  1  0.459705  0.754908  0.596716  1
  La  La11  1  0.782203  0.752835  0.475429  1
  La  La12  1  0.217797  0.247165  0.524571  1
  La  La13  1  0.540295  0.245092  0.403284  1
  La  La14  1  0.459705  0.745092  0.096716  1
  La  La15  1  0.782203  0.747165  0.975429  1
  Cl  Cl16  1  0.362686  0.272757  0.959333  1
  Cl  Cl17  1  0.251297  0.744210  0.892328  1
  Cl  Cl18  1  0.968692  0.763461  0.948726  1
  Cl  Cl19  1  0.014751  0.429601  0.849740  1
  Cl  Cl20  1  0.718078  0.045841  0.922466  1
  Cl  Cl21  1  0.729326  0.442362  0.915901  1
  Cl  Cl22  1  0.019255  0.078622  0.845993  1
  Cl  Cl23  1  0.322234  0.452864  0.786694  1
  Cl  Cl24  1  0.325378  0.050748  0.799351  1
  Cl  Cl25  1  0.520114  0.743813  0.785914  1
  Cl  Cl26  1  0.980745  0.578622  0.654007  1
  Cl  Cl27  1  0.479886  0.243813  0.714086  1
  Cl  Cl28  1  0.674622  0.550748  0.700649  1
  Cl  Cl29  1  0.677766  0.952864  0.713306  1
  Cl  Cl30  1  0.985249  0.929601  0.650260  1
  Cl  Cl31  1  0.748703  0.244210  0.607672  1
  Cl  Cl32  1  0.270674  0.942362  0.584099  1
  Cl  Cl33  1  0.281922  0.545841  0.577534  1
  Cl  Cl34  1  0.637314  0.772757  0.540667  1
  Cl  Cl35  1  0.031308  0.263461  0.551274  1
  Cl  Cl36  1  0.968692  0.736539  0.448726  1
  Cl  Cl37  1  0.362686  0.227243  0.459333  1
  Cl  Cl38  1  0.718078  0.454159  0.422466  1
  Cl  Cl39  1  0.729326  0.057638  0.415901  1
  Cl  Cl40  1  0.251297  0.755790  0.392328  1
  Cl  Cl41  1  0.014751  0.070399  0.349740  1
  Cl  Cl42  1  0.322234  0.047136  0.286694  1
  Cl  Cl43  1  0.325378  0.449252  0.299351  1
  Cl  Cl44  1  0.520114  0.756187  0.285914  1
  Cl  Cl45  1  0.019255  0.421378  0.345993  1
  Cl  Cl46  1  0.479886  0.256187  0.214086  1
  Cl  Cl47  1  0.674622  0.949252  0.200649  1
  Cl  Cl48  1  0.677766  0.547136  0.213306  1
  Cl  Cl49  1  0.980745  0.921378  0.154007  1
  Cl  Cl50  1  0.270674  0.557638  0.084099  1
  Cl  Cl51  1  0.281922  0.954159  0.077534  1
  Cl  Cl52  1  0.985249  0.570399  0.150260  1
  Cl  Cl53  1  0.031308  0.236539  0.051274  1
  Cl  Cl54  1  0.748703  0.255790  0.107672  1
  Cl  Cl55  1  0.637314  0.727243  0.040667  1
