# generated using pymatgen
data_NaFePCO7
_symmetry_space_group_name_H-M   'P 1'
_cell_length_a   5.28184382
_cell_length_b   6.44809495
_cell_length_c   9.21206266
_cell_angle_alpha   90.00000000
_cell_angle_beta   92.15961954
_cell_angle_gamma   90.00000000
_symmetry_Int_Tables_number   1
_chemical_formula_structural   NaFePCO7
_chemical_formula_sum   'Na2 Fe2 P2 C2 O14'
_cell_volume   313.52002362
_cell_formula_units_Z   2
loop_
 _symmetry_equiv_pos_site_id
 _symmetry_equiv_pos_as_xyz
  1  'x, y, z'
loop_
 _atom_site_type_symbol
 _atom_site_label
 _atom_site_symmetry_multiplicity
 _atom_site_fract_x
 _atom_site_fract_y
 _atom_site_fract_z
 _atom_site_occupancy
  Na  Na0  1  0.763672  0.526762  0.240377  1
  Na  Na1  1  0.236328  0.026762  0.759623  1
  Fe  Fe2  1  0.210848  0.234422  0.355884  1
  Fe  Fe3  1  0.789152  0.734422  0.644116  1
  P  P4  1  0.276804  0.743377  0.429576  1
  P  P5  1  0.723196  0.243377  0.570424  1
  C  C6  1  0.274490  0.255968  0.082177  1
  C  C7  1  0.725510  0.755968  0.917823  1
  O  O8  1  0.690861  0.755722  0.051793  1
  O  O9  1  0.051754  0.252013  0.136550  1
  O  O10  1  0.460400  0.258403  0.179055  1
  O  O11  1  0.216949  0.935135  0.335013  1
  O  O12  1  0.202530  0.550423  0.338196  1
  O  O13  1  0.868624  0.254405  0.427168  1
  O  O14  1  0.567131  0.735518  0.470106  1
  O  O15  1  0.432869  0.235518  0.529894  1
  O  O16  1  0.131376  0.754405  0.572832  1
  O  O17  1  0.797470  0.050423  0.661804  1
  O  O18  1  0.783051  0.435135  0.664987  1
  O  O19  1  0.539600  0.758403  0.820945  1
  O  O20  1  0.948246  0.752013  0.863450  1
  O  O21  1  0.309139  0.255722  0.948207  1
