# generated using pymatgen
data_Li6Fe3Sb(PO4)6
_symmetry_space_group_name_H-M   'P 1'
_cell_length_a   8.63900083
_cell_length_b   8.76982420
_cell_length_c   8.81254560
_cell_angle_alpha   60.84361340
_cell_angle_beta   60.99083427
_cell_angle_gamma   61.51053578
_symmetry_Int_Tables_number   1
_chemical_formula_structural   Li6Fe3Sb(PO4)6
_chemical_formula_sum   'Li6 Fe3 Sb1 P6 O24'
_cell_volume   483.92001823
_cell_formula_units_Z   1
loop_
 _symmetry_equiv_pos_site_id
 _symmetry_equiv_pos_as_xyz
  1  'x, y, z'
loop_
 _atom_site_type_symbol
 _atom_site_label
 _atom_site_symmetry_multiplicity
 _atom_site_fract_x
 _atom_site_fract_y
 _atom_site_fract_z
 _atom_site_occupancy
  Li  Li0  1  0.029158  0.015355  0.007388  1
  Li  Li1  1  0.729690  0.155665  0.351845  1
  Li  Li2  1  0.471955  0.497595  0.488398  1
  Li  Li3  1  0.310712  0.839166  0.638322  1
  Li  Li4  1  0.643337  0.312573  0.835664  1
  Li  Li5  1  0.836068  0.638383  0.312963  1
  Fe  Fe6  1  0.146787  0.149321  0.140568  1
  Fe  Fe7  1  0.349279  0.360805  0.353258  1
  Fe  Fe8  1  0.647469  0.653482  0.653424  1
  Sb  Sb9  1  0.854058  0.849978  0.851629  1
  P  P10  1  0.052587  0.751963  0.440702  1
  P  P11  1  0.444337  0.050603  0.748604  1
  P  P12  1  0.748707  0.444636  0.049909  1
  P  P13  1  0.247002  0.542959  0.954284  1
  P  P14  1  0.548339  0.960186  0.245559  1
  P  P15  1  0.952757  0.242300  0.536572  1
  O  O16  1  0.130972  0.260261  0.510517  1
  O  O17  1  0.277157  0.532940  0.113982  1
  O  O18  1  0.055062  0.924908  0.265412  1
  O  O19  1  0.557881  0.111326  0.277136  1
  O  O20  1  0.238702  0.601553  0.432901  1
  O  O21  1  0.000832  0.810266  0.610905  1
  O  O22  1  0.261867  0.078835  0.909282  1
  O  O23  1  0.466372  0.224971  0.581474  1
  O  O24  1  0.597554  0.433480  0.239833  1
  O  O25  1  0.173217  0.393729  0.000584  1
  O  O26  1  0.096386  0.747444  0.899168  1
  O  O27  1  0.385010  0.022163  0.183593  1
  O  O28  1  0.611102  0.992258  0.817975  1
  O  O29  1  0.909342  0.259671  0.072671  1
  O  O30  1  0.811595  0.610308  0.002392  1
  O  O31  1  0.414441  0.548875  0.771435  1
  O  O32  1  0.548356  0.777693  0.411584  1
  O  O33  1  0.749391  0.901004  0.091353  1
  O  O34  1  0.971375  0.183922  0.389247  1
  O  O35  1  0.776231  0.412807  0.553826  1
  O  O36  1  0.465534  0.896510  0.696505  1
  O  O37  1  0.903373  0.091783  0.743076  1
  O  O38  1  0.690698  0.473782  0.896771  1
  O  O39  1  0.895304  0.693539  0.470293  1
