# generated using pymatgen
data_Li5Fe6(BO3)6
_symmetry_space_group_name_H-M   'P 1'
_cell_length_a   8.76974454
_cell_length_b   8.76974454
_cell_length_c   8.24783472
_cell_angle_alpha   62.36434643
_cell_angle_beta   117.63565357
_cell_angle_gamma   138.34959717
_symmetry_Int_Tables_number   1
_chemical_formula_structural   Li5Fe6(BO3)6
_chemical_formula_sum   'Li5 Fe6 B6 O18'
_cell_volume   365.98877847
_cell_formula_units_Z   1
loop_
 _symmetry_equiv_pos_site_id
 _symmetry_equiv_pos_as_xyz
  1  'x, y, z'
loop_
 _atom_site_type_symbol
 _atom_site_label
 _atom_site_symmetry_multiplicity
 _atom_site_fract_x
 _atom_site_fract_y
 _atom_site_fract_z
 _atom_site_occupancy
  Li  Li0  1  0.241576  0.758424  0.698823  1
  Li  Li1  1  0.400119  0.599881  0.283762  1
  Li  Li2  1  0.900677  0.099323  0.285758  1
  Li  Li3  1  0.607782  0.392218  0.018949  1
  Li  Li4  1  0.108770  0.891230  0.014856  1
  Fe  Fe5  1  0.169289  0.317975  0.985456  1
  Fe  Fe6  1  0.682025  0.830711  0.985456  1
  Fe  Fe7  1  0.997994  0.488683  0.376505  1
  Fe  Fe8  1  0.511317  0.002006  0.376505  1
  Fe  Fe9  1  0.814656  0.674182  0.639642  1
  Fe  Fe10  1  0.325818  0.185344  0.639642  1
  B  B11  1  0.083431  0.916569  0.332199  1
  B  B12  1  0.580149  0.419851  0.325589  1
  B  B13  1  0.416383  0.583617  0.663621  1
  B  B14  1  0.921368  0.078632  0.668884  1
  B  B15  1  0.002753  0.505222  0.003057  1
  B  B16  1  0.494778  0.997247  0.003057  1
  O  O17  1  0.437305  0.027516  0.813307  1
  O  O18  1  0.972484  0.562695  0.813307  1
  O  O19  1  0.041707  0.958293  0.442484  1
  O  O20  1  0.540333  0.459667  0.440229  1
  O  O21  1  0.596608  0.902441  0.110384  1
  O  O22  1  0.097559  0.403392  0.110384  1
  O  O23  1  0.676446  0.323554  0.400038  1
  O  O24  1  0.181021  0.818979  0.417403  1
  O  O25  1  0.522249  0.477751  0.132485  1
  O  O26  1  0.028991  0.971009  0.138735  1
  O  O27  1  0.885103  0.114897  0.787761  1
  O  O28  1  0.376703  0.623297  0.778711  1
  O  O29  1  0.446820  0.053537  0.095867  1
  O  O30  1  0.946463  0.553180  0.095867  1
  O  O31  1  0.513640  0.486360  0.739565  1
  O  O32  1  0.017891  0.982109  0.739954  1
  O  O33  1  0.358106  0.641894  0.469648  1
  O  O34  1  0.860254  0.139746  0.474938  1
