# generated using pymatgen
data_Li2NiH12(SO7)2
_symmetry_space_group_name_H-M   'P 1'
_cell_length_a   5.85036604
_cell_length_b   11.84040125
_cell_length_c   8.60100582
_cell_angle_alpha   90.00000000
_cell_angle_beta   101.11992268
_cell_angle_gamma   90.00000000
_symmetry_Int_Tables_number   1
_chemical_formula_structural   Li2NiH12(SO7)2
_chemical_formula_sum   'Li4 Ni2 H24 S4 O28'
_cell_volume   584.61182917
_cell_formula_units_Z   2
loop_
 _symmetry_equiv_pos_site_id
 _symmetry_equiv_pos_as_xyz
  1  'x, y, z'
loop_
 _atom_site_type_symbol
 _atom_site_label
 _atom_site_symmetry_multiplicity
 _atom_site_fract_x
 _atom_site_fract_y
 _atom_site_fract_z
 _atom_site_occupancy
  Li  Li0  1  0.654420  0.378526  0.335906  1
  Li  Li1  1  0.345580  0.878526  0.164094  1
  Li  Li2  1  0.654420  0.121474  0.835906  1
  Li  Li3  1  0.345580  0.621474  0.664094  1
  Ni  Ni4  1  0.000000  0.000000  0.500000  1
  Ni  Ni5  1  0.000000  0.500000  0.000000  1
  H  H6  1  0.029157  0.805551  0.360134  1
  H  H7  1  0.651872  0.848435  0.467240  1
  H  H8  1  0.348806  0.060062  0.393260  1
  H  H9  1  0.075090  0.394166  0.271869  1
  H  H10  1  0.088554  0.629665  0.254535  1
  H  H11  1  0.676476  0.087128  0.287027  1
  H  H12  1  0.323524  0.587128  0.212973  1
  H  H13  1  0.911446  0.129665  0.245465  1
  H  H14  1  0.924910  0.894166  0.228131  1
  H  H15  1  0.651194  0.560062  0.106740  1
  H  H16  1  0.348128  0.348435  0.032760  1
  H  H17  1  0.970843  0.305551  0.139866  1
  H  H18  1  0.029157  0.694449  0.860134  1
  H  H19  1  0.651872  0.651565  0.967240  1
  H  H20  1  0.348806  0.439938  0.893260  1
  H  H21  1  0.075090  0.105834  0.771869  1
  H  H22  1  0.088554  0.870335  0.754535  1
  H  H23  1  0.676476  0.412872  0.787027  1
  H  H24  1  0.323524  0.912872  0.712973  1
  H  H25  1  0.911446  0.370335  0.745465  1
  H  H26  1  0.924910  0.605834  0.728131  1
  H  H27  1  0.651194  0.939938  0.606740  1
  H  H28  1  0.348128  0.151565  0.532760  1
  H  H29  1  0.970843  0.194449  0.639866  1
  S  S30  1  0.719077  0.632742  0.422701  1
  S  S31  1  0.280923  0.132742  0.077299  1
  S  S32  1  0.719077  0.867258  0.922701  1
  S  S33  1  0.280923  0.367258  0.577299  1
  O  O34  1  0.302634  0.408213  0.417220  1
  O  O35  1  0.691030  0.927968  0.501558  1
  O  O36  1  0.059634  0.880992  0.318081  1
  O  O37  1  0.563938  0.731622  0.377982  1
  O  O38  1  0.967612  0.662413  0.421116  1
  O  O39  1  0.832137  0.115042  0.335515  1
  O  O40  1  0.641282  0.540893  0.303691  1
  O  O41  1  0.358718  0.040893  0.196309  1
  O  O42  1  0.167863  0.615042  0.164485  1
  O  O43  1  0.032388  0.162413  0.078884  1
  O  O44  1  0.436062  0.231622  0.122018  1
  O  O45  1  0.940366  0.380992  0.181919  1
  O  O46  1  0.308970  0.427968  0.998442  1
  O  O47  1  0.697366  0.908213  0.082780  1
  O  O48  1  0.302634  0.091787  0.917220  1
  O  O49  1  0.691030  0.572032  0.001558  1
  O  O50  1  0.059634  0.619008  0.818081  1
  O  O51  1  0.563938  0.768378  0.877982  1
  O  O52  1  0.967612  0.837587  0.921116  1
  O  O53  1  0.832137  0.384958  0.835515  1
  O  O54  1  0.641282  0.959107  0.803691  1
  O  O55  1  0.358718  0.459107  0.696309  1
  O  O56  1  0.167863  0.884958  0.664485  1
  O  O57  1  0.032388  0.337587  0.578884  1
  O  O58  1  0.436062  0.268378  0.622018  1
  O  O59  1  0.940366  0.119008  0.681919  1
  O  O60  1  0.308970  0.072032  0.498442  1
  O  O61  1  0.697366  0.591787  0.582780  1
