# generated using pymatgen
data_CuH6SO7
_symmetry_space_group_name_H-M   'P 1'
_cell_length_a   7.43485398
_cell_length_b   7.43485398
_cell_length_c   7.22833272
_cell_angle_alpha   86.42730945
_cell_angle_beta   93.57269055
_cell_angle_gamma   43.85069766
_symmetry_Int_Tables_number   1
_chemical_formula_structural   CuH6SO7
_chemical_formula_sum   'Cu2 H12 S2 O14'
_cell_volume   272.92655170
_cell_formula_units_Z   2
loop_
 _symmetry_equiv_pos_site_id
 _symmetry_equiv_pos_as_xyz
  1  'x, y, z'
loop_
 _atom_site_type_symbol
 _atom_site_label
 _atom_site_symmetry_multiplicity
 _atom_site_fract_x
 _atom_site_fract_y
 _atom_site_fract_z
 _atom_site_occupancy
  Cu  Cu0  1  0.870320  0.851718  0.001167  1
  Cu  Cu1  1  0.148282  0.129680  0.501167  1
  H  H2  1  0.979494  0.833737  0.359520  1
  H  H3  1  0.166263  0.020506  0.859520  1
  H  H4  1  0.153680  0.535452  0.323628  1
  H  H5  1  0.464548  0.846320  0.823628  1
  H  H6  1  0.431203  0.739835  0.295691  1
  H  H7  1  0.260165  0.568797  0.795691  1
  H  H8  1  0.432099  0.647677  0.500863  1
  H  H9  1  0.352323  0.567901  0.000863  1
  H  H10  1  0.389411  0.235123  0.014809  1
  H  H11  1  0.764877  0.610589  0.514809  1
  H  H12  1  0.522261  0.083500  0.223715  1
  H  H13  1  0.916500  0.477739  0.723715  1
  S  S14  1  0.835608  0.377888  0.077043  1
  S  S15  1  0.622112  0.164392  0.577043  1
  O  O16  1  0.003907  0.326848  0.245871  1
  O  O17  1  0.673152  0.996093  0.745871  1
  O  O18  1  0.456651  0.183976  0.428882  1
  O  O19  1  0.816024  0.543349  0.928882  1
  O  O20  1  0.569146  0.527549  0.123216  1
  O  O21  1  0.472451  0.430854  0.623216  1
  O  O22  1  0.871369  0.042274  0.513565  1
  O  O23  1  0.957726  0.128631  0.013565  1
  O  O24  1  0.056997  0.714055  0.261863  1
  O  O25  1  0.285945  0.943003  0.761863  1
  O  O26  1  0.423060  0.775523  0.427494  1
  O  O27  1  0.224477  0.576940  0.927494  1
  O  O28  1  0.529814  0.056665  0.088374  1
  O  O29  1  0.943335  0.470186  0.588374  1
