# generated using pymatgen
data_Li2MnVP2(HO5)2
_symmetry_space_group_name_H-M   'P 1'
_cell_length_a   5.46923263
_cell_length_b   7.41603958
_cell_length_c   10.22881915
_cell_angle_alpha   105.59391618
_cell_angle_beta   96.67192930
_cell_angle_gamma   110.27974824
_symmetry_Int_Tables_number   1
_chemical_formula_structural   Li2MnVP2(HO5)2
_chemical_formula_sum   'Li4 Mn2 V2 P4 H4 O20'
_cell_volume   364.63645934
_cell_formula_units_Z   2
loop_
 _symmetry_equiv_pos_site_id
 _symmetry_equiv_pos_as_xyz
  1  'x, y, z'
loop_
 _atom_site_type_symbol
 _atom_site_label
 _atom_site_symmetry_multiplicity
 _atom_site_fract_x
 _atom_site_fract_y
 _atom_site_fract_z
 _atom_site_occupancy
  Li  Li0  1  0.107735  0.711602  0.541012  1
  Li  Li1  1  0.392560  0.783977  0.960683  1
  Li  Li2  1  0.613777  0.216761  0.037962  1
  Li  Li3  1  0.887785  0.286770  0.460895  1
  Mn  Mn4  1  0.252999  0.252804  0.751761  1
  Mn  Mn5  1  0.500601  0.501407  0.500589  1
  V  V6  1  0.744695  0.746255  0.249269  1
  V  V7  1  0.000680  0.998720  0.998259  1
  P  P8  1  0.088534  0.454672  0.222216  1
  P  P9  1  0.589315  0.954996  0.720499  1
  P  P10  1  0.403687  0.044743  0.277745  1
  P  P11  1  0.916347  0.544834  0.779091  1
  H  H12  1  0.218229  0.154816  0.488755  1
  H  H13  1  0.289145  0.351744  0.011222  1
  H  H14  1  0.711169  0.647802  0.987186  1
  H  H15  1  0.783627  0.847967  0.513588  1
  O  O16  1  0.043504  0.781032  0.851426  1
  O  O17  1  0.150142  0.948353  0.328601  1
  O  O18  1  0.148773  0.481843  0.826385  1
  O  O19  1  0.335843  0.995422  0.115988  1
  O  O20  1  0.147569  0.504091  0.381528  1
  O  O21  1  0.267594  0.219795  0.942923  1
  O  O22  1  0.459873  0.719235  0.648947  1
  O  O23  1  0.240345  0.287397  0.556544  1
  O  O24  1  0.344017  0.550983  0.171828  1
  O  O25  1  0.630954  0.977057  0.321850  1
  O  O26  1  0.357183  0.020975  0.680574  1
  O  O27  1  0.669183  0.452583  0.833812  1
  O  O28  1  0.761073  0.714353  0.445431  1
  O  O29  1  0.531157  0.279869  0.349250  1
  O  O30  1  0.736203  0.780926  0.056542  1
  O  O31  1  0.851274  0.495018  0.619345  1
  O  O32  1  0.665017  0.003510  0.882450  1
  O  O33  1  0.860885  0.519689  0.172703  1
  O  O34  1  0.834360  0.048241  0.664906  1
  O  O35  1  0.964163  0.219758  0.148234  1
