# generated using pymatgen
data_Li2MnO2F
_symmetry_space_group_name_H-M   'P 1'
_cell_length_a   4.07361014
_cell_length_b   5.92596580
_cell_length_c   8.93285264
_cell_angle_alpha   90.00000000
_cell_angle_beta   90.00000000
_cell_angle_gamma   90.00000000
_symmetry_Int_Tables_number   1
_chemical_formula_structural   Li2MnO2F
_chemical_formula_sum   'Li8 Mn4 O8 F4'
_cell_volume   215.63972679
_cell_formula_units_Z   4
loop_
 _symmetry_equiv_pos_site_id
 _symmetry_equiv_pos_as_xyz
  1  'x, y, z'
loop_
 _atom_site_type_symbol
 _atom_site_label
 _atom_site_symmetry_multiplicity
 _atom_site_fract_x
 _atom_site_fract_y
 _atom_site_fract_z
 _atom_site_occupancy
  Li  Li0  1  0.250000  0.637075  0.245927  1
  Li  Li1  1  0.250000  0.137075  0.254073  1
  Li  Li2  1  0.250000  0.614959  0.914449  1
  Li  Li3  1  0.250000  0.114959  0.585551  1
  Li  Li4  1  0.750000  0.885041  0.414449  1
  Li  Li5  1  0.750000  0.385041  0.085551  1
  Li  Li6  1  0.750000  0.862925  0.745927  1
  Li  Li7  1  0.750000  0.362925  0.754073  1
  Mn  Mn8  1  0.250000  0.613383  0.597997  1
  Mn  Mn9  1  0.250000  0.113383  0.902003  1
  Mn  Mn10  1  0.750000  0.886617  0.097997  1
  Mn  Mn11  1  0.750000  0.386617  0.402003  1
  O  O12  1  0.250000  0.894395  0.073852  1
  O  O13  1  0.250000  0.394395  0.426148  1
  O  O14  1  0.250000  0.849078  0.741919  1
  O  O15  1  0.250000  0.349078  0.758081  1
  O  O16  1  0.750000  0.650922  0.241919  1
  O  O17  1  0.750000  0.150922  0.258081  1
  O  O18  1  0.750000  0.605605  0.573852  1
  O  O19  1  0.750000  0.105605  0.926148  1
  F  F20  1  0.250000  0.882529  0.420888  1
  F  F21  1  0.250000  0.382529  0.079112  1
  F  F22  1  0.750000  0.617471  0.920888  1
  F  F23  1  0.750000  0.117471  0.579112  1
