# generated using pymatgen
data_Co3OF5
_symmetry_space_group_name_H-M   'P 1'
_cell_length_a   5.66038769
_cell_length_b   5.67903704
_cell_length_c   7.41711566
_cell_angle_alpha   72.92283823
_cell_angle_beta   72.67436199
_cell_angle_gamma   71.97038777
_symmetry_Int_Tables_number   1
_chemical_formula_structural   Co3OF5
_chemical_formula_sum   'Co6 O2 F10'
_cell_volume   211.03401392
_cell_formula_units_Z   2
loop_
 _symmetry_equiv_pos_site_id
 _symmetry_equiv_pos_as_xyz
  1  'x, y, z'
loop_
 _atom_site_type_symbol
 _atom_site_label
 _atom_site_symmetry_multiplicity
 _atom_site_fract_x
 _atom_site_fract_y
 _atom_site_fract_z
 _atom_site_occupancy
  Co  Co0  1  0.330936  0.350322  0.160832  1
  Co  Co1  1  0.342531  0.344112  0.672753  1
  Co  Co2  1  0.660285  0.672781  0.347097  1
  Co  Co3  1  0.647475  0.655520  0.824299  1
  Co  Co4  1  0.999359  0.004851  0.501808  1
  Co  Co5  1  0.024804  0.967993  0.997956  1
  O  O6  1  0.567084  0.572942  0.628086  1
  O  O7  1  0.298364  0.694710  0.997199  1
  F  F8  1  0.026000  0.639452  0.672086  1
  F  F9  1  0.360777  0.983629  0.327699  1
  F  F10  1  0.436383  0.437794  0.368739  1
  F  F11  1  0.099624  0.106142  0.704862  1
  F  F12  1  0.762927  0.761445  0.037351  1
  F  F13  1  0.227333  0.227056  0.967307  1
  F  F14  1  0.902743  0.900369  0.294642  1
  F  F15  1  0.634406  0.028035  0.670711  1
  F  F16  1  0.969880  0.366608  0.331118  1
  F  F17  1  0.709088  0.286240  0.995458  1
