# generated using pymatgen
data_Li3Fe5(PO4)6
_symmetry_space_group_name_H-M   'P 1'
_cell_length_a   7.95909272
_cell_length_b   8.40222423
_cell_length_c   8.85579623
_cell_angle_alpha   105.23321539
_cell_angle_beta   109.74219869
_cell_angle_gamma   108.56112686
_symmetry_Int_Tables_number   1
_chemical_formula_structural   Li3Fe5(PO4)6
_chemical_formula_sum   'Li3 Fe5 P6 O24'
_cell_volume   480.77204011
_cell_formula_units_Z   1
loop_
 _symmetry_equiv_pos_site_id
 _symmetry_equiv_pos_as_xyz
  1  'x, y, z'
loop_
 _atom_site_type_symbol
 _atom_site_label
 _atom_site_symmetry_multiplicity
 _atom_site_fract_x
 _atom_site_fract_y
 _atom_site_fract_z
 _atom_site_occupancy
  Li  Li0  1  0.318537  0.800737  0.299867  1
  Li  Li1  1  0.706158  0.055981  0.003193  1
  Li  Li2  1  0.064834  0.236351  0.525964  1
  Fe  Fe3  1  0.823684  0.283188  0.843188  1
  Fe  Fe4  1  0.553008  0.591869  0.238432  1
  Fe  Fe5  1  0.227069  0.984980  0.037344  1
  Fe  Fe6  1  0.495001  0.473397  0.681281  1
  Fe  Fe7  1  0.997655  0.687692  0.450461  1
  P  P8  1  0.844984  0.746104  0.075841  1
  P  P9  1  0.655666  0.283636  0.410494  1
  P  P10  1  0.729378  0.841017  0.611300  1
  P  P11  1  0.345449  0.098397  0.749883  1
  P  P12  1  0.244740  0.606336  0.885485  1
  P  P13  1  0.143102  0.400705  0.258186  1
  O  O14  1  0.902987  0.803004  0.601322  1
  O  O15  1  0.627342  0.339295  0.580954  1
  O  O16  1  0.824396  0.704860  0.238160  1
  O  O17  1  0.708602  0.453075  0.355379  1
  O  O18  1  0.812298  0.043872  0.734435  1
  O  O19  1  0.450291  0.123133  0.258391  1
  O  O20  1  0.728510  0.549394  0.918214  1
  O  O21  1  0.814124  0.220117  0.439017  1
  O  O22  1  0.270783  0.108309  0.891688  1
  O  O23  1  0.310452  0.235272  0.673309  1
  O  O24  1  0.584016  0.804207  0.421057  1
  O  O25  1  0.406839  0.670776  0.074302  1
  O  O26  1  0.205185  0.772800  0.875876  1
  O  O27  1  0.941354  0.279970  0.085348  1
  O  O28  1  0.572303  0.155270  0.845362  1
  O  O29  1  0.248262  0.906933  0.594567  1
  O  O30  1  0.309283  0.418177  0.200073  1
  O  O31  1  0.761534  0.876309  0.046734  1
  O  O32  1  0.309197  0.550482  0.744247  1
  O  O33  1  0.050787  0.444938  0.845840  1
  O  O34  1  0.612287  0.705891  0.668143  1
  O  O35  1  0.073403  0.830076  0.128170  1
  O  O36  1  0.142864  0.591801  0.335973  1
  O  O37  1  0.183639  0.321652  0.394673  1
