# generated using pymatgen
data_Na4B4Sb2SO16
_symmetry_space_group_name_H-M   'P 1'
_cell_length_a   10.05034699
_cell_length_b   10.01864598
_cell_length_c   9.85391936
_cell_angle_alpha   60.75423097
_cell_angle_beta   60.43307573
_cell_angle_gamma   58.81269330
_symmetry_Int_Tables_number   1
_chemical_formula_structural   Na4B4Sb2SO16
_chemical_formula_sum   'Na8 B8 Sb4 S2 O32'
_cell_volume   701.13311135
_cell_formula_units_Z   2
loop_
 _symmetry_equiv_pos_site_id
 _symmetry_equiv_pos_as_xyz
  1  'x, y, z'
loop_
 _atom_site_type_symbol
 _atom_site_label
 _atom_site_symmetry_multiplicity
 _atom_site_fract_x
 _atom_site_fract_y
 _atom_site_fract_z
 _atom_site_occupancy
  Na  Na0  1  0.543836  0.956164  0.543836  1
  Na  Na1  1  0.956659  0.543341  0.543341  1
  Na  Na2  1  0.706659  0.293341  0.293341  1
  Na  Na3  1  0.293836  0.706164  0.293836  1
  Na  Na4  1  0.956164  0.543836  0.956164  1
  Na  Na5  1  0.543341  0.956659  0.956659  1
  Na  Na6  1  0.293341  0.706659  0.706659  1
  Na  Na7  1  0.706164  0.293836  0.706164  1
  B  B8  1  0.914153  0.917368  0.262943  1
  B  B9  1  0.332632  0.335847  0.344464  1
  B  B10  1  0.262943  0.905536  0.914153  1
  B  B11  1  0.905536  0.262943  0.917368  1
  B  B12  1  0.344464  0.987057  0.332632  1
  B  B13  1  0.987057  0.344464  0.335847  1
  B  B14  1  0.917368  0.914153  0.905536  1
  B  B15  1  0.335847  0.332632  0.987057  1
  Sb  Sb16  1  0.125000  0.125000  0.625000  1
  Sb  Sb17  1  0.125000  0.125000  0.125000  1
  Sb  Sb18  1  0.625000  0.125000  0.125000  1
  Sb  Sb19  1  0.125000  0.625000  0.125000  1
  S  S20  1  0.500000  0.500000  0.500000  1
  S  S21  1  0.750000  0.750000  0.750000  1
  O  O22  1  0.762436  0.944574  0.267997  1
  O  O23  1  0.567477  0.316058  0.557939  1
  O  O24  1  0.941105  0.040354  0.260282  1
  O  O25  1  0.209646  0.308895  0.491741  1
  O  O26  1  0.260282  0.758259  0.941105  1
  O  O27  1  0.487950  0.213141  0.317502  1
  O  O28  1  0.557939  0.558525  0.567477  1
  O  O29  1  0.316058  0.567478  0.558525  1
  O  O30  1  0.981406  0.317502  0.213141  1
  O  O31  1  0.758259  0.260282  0.040354  1
  O  O32  1  0.305426  0.487564  0.225007  1
  O  O33  1  0.558525  0.557939  0.316058  1
  O  O34  1  0.267997  0.024993  0.762436  1
  O  O35  1  0.024993  0.267997  0.944574  1
  O  O36  1  0.036859  0.762050  0.268594  1
  O  O37  1  0.317502  0.981406  0.487950  1
  O  O38  1  0.932498  0.268594  0.762050  1
  O  O39  1  0.213141  0.487950  0.981406  1
  O  O40  1  0.225007  0.982003  0.305426  1
  O  O41  1  0.982003  0.225007  0.487564  1
  O  O42  1  0.691475  0.692061  0.933942  1
  O  O43  1  0.944574  0.762436  0.024993  1
  O  O44  1  0.491741  0.989718  0.209646  1
  O  O45  1  0.268594  0.932498  0.036859  1
  O  O46  1  0.933942  0.682523  0.691475  1
  O  O47  1  0.692061  0.691475  0.682523  1
  O  O48  1  0.762050  0.036859  0.932498  1
  O  O49  1  0.989718  0.491741  0.308895  1
  O  O50  1  0.040354  0.941105  0.758259  1
  O  O51  1  0.308895  0.209646  0.989718  1
  O  O52  1  0.682522  0.933942  0.692061  1
  O  O53  1  0.487564  0.305426  0.982003  1
