# generated using pymatgen
data_Li2Fe3TeO8
_symmetry_space_group_name_H-M   'P 1'
_cell_length_a   6.18693744
_cell_length_b   6.18693744
_cell_length_c   6.18693744
_cell_angle_alpha   58.54431432
_cell_angle_beta   58.54431432
_cell_angle_gamma   58.54431432
_symmetry_Int_Tables_number   1
_chemical_formula_structural   Li2Fe3TeO8
_chemical_formula_sum   'Li2 Fe3 Te1 O8'
_cell_volume   161.88536731
_cell_formula_units_Z   1
loop_
 _symmetry_equiv_pos_site_id
 _symmetry_equiv_pos_as_xyz
  1  'x, y, z'
loop_
 _atom_site_type_symbol
 _atom_site_label
 _atom_site_symmetry_multiplicity
 _atom_site_fract_x
 _atom_site_fract_y
 _atom_site_fract_z
 _atom_site_occupancy
  Li  Li0  1  0.862785  0.862785  0.862785  1
  Li  Li1  1  0.137215  0.137215  0.137215  1
  Fe  Fe2  1  0.500000  0.500000  0.000000  1
  Fe  Fe3  1  0.000000  0.500000  0.500000  1
  Fe  Fe4  1  0.500000  0.000000  0.500000  1
  Te  Te5  1  0.500000  0.500000  0.500000  1
  O  O6  1  0.731695  0.731695  0.731695  1
  O  O7  1  0.731512  0.280953  0.731512  1
  O  O8  1  0.280953  0.731512  0.731512  1
  O  O9  1  0.731512  0.731512  0.280953  1
  O  O10  1  0.268488  0.268488  0.719047  1
  O  O11  1  0.719047  0.268488  0.268488  1
  O  O12  1  0.268488  0.719047  0.268488  1
  O  O13  1  0.268305  0.268305  0.268305  1
