# generated using pymatgen
data_Li3VOF5
_symmetry_space_group_name_H-M   'P 1'
_cell_length_a   5.04903561
_cell_length_b   8.61268690
_cell_length_c   9.84363910
_cell_angle_alpha   90.17877538
_cell_angle_beta   90.16846103
_cell_angle_gamma   90.12384385
_symmetry_Int_Tables_number   1
_chemical_formula_structural   Li3VOF5
_chemical_formula_sum   'Li12 V4 O4 F20'
_cell_volume   428.05321307
_cell_formula_units_Z   4
loop_
 _symmetry_equiv_pos_site_id
 _symmetry_equiv_pos_as_xyz
  1  'x, y, z'
loop_
 _atom_site_type_symbol
 _atom_site_label
 _atom_site_symmetry_multiplicity
 _atom_site_fract_x
 _atom_site_fract_y
 _atom_site_fract_z
 _atom_site_occupancy
  Li  Li0  1  0.512964  0.540679  0.890890  1
  Li  Li1  1  0.987852  0.146075  0.871933  1
  Li  Li2  1  0.507220  0.955460  0.850805  1
  Li  Li3  1  0.992258  0.455487  0.651626  1
  Li  Li4  1  0.499506  0.649641  0.627381  1
  Li  Li5  1  0.997801  0.040165  0.608448  1
  Li  Li6  1  0.500092  0.956177  0.394250  1
  Li  Li7  1  0.993736  0.351015  0.374592  1
  Li  Li8  1  0.494523  0.548791  0.351865  1
  Li  Li9  1  0.997348  0.047054  0.146308  1
  Li  Li10  1  0.486539  0.849839  0.127885  1
  Li  Li11  1  0.003811  0.454149  0.105583  1
  V  V12  1  0.029453  0.759536  0.892880  1
  V  V13  1  0.475640  0.259559  0.617460  1
  V  V14  1  0.975725  0.740344  0.381890  1
  V  V15  1  0.499914  0.239671  0.127739  1
  O  O16  1  0.167311  0.905035  0.986327  1
  O  O17  1  0.144670  0.600452  0.968787  1
  O  O18  1  0.199654  0.257322  0.523816  1
  O  O19  1  0.698742  0.742681  0.474744  1
  F  F20  1  0.683519  0.757537  0.975161  1
  F  F21  1  0.853024  0.934449  0.772057  1
  F  F22  1  0.301639  0.768541  0.757878  1
  F  F23  1  0.816573  0.619857  0.753105  1
  F  F24  1  0.322045  0.112405  0.750734  1
  F  F25  1  0.805700  0.266649  0.735724  1
  F  F26  1  0.358563  0.441392  0.727918  1
  F  F27  1  0.660176  0.090544  0.525125  1
  F  F28  1  0.682611  0.412429  0.509681  1
  F  F29  1  0.182734  0.588299  0.489790  1
  F  F30  1  0.160753  0.909954  0.473986  1
  F  F31  1  0.856198  0.558975  0.271186  1
  F  F32  1  0.305230  0.733382  0.264154  1
  F  F33  1  0.820545  0.887178  0.248126  1
  F  F34  1  0.316033  0.389453  0.249232  1
  F  F35  1  0.821365  0.230747  0.240135  1
  F  F36  1  0.352971  0.058521  0.226668  1
  F  F37  1  0.656472  0.410643  0.025054  1
  F  F38  1  0.170813  0.245553  0.020532  1
  F  F39  1  0.679434  0.084364  0.008544  1
