# generated using pymatgen
data_Li3V3(BO5)2
_symmetry_space_group_name_H-M   'P 1'
_cell_length_a   2.99732403
_cell_length_b   9.40774192
_cell_length_c   12.10698805
_cell_angle_alpha   89.01141870
_cell_angle_beta   89.83136173
_cell_angle_gamma   88.85477980
_symmetry_Int_Tables_number   1
_chemical_formula_structural   Li3V3(BO5)2
_chemical_formula_sum   'Li6 V6 B4 O20'
_cell_volume   341.27331424
_cell_formula_units_Z   2
loop_
 _symmetry_equiv_pos_site_id
 _symmetry_equiv_pos_as_xyz
  1  'x, y, z'
loop_
 _atom_site_type_symbol
 _atom_site_label
 _atom_site_symmetry_multiplicity
 _atom_site_fract_x
 _atom_site_fract_y
 _atom_site_fract_z
 _atom_site_occupancy
  Li  Li0  1  0.000000  0.000000  0.000000  1
  Li  Li1  1  0.500000  0.000000  0.500000  1
  Li  Li2  1  0.999276  0.010186  0.290579  1
  Li  Li3  1  0.000000  0.500000  0.500000  1
  Li  Li4  1  0.500000  0.500000  0.000000  1
  Li  Li5  1  0.000724  0.989814  0.709421  1
  V  V6  1  0.519189  0.233806  0.109569  1
  V  V7  1  0.524460  0.253230  0.610571  1
  V  V8  1  0.997526  0.502886  0.782204  1
  V  V9  1  0.002474  0.497114  0.217796  1
  V  V10  1  0.475540  0.746770  0.389429  1
  V  V11  1  0.480811  0.766194  0.890431  1
  B  B12  1  0.496191  0.231378  0.857849  1
  B  B13  1  0.496301  0.264830  0.367608  1
  B  B14  1  0.503699  0.735170  0.632392  1
  B  B15  1  0.503809  0.768622  0.142151  1
  O  O16  1  0.983750  0.119841  0.144470  1
  O  O17  1  0.990085  0.137473  0.575777  1
  O  O18  1  0.493166  0.124175  0.360744  1
  O  O19  1  0.494466  0.159758  0.761689  1
  O  O20  1  0.485230  0.159904  0.958784  1
  O  O21  1  0.499004  0.347144  0.461333  1
  O  O22  1  0.502856  0.350007  0.262963  1
  O  O23  1  0.498899  0.383258  0.855819  1
  O  O24  1  0.011866  0.376747  0.079395  1
  O  O25  1  0.007125  0.387735  0.652091  1
  O  O26  1  0.992875  0.612265  0.347909  1
  O  O27  1  0.988134  0.623253  0.920605  1
  O  O28  1  0.501101  0.616742  0.144181  1
  O  O29  1  0.497144  0.649993  0.737037  1
  O  O30  1  0.500996  0.652856  0.538667  1
  O  O31  1  0.514770  0.840096  0.041216  1
  O  O32  1  0.505534  0.840242  0.238311  1
  O  O33  1  0.506834  0.875825  0.639256  1
  O  O34  1  0.009915  0.862527  0.424223  1
  O  O35  1  0.016250  0.880159  0.855530  1
