# generated using pymatgen
data_Li3Cr4P2O8F9
_symmetry_space_group_name_H-M   'P 1'
_cell_length_a   6.94415849
_cell_length_b   14.37120969
_cell_length_c   7.16433872
_cell_angle_alpha   90.00000000
_cell_angle_beta   103.54969164
_cell_angle_gamma   90.00000000
_symmetry_Int_Tables_number   1
_chemical_formula_structural   Li3Cr4P2O8F9
_chemical_formula_sum   'Li6 Cr8 P4 O16 F18'
_cell_volume   695.07229236
_cell_formula_units_Z   2
loop_
 _symmetry_equiv_pos_site_id
 _symmetry_equiv_pos_as_xyz
  1  'x, y, z'
loop_
 _atom_site_type_symbol
 _atom_site_label
 _atom_site_symmetry_multiplicity
 _atom_site_fract_x
 _atom_site_fract_y
 _atom_site_fract_z
 _atom_site_occupancy
  Li  Li0  1  0.967476  0.750000  0.446175  1
  Li  Li1  1  0.215424  0.504897  0.675984  1
  Li  Li2  1  0.215424  0.995103  0.675984  1
  Li  Li3  1  0.784576  0.495103  0.324016  1
  Li  Li4  1  0.784576  0.004897  0.324016  1
  Li  Li5  1  0.032524  0.250000  0.553825  1
  Cr  Cr6  1  0.037123  0.750000  0.066800  1
  Cr  Cr7  1  0.474840  0.250000  0.931756  1
  Cr  Cr8  1  0.310140  0.381275  0.312782  1
  Cr  Cr9  1  0.310140  0.118725  0.312782  1
  Cr  Cr10  1  0.689860  0.881275  0.687218  1
  Cr  Cr11  1  0.689860  0.618725  0.687218  1
  Cr  Cr12  1  0.525160  0.750000  0.068244  1
  Cr  Cr13  1  0.962877  0.250000  0.933200  1
  P  P14  1  0.332584  0.899177  0.313853  1
  P  P15  1  0.332584  0.600823  0.313853  1
  P  P16  1  0.667416  0.100823  0.686147  1
  P  P17  1  0.667416  0.399177  0.686147  1
  O  O18  1  0.138987  0.840927  0.274813  1
  O  O19  1  0.138987  0.659073  0.274813  1
  O  O20  1  0.283348  0.506568  0.211213  1
  O  O21  1  0.283348  0.993432  0.211213  1
  O  O22  1  0.500837  0.352360  0.760715  1
  O  O23  1  0.500837  0.147640  0.760715  1
  O  O24  1  0.407275  0.911902  0.535763  1
  O  O25  1  0.407275  0.588098  0.535763  1
  O  O26  1  0.592725  0.088098  0.464237  1
  O  O27  1  0.592725  0.411902  0.464237  1
  O  O28  1  0.499163  0.852360  0.239285  1
  O  O29  1  0.499163  0.647640  0.239285  1
  O  O30  1  0.716652  0.493432  0.788787  1
  O  O31  1  0.716652  0.006568  0.788787  1
  O  O32  1  0.861013  0.340927  0.725187  1
  O  O33  1  0.861013  0.159073  0.725187  1
  F  F34  1  0.190944  0.250000  0.816136  1
  F  F35  1  0.250993  0.750000  0.939827  1
  F  F36  1  0.135596  0.413311  0.484890  1
  F  F37  1  0.135596  0.086689  0.484890  1
  F  F38  1  0.061934  0.349004  0.122160  1
  F  F39  1  0.061934  0.150996  0.122160  1
  F  F40  1  0.297115  0.250000  0.407353  1
  F  F41  1  0.551545  0.847141  0.884055  1
  F  F42  1  0.551545  0.652859  0.884055  1
  F  F43  1  0.448455  0.347141  0.115945  1
  F  F44  1  0.448455  0.152859  0.115945  1
  F  F45  1  0.702885  0.750000  0.592647  1
  F  F46  1  0.938066  0.849004  0.877840  1
  F  F47  1  0.938066  0.650996  0.877840  1
  F  F48  1  0.864404  0.913311  0.515110  1
  F  F49  1  0.864404  0.586689  0.515110  1
  F  F50  1  0.749007  0.250000  0.060173  1
  F  F51  1  0.809056  0.750000  0.183864  1
