# generated using pymatgen
data_CrP4
_symmetry_space_group_name_H-M   'P 1'
_cell_length_a   5.97423618
_cell_length_b   5.97423618
_cell_length_c   5.72203848
_cell_angle_alpha   81.26808518
_cell_angle_beta   98.73191482
_cell_angle_gamma   51.56602407
_symmetry_Int_Tables_number   1
_chemical_formula_structural   CrP4
_chemical_formula_sum   'Cr2 P8'
_cell_volume   149.91685275
_cell_formula_units_Z   2
loop_
 _symmetry_equiv_pos_site_id
 _symmetry_equiv_pos_as_xyz
  1  'x, y, z'
loop_
 _atom_site_type_symbol
 _atom_site_label
 _atom_site_symmetry_multiplicity
 _atom_site_fract_x
 _atom_site_fract_y
 _atom_site_fract_z
 _atom_site_occupancy
  Cr  Cr0  1  0.060246  0.060246  0.750000  1
  Cr  Cr1  1  0.939754  0.939754  0.250000  1
  P  P2  1  0.491734  0.945664  0.690934  1
  P  P3  1  0.945664  0.491734  0.809066  1
  P  P4  1  0.182675  0.638517  0.676291  1
  P  P5  1  0.638517  0.182675  0.823709  1
  P  P6  1  0.817325  0.361483  0.323709  1
  P  P7  1  0.361483  0.817325  0.176291  1
  P  P8  1  0.054336  0.508266  0.190934  1
  P  P9  1  0.508266  0.054336  0.309066  1
