# generated using pymatgen
data_Li3NbV3O8
_symmetry_space_group_name_H-M   'P 1'
_cell_length_a   6.08675050
_cell_length_b   6.08675050
_cell_length_c   6.13178890
_cell_angle_alpha   60.08378609
_cell_angle_beta   119.91621391
_cell_angle_gamma   119.79245970
_symmetry_Int_Tables_number   1
_chemical_formula_structural   Li3NbV3O8
_chemical_formula_sum   'Li3 Nb1 V3 O8'
_cell_volume   161.09064634
_cell_formula_units_Z   1
loop_
 _symmetry_equiv_pos_site_id
 _symmetry_equiv_pos_as_xyz
  1  'x, y, z'
loop_
 _atom_site_type_symbol
 _atom_site_label
 _atom_site_symmetry_multiplicity
 _atom_site_fract_x
 _atom_site_fract_y
 _atom_site_fract_z
 _atom_site_occupancy
  Li  Li0  1  0.000000  0.000000  0.500000  1
  Li  Li1  1  0.500000  0.000000  0.500000  1
  Li  Li2  1  0.000000  0.500000  0.500000  1
  Nb  Nb3  1  0.000000  0.000000  0.000000  1
  V  V4  1  0.500000  0.500000  0.000000  1
  V  V5  1  0.000000  0.500000  0.000000  1
  V  V6  1  0.500000  0.000000  0.000000  1
  O  O7  1  0.748027  0.251973  0.221551  1
  O  O8  1  0.234428  0.765572  0.226581  1
  O  O9  1  0.755564  0.773359  0.223939  1
  O  O10  1  0.251973  0.748027  0.778449  1
  O  O11  1  0.226641  0.244436  0.223939  1
  O  O12  1  0.765572  0.234428  0.773419  1
  O  O13  1  0.244436  0.226641  0.776061  1
  O  O14  1  0.773359  0.755564  0.776061  1
