# generated using pymatgen
data_Li4Mn3Fe3(SbO8)2
_symmetry_space_group_name_H-M   'P 1'
_cell_length_a   6.00950557
_cell_length_b   6.00950557
_cell_length_c   9.80115871
_cell_angle_alpha   89.35018733
_cell_angle_beta   90.64981267
_cell_angle_gamma   120.11555348
_symmetry_Int_Tables_number   1
_chemical_formula_structural   Li4Mn3Fe3(SbO8)2
_chemical_formula_sum   'Li4 Mn3 Fe3 Sb2 O16'
_cell_volume   306.15507948
_cell_formula_units_Z   1
loop_
 _symmetry_equiv_pos_site_id
 _symmetry_equiv_pos_as_xyz
  1  'x, y, z'
loop_
 _atom_site_type_symbol
 _atom_site_label
 _atom_site_symmetry_multiplicity
 _atom_site_fract_x
 _atom_site_fract_y
 _atom_site_fract_z
 _atom_site_occupancy
  Li  Li0  1  0.667639  0.332361  0.905348  1
  Li  Li1  1  0.998716  0.001284  0.987968  1
  Li  Li2  1  0.999422  0.000578  0.487467  1
  Li  Li3  1  0.333853  0.666147  0.403563  1
  Mn  Mn4  1  0.829776  0.170224  0.210528  1
  Mn  Mn5  1  0.170624  0.338527  0.711550  1
  Mn  Mn6  1  0.661473  0.829376  0.711550  1
  Fe  Fe7  1  0.339400  0.168470  0.213795  1
  Fe  Fe8  1  0.831530  0.660600  0.213795  1
  Fe  Fe9  1  0.170172  0.829828  0.715152  1
  Sb  Sb10  1  0.666331  0.333669  0.484708  1
  Sb  Sb11  1  0.334058  0.665942  0.985735  1
  O  O12  1  0.335317  0.161861  0.594233  1
  O  O13  1  0.516967  0.483033  0.345924  1
  O  O14  1  0.670024  0.329976  0.110590  1
  O  O15  1  0.994673  0.005327  0.300329  1
  O  O16  1  0.995301  0.004699  0.798951  1
  O  O17  1  0.838139  0.664683  0.594233  1
  O  O18  1  0.509453  0.036393  0.348749  1
  O  O19  1  0.963607  0.490547  0.348749  1
  O  O20  1  0.167741  0.832259  0.095623  1
  O  O21  1  0.833414  0.166586  0.589645  1
  O  O22  1  0.035150  0.523860  0.847757  1
  O  O23  1  0.476140  0.964850  0.847757  1
  O  O24  1  0.339179  0.660821  0.614292  1
  O  O25  1  0.171590  0.334455  0.093752  1
  O  O26  1  0.483082  0.516918  0.852302  1
  O  O27  1  0.665545  0.828410  0.093752  1
