# generated using pymatgen
data_Mn3O5F
_symmetry_space_group_name_H-M   'P 1'
_cell_length_a   4.55773324
_cell_length_b   5.44883258
_cell_length_c   7.53482470
_cell_angle_alpha   86.29191901
_cell_angle_beta   88.59192737
_cell_angle_gamma   87.89712004
_symmetry_Int_Tables_number   1
_chemical_formula_structural   Mn3O5F
_chemical_formula_sum   'Mn6 O10 F2'
_cell_volume   186.55855175
_cell_formula_units_Z   2
loop_
 _symmetry_equiv_pos_site_id
 _symmetry_equiv_pos_as_xyz
  1  'x, y, z'
loop_
 _atom_site_type_symbol
 _atom_site_label
 _atom_site_symmetry_multiplicity
 _atom_site_fract_x
 _atom_site_fract_y
 _atom_site_fract_z
 _atom_site_occupancy
  Mn  Mn0  1  0.494908  0.162016  0.832469  1
  Mn  Mn1  1  0.500000  0.500000  0.500000  1
  Mn  Mn2  1  0.505092  0.837984  0.167531  1
  Mn  Mn3  1  0.000000  0.000000  0.500000  1
  Mn  Mn4  1  0.979513  0.330318  0.151244  1
  Mn  Mn5  1  0.020487  0.669682  0.848756  1
  O  O6  1  0.798955  0.043577  0.263215  1
  O  O7  1  0.805527  0.374998  0.932673  1
  O  O8  1  0.693212  0.868271  0.935958  1
  O  O9  1  0.687141  0.196984  0.600796  1
  O  O10  1  0.705144  0.545583  0.269193  1
  O  O11  1  0.312859  0.803016  0.399204  1
  O  O12  1  0.306788  0.131729  0.064042  1
  O  O13  1  0.294856  0.454417  0.730807  1
  O  O14  1  0.194473  0.625002  0.067327  1
  O  O15  1  0.201045  0.956423  0.736785  1
  F  F16  1  0.816876  0.693384  0.620026  1
  F  F17  1  0.183124  0.306616  0.379974  1
