# generated using pymatgen
data_Li2CrPO4F
_symmetry_space_group_name_H-M   'P 1'
_cell_length_a   6.64179421
_cell_length_b   10.51695773
_cell_length_c   11.05740888
_cell_angle_alpha   90.00000000
_cell_angle_beta   90.00000000
_cell_angle_gamma   90.00000000
_symmetry_Int_Tables_number   1
_chemical_formula_structural   Li2CrPO4F
_chemical_formula_sum   'Li16 Cr8 P8 O32 F8'
_cell_volume   772.37625314
_cell_formula_units_Z   8
loop_
 _symmetry_equiv_pos_site_id
 _symmetry_equiv_pos_as_xyz
  1  'x, y, z'
loop_
 _atom_site_type_symbol
 _atom_site_label
 _atom_site_symmetry_multiplicity
 _atom_site_fract_x
 _atom_site_fract_y
 _atom_site_fract_z
 _atom_site_occupancy
  Li  Li0  1  0.250000  0.972238  0.273873  1
  Li  Li1  1  0.750000  0.769317  0.082366  1
  Li  Li2  1  0.473640  0.756751  0.336943  1
  Li  Li3  1  0.026360  0.756751  0.336943  1
  Li  Li4  1  0.973640  0.743249  0.836943  1
  Li  Li5  1  0.526360  0.743249  0.836943  1
  Li  Li6  1  0.250000  0.730683  0.582366  1
  Li  Li7  1  0.750000  0.527762  0.773873  1
  Li  Li8  1  0.250000  0.472238  0.226127  1
  Li  Li9  1  0.750000  0.269317  0.417634  1
  Li  Li10  1  0.473640  0.256751  0.163057  1
  Li  Li11  1  0.026360  0.256751  0.163057  1
  Li  Li12  1  0.973640  0.243249  0.663057  1
  Li  Li13  1  0.526360  0.243249  0.663057  1
  Li  Li14  1  0.250000  0.230683  0.917634  1
  Li  Li15  1  0.750000  0.027762  0.726127  1
  Cr  Cr16  1  0.000000  0.000000  0.000000  1
  Cr  Cr17  1  0.500000  0.000000  0.000000  1
  Cr  Cr18  1  0.000000  0.000000  0.500000  1
  Cr  Cr19  1  0.500000  0.000000  0.500000  1
  Cr  Cr20  1  0.000000  0.500000  0.500000  1
  Cr  Cr21  1  0.500000  0.500000  0.500000  1
  Cr  Cr22  1  0.000000  0.500000  0.000000  1
  Cr  Cr23  1  0.500000  0.500000  0.000000  1
  P  P24  1  0.250000  0.979462  0.744124  1
  P  P25  1  0.250000  0.755576  0.078457  1
  P  P26  1  0.750000  0.744424  0.578457  1
  P  P27  1  0.750000  0.520538  0.244124  1
  P  P28  1  0.250000  0.479462  0.755876  1
  P  P29  1  0.250000  0.255576  0.421543  1
  P  P30  1  0.750000  0.244424  0.921543  1
  P  P31  1  0.750000  0.020538  0.255876  1
  O  O32  1  0.750000  0.969648  0.121642  1
  O  O33  1  0.940244  0.964190  0.318489  1
  O  O34  1  0.559756  0.964190  0.318489  1
  O  O35  1  0.750000  0.892648  0.557979  1
  O  O36  1  0.250000  0.832300  0.742775  1
  O  O37  1  0.442441  0.807461  0.015201  1
  O  O38  1  0.057559  0.807461  0.015201  1
  O  O39  1  0.250000  0.786084  0.213549  1
  O  O40  1  0.750000  0.713916  0.713549  1
  O  O41  1  0.942441  0.692539  0.515201  1
  O  O42  1  0.557559  0.692539  0.515201  1
  O  O43  1  0.750000  0.667700  0.242775  1
  O  O44  1  0.250000  0.607352  0.057979  1
  O  O45  1  0.440244  0.535810  0.818489  1
  O  O46  1  0.059756  0.535810  0.818489  1
  O  O47  1  0.250000  0.530352  0.621642  1
  O  O48  1  0.750000  0.469648  0.378358  1
  O  O49  1  0.940244  0.464190  0.181511  1
  O  O50  1  0.559756  0.464190  0.181511  1
  O  O51  1  0.750000  0.392648  0.942021  1
  O  O52  1  0.250000  0.332300  0.757225  1
  O  O53  1  0.442441  0.307461  0.484799  1
  O  O54  1  0.057559  0.307461  0.484799  1
  O  O55  1  0.250000  0.286084  0.286451  1
  O  O56  1  0.750000  0.213916  0.786451  1
  O  O57  1  0.942441  0.192539  0.984799  1
  O  O58  1  0.557559  0.192539  0.984799  1
  O  O59  1  0.750000  0.167700  0.257225  1
  O  O60  1  0.250000  0.107352  0.442021  1
  O  O61  1  0.440244  0.035810  0.681511  1
  O  O62  1  0.059756  0.035810  0.681511  1
  O  O63  1  0.250000  0.030352  0.878358  1
  F  F64  1  0.750000  0.930612  0.869472  1
  F  F65  1  0.250000  0.849288  0.449842  1
  F  F66  1  0.750000  0.650712  0.949842  1
  F  F67  1  0.250000  0.569388  0.369472  1
  F  F68  1  0.750000  0.430612  0.630528  1
  F  F69  1  0.250000  0.349288  0.050158  1
  F  F70  1  0.750000  0.150712  0.550158  1
  F  F71  1  0.250000  0.069388  0.130528  1
