# generated using pymatgen
data_MnFe3Sn2(PO4)6
_symmetry_space_group_name_H-M   'P 1'
_cell_length_a   8.68988600
_cell_length_b   8.68988600
_cell_length_c   8.68988600
_cell_angle_alpha   60.48216959
_cell_angle_beta   60.48216959
_cell_angle_gamma   60.48216959
_symmetry_Int_Tables_number   1
_chemical_formula_structural   MnFe3Sn2(PO4)6
_chemical_formula_sum   'Mn1 Fe3 Sn2 P6 O24'
_cell_volume   469.06678728
_cell_formula_units_Z   1
loop_
 _symmetry_equiv_pos_site_id
 _symmetry_equiv_pos_as_xyz
  1  'x, y, z'
loop_
 _atom_site_type_symbol
 _atom_site_label
 _atom_site_symmetry_multiplicity
 _atom_site_fract_x
 _atom_site_fract_y
 _atom_site_fract_z
 _atom_site_occupancy
  Mn  Mn0  1  0.153197  0.153197  0.153197  1
  Fe  Fe1  1  0.848680  0.848680  0.848680  1
  Fe  Fe2  1  0.648787  0.648787  0.648787  1
  Fe  Fe3  1  0.350813  0.350813  0.350813  1
  Sn  Sn4  1  0.001091  0.001091  0.001091  1
  Sn  Sn5  1  0.501160  0.501160  0.501160  1
  P  P6  1  0.953151  0.250220  0.552212  1
  P  P7  1  0.552212  0.953151  0.250219  1
  P  P8  1  0.747118  0.453198  0.042597  1
  P  P9  1  0.453198  0.042597  0.747118  1
  P  P10  1  0.042597  0.747118  0.453198  1
  P  P11  1  0.250219  0.552212  0.953151  1
  O  O12  1  0.892897  0.673411  0.501765  1
  O  O13  1  0.673411  0.501765  0.892897  1
  O  O14  1  0.938816  0.090486  0.753789  1
  O  O15  1  0.501765  0.892897  0.673411  1
  O  O16  1  0.978770  0.181490  0.409498  1
  O  O17  1  0.756318  0.407902  0.580169  1
  O  O18  1  0.753789  0.938816  0.090486  1
  O  O19  1  0.580169  0.756318  0.407902  1
  O  O20  1  0.818741  0.603537  0.002894  1
  O  O21  1  0.407902  0.580169  0.756318  1
  O  O22  1  0.904292  0.253850  0.054759  1
  O  O23  1  0.603537  0.002894  0.818741  1
  O  O24  1  0.409498  0.978770  0.181490  1
  O  O25  1  0.090486  0.753789  0.938816  1
  O  O26  1  0.590813  0.433615  0.240240  1
  O  O27  1  0.181490  0.409498  0.978770  1
  O  O28  1  0.433615  0.240240  0.590813  1
  O  O29  1  0.253850  0.054759  0.904292  1
  O  O30  1  0.240240  0.590813  0.433615  1
  O  O31  1  0.002894  0.818741  0.603537  1
  O  O32  1  0.505569  0.111463  0.312688  1
  O  O33  1  0.054759  0.904292  0.253850  1
  O  O34  1  0.312688  0.505569  0.111463  1
  O  O35  1  0.111463  0.312688  0.505569  1
