# generated using pymatgen
data_Li3V2P4(HO8)2
_symmetry_space_group_name_H-M   'P 1'
_cell_length_a   7.88389588
_cell_length_b   8.07843506
_cell_length_c   9.74999749
_cell_angle_alpha   90.00000000
_cell_angle_beta   112.05893688
_cell_angle_gamma   90.00000000
_symmetry_Int_Tables_number   1
_chemical_formula_structural   Li3V2P4(HO8)2
_chemical_formula_sum   'Li6 V4 P8 H4 O32'
_cell_volume   575.51642577
_cell_formula_units_Z   2
loop_
 _symmetry_equiv_pos_site_id
 _symmetry_equiv_pos_as_xyz
  1  'x, y, z'
loop_
 _atom_site_type_symbol
 _atom_site_label
 _atom_site_symmetry_multiplicity
 _atom_site_fract_x
 _atom_site_fract_y
 _atom_site_fract_z
 _atom_site_occupancy
  Li  Li0  1  0.092944  0.866852  0.222443  1
  Li  Li1  1  0.600985  0.631600  0.226916  1
  Li  Li2  1  0.406282  0.132101  0.269404  1
  Li  Li3  1  0.907056  0.366852  0.777557  1
  Li  Li4  1  0.593718  0.632101  0.730596  1
  Li  Li5  1  0.399015  0.131600  0.773084  1
  V  V6  1  0.237621  0.496264  0.248917  1
  V  V7  1  0.754294  0.003817  0.252758  1
  V  V8  1  0.245706  0.503817  0.747242  1
  V  V9  1  0.762379  0.996264  0.751083  1
  P  P10  1  0.020560  0.151815  0.067309  1
  P  P11  1  0.509928  0.348389  0.067876  1
  P  P12  1  0.981900  0.648970  0.431071  1
  P  P13  1  0.018100  0.148970  0.568929  1
  P  P14  1  0.485456  0.842478  0.434725  1
  P  P15  1  0.514544  0.342478  0.565275  1
  P  P16  1  0.979440  0.651815  0.932691  1
  P  P17  1  0.490072  0.848389  0.932124  1
  H  H18  1  0.732870  0.489920  0.014135  1
  H  H19  1  0.744236  0.488940  0.505586  1
  H  H20  1  0.255764  0.988940  0.494414  1
  H  H21  1  0.267130  0.989920  0.985865  1
  O  O22  1  0.198130  0.054555  0.095362  1
  O  O23  1  0.101597  0.671184  0.101196  1
  O  O24  1  0.067951  0.327447  0.133872  1
  O  O25  1  0.911974  0.050596  0.140967  1
  O  O26  1  0.687055  0.452389  0.097193  1
  O  O27  1  0.603174  0.828147  0.099058  1
  O  O28  1  0.558106  0.182001  0.147269  1
  O  O29  1  0.400884  0.454578  0.142245  1
  O  O30  1  0.100348  0.546388  0.357001  1
  O  O31  1  0.942263  0.815370  0.348245  1
  O  O32  1  0.893032  0.166624  0.405627  1
  O  O33  1  0.802145  0.560043  0.407312  1
  O  O34  1  0.586896  0.951609  0.360662  1
  O  O35  1  0.434934  0.674732  0.353719  1
  O  O36  1  0.197855  0.060043  0.592688  1
  O  O37  1  0.106968  0.666624  0.594373  1
  O  O38  1  0.397238  0.321706  0.398056  1
  O  O39  1  0.301755  0.936803  0.408612  1
  O  O40  1  0.057737  0.315370  0.651755  1
  O  O41  1  0.899652  0.046388  0.642999  1
  O  O42  1  0.698245  0.436803  0.591388  1
  O  O43  1  0.602762  0.821706  0.601944  1
  O  O44  1  0.565066  0.174732  0.646281  1
  O  O45  1  0.413104  0.451609  0.639338  1
  O  O46  1  0.088026  0.550596  0.859033  1
  O  O47  1  0.932049  0.827447  0.866128  1
  O  O48  1  0.898403  0.171184  0.898804  1
  O  O49  1  0.801870  0.554555  0.904638  1
  O  O50  1  0.599116  0.954578  0.857755  1
  O  O51  1  0.441894  0.682001  0.852731  1
  O  O52  1  0.396826  0.328147  0.900942  1
  O  O53  1  0.312945  0.952389  0.902807  1
