# generated using pymatgen
data_SmTmO3
_symmetry_space_group_name_H-M   'P 1'
_cell_length_a   5.73125464
_cell_length_b   5.99296506
_cell_length_c   8.40330305
_cell_angle_alpha   90.00000000
_cell_angle_beta   90.00000000
_cell_angle_gamma   90.00000000
_symmetry_Int_Tables_number   1
_chemical_formula_structural   SmTmO3
_chemical_formula_sum   'Sm4 Tm4 O12'
_cell_volume   288.63000453
_cell_formula_units_Z   4
loop_
 _symmetry_equiv_pos_site_id
 _symmetry_equiv_pos_as_xyz
  1  'x, y, z'
loop_
 _atom_site_type_symbol
 _atom_site_label
 _atom_site_symmetry_multiplicity
 _atom_site_fract_x
 _atom_site_fract_y
 _atom_site_fract_z
 _atom_site_occupancy
  Sm  Sm0  1  0.983154  0.052664  0.250000  1
  Sm  Sm1  1  0.483154  0.447336  0.750000  1
  Sm  Sm2  1  0.516846  0.552664  0.250000  1
  Sm  Sm3  1  0.016846  0.947336  0.750000  1
  Tm  Tm4  1  0.500000  0.000000  0.000000  1
  Tm  Tm5  1  0.500000  0.000000  0.500000  1
  Tm  Tm6  1  0.000000  0.500000  0.000000  1
  Tm  Tm7  1  0.000000  0.500000  0.500000  1
  O  O8  1  0.635267  0.066957  0.750000  1
  O  O9  1  0.187225  0.190268  0.571919  1
  O  O10  1  0.187225  0.190268  0.928081  1
  O  O11  1  0.687225  0.309732  0.428081  1
  O  O12  1  0.687225  0.309732  0.071919  1
  O  O13  1  0.135267  0.433043  0.250000  1
  O  O14  1  0.864733  0.566957  0.750000  1
  O  O15  1  0.312775  0.690268  0.928081  1
  O  O16  1  0.312775  0.690268  0.571919  1
  O  O17  1  0.812775  0.809732  0.071919  1
  O  O18  1  0.812775  0.809732  0.428081  1
  O  O19  1  0.364733  0.933043  0.250000  1
