# generated using pymatgen
data_SrSc2O4
_symmetry_space_group_name_H-M   'P 1'
_cell_length_a   5.67134665
_cell_length_b   5.67134665
_cell_length_c   20.51194824
_cell_angle_alpha   89.77885627
_cell_angle_beta   90.22114373
_cell_angle_gamma   118.70310694
_symmetry_Int_Tables_number   1
_chemical_formula_structural   SrSc2O4
_chemical_formula_sum   'Sr6 Sc12 O24'
_cell_volume   578.67404290
_cell_formula_units_Z   6
loop_
 _symmetry_equiv_pos_site_id
 _symmetry_equiv_pos_as_xyz
  1  'x, y, z'
loop_
 _atom_site_type_symbol
 _atom_site_label
 _atom_site_symmetry_multiplicity
 _atom_site_fract_x
 _atom_site_fract_y
 _atom_site_fract_z
 _atom_site_occupancy
  Sr  Sr0  1  0.775260  0.445169  0.146042  1
  Sr  Sr1  1  0.554831  0.224740  0.646042  1
  Sr  Sr2  1  0.109533  0.109533  0.250000  1
  Sr  Sr3  1  0.890467  0.890467  0.750000  1
  Sr  Sr4  1  0.224740  0.554831  0.853958  1
  Sr  Sr5  1  0.445169  0.775260  0.353958  1
  Sc  Sc6  1  0.780523  0.443142  0.305709  1
  Sc  Sc7  1  0.556858  0.219477  0.805709  1
  Sc  Sc8  1  0.784116  0.456985  0.447774  1
  Sc  Sc9  1  0.543015  0.215884  0.947774  1
  Sc  Sc10  1  0.121124  0.115166  0.428883  1
  Sc  Sc11  1  0.884834  0.878876  0.928883  1
  Sc  Sc12  1  0.115166  0.121124  0.071117  1
  Sc  Sc13  1  0.878876  0.884834  0.571117  1
  Sc  Sc14  1  0.456985  0.784116  0.052226  1
  Sc  Sc15  1  0.215884  0.543015  0.552226  1
  Sc  Sc16  1  0.443142  0.780523  0.194291  1
  Sc  Sc17  1  0.219477  0.556858  0.694291  1
  O  O18  1  0.901244  0.204642  0.503130  1
  O  O19  1  0.795358  0.098756  0.003130  1
  O  O20  1  0.017509  0.355099  0.374413  1
  O  O21  1  0.644901  0.982491  0.874413  1
  O  O22  1  0.895689  0.329344  0.751903  1
  O  O23  1  0.670656  0.104311  0.251903  1
  O  O24  1  0.471287  0.220546  0.380577  1
  O  O25  1  0.779454  0.528713  0.880577  1
  O  O26  1  0.880251  0.775362  0.375267  1
  O  O27  1  0.224638  0.119749  0.875267  1
  O  O28  1  0.536793  0.536793  0.250000  1
  O  O29  1  0.500000  0.500000  0.000000  1
  O  O30  1  0.500000  0.500000  0.500000  1
  O  O31  1  0.463207  0.463207  0.750000  1
  O  O32  1  0.775362  0.880251  0.124733  1
  O  O33  1  0.119749  0.224638  0.624733  1
  O  O34  1  0.220546  0.471287  0.119423  1
  O  O35  1  0.528713  0.779454  0.619423  1
  O  O36  1  0.104311  0.670656  0.248097  1
  O  O37  1  0.329344  0.895689  0.748097  1
  O  O38  1  0.355099  0.017509  0.125587  1
  O  O39  1  0.982491  0.644901  0.625587  1
  O  O40  1  0.098756  0.795358  0.496870  1
  O  O41  1  0.204642  0.901244  0.996870  1
