# generated using pymatgen
data_Rb2O
_symmetry_space_group_name_H-M   'P 1'
_cell_length_a   6.87977948
_cell_length_b   7.06921790
_cell_length_c   13.51169898
_cell_angle_alpha   90.00000000
_cell_angle_beta   90.00000000
_cell_angle_gamma   90.00000000
_symmetry_Int_Tables_number   1
_chemical_formula_structural   Rb2O
_chemical_formula_sum   'Rb16 O8'
_cell_volume   657.13688927
_cell_formula_units_Z   8
loop_
 _symmetry_equiv_pos_site_id
 _symmetry_equiv_pos_as_xyz
  1  'x, y, z'
loop_
 _atom_site_type_symbol
 _atom_site_label
 _atom_site_symmetry_multiplicity
 _atom_site_fract_x
 _atom_site_fract_y
 _atom_site_fract_z
 _atom_site_occupancy
  Rb  Rb0  1  0.000974  0.261226  0.023924  1
  Rb  Rb1  1  0.500974  0.238774  0.023924  1
  Rb  Rb2  1  0.852000  0.881964  0.204135  1
  Rb  Rb3  1  0.352000  0.618036  0.204135  1
  Rb  Rb4  1  0.352000  0.118036  0.295865  1
  Rb  Rb5  1  0.852000  0.381964  0.295865  1
  Rb  Rb6  1  0.000974  0.761226  0.476076  1
  Rb  Rb7  1  0.500974  0.738774  0.476076  1
  Rb  Rb8  1  0.499026  0.261226  0.523924  1
  Rb  Rb9  1  0.999026  0.238774  0.523924  1
  Rb  Rb10  1  0.648000  0.881964  0.704135  1
  Rb  Rb11  1  0.148000  0.618036  0.704135  1
  Rb  Rb12  1  0.648000  0.381964  0.795865  1
  Rb  Rb13  1  0.148000  0.118036  0.795865  1
  Rb  Rb14  1  0.499026  0.761226  0.976076  1
  Rb  Rb15  1  0.999026  0.738774  0.976076  1
  O  O16  1  0.230025  0.960370  0.114006  1
  O  O17  1  0.730025  0.539630  0.114006  1
  O  O18  1  0.730025  0.039630  0.385994  1
  O  O19  1  0.230025  0.460370  0.385994  1
  O  O20  1  0.269975  0.960370  0.614006  1
  O  O21  1  0.769975  0.539630  0.614006  1
  O  O22  1  0.269975  0.460370  0.885994  1
  O  O23  1  0.769975  0.039630  0.885994  1
