# generated using pymatgen
data_Li2CoBO4
_symmetry_space_group_name_H-M   'P 1'
_cell_length_a   5.00381436
_cell_length_b   5.00381436
_cell_length_c   6.16309674
_cell_angle_alpha   89.38194350
_cell_angle_beta   90.61805650
_cell_angle_gamma   88.87645851
_symmetry_Int_Tables_number   1
_chemical_formula_structural   Li2CoBO4
_chemical_formula_sum   'Li4 Co2 B2 O8'
_cell_volume   154.26461068
_cell_formula_units_Z   2
loop_
 _symmetry_equiv_pos_site_id
 _symmetry_equiv_pos_as_xyz
  1  'x, y, z'
loop_
 _atom_site_type_symbol
 _atom_site_label
 _atom_site_symmetry_multiplicity
 _atom_site_fract_x
 _atom_site_fract_y
 _atom_site_fract_z
 _atom_site_occupancy
  Li  Li0  1  0.676750  0.323250  0.280028  1
  Li  Li1  1  0.821320  0.821320  0.500000  1
  Li  Li2  1  0.178680  0.178680  0.500000  1
  Li  Li3  1  0.323250  0.676750  0.719972  1
  Co  Co4  1  0.801229  0.801229  0.000000  1
  Co  Co5  1  0.198771  0.198771  0.000000  1
  B  B6  1  0.687336  0.312664  0.746628  1
  B  B7  1  0.312664  0.687336  0.253372  1
  O  O8  1  0.808261  0.191739  0.963425  1
  O  O9  1  0.797331  0.202669  0.560270  1
  O  O10  1  0.387123  0.273908  0.758633  1
  O  O11  1  0.726092  0.612877  0.758633  1
  O  O12  1  0.612877  0.726092  0.241367  1
  O  O13  1  0.273908  0.387123  0.241367  1
  O  O14  1  0.202669  0.797331  0.439730  1
  O  O15  1  0.191739  0.808261  0.036575  1
