# generated using pymatgen
data_Li3V3P8O29
_symmetry_space_group_name_H-M   'P 1'
_cell_length_a   9.75493292
_cell_length_b   9.75792656
_cell_length_c   14.15807582
_cell_angle_alpha   90.30278397
_cell_angle_beta   89.98551741
_cell_angle_gamma   119.91857465
_symmetry_Int_Tables_number   1
_chemical_formula_structural   Li3V3P8O29
_chemical_formula_sum   'Li6 V6 P16 O58'
_cell_volume   1168.05890579
_cell_formula_units_Z   2
loop_
 _symmetry_equiv_pos_site_id
 _symmetry_equiv_pos_as_xyz
  1  'x, y, z'
loop_
 _atom_site_type_symbol
 _atom_site_label
 _atom_site_symmetry_multiplicity
 _atom_site_fract_x
 _atom_site_fract_y
 _atom_site_fract_z
 _atom_site_occupancy
  Li  Li0  1  0.676116  0.907238  0.549731  1
  Li  Li1  1  0.093858  0.320799  0.064409  1
  Li  Li2  1  0.234033  0.327371  0.554143  1
  Li  Li3  1  0.913733  0.691297  0.945580  1
  Li  Li4  1  0.776668  0.083399  0.946586  1
  Li  Li5  1  0.015262  0.972283  0.484881  1
  V  V6  1  0.567834  0.566635  0.248245  1
  V  V7  1  0.435614  0.433655  0.754872  1
  V  V8  1  0.003874  0.569693  0.742247  1
  V  V9  1  0.994184  0.434370  0.258388  1
  V  V10  1  0.431932  0.001012  0.248348  1
  V  V11  1  0.558008  0.998996  0.749110  1
  P  P12  1  0.224842  0.915398  0.843583  1
  P  P13  1  0.087131  0.782052  0.339768  1
  P  P14  1  0.686864  0.912594  0.339602  1
  P  P15  1  0.329705  0.662562  0.131495  1
  P  P16  1  0.336116  0.664333  0.630316  1
  P  P17  1  0.685282  0.773187  0.843089  1
  P  P18  1  0.771193  0.689926  0.658263  1
  P  P19  1  0.086676  0.320927  0.842607  1
  P  P20  1  0.912311  0.681851  0.158166  1
  P  P21  1  0.228091  0.313645  0.342385  1
  P  P22  1  0.312822  0.225724  0.159705  1
  P  P23  1  0.661167  0.332289  0.369940  1
  P  P24  1  0.673477  0.336725  0.868123  1
  P  P25  1  0.304682  0.084976  0.657859  1
  P  P26  1  0.913178  0.222092  0.660124  1
  P  P27  1  0.772552  0.089720  0.159431  1
  O  O28  1  0.216451  0.006007  0.571109  1
  O  O29  1  0.261110  0.916313  0.332176  1
  O  O30  1  0.990134  0.748444  0.066662  1
  O  O31  1  0.081021  0.744075  0.834822  1
  O  O32  1  0.379743  0.906302  0.819286  1
  O  O33  1  0.339717  0.815539  0.176331  1
  O  O34  1  0.530969  0.914802  0.327207  1
  O  O35  1  0.767505  0.009663  0.068706  1
  O  O36  1  0.659153  0.917803  0.839363  1
  O  O37  1  0.188930  0.670781  0.674038  1
  O  O38  1  0.082430  0.619822  0.331278  1
  O  O39  1  0.488956  0.814345  0.672109  1
  O  O40  1  0.332543  0.660275  0.026351  1
  O  O41  1  0.337668  0.663944  0.525571  1
  O  O42  1  0.474637  0.656292  0.177256  1
  O  O43  1  0.095269  0.480054  0.819901  1
  O  O44  1  0.178106  0.516784  0.172602  1
  O  O45  1  0.655024  0.740791  0.330368  1
  O  O46  1  0.792150  0.794817  0.751411  1
  O  O47  1  0.780305  0.784281  0.574238  1
  O  O48  1  0.765705  0.762631  0.928765  1
  O  O49  1  0.523100  0.619240  0.823349  1
  O  O50  1  0.328082  0.512010  0.672074  1
  O  O51  1  0.742388  0.655496  0.167091  1
  O  O52  1  0.384407  0.469398  0.329635  1
  O  O53  1  0.088570  0.347572  0.330960  1
  O  O54  1  0.006895  0.798924  0.244053  1
  O  O55  1  0.005287  0.798293  0.423316  1
  O  O56  1  0.008197  0.218914  0.579307  1
  O  O57  1  0.910404  0.654982  0.665770  1
  O  O58  1  0.614319  0.532044  0.673077  1
  O  O59  1  0.255348  0.343933  0.833438  1
  O  O60  1  0.665346  0.480125  0.324812  1
  O  O61  1  0.473077  0.379682  0.176256  1
  O  O62  1  0.225113  0.232263  0.076115  1
  O  O63  1  0.211742  0.229388  0.433381  1
  O  O64  1  0.209045  0.200760  0.255066  1
  O  O65  1  0.341889  0.259957  0.665505  1
  O  O66  1  0.820220  0.484471  0.824930  1
  O  O67  1  0.904431  0.522635  0.181499  1
  O  O68  1  0.524820  0.338755  0.822786  1
  O  O69  1  0.673846  0.335857  0.972597  1
  O  O70  1  0.664895  0.331199  0.474710  1
  O  O71  1  0.516094  0.184428  0.324168  1
  O  O72  1  0.912963  0.381720  0.672181  1
  O  O73  1  0.812909  0.330828  0.326898  1
  O  O74  1  0.342327  0.083786  0.163691  1
  O  O75  1  0.205115  0.001999  0.751620  1
  O  O76  1  0.238540  0.999799  0.932315  1
  O  O77  1  0.465277  0.084945  0.674388  1
  O  O78  1  0.668478  0.183633  0.824482  1
  O  O79  1  0.619488  0.096200  0.177877  1
  O  O80  1  0.918349  0.259527  0.164705  1
  O  O81  1  0.004727  0.251096  0.933545  1
  O  O82  1  0.986425  0.200998  0.758352  1
  O  O83  1  0.740400  0.081920  0.660598  1
  O  O84  1  0.773623  0.986642  0.429622  1
  O  O85  1  0.795315  0.001666  0.249177  1
