# generated using pymatgen
data_Li4Mn3V3Cr2O16
_symmetry_space_group_name_H-M   'P 1'
_cell_length_a   5.85453108
_cell_length_b   5.91527058
_cell_length_c   9.57788353
_cell_angle_alpha   89.44341785
_cell_angle_beta   91.36024928
_cell_angle_gamma   119.00469988
_symmetry_Int_Tables_number   1
_chemical_formula_structural   Li4Mn3V3Cr2O16
_chemical_formula_sum   'Li4 Mn3 V3 Cr2 O16'
_cell_volume   290.00966654
_cell_formula_units_Z   1
loop_
 _symmetry_equiv_pos_site_id
 _symmetry_equiv_pos_as_xyz
  1  'x, y, z'
loop_
 _atom_site_type_symbol
 _atom_site_label
 _atom_site_symmetry_multiplicity
 _atom_site_fract_x
 _atom_site_fract_y
 _atom_site_fract_z
 _atom_site_occupancy
  Li  Li0  1  0.334599  0.677332  0.105506  1
  Li  Li1  1  0.994199  0.009763  0.004542  1
  Li  Li2  1  0.003630  0.982958  0.503991  1
  Li  Li3  1  0.667102  0.329525  0.603485  1
  Mn  Mn4  1  0.167630  0.832261  0.789069  1
  Mn  Mn5  1  0.833853  0.657868  0.285140  1
  Mn  Mn6  1  0.337607  0.169831  0.287631  1
  V  V7  1  0.661551  0.834476  0.785473  1
  V  V8  1  0.166889  0.338419  0.786582  1
  V  V9  1  0.827539  0.159170  0.288232  1
  Cr  Cr10  1  0.330147  0.652768  0.514858  1
  Cr  Cr11  1  0.669870  0.347860  0.017526  1
  O  O12  1  0.674630  0.832183  0.394249  1
  O  O13  1  0.484522  0.514599  0.664147  1
  O  O14  1  0.332443  0.672636  0.894649  1
  O  O15  1  0.001868  0.996657  0.690399  1
  O  O16  1  0.001154  0.990828  0.191610  1
  O  O17  1  0.146532  0.313888  0.398512  1
  O  O18  1  0.489262  0.952296  0.656730  1
  O  O19  1  0.040714  0.499298  0.657322  1
  O  O20  1  0.830586  0.171348  0.891584  1
  O  O21  1  0.152524  0.814762  0.401732  1
  O  O22  1  0.964505  0.483121  0.165062  1
  O  O23  1  0.535164  0.050421  0.161215  1
  O  O24  1  0.668410  0.338549  0.391344  1
  O  O25  1  0.822727  0.682956  0.900711  1
  O  O26  1  0.536456  0.505321  0.157060  1
  O  O27  1  0.324187  0.189202  0.903799  1
