# generated using pymatgen
data_K2InSi4HO11
_symmetry_space_group_name_H-M   'P 1'
_cell_length_a   11.59362839
_cell_length_b   8.51839903
_cell_length_c   11.82573437
_cell_angle_alpha   90.00000000
_cell_angle_beta   112.33659105
_cell_angle_gamma   90.00000000
_symmetry_Int_Tables_number   1
_chemical_formula_structural   K2InSi4HO11
_chemical_formula_sum   'K8 In4 Si16 H4 O44'
_cell_volume   1080.26873269
_cell_formula_units_Z   4
loop_
 _symmetry_equiv_pos_site_id
 _symmetry_equiv_pos_as_xyz
  1  'x, y, z'
loop_
 _atom_site_type_symbol
 _atom_site_label
 _atom_site_symmetry_multiplicity
 _atom_site_fract_x
 _atom_site_fract_y
 _atom_site_fract_z
 _atom_site_occupancy
  K  K0  1  0.082973  0.750000  0.582945  1
  K  K1  1  0.017291  0.250000  0.026754  1
  K  K2  1  0.567739  0.750000  0.939075  1
  K  K3  1  0.471249  0.750000  0.541143  1
  K  K4  1  0.528751  0.250000  0.458857  1
  K  K5  1  0.432261  0.250000  0.060925  1
  K  K6  1  0.982709  0.750000  0.973246  1
  K  K7  1  0.917027  0.250000  0.417055  1
  In  In8  1  0.287579  0.994070  0.212635  1
  In  In9  1  0.287579  0.505930  0.212635  1
  In  In10  1  0.712421  0.494070  0.787365  1
  In  In11  1  0.712421  0.005930  0.787365  1
  Si  Si12  1  0.248885  0.936565  0.896344  1
  Si  Si13  1  0.248885  0.563435  0.896344  1
  Si  Si14  1  0.010590  0.930224  0.254169  1
  Si  Si15  1  0.010590  0.569776  0.254169  1
  Si  Si16  1  0.222537  0.435773  0.468504  1
  Si  Si17  1  0.222537  0.064227  0.468504  1
  Si  Si18  1  0.391632  0.440926  0.736531  1
  Si  Si19  1  0.391632  0.059074  0.736531  1
  Si  Si20  1  0.608368  0.940926  0.263469  1
  Si  Si21  1  0.608368  0.559074  0.263469  1
  Si  Si22  1  0.777463  0.935773  0.531496  1
  Si  Si23  1  0.777463  0.564227  0.531496  1
  Si  Si24  1  0.989410  0.430224  0.745831  1
  Si  Si25  1  0.989410  0.069776  0.745831  1
  Si  Si26  1  0.751115  0.436565  0.103656  1
  Si  Si27  1  0.751115  0.063435  0.103656  1
  H  H28  1  0.248269  0.250000  0.289041  1
  H  H29  1  0.577199  0.250000  0.744668  1
  H  H30  1  0.422801  0.750000  0.255332  1
  H  H31  1  0.751731  0.750000  0.710959  1
  O  O32  1  0.043970  0.250000  0.754247  1
  O  O33  1  0.110520  0.949846  0.783088  1
  O  O34  1  0.110520  0.550154  0.783088  1
  O  O35  1  0.090241  0.965735  0.402107  1
  O  O36  1  0.090241  0.534265  0.402107  1
  O  O37  1  0.289139  0.750000  0.901645  1
  O  O38  1  0.177891  0.250000  0.461292  1
  O  O39  1  0.089888  0.958657  0.171047  1
  O  O40  1  0.089888  0.541343  0.171047  1
  O  O41  1  0.351974  0.469889  0.854884  1
  O  O42  1  0.351974  0.030111  0.854884  1
  O  O43  1  0.270460  0.006518  0.612578  1
  O  O44  1  0.270460  0.493482  0.612578  1
  O  O45  1  0.413640  0.250000  0.728295  1
  O  O46  1  0.323961  0.466825  0.409787  1
  O  O47  1  0.323961  0.033175  0.409787  1
  O  O48  1  0.252981  0.250000  0.208219  1
  O  O49  1  0.513623  0.962921  0.747294  1
  O  O50  1  0.513623  0.537079  0.747294  1
  O  O51  1  0.335622  0.750000  0.248568  1
  O  O52  1  0.248482  0.008397  0.020137  1
  O  O53  1  0.248482  0.491603  0.020137  1
  O  O54  1  0.751518  0.991603  0.979863  1
  O  O55  1  0.751518  0.508397  0.979863  1
  O  O56  1  0.664378  0.250000  0.751432  1
  O  O57  1  0.486377  0.462921  0.252706  1
  O  O58  1  0.486377  0.037079  0.252706  1
  O  O59  1  0.747019  0.750000  0.791781  1
  O  O60  1  0.676039  0.966825  0.590213  1
  O  O61  1  0.676039  0.533175  0.590213  1
  O  O62  1  0.586360  0.750000  0.271705  1
  O  O63  1  0.729540  0.993482  0.387422  1
  O  O64  1  0.729540  0.506518  0.387422  1
  O  O65  1  0.648026  0.969889  0.145116  1
  O  O66  1  0.648026  0.530111  0.145116  1
  O  O67  1  0.910112  0.458657  0.828953  1
  O  O68  1  0.910112  0.041343  0.828953  1
  O  O69  1  0.822109  0.750000  0.538708  1
  O  O70  1  0.710861  0.250000  0.098355  1
  O  O71  1  0.909759  0.465735  0.597893  1
  O  O72  1  0.909759  0.034265  0.597893  1
  O  O73  1  0.889480  0.449846  0.216912  1
  O  O74  1  0.889480  0.050154  0.216912  1
  O  O75  1  0.956030  0.750000  0.245753  1
