# generated using pymatgen
data_Na2FeO3
_symmetry_space_group_name_H-M   'P 1'
_cell_length_a   5.39715896
_cell_length_b   6.13403056
_cell_length_c   9.35876156
_cell_angle_alpha   90.00000000
_cell_angle_beta   90.00000000
_cell_angle_gamma   90.00000000
_symmetry_Int_Tables_number   1
_chemical_formula_structural   Na2FeO3
_chemical_formula_sum   'Na8 Fe4 O12'
_cell_volume   309.83432355
_cell_formula_units_Z   4
loop_
 _symmetry_equiv_pos_site_id
 _symmetry_equiv_pos_as_xyz
  1  'x, y, z'
loop_
 _atom_site_type_symbol
 _atom_site_label
 _atom_site_symmetry_multiplicity
 _atom_site_fract_x
 _atom_site_fract_y
 _atom_site_fract_z
 _atom_site_occupancy
  Na  Na0  1  0.773799  0.886622  0.914225  1
  Na  Na1  1  0.773799  0.886622  0.585775  1
  Na  Na2  1  0.726201  0.386622  0.085775  1
  Na  Na3  1  0.726201  0.386622  0.414225  1
  Na  Na4  1  0.273799  0.613378  0.585775  1
  Na  Na5  1  0.273799  0.613378  0.914225  1
  Na  Na6  1  0.226201  0.113378  0.085775  1
  Na  Na7  1  0.226201  0.113378  0.414225  1
  Fe  Fe8  1  0.776387  0.836604  0.250000  1
  Fe  Fe9  1  0.723613  0.336604  0.750000  1
  Fe  Fe10  1  0.276387  0.663396  0.250000  1
  Fe  Fe11  1  0.223613  0.163396  0.750000  1
  O  O12  1  0.987253  0.283553  0.612785  1
  O  O13  1  0.987253  0.283553  0.887215  1
  O  O14  1  0.867507  0.122759  0.250000  1
  O  O15  1  0.632493  0.622759  0.750000  1
  O  O16  1  0.512747  0.783553  0.387215  1
  O  O17  1  0.512747  0.783553  0.112785  1
  O  O18  1  0.487253  0.216447  0.612785  1
  O  O19  1  0.487253  0.216447  0.887215  1
  O  O20  1  0.367507  0.377241  0.250000  1
  O  O21  1  0.132493  0.877241  0.750000  1
  O  O22  1  0.012747  0.716447  0.112785  1
  O  O23  1  0.012747  0.716447  0.387215  1
