# generated using pymatgen
data_Li2SiNiO4
_symmetry_space_group_name_H-M   'P 1'
_cell_length_a   4.91557798
_cell_length_b   5.34720195
_cell_length_c   6.30050955
_cell_angle_alpha   90.00000000
_cell_angle_beta   90.00000000
_cell_angle_gamma   90.00000000
_symmetry_Int_Tables_number   1
_chemical_formula_structural   Li2SiNiO4
_chemical_formula_sum   'Li4 Si2 Ni2 O8'
_cell_volume   165.60629872
_cell_formula_units_Z   2
loop_
 _symmetry_equiv_pos_site_id
 _symmetry_equiv_pos_as_xyz
  1  'x, y, z'
loop_
 _atom_site_type_symbol
 _atom_site_label
 _atom_site_symmetry_multiplicity
 _atom_site_fract_x
 _atom_site_fract_y
 _atom_site_fract_z
 _atom_site_occupancy
  Li  Li0  1  0.007656  0.670902  0.249729  1
  Li  Li1  1  0.507656  0.329098  0.250271  1
  Li  Li2  1  0.007656  0.670902  0.750271  1
  Li  Li3  1  0.507656  0.329098  0.749729  1
  Si  Si4  1  0.497771  0.833592  0.000000  1
  Si  Si5  1  0.997771  0.166408  0.500000  1
  Ni  Ni6  1  0.010646  0.176989  0.000000  1
  Ni  Ni7  1  0.510646  0.823011  0.500000  1
  O  O8  1  0.161336  0.832371  0.000000  1
  O  O9  1  0.604933  0.127618  0.000000  1
  O  O10  1  0.104995  0.314366  0.284891  1
  O  O11  1  0.604995  0.685634  0.215109  1
  O  O12  1  0.104933  0.872382  0.500000  1
  O  O13  1  0.661336  0.167629  0.500000  1
  O  O14  1  0.604995  0.685634  0.784891  1
  O  O15  1  0.104995  0.314366  0.715109  1
