# generated using pymatgen
data_Li4MnFe3(BO3)4
_symmetry_space_group_name_H-M   'P 1'
_cell_length_a   5.23226119
_cell_length_b   6.16761446
_cell_length_c   9.00594257
_cell_angle_alpha   106.45707973
_cell_angle_beta   88.70321088
_cell_angle_gamma   114.49304661
_symmetry_Int_Tables_number   1
_chemical_formula_structural   Li4MnFe3(BO3)4
_chemical_formula_sum   'Li4 Mn1 Fe3 B4 O12'
_cell_volume   252.13752223
_cell_formula_units_Z   1
loop_
 _symmetry_equiv_pos_site_id
 _symmetry_equiv_pos_as_xyz
  1  'x, y, z'
loop_
 _atom_site_type_symbol
 _atom_site_label
 _atom_site_symmetry_multiplicity
 _atom_site_fract_x
 _atom_site_fract_y
 _atom_site_fract_z
 _atom_site_occupancy
  Li  Li0  1  0.183503  0.672767  0.118301  1
  Li  Li1  1  0.683833  0.673660  0.616133  1
  Li  Li2  1  0.315941  0.329829  0.381721  1
  Li  Li3  1  0.815610  0.327226  0.882656  1
  Mn  Mn4  1  0.282589  0.229341  0.696689  1
  Fe  Fe5  1  0.777289  0.232141  0.199911  1
  Fe  Fe6  1  0.722116  0.767597  0.300091  1
  Fe  Fe7  1  0.220676  0.764431  0.802025  1
  B  B8  1  0.300535  0.257619  0.036158  1
  B  B9  1  0.198479  0.738895  0.464887  1
  B  B10  1  0.801331  0.261912  0.534207  1
  B  B11  1  0.700032  0.742034  0.965574  1
  O  O12  1  0.058382  0.295015  0.031985  1
  O  O13  1  0.452994  0.316805  0.178396  1
  O  O14  1  0.594547  0.824085  0.104757  1
  O  O15  1  0.047129  0.684040  0.323184  1
  O  O16  1  0.442433  0.705383  0.468529  1
  O  O17  1  0.092605  0.819960  0.603581  1
  O  O18  1  0.907078  0.175269  0.395946  1
  O  O19  1  0.558411  0.297639  0.526260  1
  O  O20  1  0.947715  0.320581  0.677120  1
  O  O21  1  0.404736  0.172040  0.898558  1
  O  O22  1  0.550033  0.686796  0.823727  1
  O  O23  1  0.942007  0.704940  0.969605  1
