# generated using pymatgen
data_Li3MnFe2(BO3)3
_symmetry_space_group_name_H-M   'P 1'
_cell_length_a   8.26199864
_cell_length_b   6.28781614
_cell_length_c   8.26740730
_cell_angle_alpha   90.00000000
_cell_angle_beta   119.96939835
_cell_angle_gamma   90.00000000
_symmetry_Int_Tables_number   1
_chemical_formula_structural   Li3MnFe2(BO3)3
_chemical_formula_sum   'Li6 Mn2 Fe4 B6 O18'
_cell_volume   372.06494726
_cell_formula_units_Z   2
loop_
 _symmetry_equiv_pos_site_id
 _symmetry_equiv_pos_as_xyz
  1  'x, y, z'
loop_
 _atom_site_type_symbol
 _atom_site_label
 _atom_site_symmetry_multiplicity
 _atom_site_fract_x
 _atom_site_fract_y
 _atom_site_fract_z
 _atom_site_occupancy
  Li  Li0  1  0.284436  0.749641  0.301631  1
  Li  Li1  1  0.284436  0.250359  0.301631  1
  Li  Li2  1  0.016824  0.749027  0.715111  1
  Li  Li3  1  0.016824  0.250973  0.715111  1
  Li  Li4  1  0.698564  0.248765  0.984200  1
  Li  Li5  1  0.698564  0.751235  0.984200  1
  Mn  Mn6  1  0.373364  0.500000  0.012270  1
  Mn  Mn7  1  0.639614  0.000000  0.627112  1
  Fe  Fe8  1  0.365831  0.000000  0.006733  1
  Fe  Fe9  1  0.641148  0.500000  0.634209  1
  Fe  Fe10  1  0.992041  0.000000  0.360078  1
  Fe  Fe11  1  0.991870  0.500000  0.359333  1
  B  B12  1  0.000549  0.000000  0.003484  1
  B  B13  1  0.998323  0.500000  0.998383  1
  B  B14  1  0.332239  0.749969  0.665072  1
  B  B15  1  0.332239  0.250031  0.665072  1
  B  B16  1  0.668110  0.749967  0.333878  1
  B  B17  1  0.668110  0.250033  0.333878  1
  O  O18  1  0.107531  0.500000  0.192113  1
  O  O19  1  0.111602  0.000000  0.196969  1
  O  O20  1  0.138078  0.749754  0.557450  1
  O  O21  1  0.138078  0.250246  0.557450  1
  O  O22  1  0.085072  0.000000  0.892538  1
  O  O23  1  0.080639  0.500000  0.887611  1
  O  O24  1  0.439943  0.745859  0.579243  1
  O  O25  1  0.439943  0.254141  0.579243  1
  O  O26  1  0.418367  0.754286  0.858714  1
  O  O27  1  0.418367  0.245714  0.858714  1
  O  O28  1  0.474220  0.752826  0.220630  1
  O  O29  1  0.474220  0.247174  0.220630  1
  O  O30  1  0.807510  0.000000  0.920197  1
  O  O31  1  0.803356  0.500000  0.915086  1
  O  O32  1  0.781918  0.750295  0.253842  1
  O  O33  1  0.781918  0.249705  0.253842  1
  O  O34  1  0.748075  0.253217  0.527171  1
  O  O35  1  0.748075  0.746783  0.527171  1
