# generated using pymatgen
data_BaSr2I6
_symmetry_space_group_name_H-M   'P 1'
_cell_length_a   8.37101015
_cell_length_b   8.37101015
_cell_length_c   7.64038500
_cell_angle_alpha   90.00000000
_cell_angle_beta   90.00000000
_cell_angle_gamma   120.00000000
_symmetry_Int_Tables_number   1
_chemical_formula_structural   BaSr2I6
_chemical_formula_sum   'Ba1 Sr2 I6'
_cell_volume   463.66211475
_cell_formula_units_Z   1
loop_
 _symmetry_equiv_pos_site_id
 _symmetry_equiv_pos_as_xyz
  1  'x, y, z'
loop_
 _atom_site_type_symbol
 _atom_site_label
 _atom_site_symmetry_multiplicity
 _atom_site_fract_x
 _atom_site_fract_y
 _atom_site_fract_z
 _atom_site_occupancy
  Ba  Ba0  1  0.000000  0.000000  0.000000  1
  Sr  Sr1  1  0.333333  0.666667  0.500000  1
  Sr  Sr2  1  0.666667  0.333333  0.500000  1
  I  I3  1  0.000000  0.654112  0.741848  1
  I  I4  1  0.000000  0.345888  0.258152  1
  I  I5  1  0.345888  0.345888  0.741848  1
  I  I6  1  0.654112  0.654112  0.258152  1
  I  I7  1  0.345888  0.000000  0.258152  1
  I  I8  1  0.654112  0.000000  0.741848  1
