# generated using pymatgen
data_KBaFe2(PO4)3
_symmetry_space_group_name_H-M   'P 1'
_cell_length_a   10.02330121
_cell_length_b   10.02330121
_cell_length_c   10.02330121
_cell_angle_alpha   90.00000000
_cell_angle_beta   90.00000000
_cell_angle_gamma   90.00000000
_symmetry_Int_Tables_number   1
_chemical_formula_structural   KBaFe2(PO4)3
_chemical_formula_sum   'K4 Ba4 Fe8 P12 O48'
_cell_volume   1007.00666404
_cell_formula_units_Z   4
loop_
 _symmetry_equiv_pos_site_id
 _symmetry_equiv_pos_as_xyz
  1  'x, y, z'
loop_
 _atom_site_type_symbol
 _atom_site_label
 _atom_site_symmetry_multiplicity
 _atom_site_fract_x
 _atom_site_fract_y
 _atom_site_fract_z
 _atom_site_occupancy
  K  K0  1  0.202479  0.702479  0.797521  1
  K  K1  1  0.297521  0.297521  0.297521  1
  K  K2  1  0.702479  0.797521  0.202479  1
  K  K3  1  0.797521  0.202479  0.702479  1
  Ba  Ba4  1  0.067520  0.067520  0.067520  1
  Ba  Ba5  1  0.432480  0.932480  0.567520  1
  Ba  Ba6  1  0.567520  0.432480  0.932480  1
  Ba  Ba7  1  0.932480  0.567520  0.432480  1
  Fe  Fe8  1  0.085768  0.914232  0.414232  1
  Fe  Fe9  1  0.148667  0.351333  0.648667  1
  Fe  Fe10  1  0.351333  0.648667  0.148667  1
  Fe  Fe11  1  0.414232  0.085768  0.914232  1
  Fe  Fe12  1  0.585768  0.585768  0.585768  1
  Fe  Fe13  1  0.648667  0.148667  0.351333  1
  Fe  Fe14  1  0.851333  0.851333  0.851333  1
  Fe  Fe15  1  0.914232  0.414232  0.085768  1
  P  P16  1  0.038637  0.727189  0.126865  1
  P  P17  1  0.126865  0.038637  0.727189  1
  P  P18  1  0.227189  0.373135  0.961363  1
  P  P19  1  0.272811  0.626865  0.461363  1
  P  P20  1  0.373135  0.961363  0.227189  1
  P  P21  1  0.461363  0.272811  0.626865  1
  P  P22  1  0.538637  0.772811  0.873135  1
  P  P23  1  0.626865  0.461363  0.272811  1
  P  P24  1  0.727189  0.126865  0.038637  1
  P  P25  1  0.772811  0.873135  0.538637  1
  P  P26  1  0.873135  0.538637  0.772811  1
  P  P27  1  0.961363  0.227189  0.373135  1
  O  O28  1  0.999565  0.080190  0.346900  1
  O  O29  1  0.015429  0.801363  0.261440  1
  O  O30  1  0.024463  0.947596  0.798572  1
  O  O31  1  0.052404  0.298572  0.475537  1
  O  O32  1  0.079066  0.185065  0.739706  1
  O  O33  1  0.080190  0.346900  0.999565  1
  O  O34  1  0.153100  0.000435  0.580190  1
  O  O35  1  0.185065  0.739706  0.079066  1
  O  O36  1  0.198637  0.761440  0.484571  1
  O  O37  1  0.201428  0.524463  0.552404  1
  O  O38  1  0.238560  0.984571  0.301363  1
  O  O39  1  0.239706  0.420934  0.814935  1
  O  O40  1  0.260294  0.579066  0.314935  1
  O  O41  1  0.261440  0.015429  0.801363  1
  O  O42  1  0.298572  0.475537  0.052404  1
  O  O43  1  0.301363  0.238560  0.984571  1
  O  O44  1  0.314935  0.260294  0.579066  1
  O  O45  1  0.346900  0.999565  0.080190  1
  O  O46  1  0.419810  0.653100  0.499565  1
  O  O47  1  0.420934  0.814935  0.239706  1
  O  O48  1  0.447596  0.701428  0.975537  1
  O  O49  1  0.475537  0.052404  0.298572  1
  O  O50  1  0.484571  0.198637  0.761440  1
  O  O51  1  0.500435  0.919810  0.846900  1
  O  O52  1  0.499565  0.419810  0.653100  1
  O  O53  1  0.515429  0.698637  0.738560  1
  O  O54  1  0.524463  0.552404  0.201428  1
  O  O55  1  0.552404  0.201428  0.524463  1
  O  O56  1  0.579066  0.314935  0.260294  1
  O  O57  1  0.580190  0.153100  0.000435  1
  O  O58  1  0.653100  0.499565  0.419810  1
  O  O59  1  0.685065  0.760294  0.920934  1
  O  O60  1  0.698637  0.738560  0.515429  1
  O  O61  1  0.701428  0.975537  0.447596  1
  O  O62  1  0.738560  0.515429  0.698637  1
  O  O63  1  0.739706  0.079066  0.185065  1
  O  O64  1  0.760294  0.920934  0.685065  1
  O  O65  1  0.761440  0.484571  0.198637  1
  O  O66  1  0.798572  0.024463  0.947596  1
  O  O67  1  0.801363  0.261440  0.015429  1
  O  O68  1  0.814935  0.239706  0.420934  1
  O  O69  1  0.846900  0.500435  0.919810  1
  O  O70  1  0.919810  0.846900  0.500435  1
  O  O71  1  0.920934  0.685065  0.760294  1
  O  O72  1  0.947596  0.798572  0.024463  1
  O  O73  1  0.975537  0.447596  0.701428  1
  O  O74  1  0.984571  0.301363  0.238560  1
  O  O75  1  0.000435  0.580190  0.153100  1
