# generated using pymatgen
data_LiCoPO4
_symmetry_space_group_name_H-M   'P 1'
_cell_length_a   5.12208264
_cell_length_b   6.38064782
_cell_length_c   10.68921975
_cell_angle_alpha   90.00000000
_cell_angle_beta   90.00000000
_cell_angle_gamma   90.00000000
_symmetry_Int_Tables_number   1
_chemical_formula_structural   LiCoPO4
_chemical_formula_sum   'Li4 Co4 P4 O16'
_cell_volume   349.34727576
_cell_formula_units_Z   4
loop_
 _symmetry_equiv_pos_site_id
 _symmetry_equiv_pos_as_xyz
  1  'x, y, z'
loop_
 _atom_site_type_symbol
 _atom_site_label
 _atom_site_symmetry_multiplicity
 _atom_site_fract_x
 _atom_site_fract_y
 _atom_site_fract_z
 _atom_site_occupancy
  Li  Li0  1  0.750317  0.979615  0.159942  1
  Li  Li1  1  0.250317  0.479615  0.340058  1
  Li  Li2  1  0.750317  0.520385  0.659942  1
  Li  Li3  1  0.250317  0.020385  0.840058  1
  Co  Co4  1  0.251909  0.702188  0.083655  1
  Co  Co5  1  0.751909  0.202188  0.416345  1
  Co  Co6  1  0.251909  0.797812  0.583655  1
  Co  Co7  1  0.751909  0.297812  0.916345  1
  P  P8  1  0.750679  0.479820  0.179614  1
  P  P9  1  0.250679  0.979820  0.320386  1
  P  P10  1  0.750679  0.020180  0.679614  1
  P  P11  1  0.250679  0.520180  0.820386  1
  O  O12  1  0.814810  0.283288  0.096841  1
  O  O13  1  0.870280  0.679739  0.118255  1
  O  O14  1  0.365436  0.949953  0.186944  1
  O  O15  1  0.450719  0.504167  0.186765  1
  O  O16  1  0.950719  0.004167  0.313235  1
  O  O17  1  0.865436  0.449953  0.313056  1
  O  O18  1  0.370280  0.179739  0.381745  1
  O  O19  1  0.314810  0.783288  0.403159  1
  O  O20  1  0.814810  0.216712  0.596841  1
  O  O21  1  0.870280  0.820261  0.618255  1
  O  O22  1  0.365436  0.550047  0.686944  1
  O  O23  1  0.450719  0.995833  0.686765  1
  O  O24  1  0.950719  0.495833  0.813235  1
  O  O25  1  0.865436  0.050047  0.813056  1
  O  O26  1  0.370280  0.320261  0.881745  1
  O  O27  1  0.314810  0.716712  0.903159  1
