# generated using pymatgen
data_LiMn2(CO3)4
_symmetry_space_group_name_H-M   'P 1'
_cell_length_a   7.33148394
_cell_length_b   9.74125032
_cell_length_c   8.45918131
_cell_angle_alpha   90.00000000
_cell_angle_beta   110.23386155
_cell_angle_gamma   90.00000000
_symmetry_Int_Tables_number   1
_chemical_formula_structural   LiMn2(CO3)4
_chemical_formula_sum   'Li2 Mn4 C8 O24'
_cell_volume   566.85430851
_cell_formula_units_Z   2
loop_
 _symmetry_equiv_pos_site_id
 _symmetry_equiv_pos_as_xyz
  1  'x, y, z'
loop_
 _atom_site_type_symbol
 _atom_site_label
 _atom_site_symmetry_multiplicity
 _atom_site_fract_x
 _atom_site_fract_y
 _atom_site_fract_z
 _atom_site_occupancy
  Li  Li0  1  0.760607  0.434541  0.117449  1
  Li  Li1  1  0.239393  0.934541  0.882551  1
  Mn  Mn2  1  0.284412  0.353167  0.814963  1
  Mn  Mn3  1  0.715588  0.853167  0.185037  1
  Mn  Mn4  1  0.801651  0.141430  0.323561  1
  Mn  Mn5  1  0.198349  0.641430  0.676439  1
  C  C6  1  0.505932  0.108778  0.991553  1
  C  C7  1  0.494068  0.608778  0.008447  1
  C  C8  1  0.507757  0.479728  0.615602  1
  C  C9  1  0.492243  0.979728  0.384398  1
  C  C10  1  0.013760  0.016293  0.113349  1
  C  C11  1  0.986240  0.516293  0.886651  1
  C  C12  1  0.996505  0.399179  0.479856  1
  C  C13  1  0.003495  0.899179  0.520144  1
  O  O14  1  0.365240  0.150289  0.862312  1
  O  O15  1  0.469423  0.476112  0.991387  1
  O  O16  1  0.387244  0.696442  0.900568  1
  O  O17  1  0.612756  0.196442  0.099432  1
  O  O18  1  0.530577  0.976112  0.008613  1
  O  O19  1  0.634760  0.650289  0.137688  1
  O  O20  1  0.365249  0.962952  0.451685  1
  O  O21  1  0.465797  0.373546  0.689482  1
  O  O22  1  0.426422  0.598824  0.609389  1
  O  O23  1  0.573578  0.098824  0.390611  1
  O  O24  1  0.534203  0.873546  0.310518  1
  O  O25  1  0.864353  0.527839  0.960389  1
  O  O26  1  0.634751  0.462952  0.548315  1
  O  O27  1  0.988916  0.115889  0.205576  1
  O  O28  1  0.914476  0.902028  0.092791  1
  O  O29  1  0.085524  0.402028  0.907209  1
  O  O30  1  0.011084  0.615889  0.794424  1
  O  O31  1  0.135647  0.027839  0.039611  1
  O  O32  1  0.871062  0.351637  0.342962  1
  O  O33  1  0.959079  0.027964  0.513670  1
  O  O34  1  0.927460  0.813512  0.397908  1
  O  O35  1  0.072540  0.313512  0.602092  1
  O  O36  1  0.040921  0.527964  0.486330  1
  O  O37  1  0.128938  0.851637  0.657038  1
