# generated using pymatgen
data_Bi12PO20
_symmetry_space_group_name_H-M   'P 1'
_cell_length_a   8.94256640
_cell_length_b   8.94256640
_cell_length_c   8.94256640
_cell_angle_alpha   109.47122063
_cell_angle_beta   109.47122063
_cell_angle_gamma   109.47122063
_symmetry_Int_Tables_number   1
_chemical_formula_structural   Bi12PO20
_chemical_formula_sum   'Bi12 P1 O20'
_cell_volume   550.50926222
_cell_formula_units_Z   1
loop_
 _symmetry_equiv_pos_site_id
 _symmetry_equiv_pos_as_xyz
  1  'x, y, z'
loop_
 _atom_site_type_symbol
 _atom_site_label
 _atom_site_symmetry_multiplicity
 _atom_site_fract_x
 _atom_site_fract_y
 _atom_site_fract_z
 _atom_site_occupancy
  Bi  Bi0  1  0.801594  0.147676  0.300908  1
  Bi  Bi1  1  0.852324  0.653919  0.153233  1
  Bi  Bi2  1  0.499314  0.346081  0.198406  1
  Bi  Bi3  1  0.346081  0.198406  0.499314  1
  Bi  Bi4  1  0.653919  0.153233  0.852324  1
  Bi  Bi5  1  0.846767  0.500686  0.699092  1
  Bi  Bi6  1  0.198406  0.499314  0.346081  1
  Bi  Bi7  1  0.699092  0.846767  0.500686  1
  Bi  Bi8  1  0.300908  0.801594  0.147676  1
  Bi  Bi9  1  0.147676  0.300908  0.801594  1
  Bi  Bi10  1  0.500686  0.699092  0.846767  1
  Bi  Bi11  1  0.153233  0.852324  0.653919  1
  P  P12  1  0.000000  0.000000  0.000000  1
  O  O13  1  0.598516  0.000000  1.000000  1
  O  O14  1  0.758233  0.375922  0.118289  1
  O  O15  1  0.175748  0.000000  1.000000  1
  O  O16  1  0.617689  0.241767  0.360057  1
  O  O17  1  0.881711  0.257632  0.639943  1
  O  O18  1  0.000000  0.175748  0.000000  1
  O  O19  1  0.000000  0.000000  0.175748  1
  O  O20  1  0.742368  0.624078  0.382311  1
  O  O21  1  0.401484  0.401484  0.401484  1
  O  O22  1  0.375922  0.118289  0.758233  1
  O  O23  1  0.624078  0.382311  0.742368  1
  O  O24  1  0.360057  0.617689  0.241767  1
  O  O25  1  0.639943  0.881711  0.257632  1
  O  O26  1  0.000000  0.598516  0.000000  1
  O  O27  1  0.000000  0.000000  0.598516  1
  O  O28  1  0.241767  0.360057  0.617689  1
  O  O29  1  0.824252  0.824252  0.824252  1
  O  O30  1  0.382311  0.742368  0.624078  1
  O  O31  1  0.118289  0.758233  0.375922  1
  O  O32  1  0.257632  0.639943  0.881711  1
