# generated using pymatgen
data_LiV2BO5
_symmetry_space_group_name_H-M   'P 1'
_cell_length_a   3.05861262
_cell_length_b   9.31492282
_cell_length_c   12.40150316
_cell_angle_alpha   90.00000000
_cell_angle_beta   90.00000000
_cell_angle_gamma   90.00000000
_symmetry_Int_Tables_number   1
_chemical_formula_structural   LiV2BO5
_chemical_formula_sum   'Li4 V8 B4 O20'
_cell_volume   353.32800824
_cell_formula_units_Z   4
loop_
 _symmetry_equiv_pos_site_id
 _symmetry_equiv_pos_as_xyz
  1  'x, y, z'
loop_
 _atom_site_type_symbol
 _atom_site_label
 _atom_site_symmetry_multiplicity
 _atom_site_fract_x
 _atom_site_fract_y
 _atom_site_fract_z
 _atom_site_occupancy
  Li  Li0  1  0.000000  0.000000  0.000000  1
  Li  Li1  1  0.500000  0.000000  0.500000  1
  Li  Li2  1  0.000000  0.500000  0.500000  1
  Li  Li3  1  0.500000  0.500000  0.000000  1
  V  V4  1  0.000000  0.002104  0.283906  1
  V  V5  1  0.500000  0.240320  0.108743  1
  V  V6  1  0.500000  0.259680  0.608743  1
  V  V7  1  0.000000  0.497896  0.783906  1
  V  V8  1  0.000000  0.502104  0.216094  1
  V  V9  1  0.500000  0.740320  0.391257  1
  V  V10  1  0.500000  0.759680  0.891257  1
  V  V11  1  0.000000  0.997896  0.716094  1
  B  B12  1  0.500000  0.223866  0.861624  1
  B  B13  1  0.500000  0.276134  0.361624  1
  B  B14  1  0.500000  0.723866  0.638376  1
  B  B15  1  0.500000  0.776134  0.138376  1
  O  O16  1  0.000000  0.110641  0.151063  1
  O  O17  1  0.000000  0.118583  0.581007  1
  O  O18  1  0.500000  0.125321  0.352340  1
  O  O19  1  0.500000  0.145094  0.762886  1
  O  O20  1  0.500000  0.153805  0.956105  1
  O  O21  1  0.500000  0.346195  0.456105  1
  O  O22  1  0.500000  0.354906  0.262886  1
  O  O23  1  0.500000  0.374679  0.852340  1
  O  O24  1  0.000000  0.381417  0.081007  1
  O  O25  1  0.000000  0.389359  0.651063  1
  O  O26  1  0.000000  0.610641  0.348937  1
  O  O27  1  0.000000  0.618583  0.918993  1
  O  O28  1  0.500000  0.625321  0.147660  1
  O  O29  1  0.500000  0.645094  0.737114  1
  O  O30  1  0.500000  0.653805  0.543895  1
  O  O31  1  0.500000  0.846195  0.043895  1
  O  O32  1  0.500000  0.854906  0.237114  1
  O  O33  1  0.500000  0.874679  0.647660  1
  O  O34  1  0.000000  0.881417  0.418993  1
  O  O35  1  0.000000  0.889359  0.848937  1
