# generated using pymatgen
data_Li4MnFe3(BO3)4
_symmetry_space_group_name_H-M   'P 1'
_cell_length_a   5.16697773
_cell_length_b   5.22160391
_cell_length_c   10.99826357
_cell_angle_alpha   77.08686025
_cell_angle_beta   78.94457690
_cell_angle_gamma   60.78937130
_symmetry_Int_Tables_number   1
_chemical_formula_structural   Li4MnFe3(BO3)4
_chemical_formula_sum   'Li4 Mn1 Fe3 B4 O12'
_cell_volume   251.25164895
_cell_formula_units_Z   1
loop_
 _symmetry_equiv_pos_site_id
 _symmetry_equiv_pos_as_xyz
  1  'x, y, z'
loop_
 _atom_site_type_symbol
 _atom_site_label
 _atom_site_symmetry_multiplicity
 _atom_site_fract_x
 _atom_site_fract_y
 _atom_site_fract_z
 _atom_site_occupancy
  Li  Li0  1  0.400849  0.531916  0.835702  1
  Li  Li1  1  0.103200  0.964819  0.662083  1
  Li  Li2  1  0.897535  0.034291  0.338433  1
  Li  Li3  1  0.596255  0.468343  0.165323  1
  Mn  Mn4  1  0.721778  0.866294  0.882457  1
  Fe  Fe5  1  0.785703  0.634830  0.615982  1
  Fe  Fe6  1  0.217390  0.361355  0.382032  1
  Fe  Fe7  1  0.283819  0.126849  0.117987  1
  B  B8  1  0.060351  0.205339  0.869164  1
  B  B9  1  0.439856  0.295714  0.628098  1
  B  B10  1  0.560029  0.704291  0.370731  1
  B  B11  1  0.940734  0.796817  0.132222  1
  O  O12  1  0.803437  0.465820  0.837852  1
  O  O13  1  0.288423  0.219721  0.914335  1
  O  O14  1  0.097398  0.935346  0.850691  1
  O  O15  1  0.695439  0.028643  0.657170  1
  O  O16  1  0.412332  0.560469  0.646299  1
  O  O17  1  0.203635  0.286817  0.586426  1
  O  O18  1  0.796151  0.713453  0.411854  1
  O  O19  1  0.586543  0.439497  0.353080  1
  O  O20  1  0.303610  0.971028  0.341933  1
  O  O21  1  0.910425  0.065719  0.148691  1
  O  O22  1  0.702435  0.791636  0.089885  1
  O  O23  1  0.192672  0.530992  0.161570  1
