# generated using pymatgen
data_NaCa2Al2P2H5O11F4
_symmetry_space_group_name_H-M   'P 1'
_cell_length_a   5.53061396
_cell_length_b   10.78899110
_cell_length_c   9.58467935
_cell_angle_alpha   90.00000000
_cell_angle_beta   105.55072816
_cell_angle_gamma   90.00000000
_symmetry_Int_Tables_number   1
_chemical_formula_structural   NaCa2Al2P2H5O11F4
_chemical_formula_sum   'Na2 Ca4 Al4 P4 H10 O22 F8'
_cell_volume   550.97953294
_cell_formula_units_Z   2
loop_
 _symmetry_equiv_pos_site_id
 _symmetry_equiv_pos_as_xyz
  1  'x, y, z'
loop_
 _atom_site_type_symbol
 _atom_site_label
 _atom_site_symmetry_multiplicity
 _atom_site_fract_x
 _atom_site_fract_y
 _atom_site_fract_z
 _atom_site_occupancy
  Na  Na0  1  0.793013  0.250000  0.313521  1
  Na  Na1  1  0.206987  0.750000  0.686479  1
  Ca  Ca2  1  0.761603  0.915924  0.856571  1
  Ca  Ca3  1  0.238397  0.415924  0.143429  1
  Ca  Ca4  1  0.238397  0.084076  0.143429  1
  Ca  Ca5  1  0.761603  0.584076  0.856571  1
  Al  Al6  1  0.228463  0.094607  0.741936  1
  Al  Al7  1  0.771537  0.594607  0.258064  1
  Al  Al8  1  0.771537  0.905393  0.258064  1
  Al  Al9  1  0.228463  0.405393  0.741936  1
  P  P10  1  0.627607  0.250000  0.956050  1
  P  P11  1  0.372393  0.750000  0.043950  1
  P  P12  1  0.358330  0.250000  0.491368  1
  P  P13  1  0.641670  0.750000  0.508632  1
  H  H14  1  0.018545  0.250000  0.847997  1
  H  H15  1  0.981455  0.750000  0.152003  1
  H  H16  1  0.827246  0.518803  0.563080  1
  H  H17  1  0.172754  0.018803  0.436920  1
  H  H18  1  0.172754  0.481197  0.436920  1
  H  H19  1  0.827246  0.981197  0.563080  1
  H  H20  1  0.773876  0.378365  0.608590  1
  H  H21  1  0.226124  0.878365  0.391410  1
  H  H22  1  0.226124  0.621635  0.391410  1
  H  H23  1  0.773876  0.121635  0.608590  1
  O  O24  1  0.912718  0.250000  0.027912  1
  O  O25  1  0.087282  0.750000  0.972088  1
  O  O26  1  0.101583  0.250000  0.768638  1
  O  O27  1  0.898417  0.750000  0.231362  1
  O  O28  1  0.237882  0.250000  0.325038  1
  O  O29  1  0.762118  0.750000  0.674962  1
  O  O30  1  0.645877  0.250000  0.529631  1
  O  O31  1  0.354123  0.750000  0.470369  1
  O  O32  1  0.476009  0.250000  0.071008  1
  O  O33  1  0.523991  0.750000  0.928992  1
  O  O34  1  0.869791  0.457831  0.645667  1
  O  O35  1  0.130209  0.957831  0.354333  1
  O  O36  1  0.130209  0.542169  0.354333  1
  O  O37  1  0.869791  0.042169  0.645667  1
  O  O38  1  0.261067  0.366701  0.555958  1
  O  O39  1  0.738933  0.866701  0.444042  1
  O  O40  1  0.738933  0.633299  0.444042  1
  O  O41  1  0.261067  0.133299  0.555958  1
  O  O42  1  0.557265  0.367688  0.856341  1
  O  O43  1  0.442735  0.867688  0.143659  1
  O  O44  1  0.442735  0.632312  0.143659  1
  O  O45  1  0.557265  0.132312  0.856341  1
  F  F46  1  0.142278  0.466610  0.903841  1
  F  F47  1  0.857722  0.966610  0.096159  1
  F  F48  1  0.857722  0.533390  0.096159  1
  F  F49  1  0.142278  0.033390  0.903841  1
  F  F50  1  0.655581  0.442061  0.283192  1
  F  F51  1  0.344419  0.942061  0.716808  1
  F  F52  1  0.344419  0.557939  0.716808  1
  F  F53  1  0.655581  0.057939  0.283192  1
