# generated using pymatgen
data_KSiPCO7
_symmetry_space_group_name_H-M   'P 1'
_cell_length_a   5.09732669
_cell_length_b   6.00884300
_cell_length_c   10.11097501
_cell_angle_alpha   90.00000000
_cell_angle_beta   91.22801830
_cell_angle_gamma   90.00000000
_symmetry_Int_Tables_number   1
_chemical_formula_structural   KSiPCO7
_chemical_formula_sum   'K2 Si2 P2 C2 O14'
_cell_volume   309.61828687
_cell_formula_units_Z   2
loop_
 _symmetry_equiv_pos_site_id
 _symmetry_equiv_pos_as_xyz
  1  'x, y, z'
loop_
 _atom_site_type_symbol
 _atom_site_label
 _atom_site_symmetry_multiplicity
 _atom_site_fract_x
 _atom_site_fract_y
 _atom_site_fract_z
 _atom_site_occupancy
  K  K0  1  0.751218  0.632427  0.209787  1
  K  K1  1  0.248782  0.132427  0.790213  1
  Si  Si2  1  0.232928  0.222079  0.354433  1
  Si  Si3  1  0.767072  0.722079  0.645567  1
  P  P4  1  0.264633  0.725445  0.447744  1
  P  P5  1  0.735367  0.225445  0.552256  1
  C  C6  1  0.287426  0.256545  0.134147  1
  C  C7  1  0.712574  0.756545  0.865853  1
  O  O8  1  0.680526  0.798770  0.983432  1
  O  O9  1  0.058471  0.234253  0.196222  1
  O  O10  1  0.477634  0.235264  0.228368  1
  O  O11  1  0.232371  0.925044  0.352695  1
  O  O12  1  0.230333  0.524608  0.354504  1
  O  O13  1  0.942505  0.224981  0.445082  1
  O  O14  1  0.546672  0.722734  0.507363  1
  O  O15  1  0.453328  0.222734  0.492637  1
  O  O16  1  0.057495  0.724981  0.554918  1
  O  O17  1  0.769667  0.024608  0.645496  1
  O  O18  1  0.767629  0.425044  0.647305  1
  O  O19  1  0.522366  0.735264  0.771632  1
  O  O20  1  0.941529  0.734253  0.803778  1
  O  O21  1  0.319474  0.298770  0.016568  1
