# generated using pymatgen
data_Li3FePCO7
_symmetry_space_group_name_H-M   'P 1'
_cell_length_a   5.07136971
_cell_length_b   6.55896815
_cell_length_c   8.39244495
_cell_angle_alpha   90.00000000
_cell_angle_beta   91.55696491
_cell_angle_gamma   90.00000000
_symmetry_Int_Tables_number   1
_chemical_formula_structural   Li3FePCO7
_chemical_formula_sum   'Li6 Fe2 P2 C2 O14'
_cell_volume   279.05443352
_cell_formula_units_Z   2
loop_
 _symmetry_equiv_pos_site_id
 _symmetry_equiv_pos_as_xyz
  1  'x, y, z'
loop_
 _atom_site_type_symbol
 _atom_site_label
 _atom_site_symmetry_multiplicity
 _atom_site_fract_x
 _atom_site_fract_y
 _atom_site_fract_z
 _atom_site_occupancy
  Li  Li0  1  0.022763  0.501986  0.000021  1
  Li  Li1  1  0.462036  0.182887  0.827650  1
  Li  Li2  1  0.449240  0.437625  0.493980  1
  Li  Li3  1  0.550760  0.937625  0.506020  1
  Li  Li4  1  0.537964  0.682887  0.172350  1
  Li  Li5  1  0.977237  0.001986  0.999979  1
  Fe  Fe6  1  0.015795  0.750639  0.710372  1
  Fe  Fe7  1  0.984205  0.250639  0.289628  1
  P  P8  1  0.967897  0.246415  0.672853  1
  P  P9  1  0.032103  0.746415  0.327147  1
  C  C10  1  0.504110  0.741299  0.861752  1
  C  C11  1  0.495890  0.241299  0.138248  1
  O  O12  1  0.325743  0.724042  0.969857  1
  O  O13  1  0.748884  0.770586  0.906355  1
  O  O14  1  0.101023  0.069206  0.770198  1
  O  O15  1  0.005429  0.441447  0.772250  1
  O  O16  1  0.439311  0.733772  0.711147  1
  O  O17  1  0.672403  0.200718  0.635534  1
  O  O18  1  0.118305  0.273979  0.513841  1
  O  O19  1  0.881695  0.773979  0.486159  1
  O  O20  1  0.327597  0.700718  0.364466  1
  O  O21  1  0.560689  0.233772  0.288853  1
  O  O22  1  0.994571  0.941447  0.227750  1
  O  O23  1  0.898977  0.569206  0.229802  1
  O  O24  1  0.251116  0.270586  0.093645  1
  O  O25  1  0.674257  0.224042  0.030143  1
