# generated using pymatgen
data_Li3VFeP2(HO5)2
_symmetry_space_group_name_H-M   'P 1'
_cell_length_a   5.34383748
_cell_length_b   5.43339779
_cell_length_c   7.55963156
_cell_angle_alpha   106.25414149
_cell_angle_beta   109.12060868
_cell_angle_gamma   95.46325374
_symmetry_Int_Tables_number   1
_chemical_formula_structural   Li3VFeP2(HO5)2
_chemical_formula_sum   'Li3 V1 Fe1 P2 H2 O10'
_cell_volume   194.82493843
_cell_formula_units_Z   1
loop_
 _symmetry_equiv_pos_site_id
 _symmetry_equiv_pos_as_xyz
  1  'x, y, z'
loop_
 _atom_site_type_symbol
 _atom_site_label
 _atom_site_symmetry_multiplicity
 _atom_site_fract_x
 _atom_site_fract_y
 _atom_site_fract_z
 _atom_site_occupancy
  Li  Li0  1  0.762066  0.402539  0.830720  1
  Li  Li1  1  0.209004  0.569217  0.188767  1
  Li  Li2  1  0.534038  0.867727  0.152657  1
  V  V3  1  0.010869  0.003162  0.507782  1
  Fe  Fe4  1  0.997357  0.997541  0.993746  1
  P  P5  1  0.675822  0.373812  0.227303  1
  P  P6  1  0.319972  0.625561  0.765101  1
  H  H7  1  0.336407  0.079523  0.355960  1
  H  H8  1  0.653446  0.943158  0.653558  1
  O  O9  1  0.837693  0.052530  0.713999  1
  O  O10  1  0.741462  0.206539  0.368661  1
  O  O11  1  0.308731  0.336608  0.653561  1
  O  O12  1  0.378472  0.262587  0.087051  1
  O  O13  1  0.870013  0.348025  0.112166  1
  O  O14  1  0.132252  0.650053  0.887524  1
  O  O15  1  0.616508  0.734685  0.918144  1
  O  O16  1  0.691549  0.668819  0.334769  1
  O  O17  1  0.258848  0.785938  0.621472  1
  O  O18  1  0.169949  0.943217  0.284050  1
