# generated using pymatgen
data_LiLa6Mn3O14
_symmetry_space_group_name_H-M   'P 1'
_cell_length_a   5.59662340
_cell_length_b   5.60092924
_cell_length_c   21.28143263
_cell_angle_alpha   90.00000000
_cell_angle_beta   105.05796920
_cell_angle_gamma   90.00000000
_symmetry_Int_Tables_number   1
_chemical_formula_structural   LiLa6Mn3O14
_chemical_formula_sum   'Li2 La12 Mn6 O28'
_cell_volume   644.18830171
_cell_formula_units_Z   2
loop_
 _symmetry_equiv_pos_site_id
 _symmetry_equiv_pos_as_xyz
  1  'x, y, z'
loop_
 _atom_site_type_symbol
 _atom_site_label
 _atom_site_symmetry_multiplicity
 _atom_site_fract_x
 _atom_site_fract_y
 _atom_site_fract_z
 _atom_site_occupancy
  Li  Li0  1  0.850028  0.994414  0.594187  1
  Li  Li1  1  0.850028  0.005586  0.094187  1
  La  La2  1  0.919176  0.477775  0.679392  1
  La  La3  1  0.556581  0.486157  0.317701  1
  La  La4  1  0.747110  0.518232  0.505119  1
  La  La5  1  0.747110  0.481768  0.005119  1
  La  La6  1  0.556581  0.513843  0.817701  1
  La  La7  1  0.919176  0.522225  0.179392  1
  La  La8  1  0.082488  0.987381  0.817416  1
  La  La9  1  0.450361  0.990271  0.179167  1
  La  La10  1  0.237509  0.991177  0.005022  1
  La  La11  1  0.237509  0.008823  0.505022  1
  La  La12  1  0.450361  0.009729  0.679167  1
  La  La13  1  0.082488  0.012619  0.317416  1
  Mn  Mn14  1  0.148210  0.495024  0.902152  1
  Mn  Mn15  1  0.342614  0.495354  0.096946  1
  Mn  Mn16  1  0.342614  0.504646  0.596946  1
  Mn  Mn17  1  0.148210  0.504976  0.402152  1
  Mn  Mn18  1  0.656292  0.998633  0.403856  1
  Mn  Mn19  1  0.656292  0.001367  0.903856  1
  O  O20  1  0.882014  0.252959  0.879057  1
  O  O21  1  0.400002  0.251988  0.900809  1
  O  O22  1  0.572674  0.261390  0.582545  1
  O  O23  1  0.104324  0.256938  0.597451  1
  O  O24  1  0.416640  0.255650  0.420410  1
  O  O25  1  0.903827  0.252121  0.400866  1
  O  O26  1  0.126018  0.259872  0.117332  1
  O  O27  1  0.590885  0.256783  0.097309  1
  O  O28  1  0.193591  0.446342  0.996568  1
  O  O29  1  0.507723  0.450562  0.707433  1
  O  O30  1  0.095003  0.454681  0.296945  1
  O  O31  1  0.095003  0.545319  0.796945  1
  O  O32  1  0.507723  0.549438  0.207433  1
  O  O33  1  0.193591  0.553658  0.496568  1
  O  O34  1  0.903827  0.747879  0.900866  1
  O  O35  1  0.416640  0.744350  0.920410  1
  O  O36  1  0.126018  0.740128  0.617332  1
  O  O37  1  0.590885  0.743217  0.597309  1
  O  O38  1  0.400002  0.748012  0.400809  1
  O  O39  1  0.882014  0.747041  0.379057  1
  O  O40  1  0.104324  0.743062  0.097451  1
  O  O41  1  0.572674  0.738610  0.082545  1
  O  O42  1  0.816615  0.934148  0.499595  1
  O  O43  1  0.494197  0.946729  0.793514  1
  O  O44  1  0.906171  0.944402  0.209255  1
  O  O45  1  0.906171  0.055598  0.709255  1
  O  O46  1  0.494197  0.053271  0.293514  1
  O  O47  1  0.816615  0.065852  0.999595  1
