# generated using pymatgen
data_Li3CoSiCO7
_symmetry_space_group_name_H-M   'P 1'
_cell_length_a   5.03636574
_cell_length_b   6.28956250
_cell_length_c   8.39455075
_cell_angle_alpha   90.00000000
_cell_angle_beta   94.83055069
_cell_angle_gamma   90.00000000
_symmetry_Int_Tables_number   1
_chemical_formula_structural   Li3CoSiCO7
_chemical_formula_sum   'Li6 Co2 Si2 C2 O14'
_cell_volume   264.96581122
_cell_formula_units_Z   2
loop_
 _symmetry_equiv_pos_site_id
 _symmetry_equiv_pos_as_xyz
  1  'x, y, z'
loop_
 _atom_site_type_symbol
 _atom_site_label
 _atom_site_symmetry_multiplicity
 _atom_site_fract_x
 _atom_site_fract_y
 _atom_site_fract_z
 _atom_site_occupancy
  Li  Li0  1  0.243761  0.750000  0.101809  1
  Li  Li1  1  0.755110  0.979753  0.277917  1
  Li  Li2  1  0.755110  0.520247  0.277917  1
  Li  Li3  1  0.244890  0.479753  0.722083  1
  Li  Li4  1  0.244890  0.020247  0.722083  1
  Li  Li5  1  0.756239  0.250000  0.898191  1
  Co  Co6  1  0.198184  0.250000  0.331310  1
  Co  Co7  1  0.801816  0.750000  0.668690  1
  Si  Si8  1  0.291499  0.750000  0.421355  1
  Si  Si9  1  0.708501  0.250000  0.578645  1
  C  C10  1  0.290184  0.250000  0.031971  1
  C  C11  1  0.709816  0.750000  0.968029  1
  O  O12  1  0.650066  0.750000  0.114916  1
  O  O13  1  0.045578  0.250000  0.068918  1
  O  O14  1  0.479236  0.250000  0.147387  1
  O  O15  1  0.188255  0.950005  0.303920  1
  O  O16  1  0.188255  0.549995  0.303920  1
  O  O17  1  0.620158  0.750000  0.447259  1
  O  O18  1  0.829929  0.250000  0.405594  1
  O  O19  1  0.170071  0.750000  0.594406  1
  O  O20  1  0.379842  0.250000  0.552741  1
  O  O21  1  0.811745  0.450005  0.696080  1
  O  O22  1  0.811745  0.049995  0.696080  1
  O  O23  1  0.520764  0.750000  0.852613  1
  O  O24  1  0.954422  0.750000  0.931082  1
  O  O25  1  0.349934  0.250000  0.885084  1
