# generated using pymatgen
data_MnH6SO6
_symmetry_space_group_name_H-M   'P 1'
_cell_length_a   5.84438899
_cell_length_b   9.82196615
_cell_length_c   9.95610753
_cell_angle_alpha   90.00000000
_cell_angle_beta   90.00000000
_cell_angle_gamma   90.00000000
_symmetry_Int_Tables_number   1
_chemical_formula_structural   MnH6SO6
_chemical_formula_sum   'Mn4 H24 S4 O24'
_cell_volume   571.51433166
_cell_formula_units_Z   4
loop_
 _symmetry_equiv_pos_site_id
 _symmetry_equiv_pos_as_xyz
  1  'x, y, z'
loop_
 _atom_site_type_symbol
 _atom_site_label
 _atom_site_symmetry_multiplicity
 _atom_site_fract_x
 _atom_site_fract_y
 _atom_site_fract_z
 _atom_site_occupancy
  Mn  Mn0  1  0.767975  0.175945  0.793995  1
  Mn  Mn1  1  0.232025  0.675945  0.706005  1
  Mn  Mn2  1  0.732025  0.824055  0.293995  1
  Mn  Mn3  1  0.267975  0.324055  0.206005  1
  H  H4  1  0.479476  0.394198  0.635646  1
  H  H5  1  0.520524  0.894198  0.864354  1
  H  H6  1  0.020524  0.605802  0.135646  1
  H  H7  1  0.979476  0.105802  0.364354  1
  H  H8  1  0.692310  0.308488  0.607720  1
  H  H9  1  0.307690  0.808488  0.892280  1
  H  H10  1  0.807690  0.691512  0.107720  1
  H  H11  1  0.192310  0.191512  0.392280  1
  H  H12  1  0.984288  0.396306  0.630456  1
  H  H13  1  0.015712  0.896306  0.869544  1
  H  H14  1  0.515712  0.603694  0.130456  1
  H  H15  1  0.484288  0.103694  0.369544  1
  H  H16  1  0.999776  0.260280  0.539049  1
  H  H17  1  0.000224  0.760280  0.960951  1
  H  H18  1  0.500224  0.739720  0.039049  1
  H  H19  1  0.499776  0.239720  0.460951  1
  H  H20  1  0.888781  0.971249  0.599621  1
  H  H21  1  0.111219  0.471249  0.900379  1
  H  H22  1  0.611219  0.028751  0.099621  1
  H  H23  1  0.388781  0.528751  0.400379  1
  H  H24  1  0.618999  0.973557  0.601187  1
  H  H25  1  0.381001  0.473557  0.898813  1
  H  H26  1  0.881001  0.026443  0.101187  1
  H  H27  1  0.118999  0.526443  0.398813  1
  S  S28  1  0.263500  0.160168  0.934257  1
  S  S29  1  0.736500  0.660168  0.565743  1
  S  S30  1  0.236500  0.839832  0.434257  1
  S  S31  1  0.763500  0.339832  0.065743  1
  O  O32  1  0.764306  0.358707  0.911227  1
  O  O33  1  0.235694  0.858707  0.588773  1
  O  O34  1  0.735694  0.641293  0.411227  1
  O  O35  1  0.264306  0.141293  0.088773  1
  O  O36  1  0.054096  0.073298  0.886981  1
  O  O37  1  0.945904  0.573298  0.613019  1
  O  O38  1  0.445904  0.926702  0.386981  1
  O  O39  1  0.554096  0.426702  0.113019  1
  O  O40  1  0.480197  0.081093  0.888416  1
  O  O41  1  0.519803  0.581094  0.611584  1
  O  O42  1  0.019803  0.918906  0.388416  1
  O  O43  1  0.980197  0.418907  0.111584  1
  O  O44  1  0.524078  0.297779  0.622910  1
  O  O45  1  0.475922  0.797779  0.877090  1
  O  O46  1  0.975922  0.702221  0.122910  1
  O  O47  1  0.024078  0.202221  0.377090  1
  O  O48  1  0.971334  0.295072  0.632393  1
  O  O49  1  0.028666  0.795072  0.867607  1
  O  O50  1  0.528666  0.704928  0.132393  1
  O  O51  1  0.471334  0.204928  0.367607  1
  O  O52  1  0.755890  0.018227  0.637664  1
  O  O53  1  0.244110  0.518227  0.862336  1
  O  O54  1  0.744110  0.981773  0.137664  1
  O  O55  1  0.255890  0.481773  0.362336  1
