# generated using pymatgen
data_MnNi(PO4)2
_symmetry_space_group_name_H-M   'P 1'
_cell_length_a   8.41702441
_cell_length_b   8.41702441
_cell_length_c   8.41702441
_cell_angle_alpha   60.78946459
_cell_angle_beta   60.78946459
_cell_angle_gamma   60.78946459
_symmetry_Int_Tables_number   1
_chemical_formula_structural   MnNi(PO4)2
_chemical_formula_sum   'Mn3 Ni3 P6 O24'
_cell_volume   429.16719707
_cell_formula_units_Z   3
loop_
 _symmetry_equiv_pos_site_id
 _symmetry_equiv_pos_as_xyz
  1  'x, y, z'
loop_
 _atom_site_type_symbol
 _atom_site_label
 _atom_site_symmetry_multiplicity
 _atom_site_fract_x
 _atom_site_fract_y
 _atom_site_fract_z
 _atom_site_occupancy
  Mn  Mn0  1  0.641669  0.641669  0.641669  1
  Mn  Mn1  1  0.858840  0.858840  0.858840  1
  Mn  Mn2  1  0.358288  0.358288  0.358288  1
  Ni  Ni3  1  0.002832  0.002832  0.002832  1
  Ni  Ni4  1  0.141174  0.141174  0.141174  1
  Ni  Ni5  1  0.500604  0.500604  0.500604  1
  P  P6  1  0.958621  0.248138  0.542022  1
  P  P7  1  0.542022  0.958621  0.248138  1
  P  P8  1  0.248138  0.542022  0.958621  1
  P  P9  1  0.749308  0.458388  0.039252  1
  P  P10  1  0.458388  0.039252  0.749308  1
  P  P11  1  0.039252  0.749308  0.458388  1
  O  O12  1  0.510092  0.120702  0.308361  1
  O  O13  1  0.308361  0.510092  0.120702  1
  O  O14  1  0.120702  0.308361  0.510092  1
  O  O15  1  0.943148  0.086024  0.746171  1
  O  O16  1  0.984351  0.188267  0.388819  1
  O  O17  1  0.756810  0.414846  0.562419  1
  O  O18  1  0.746171  0.943148  0.086024  1
  O  O19  1  0.562419  0.756810  0.414846  1
  O  O20  1  0.809337  0.620549  0.007558  1
  O  O21  1  0.414846  0.562419  0.756810  1
  O  O22  1  0.904362  0.260395  0.056509  1
  O  O23  1  0.620549  0.007558  0.809337  1
  O  O24  1  0.388819  0.984351  0.188267  1
  O  O25  1  0.086024  0.746171  0.943148  1
  O  O26  1  0.579671  0.451758  0.239536  1
  O  O27  1  0.188267  0.388819  0.984351  1
  O  O28  1  0.451758  0.239536  0.579671  1
  O  O29  1  0.260395  0.056509  0.904362  1
  O  O30  1  0.239536  0.579671  0.451758  1
  O  O31  1  0.007558  0.809337  0.620549  1
  O  O32  1  0.056509  0.904362  0.260395  1
  O  O33  1  0.879938  0.681753  0.499488  1
  O  O34  1  0.681753  0.499488  0.879938  1
  O  O35  1  0.499488  0.879938  0.681753  1
