# generated using pymatgen
data_Na4Al3Si3ClO16
_symmetry_space_group_name_H-M   'P 1'
_cell_length_a   9.19587536
_cell_length_b   9.13087302
_cell_length_c   9.20327674
_cell_angle_alpha   90.00000000
_cell_angle_beta   90.06913941
_cell_angle_gamma   90.00000000
_symmetry_Int_Tables_number   1
_chemical_formula_structural   Na4Al3Si3ClO16
_chemical_formula_sum   'Na8 Al6 Si6 Cl2 O32'
_cell_volume   772.76517930
_cell_formula_units_Z   2
loop_
 _symmetry_equiv_pos_site_id
 _symmetry_equiv_pos_as_xyz
  1  'x, y, z'
loop_
 _atom_site_type_symbol
 _atom_site_label
 _atom_site_symmetry_multiplicity
 _atom_site_fract_x
 _atom_site_fract_y
 _atom_site_fract_z
 _atom_site_occupancy
  Na  Na0  1  0.783084  0.789632  0.782187  1
  Na  Na1  1  0.216916  0.789632  0.217813  1
  Na  Na2  1  0.711563  0.712875  0.286784  1
  Na  Na3  1  0.288437  0.712875  0.713216  1
  Na  Na4  1  0.283039  0.283707  0.283020  1
  Na  Na5  1  0.716961  0.283707  0.716980  1
  Na  Na6  1  0.788158  0.211236  0.216321  1
  Na  Na7  1  0.211842  0.211236  0.783679  1
  Al  Al8  1  0.500361  0.000542  0.250405  1
  Al  Al9  1  0.000000  0.750700  0.500000  1
  Al  Al10  1  0.750304  0.500903  0.999454  1
  Al  Al11  1  0.249696  0.500903  0.000546  1
  Al  Al12  1  0.000000  0.249787  0.500000  1
  Al  Al13  1  0.499639  0.000542  0.749595  1
  Si  Si14  1  0.250926  0.999777  0.498758  1
  Si  Si15  1  0.749074  0.999777  0.501242  1
  Si  Si16  1  0.500000  0.751337  0.000000  1
  Si  Si17  1  0.000734  0.500548  0.750354  1
  Si  Si18  1  0.999266  0.500548  0.249646  1
  Si  Si19  1  0.500000  0.250660  0.000000  1
  Cl  Cl20  1  0.000000  0.984966  0.000000  1
  Cl  Cl21  1  0.500000  0.484863  0.500000  1
  O  O22  1  0.351458  0.954450  0.638746  1
  O  O23  1  0.648542  0.954450  0.361254  1
  O  O24  1  0.155088  0.853859  0.455592  1
  O  O25  1  0.844912  0.853859  0.544408  1
  O  O26  1  0.455083  0.849019  0.142017  1
  O  O27  1  0.544917  0.849019  0.857983  1
  O  O28  1  0.644903  0.655624  0.042876  1
  O  O29  1  0.355097  0.655624  0.957124  1
  O  O30  1  0.955366  0.644103  0.347106  1
  O  O31  1  0.044634  0.644103  0.652894  1
  O  O32  1  0.499139  0.576636  0.369192  1
  O  O33  1  0.500861  0.576636  0.630808  1
  O  O34  1  0.141244  0.547422  0.151589  1
  O  O35  1  0.858756  0.547422  0.848411  1
  O  O36  1  0.856864  0.456959  0.151629  1
  O  O37  1  0.143136  0.456959  0.848371  1
  O  O38  1  0.369685  0.393686  0.501128  1
  O  O39  1  0.630315  0.393686  0.498872  1
  O  O40  1  0.042228  0.356962  0.346265  1
  O  O41  1  0.957772  0.356962  0.653735  1
  O  O42  1  0.357363  0.348653  0.044878  1
  O  O43  1  0.642637  0.348653  0.955122  1
  O  O44  1  0.543571  0.153800  0.143467  1
  O  O45  1  0.456429  0.153800  0.856533  1
  O  O46  1  0.153714  0.143169  0.539620  1
  O  O47  1  0.846286  0.143169  0.460380  1
  O  O48  1  0.867359  0.076664  0.958485  1
  O  O49  1  0.132641  0.076664  0.041515  1
  O  O50  1  0.346637  0.042449  0.354714  1
  O  O51  1  0.653363  0.042449  0.645286  1
  O  O52  1  0.931149  0.000169  0.174146  1
  O  O53  1  0.068851  0.000169  0.825854  1
