# generated using pymatgen
data_Rb8SnO6
_symmetry_space_group_name_H-M   'P 1'
_cell_length_a   7.54939304
_cell_length_b   7.54939304
_cell_length_c   15.72966629
_cell_angle_alpha   90.00000000
_cell_angle_beta   90.00000000
_cell_angle_gamma   120.00000000
_symmetry_Int_Tables_number   1
_chemical_formula_structural   Rb8SnO6
_chemical_formula_sum   'Rb16 Sn2 O12'
_cell_volume   776.37977446
_cell_formula_units_Z   2
loop_
 _symmetry_equiv_pos_site_id
 _symmetry_equiv_pos_as_xyz
  1  'x, y, z'
loop_
 _atom_site_type_symbol
 _atom_site_label
 _atom_site_symmetry_multiplicity
 _atom_site_fract_x
 _atom_site_fract_y
 _atom_site_fract_z
 _atom_site_occupancy
  Rb  Rb0  1  0.000000  0.717409  0.772380  1
  Rb  Rb1  1  0.000000  0.604479  0.120415  1
  Rb  Rb2  1  0.000000  0.395521  0.620415  1
  Rb  Rb3  1  0.000000  0.282591  0.272380  1
  Rb  Rb4  1  0.333333  0.666667  0.416777  1
  Rb  Rb5  1  0.333333  0.666667  0.916777  1
  Rb  Rb6  1  0.282591  0.282591  0.772380  1
  Rb  Rb7  1  0.395521  0.395521  0.120415  1
  Rb  Rb8  1  0.604479  0.604479  0.620415  1
  Rb  Rb9  1  0.282591  0.000000  0.272380  1
  Rb  Rb10  1  0.717409  0.717409  0.272380  1
  Rb  Rb11  1  0.395521  0.000000  0.620415  1
  Rb  Rb12  1  0.666667  0.333333  0.916777  1
  Rb  Rb13  1  0.666667  0.333333  0.416777  1
  Rb  Rb14  1  0.604479  0.000000  0.120415  1
  Rb  Rb15  1  0.717409  0.000000  0.772380  1
  Sn  Sn16  1  0.000000  0.000000  0.993468  1
  Sn  Sn17  1  0.000000  0.000000  0.493468  1
  O  O18  1  0.000000  0.747178  0.952806  1
  O  O19  1  0.000000  0.252822  0.452806  1
  O  O20  1  0.333333  0.666667  0.229183  1
  O  O21  1  0.000000  0.000000  0.123406  1
  O  O22  1  0.000000  0.000000  0.623406  1
  O  O23  1  0.333333  0.666667  0.729183  1
  O  O24  1  0.252822  0.252822  0.952806  1
  O  O25  1  0.252822  0.000000  0.452806  1
  O  O26  1  0.747178  0.747178  0.452806  1
  O  O27  1  0.666667  0.333333  0.729183  1
  O  O28  1  0.666667  0.333333  0.229183  1
  O  O29  1  0.747178  0.000000  0.952806  1
