# generated using pymatgen
data_ErClO
_symmetry_space_group_name_H-M   'P 1'
_cell_length_a   3.73922363
_cell_length_b   4.15051015
_cell_length_c   9.23827151
_cell_angle_alpha   90.00000000
_cell_angle_beta   90.00000000
_cell_angle_gamma   90.00000000
_symmetry_Int_Tables_number   1
_chemical_formula_structural   ErClO
_chemical_formula_sum   'Er2 Cl2 O2'
_cell_volume   143.37506959
_cell_formula_units_Z   2
loop_
 _symmetry_equiv_pos_site_id
 _symmetry_equiv_pos_as_xyz
  1  'x, y, z'
loop_
 _atom_site_type_symbol
 _atom_site_label
 _atom_site_symmetry_multiplicity
 _atom_site_fract_x
 _atom_site_fract_y
 _atom_site_fract_z
 _atom_site_occupancy
  Er  Er0  1  0.500000  0.000000  0.113295  1
  Er  Er1  1  0.000000  0.500000  0.886705  1
  Cl  Cl2  1  0.000000  0.000000  0.318108  1
  Cl  Cl3  1  0.500000  0.500000  0.681892  1
  O  O4  1  0.000000  0.000000  0.971512  1
  O  O5  1  0.500000  0.500000  0.028488  1
