# generated using pymatgen
data_LiCu(PO3)4
_symmetry_space_group_name_H-M   'P 1'
_cell_length_a   7.81464330
_cell_length_b   7.81464330
_cell_length_c   8.33727241
_cell_angle_alpha   83.95008193
_cell_angle_beta   96.04991807
_cell_angle_gamma   78.57278588
_symmetry_Int_Tables_number   1
_chemical_formula_structural   LiCu(PO3)4
_chemical_formula_sum   'Li2 Cu2 P8 O24'
_cell_volume   492.09151876
_cell_formula_units_Z   2
loop_
 _symmetry_equiv_pos_site_id
 _symmetry_equiv_pos_as_xyz
  1  'x, y, z'
loop_
 _atom_site_type_symbol
 _atom_site_label
 _atom_site_symmetry_multiplicity
 _atom_site_fract_x
 _atom_site_fract_y
 _atom_site_fract_z
 _atom_site_occupancy
  Li  Li0  1  0.828518  0.548436  0.544858  1
  Li  Li1  1  0.451564  0.171482  0.044858  1
  Cu  Cu2  1  0.810515  0.892284  0.247179  1
  Cu  Cu3  1  0.107716  0.189485  0.747179  1
  P  P4  1  0.922043  0.240584  0.314241  1
  P  P5  1  0.817943  0.557445  0.071550  1
  P  P6  1  0.759416  0.077957  0.814241  1
  P  P7  1  0.494271  0.847415  0.420502  1
  P  P8  1  0.442555  0.182057  0.571550  1
  P  P9  1  0.172367  0.976840  0.184921  1
  P  P10  1  0.152585  0.505729  0.920502  1
  P  P11  1  0.023160  0.827633  0.684921  1
  O  O12  1  0.988087  0.730495  0.545166  1
  O  O13  1  0.947475  0.340650  0.453988  1
  O  O14  1  0.838329  0.893932  0.753244  1
  O  O15  1  0.790245  0.665005  0.215645  1
  O  O16  1  0.809826  0.361237  0.156006  1
  O  O17  1  0.912105  0.170294  0.851049  1
  O  O18  1  0.829706  0.087895  0.351049  1
  O  O19  1  0.574772  0.941115  0.283370  1
  O  O20  1  0.703602  0.602396  0.915255  1
  O  O21  1  0.582456  0.668335  0.497094  1
  O  O22  1  0.638763  0.190174  0.656006  1
  O  O23  1  0.464359  0.972810  0.559497  1
  O  O24  1  0.659350  0.052525  0.953988  1
  O  O25  1  0.295240  0.855512  0.338842  1
  O  O26  1  0.331665  0.417544  0.997094  1
  O  O27  1  0.397604  0.296398  0.415255  1
  O  O28  1  0.334995  0.209755  0.715645  1
  O  O29  1  0.269505  0.011913  0.045166  1
  O  O30  1  0.113034  0.983182  0.651145  1
  O  O31  1  0.144488  0.704760  0.838842  1
  O  O32  1  0.016818  0.886966  0.151145  1
  O  O33  1  0.027190  0.535641  0.059497  1
  O  O34  1  0.106068  0.161671  0.253244  1
  O  O35  1  0.058885  0.425228  0.783370  1
