# generated using pymatgen
data_Li3Fe4(OF3)3
_symmetry_space_group_name_H-M   'P 1'
_cell_length_a   5.92415725
_cell_length_b   5.99293216
_cell_length_c   6.08094907
_cell_angle_alpha   99.71510369
_cell_angle_beta   99.85840956
_cell_angle_gamma   99.62458805
_symmetry_Int_Tables_number   1
_chemical_formula_structural   Li3Fe4(OF3)3
_chemical_formula_sum   'Li3 Fe4 O3 F9'
_cell_volume   205.33569953
_cell_formula_units_Z   1
loop_
 _symmetry_equiv_pos_site_id
 _symmetry_equiv_pos_as_xyz
  1  'x, y, z'
loop_
 _atom_site_type_symbol
 _atom_site_label
 _atom_site_symmetry_multiplicity
 _atom_site_fract_x
 _atom_site_fract_y
 _atom_site_fract_z
 _atom_site_occupancy
  Li  Li0  1  0.008559  0.993748  0.003217  1
  Li  Li1  1  0.868536  0.680723  0.392364  1
  Li  Li2  1  0.295258  0.601594  0.118589  1
  Fe  Fe3  1  0.666408  0.409873  0.845914  1
  Fe  Fe4  1  0.141802  0.340776  0.617348  1
  Fe  Fe5  1  0.606916  0.150059  0.347473  1
  Fe  Fe6  1  0.392331  0.862532  0.681572  1
  O  O7  1  0.398609  0.170817  0.579101  1
  O  O8  1  0.417843  0.591758  0.806276  1
  O  O9  1  0.819018  0.403138  0.588437  1
  F  F10  1  0.680051  0.068543  0.894460  1
  F  F11  1  0.104551  0.305940  0.927847  1
  F  F12  1  0.936055  0.104403  0.317169  1
  F  F13  1  0.186493  0.577038  0.404536  1
  F  F14  1  0.070558  0.881382  0.690471  1
  F  F15  1  0.571309  0.396921  0.170911  1
  F  F16  1  0.605606  0.835662  0.449621  1
  F  F17  1  0.888568  0.670942  0.047243  1
  F  F18  1  0.341530  0.954153  0.117453  1
