# generated using pymatgen
data_Mn3Nb(PO4)4
_symmetry_space_group_name_H-M   'P 1'
_cell_length_a   5.06582998
_cell_length_b   6.06714950
_cell_length_c   11.37141534
_cell_angle_alpha   90.00000000
_cell_angle_beta   116.55976029
_cell_angle_gamma   90.00000000
_symmetry_Int_Tables_number   1
_chemical_formula_structural   Mn3Nb(PO4)4
_chemical_formula_sum   'Mn3 Nb1 P4 O16'
_cell_volume   312.61864196
_cell_formula_units_Z   1
loop_
 _symmetry_equiv_pos_site_id
 _symmetry_equiv_pos_as_xyz
  1  'x, y, z'
loop_
 _atom_site_type_symbol
 _atom_site_label
 _atom_site_symmetry_multiplicity
 _atom_site_fract_x
 _atom_site_fract_y
 _atom_site_fract_z
 _atom_site_occupancy
  Mn  Mn0  1  0.292419  0.500000  0.268603  1
  Mn  Mn1  1  0.240842  0.500000  0.780086  1
  Mn  Mn2  1  0.777052  0.000000  0.228382  1
  Nb  Nb3  1  0.690114  0.000000  0.721348  1
  P  P4  1  0.478381  0.000000  0.395697  1
  P  P5  1  0.297426  0.000000  0.904545  1
  P  P6  1  0.689655  0.500000  0.097336  1
  P  P7  1  0.525019  0.500000  0.592229  1
  O  O8  1  0.697452  0.000000  0.554732  1
  O  O9  1  0.557848  0.202191  0.335394  1
  O  O10  1  0.557848  0.797809  0.335394  1
  O  O11  1  0.841896  0.500000  0.614444  1
  O  O12  1  0.413779  0.500000  0.117372  1
  O  O13  1  0.070172  0.192267  0.829539  1
  O  O14  1  0.070172  0.807733  0.829539  1
  O  O15  1  0.406633  0.000000  0.049375  1
  O  O16  1  0.614552  0.500000  0.951302  1
  O  O17  1  0.909340  0.696611  0.172130  1
  O  O18  1  0.909340  0.303389  0.172130  1
  O  O19  1  0.546633  0.000000  0.860348  1
  O  O20  1  0.174465  0.000000  0.390240  1
  O  O21  1  0.475798  0.705492  0.672777  1
  O  O22  1  0.475798  0.294508  0.672777  1
  O  O23  1  0.287363  0.500000  0.454281  1
