# generated using pymatgen
data_Rb2CoO3
_symmetry_space_group_name_H-M   'P 1'
_cell_length_a   6.66574662
_cell_length_b   13.66789339
_cell_length_c   16.93553522
_cell_angle_alpha   90.00000000
_cell_angle_beta   107.72847788
_cell_angle_gamma   90.00000000
_symmetry_Int_Tables_number   1
_chemical_formula_structural   Rb2CoO3
_chemical_formula_sum   'Rb24 Co12 O36'
_cell_volume   1469.66708345
_cell_formula_units_Z   12
loop_
 _symmetry_equiv_pos_site_id
 _symmetry_equiv_pos_as_xyz
  1  'x, y, z'
loop_
 _atom_site_type_symbol
 _atom_site_label
 _atom_site_symmetry_multiplicity
 _atom_site_fract_x
 _atom_site_fract_y
 _atom_site_fract_z
 _atom_site_occupancy
  Rb  Rb0  1  0.004977  0.887848  0.918249  1
  Rb  Rb1  1  0.125615  0.620714  0.858851  1
  Rb  Rb2  1  0.120544  0.302526  0.804356  1
  Rb  Rb3  1  0.436124  0.154205  0.989711  1
  Rb  Rb4  1  0.004977  0.612152  0.418249  1
  Rb  Rb5  1  0.361353  0.007420  0.777132  1
  Rb  Rb6  1  0.125615  0.879286  0.358851  1
  Rb  Rb7  1  0.264195  0.086943  0.531295  1
  Rb  Rb8  1  0.120544  0.197474  0.304356  1
  Rb  Rb9  1  0.735805  0.586943  0.968705  1
  Rb  Rb10  1  0.436124  0.345795  0.489711  1
  Rb  Rb11  1  0.638647  0.507420  0.722868  1
  Rb  Rb12  1  0.361353  0.492580  0.277132  1
  Rb  Rb13  1  0.563876  0.654205  0.510289  1
  Rb  Rb14  1  0.264195  0.413057  0.031295  1
  Rb  Rb15  1  0.879456  0.802526  0.695644  1
  Rb  Rb16  1  0.735805  0.913057  0.468705  1
  Rb  Rb17  1  0.874385  0.120714  0.641149  1
  Rb  Rb18  1  0.638647  0.992580  0.222868  1
  Rb  Rb19  1  0.995023  0.387848  0.581751  1
  Rb  Rb20  1  0.563876  0.845795  0.010289  1
  Rb  Rb21  1  0.879456  0.697474  0.195644  1
  Rb  Rb22  1  0.874385  0.379286  0.141149  1
  Rb  Rb23  1  0.995023  0.112152  0.081751  1
  Co  Co24  1  0.158972  0.618976  0.632341  1
  Co  Co25  1  0.271404  0.846497  0.602780  1
  Co  Co26  1  0.470346  0.757109  0.792323  1
  Co  Co27  1  0.529654  0.257109  0.707677  1
  Co  Co28  1  0.728596  0.346497  0.897220  1
  Co  Co29  1  0.158972  0.881024  0.132341  1
  Co  Co30  1  0.841028  0.118976  0.867659  1
  Co  Co31  1  0.271404  0.653503  0.102780  1
  Co  Co32  1  0.470346  0.742891  0.292323  1
  Co  Co33  1  0.529654  0.242891  0.207677  1
  Co  Co34  1  0.728596  0.153503  0.397220  1
  Co  Co35  1  0.841028  0.381024  0.367659  1
  O  O36  1  0.077791  0.089933  0.850740  1
  O  O37  1  0.092456  0.938863  0.611171  1
  O  O38  1  0.299502  0.809707  0.839527  1
  O  O39  1  0.106448  0.741073  0.571585  1
  O  O40  1  0.336335  0.645172  0.740376  1
  O  O41  1  0.077791  0.410067  0.350740  1
  O  O42  1  0.268157  0.225373  0.662250  1
  O  O43  1  0.287611  0.546801  0.577775  1
  O  O44  1  0.589989  0.363543  0.968361  1
  O  O45  1  0.470331  0.840289  0.701364  1
  O  O46  1  0.529669  0.340289  0.798636  1
  O  O47  1  0.410011  0.863543  0.531639  1
  O  O48  1  0.712389  0.046801  0.922225  1
  O  O49  1  0.092456  0.561137  0.111171  1
  O  O50  1  0.299502  0.690293  0.339527  1
  O  O51  1  0.731843  0.725373  0.837750  1
  O  O52  1  0.106448  0.758927  0.071585  1
  O  O53  1  0.663665  0.145172  0.759624  1
  O  O54  1  0.336335  0.854828  0.240376  1
  O  O55  1  0.893552  0.241073  0.928415  1
  O  O56  1  0.268157  0.274627  0.162250  1
  O  O57  1  0.700498  0.309707  0.660473  1
  O  O58  1  0.907544  0.438863  0.888829  1
  O  O59  1  0.287611  0.953199  0.077775  1
  O  O60  1  0.589989  0.136457  0.468361  1
  O  O61  1  0.470331  0.659711  0.201364  1
  O  O62  1  0.529669  0.159711  0.298636  1
  O  O63  1  0.410011  0.636457  0.031639  1
  O  O64  1  0.712389  0.453199  0.422225  1
  O  O65  1  0.731843  0.774627  0.337750  1
  O  O66  1  0.922209  0.589933  0.649260  1
  O  O67  1  0.663665  0.354828  0.259624  1
  O  O68  1  0.893552  0.258927  0.428415  1
  O  O69  1  0.700498  0.190293  0.160473  1
  O  O70  1  0.907544  0.061137  0.388829  1
  O  O71  1  0.922209  0.910067  0.149260  1
