# generated using pymatgen
data_HfP2O7
_symmetry_space_group_name_H-M   'P 1'
_cell_length_a   8.46940547
_cell_length_b   8.46940547
_cell_length_c   8.46940547
_cell_angle_alpha   90.00000000
_cell_angle_beta   90.00000000
_cell_angle_gamma   90.00000000
_symmetry_Int_Tables_number   1
_chemical_formula_structural   HfP2O7
_chemical_formula_sum   'Hf4 P8 O28'
_cell_volume   607.51747563
_cell_formula_units_Z   4
loop_
 _symmetry_equiv_pos_site_id
 _symmetry_equiv_pos_as_xyz
  1  'x, y, z'
loop_
 _atom_site_type_symbol
 _atom_site_label
 _atom_site_symmetry_multiplicity
 _atom_site_fract_x
 _atom_site_fract_y
 _atom_site_fract_z
 _atom_site_occupancy
  Hf  Hf0  1  0.000000  0.000000  0.000000  1
  Hf  Hf1  1  0.000000  0.500000  0.500000  1
  Hf  Hf2  1  0.500000  0.000000  0.500000  1
  Hf  Hf3  1  0.500000  0.500000  0.000000  1
  P  P4  1  0.107932  0.892068  0.392068  1
  P  P5  1  0.107932  0.607932  0.892068  1
  P  P6  1  0.392068  0.107932  0.892068  1
  P  P7  1  0.392068  0.392068  0.392068  1
  P  P8  1  0.607932  0.607932  0.607932  1
  P  P9  1  0.607932  0.892068  0.107932  1
  P  P10  1  0.892068  0.107932  0.607932  1
  P  P11  1  0.892068  0.392068  0.107932  1
  O  O12  1  0.000000  0.000000  0.500000  1
  O  O13  1  0.000000  0.500000  0.000000  1
  O  O14  1  0.056408  0.722493  0.420490  1
  O  O15  1  0.056408  0.777507  0.920490  1
  O  O16  1  0.079510  0.943592  0.222493  1
  O  O17  1  0.079510  0.556408  0.722493  1
  O  O18  1  0.222493  0.079510  0.943592  1
  O  O19  1  0.222493  0.420490  0.443592  1
  O  O20  1  0.277507  0.579510  0.943592  1
  O  O21  1  0.277507  0.920490  0.443592  1
  O  O22  1  0.420490  0.056408  0.722493  1
  O  O23  1  0.420490  0.443592  0.222493  1
  O  O24  1  0.443592  0.277507  0.920490  1
  O  O25  1  0.443592  0.222493  0.420490  1
  O  O26  1  0.500000  0.500000  0.500000  1
  O  O27  1  0.500000  0.000000  0.000000  1
  O  O28  1  0.556408  0.722493  0.079510  1
  O  O29  1  0.556408  0.777507  0.579510  1
  O  O30  1  0.579510  0.556408  0.777507  1
  O  O31  1  0.579510  0.943592  0.277507  1
  O  O32  1  0.722493  0.079510  0.556408  1
  O  O33  1  0.722493  0.420490  0.056408  1
  O  O34  1  0.777507  0.579510  0.556408  1
  O  O35  1  0.777507  0.920490  0.056408  1
  O  O36  1  0.920490  0.056408  0.777507  1
  O  O37  1  0.920490  0.443592  0.277507  1
  O  O38  1  0.943592  0.222493  0.079510  1
  O  O39  1  0.943592  0.277507  0.579510  1
