# generated using pymatgen
data_Sr5La2Cl16
_symmetry_space_group_name_H-M   'P 1'
_cell_length_a   9.04014798
_cell_length_b   9.04014798
_cell_length_c   19.16307987
_cell_angle_alpha   90.00000000
_cell_angle_beta   90.00000000
_cell_angle_gamma   112.16195607
_symmetry_Int_Tables_number   1
_chemical_formula_structural   Sr5La2Cl16
_chemical_formula_sum   'Sr10 La4 Cl32'
_cell_volume   1450.38815508
_cell_formula_units_Z   2
loop_
 _symmetry_equiv_pos_site_id
 _symmetry_equiv_pos_as_xyz
  1  'x, y, z'
loop_
 _atom_site_type_symbol
 _atom_site_label
 _atom_site_symmetry_multiplicity
 _atom_site_fract_x
 _atom_site_fract_y
 _atom_site_fract_z
 _atom_site_occupancy
  Sr  Sr0  1  0.000000  0.500000  0.133343  1
  Sr  Sr1  1  0.000000  0.500000  0.633343  1
  Sr  Sr2  1  0.500000  0.500000  0.228998  1
  Sr  Sr3  1  0.500000  0.500000  0.771002  1
  Sr  Sr4  1  0.000000  0.000000  0.271002  1
  Sr  Sr5  1  0.500000  0.500000  0.500000  1
  Sr  Sr6  1  0.000000  0.000000  0.728998  1
  Sr  Sr7  1  0.000000  0.000000  0.000000  1
  Sr  Sr8  1  0.500000  0.000000  0.866657  1
  Sr  Sr9  1  0.500000  0.000000  0.366657  1
  La  La10  1  0.000000  0.500000  0.882501  1
  La  La11  1  0.000000  0.500000  0.382501  1
  La  La12  1  0.500000  0.000000  0.117499  1
  La  La13  1  0.500000  0.000000  0.617499  1
  Cl  Cl14  1  0.968428  0.300183  0.771022  1
  Cl  Cl15  1  0.800183  0.468428  0.271022  1
  Cl  Cl16  1  0.825917  0.527713  0.495555  1
  Cl  Cl17  1  0.027713  0.325917  0.995555  1
  Cl  Cl18  1  0.389277  0.279289  0.346852  1
  Cl  Cl19  1  0.279289  0.389277  0.653148  1
  Cl  Cl20  1  0.889277  0.779289  0.153148  1
  Cl  Cl21  1  0.779289  0.889277  0.846852  1
  Cl  Cl22  1  0.972287  0.674083  0.995555  1
  Cl  Cl23  1  0.174083  0.472287  0.495555  1
  Cl  Cl24  1  0.031572  0.699817  0.771022  1
  Cl  Cl25  1  0.199817  0.531572  0.271022  1
  Cl  Cl26  1  0.632063  0.337121  0.114509  1
  Cl  Cl27  1  0.337121  0.632063  0.885491  1
  Cl  Cl28  1  0.132063  0.837121  0.385491  1
  Cl  Cl29  1  0.837121  0.132063  0.614509  1
  Cl  Cl30  1  0.662879  0.367937  0.885491  1
  Cl  Cl31  1  0.367937  0.662879  0.114509  1
  Cl  Cl32  1  0.867937  0.162879  0.385491  1
  Cl  Cl33  1  0.162879  0.867937  0.614509  1
  Cl  Cl34  1  0.300183  0.968428  0.228978  1
  Cl  Cl35  1  0.468428  0.800183  0.728978  1
  Cl  Cl36  1  0.527713  0.825917  0.504445  1
  Cl  Cl37  1  0.325917  0.027713  0.004445  1
  Cl  Cl38  1  0.220711  0.110723  0.846852  1
  Cl  Cl39  1  0.720711  0.610723  0.653148  1
  Cl  Cl40  1  0.110723  0.220711  0.153148  1
  Cl  Cl41  1  0.610723  0.720711  0.346852  1
  Cl  Cl42  1  0.472287  0.174083  0.504445  1
  Cl  Cl43  1  0.674083  0.972287  0.004445  1
  Cl  Cl44  1  0.699817  0.031572  0.228978  1
  Cl  Cl45  1  0.531572  0.199817  0.728978  1
