# generated using pymatgen
data_K2TiSi3(HO5)2
_symmetry_space_group_name_H-M   'P 1'
_cell_length_a   7.23061835
_cell_length_b   10.03477116
_cell_length_c   13.13013849
_cell_angle_alpha   90.00000000
_cell_angle_beta   90.00000000
_cell_angle_gamma   90.00000000
_symmetry_Int_Tables_number   1
_chemical_formula_structural   K2TiSi3(HO5)2
_chemical_formula_sum   'K8 Ti4 Si12 H8 O40'
_cell_volume   952.69134290
_cell_formula_units_Z   4
loop_
 _symmetry_equiv_pos_site_id
 _symmetry_equiv_pos_as_xyz
  1  'x, y, z'
loop_
 _atom_site_type_symbol
 _atom_site_label
 _atom_site_symmetry_multiplicity
 _atom_site_fract_x
 _atom_site_fract_y
 _atom_site_fract_z
 _atom_site_occupancy
  K  K0  1  0.148081  0.790706  0.635165  1
  K  K1  1  0.205689  0.935389  0.921585  1
  K  K2  1  0.294311  0.064611  0.421585  1
  K  K3  1  0.351919  0.209294  0.135165  1
  K  K4  1  0.648081  0.709294  0.364835  1
  K  K5  1  0.705689  0.564611  0.078415  1
  K  K6  1  0.794311  0.435389  0.578415  1
  K  K7  1  0.851919  0.290706  0.864835  1
  Ti  Ti8  1  0.240742  0.452934  0.710113  1
  Ti  Ti9  1  0.259258  0.547066  0.210113  1
  Ti  Ti10  1  0.740742  0.047066  0.289887  1
  Ti  Ti11  1  0.759258  0.952934  0.789887  1
  Si  Si12  1  0.008108  0.822308  0.174791  1
  Si  Si13  1  0.080862  0.141734  0.668536  1
  Si  Si14  1  0.231880  0.537228  0.951996  1
  Si  Si15  1  0.268120  0.462772  0.451996  1
  Si  Si16  1  0.419138  0.858266  0.168536  1
  Si  Si17  1  0.491892  0.177692  0.674791  1
  Si  Si18  1  0.508108  0.677692  0.825209  1
  Si  Si19  1  0.580862  0.358266  0.331464  1
  Si  Si20  1  0.731880  0.962772  0.048004  1
  Si  Si21  1  0.768120  0.037228  0.548004  1
  Si  Si22  1  0.919138  0.641734  0.831464  1
  Si  Si23  1  0.991892  0.322308  0.325209  1
  H  H24  1  0.029602  0.846487  0.383828  1
  H  H25  1  0.166304  0.727846  0.406394  1
  H  H26  1  0.333696  0.272154  0.906394  1
  H  H27  1  0.470398  0.153513  0.883828  1
  H  H28  1  0.529602  0.653513  0.616172  1
  H  H29  1  0.666304  0.772154  0.593606  1
  H  H30  1  0.833696  0.227846  0.093606  1
  H  H31  1  0.970398  0.346487  0.116172  1
  O  O32  1  0.012434  0.559475  0.738146  1
  O  O33  1  0.019926  0.599438  0.940385  1
  O  O34  1  0.051832  0.664824  0.191071  1
  O  O35  1  0.071586  0.301324  0.688954  1
  O  O36  1  0.098556  0.386644  0.227821  1
  O  O37  1  0.123536  0.337665  0.427307  1
  O  O38  1  0.121544  0.814744  0.434626  1
  O  O39  1  0.201764  0.905435  0.150550  1
  O  O40  1  0.227515  0.511697  0.567199  1
  O  O41  1  0.243981  0.576761  0.363755  1
  O  O42  1  0.256019  0.423239  0.863755  1
  O  O43  1  0.272485  0.488303  0.067199  1
  O  O44  1  0.298236  0.094565  0.650550  1
  O  O45  1  0.378456  0.185256  0.934626  1
  O  O46  1  0.376464  0.662335  0.927307  1
  O  O47  1  0.401444  0.613356  0.727821  1
  O  O48  1  0.428414  0.698676  0.188954  1
  O  O49  1  0.448168  0.335176  0.691071  1
  O  O50  1  0.480074  0.400562  0.440385  1
  O  O51  1  0.487566  0.440525  0.238146  1
  O  O52  1  0.512434  0.940525  0.261854  1
  O  O53  1  0.519926  0.900562  0.059615  1
  O  O54  1  0.551832  0.835176  0.808929  1
  O  O55  1  0.571586  0.198676  0.311046  1
  O  O56  1  0.598556  0.113356  0.772179  1
  O  O57  1  0.623536  0.162335  0.572693  1
  O  O58  1  0.621544  0.685256  0.565374  1
  O  O59  1  0.701764  0.594565  0.849450  1
  O  O60  1  0.727515  0.988303  0.432801  1
  O  O61  1  0.743981  0.923239  0.636245  1
  O  O62  1  0.756019  0.076761  0.136245  1
  O  O63  1  0.772485  0.011697  0.932801  1
  O  O64  1  0.798236  0.405435  0.349450  1
  O  O65  1  0.878456  0.314744  0.065374  1
  O  O66  1  0.876464  0.837665  0.072693  1
  O  O67  1  0.901444  0.886644  0.272179  1
  O  O68  1  0.928414  0.801324  0.811046  1
  O  O69  1  0.948168  0.164824  0.308929  1
  O  O70  1  0.980074  0.099438  0.559615  1
  O  O71  1  0.987566  0.059475  0.761854  1
