# generated using pymatgen
data_Li2Nb4ZnO12
_symmetry_space_group_name_H-M   'P 1'
_cell_length_a   7.69029221
_cell_length_b   7.71807078
_cell_length_c   11.89757066
_cell_angle_alpha   104.99620151
_cell_angle_beta   92.51589577
_cell_angle_gamma   93.72579229
_symmetry_Int_Tables_number   1
_chemical_formula_structural   Li2Nb4ZnO12
_chemical_formula_sum   'Li6 Nb12 Zn3 O36'
_cell_volume   679.32777219
_cell_formula_units_Z   3
loop_
 _symmetry_equiv_pos_site_id
 _symmetry_equiv_pos_as_xyz
  1  'x, y, z'
loop_
 _atom_site_type_symbol
 _atom_site_label
 _atom_site_symmetry_multiplicity
 _atom_site_fract_x
 _atom_site_fract_y
 _atom_site_fract_z
 _atom_site_occupancy
  Li  Li0  1  0.219129  0.043684  0.523599  1
  Li  Li1  1  0.218310  0.380548  0.186865  1
  Li  Li2  1  0.718167  0.867712  0.183298  1
  Li  Li3  1  0.215808  0.202873  0.850736  1
  Li  Li4  1  0.217210  0.536939  0.519224  1
  Li  Li5  1  0.218396  0.707261  0.854231  1
  Nb  Nb6  1  0.488120  0.156532  0.329924  1
  Nb  Nb7  1  0.004735  0.170670  0.331062  1
  Nb  Nb8  1  0.503265  0.333618  0.669240  1
  Nb  Nb9  1  0.499442  0.659414  0.336495  1
  Nb  Nb10  1  0.004295  0.337728  0.665049  1
  Nb  Nb11  1  0.005392  0.677360  0.330952  1
  Nb  Nb12  1  0.493913  0.496272  0.997813  1
  Nb  Nb13  1  0.495187  0.829224  0.665427  1
  Nb  Nb14  1  0.000136  0.500927  0.995091  1
  Nb  Nb15  1  0.997363  0.834960  0.663160  1
  Nb  Nb16  1  0.503110  0.002217  0.000040  1
  Nb  Nb17  1  0.009508  0.006429  0.004204  1
  Zn  Zn18  1  0.723901  0.043205  0.516813  1
  Zn  Zn19  1  0.727117  0.373940  0.188555  1
  Zn  Zn20  1  0.725728  0.710223  0.854233  1
  O  O21  1  0.584844  0.252363  0.036169  1
  O  O22  1  0.081108  0.129482  0.159465  1
  O  O23  1  0.767629  0.184802  0.277136  1
  O  O24  1  0.260337  0.100153  0.365117  1
  O  O25  1  0.264520  0.431750  0.028314  1
  O  O26  1  0.959440  0.156331  0.489028  1
  O  O27  1  0.958843  0.490864  0.153909  1
  O  O28  1  0.457532  0.039268  0.615789  1
  O  O29  1  0.458917  0.370254  0.278980  1
  O  O30  1  0.574834  0.259578  0.486711  1
  O  O31  1  0.579831  0.613510  0.154700  1
  O  O32  1  0.086176  0.078426  0.692334  1
  O  O33  1  0.080983  0.414318  0.363255  1
  O  O34  1  0.078783  0.741646  0.016691  1
  O  O35  1  0.766246  0.267258  0.681605  1
  O  O36  1  0.767183  0.593170  0.345735  1
  O  O37  1  0.769471  0.927936  0.023797  1
  O  O38  1  0.267665  0.011165  0.944698  1
  O  O39  1  0.268912  0.343411  0.609081  1
  O  O40  1  0.265357  0.664207  0.281447  1
  O  O41  1  0.975300  0.206871  0.948679  1
  O  O42  1  0.977444  0.546181  0.616547  1
  O  O43  1  0.950494  0.877802  0.280668  1
  O  O44  1  0.451469  0.330308  0.822896  1
  O  O45  1  0.453765  0.663680  0.491910  1
  O  O46  1  0.477635  0.996695  0.156461  1
  O  O47  1  0.584556  0.582231  0.701400  1
  O  O48  1  0.586126  0.910254  0.362267  1
  O  O49  1  0.083732  0.447658  0.823379  1
  O  O50  1  0.080705  0.787946  0.489363  1
  O  O51  1  0.764453  0.524189  0.944268  1
  O  O52  1  0.765025  0.860966  0.610048  1
  O  O53  1  0.264356  0.767828  0.695114  1
  O  O54  1  0.955423  0.825675  0.820060  1
  O  O55  1  0.457587  0.706521  0.947669  1
  O  O56  1  0.578705  0.931919  0.824409  1
