# generated using pymatgen
data_Ti4(Ni5O8)3
_symmetry_space_group_name_H-M   'P 1'
_cell_length_a   5.95184566
_cell_length_b   5.95184566
_cell_length_c   14.50415751
_cell_angle_alpha   90.00000000
_cell_angle_beta   90.00000000
_cell_angle_gamma   120.00000000
_symmetry_Int_Tables_number   1
_chemical_formula_structural   Ti4(Ni5O8)3
_chemical_formula_sum   'Ti4 Ni15 O24'
_cell_volume   444.96562367
_cell_formula_units_Z   1
loop_
 _symmetry_equiv_pos_site_id
 _symmetry_equiv_pos_as_xyz
  1  'x, y, z'
loop_
 _atom_site_type_symbol
 _atom_site_label
 _atom_site_symmetry_multiplicity
 _atom_site_fract_x
 _atom_site_fract_y
 _atom_site_fract_z
 _atom_site_occupancy
  Ti  Ti0  1  0.666667  0.333333  0.710684  1
  Ti  Ti1  1  0.000000  0.000000  0.376043  1
  Ti  Ti2  1  0.000000  0.000000  0.623957  1
  Ti  Ti3  1  0.333333  0.666667  0.289316  1
  Ni  Ni4  1  0.164767  0.329534  0.832586  1
  Ni  Ni5  1  0.000000  0.500000  0.000000  1
  Ni  Ni6  1  0.835233  0.164767  0.167414  1
  Ni  Ni7  1  0.333333  0.666667  0.666915  1
  Ni  Ni8  1  0.164767  0.835233  0.832586  1
  Ni  Ni9  1  0.500000  0.500000  0.000000  1
  Ni  Ni10  1  0.000000  0.000000  0.000000  1
  Ni  Ni11  1  0.835233  0.670466  0.167414  1
  Ni  Ni12  1  0.500000  0.000000  0.000000  1
  Ni  Ni13  1  0.670466  0.835233  0.832586  1
  Ni  Ni14  1  0.000000  0.500000  0.500000  1
  Ni  Ni15  1  0.329534  0.164767  0.167414  1
  Ni  Ni16  1  0.666667  0.333333  0.333085  1
  Ni  Ni17  1  0.500000  0.500000  0.500000  1
  Ni  Ni18  1  0.500000  0.000000  0.500000  1
  O  O19  1  0.005862  0.502931  0.751750  1
  O  O20  1  0.497069  0.502931  0.751750  1
  O  O21  1  0.850032  0.149968  0.925020  1
  O  O22  1  0.000000  0.000000  0.750836  1
  O  O23  1  0.994138  0.497069  0.248250  1
  O  O24  1  0.299935  0.149968  0.925020  1
  O  O25  1  0.850032  0.700065  0.925020  1
  O  O26  1  0.149968  0.299935  0.074980  1
  O  O27  1  0.497069  0.994138  0.751750  1
  O  O28  1  0.333333  0.666667  0.916066  1
  O  O29  1  0.149968  0.850032  0.074980  1
  O  O30  1  0.000000  0.000000  0.249164  1
  O  O31  1  0.502931  0.497069  0.248250  1
  O  O32  1  0.666667  0.333333  0.083934  1
  O  O33  1  0.169606  0.339212  0.582433  1
  O  O34  1  0.502931  0.005862  0.248250  1
  O  O35  1  0.339212  0.169606  0.417567  1
  O  O36  1  0.830394  0.660788  0.417567  1
  O  O37  1  0.700065  0.850032  0.074980  1
  O  O38  1  0.666667  0.333333  0.582954  1
  O  O39  1  0.830394  0.169606  0.417567  1
  O  O40  1  0.333333  0.666667  0.417046  1
  O  O41  1  0.169606  0.830394  0.582433  1
  O  O42  1  0.660788  0.830394  0.582433  1
