# generated using pymatgen
data_Fe5O3F7
_symmetry_space_group_name_H-M   'P 1'
_cell_length_a   4.76672505
_cell_length_b   4.77642797
_cell_length_c   15.63644961
_cell_angle_alpha   90.15364157
_cell_angle_beta   90.28295628
_cell_angle_gamma   91.33084014
_symmetry_Int_Tables_number   1
_chemical_formula_structural   Fe5O3F7
_chemical_formula_sum   'Fe10 O6 F14'
_cell_volume   355.90765128
_cell_formula_units_Z   2
loop_
 _symmetry_equiv_pos_site_id
 _symmetry_equiv_pos_as_xyz
  1  'x, y, z'
loop_
 _atom_site_type_symbol
 _atom_site_label
 _atom_site_symmetry_multiplicity
 _atom_site_fract_x
 _atom_site_fract_y
 _atom_site_fract_z
 _atom_site_occupancy
  Fe  Fe0  1  0.963931  0.964840  0.999665  1
  Fe  Fe1  1  0.021119  0.020495  0.200050  1
  Fe  Fe2  1  0.035345  0.009598  0.405060  1
  Fe  Fe3  1  0.019587  0.969109  0.599865  1
  Fe  Fe4  1  0.041414  0.020878  0.794438  1
  Fe  Fe5  1  0.498712  0.499208  0.098943  1
  Fe  Fe6  1  0.475126  0.508755  0.494016  1
  Fe  Fe7  1  0.481024  0.470500  0.297366  1
  Fe  Fe8  1  0.464995  0.517206  0.707552  1
  Fe  Fe9  1  0.502100  0.493326  0.902307  1
  O  O10  1  0.180378  0.816651  0.502521  1
  O  O11  1  0.194049  0.812281  0.699722  1
  O  O12  1  0.317763  0.317164  0.198828  1
  O  O13  1  0.306793  0.301727  0.394696  1
  O  O14  1  0.311916  0.312815  0.797827  1
  O  O15  1  0.673786  0.672426  0.004437  1
  F  F16  1  0.197932  0.792088  0.103273  1
  F  F17  1  0.206319  0.803470  0.305044  1
  F  F18  1  0.194312  0.804987  0.891758  1
  F  F19  1  0.280221  0.279189  0.004717  1
  F  F20  1  0.295941  0.305901  0.605943  1
  F  F21  1  0.706896  0.703436  0.203702  1
  F  F22  1  0.710773  0.712776  0.391630  1
  F  F23  1  0.686224  0.692727  0.604187  1
  F  F24  1  0.710817  0.714850  0.793312  1
  F  F25  1  0.791668  0.198317  0.102843  1
  F  F26  1  0.805162  0.193466  0.504530  1
  F  F27  1  0.811315  0.200306  0.306446  1
  F  F28  1  0.811162  0.187729  0.889086  1
  F  F29  1  0.803221  0.203781  0.696239  1
