# generated using pymatgen
data_Li8NiO5F
_symmetry_space_group_name_H-M   'P 1'
_cell_length_a   5.51430924
_cell_length_b   5.51430924
_cell_length_c   10.85088244
_cell_angle_alpha   90.00000000
_cell_angle_beta   90.00000000
_cell_angle_gamma   120.00000000
_symmetry_Int_Tables_number   1
_chemical_formula_structural   Li8NiO5F
_chemical_formula_sum   'Li16 Ni2 O10 F2'
_cell_volume   285.74453020
_cell_formula_units_Z   2
loop_
 _symmetry_equiv_pos_site_id
 _symmetry_equiv_pos_as_xyz
  1  'x, y, z'
loop_
 _atom_site_type_symbol
 _atom_site_label
 _atom_site_symmetry_multiplicity
 _atom_site_fract_x
 _atom_site_fract_y
 _atom_site_fract_z
 _atom_site_occupancy
  Li  Li0  1  0.976491  0.687898  0.772484  1
  Li  Li1  1  0.018736  0.638055  0.121050  1
  Li  Li2  1  0.981264  0.361945  0.621050  1
  Li  Li3  1  0.023509  0.312102  0.272484  1
  Li  Li4  1  0.333333  0.666667  0.414784  1
  Li  Li5  1  0.333333  0.666667  0.926232  1
  Li  Li6  1  0.312102  0.288594  0.772484  1
  Li  Li7  1  0.361945  0.380680  0.121050  1
  Li  Li8  1  0.638055  0.619320  0.621050  1
  Li  Li9  1  0.288594  0.976491  0.272484  1
  Li  Li10  1  0.687898  0.711406  0.272484  1
  Li  Li11  1  0.380680  0.018736  0.621050  1
  Li  Li12  1  0.666667  0.333333  0.914784  1
  Li  Li13  1  0.666667  0.333333  0.426232  1
  Li  Li14  1  0.619320  0.981264  0.121050  1
  Li  Li15  1  0.711406  0.023509  0.772484  1
  Ni  Ni16  1  0.000000  0.000000  0.988608  1
  Ni  Ni17  1  0.000000  0.000000  0.488608  1
  O  O18  1  0.001643  0.680109  0.947758  1
  O  O19  1  0.998357  0.319891  0.447758  1
  O  O20  1  0.333333  0.666667  0.212845  1
  O  O21  1  0.000000  0.000000  0.671075  1
  O  O22  1  0.000000  0.000000  0.171075  1
  O  O23  1  0.319891  0.321535  0.947758  1
  O  O24  1  0.321535  0.001643  0.447758  1
  O  O25  1  0.680109  0.678465  0.447758  1
  O  O26  1  0.666667  0.333333  0.712845  1
  O  O27  1  0.678465  0.998357  0.947758  1
  F  F28  1  0.333333  0.666667  0.708207  1
  F  F29  1  0.666667  0.333333  0.208207  1
