# generated using pymatgen
data_Li3P11(H3N)17
_symmetry_space_group_name_H-M   'P 1'
_cell_length_a   11.99024070
_cell_length_b   12.58411455
_cell_length_c   12.59736604
_cell_angle_alpha   89.96228412
_cell_angle_beta   99.86720549
_cell_angle_gamma   99.64926542
_symmetry_Int_Tables_number   1
_chemical_formula_structural   Li3P11(H3N)17
_chemical_formula_sum   'Li6 P22 H102 N34'
_cell_volume   1845.39149651
_cell_formula_units_Z   2
loop_
 _symmetry_equiv_pos_site_id
 _symmetry_equiv_pos_as_xyz
  1  'x, y, z'
loop_
 _atom_site_type_symbol
 _atom_site_label
 _atom_site_symmetry_multiplicity
 _atom_site_fract_x
 _atom_site_fract_y
 _atom_site_fract_z
 _atom_site_occupancy
  Li  Li0  1  0.746067  0.978124  0.239503  1
  Li  Li1  1  0.253933  0.021876  0.760497  1
  Li  Li2  1  0.873748  0.391941  0.284015  1
  Li  Li3  1  0.126252  0.608059  0.715985  1
  Li  Li4  1  0.781551  0.746852  0.915004  1
  Li  Li5  1  0.218449  0.253148  0.084996  1
  P  P6  1  0.738021  0.236108  0.577703  1
  P  P7  1  0.261979  0.763892  0.422297  1
  P  P8  1  0.593244  0.311437  0.780441  1
  P  P9  1  0.406756  0.688563  0.219559  1
  P  P10  1  0.705702  0.068804  0.802478  1
  P  P11  1  0.294298  0.931196  0.197522  1
  P  P12  1  0.755350  0.419705  0.760050  1
  P  P13  1  0.244650  0.580295  0.239950  1
  P  P14  1  0.898958  0.214674  0.688789  1
  P  P15  1  0.101042  0.785326  0.311211  1
  P  P16  1  0.783139  0.195395  0.929522  1
  P  P17  1  0.216861  0.804605  0.070478  1
  P  P18  1  0.885427  0.315693  0.832954  1
  P  P19  1  0.114573  0.684307  0.167046  1
  P  P20  1  0.856408  0.047921  0.734746  1
  P  P21  1  0.143592  0.952079  0.265254  1
  P  P22  1  0.747696  0.409698  0.587064  1
  P  P23  1  0.252304  0.590302  0.412936  1
  P  P24  1  0.606203  0.166305  0.680032  1
  P  P25  1  0.393797  0.833695  0.319968  1
  P  P26  1  0.633637  0.266295  0.947450  1
  P  P27  1  0.366363  0.733705  0.052550  1
  H  H28  1  0.890939  0.938019  0.926946  1
  H  H29  1  0.109061  0.061981  0.073054  1
  H  H30  1  0.963474  0.878003  0.025996  1
  H  H31  1  0.036526  0.121997  0.974004  1
  H  H32  1  0.850229  0.926439  0.044221  1
  H  H33  1  0.149771  0.073561  0.955779  1
  H  H34  1  0.999412  0.463020  0.136991  1
  H  H35  1  0.000588  0.536980  0.863009  1
  H  H36  1  0.981993  0.330950  0.130084  1
  H  H37  1  0.018007  0.669050  0.869916  1
  H  H38  1  0.875607  0.391853  0.079494  1
  H  H39  1  0.124393  0.608147  0.920506  1
  H  H40  1  0.868022  0.134548  0.152113  1
  H  H41  1  0.131978  0.865452  0.847887  1
  H  H42  1  0.911149  0.139905  0.284788  1
  H  H43  1  0.088851  0.860095  0.715212  1
  H  H44  1  0.957992  0.056442  0.209908  1
  H  H45  1  0.042008  0.943558  0.790092  1
  H  H46  1  0.737392  0.788438  0.156303  1
  H  H47  1  0.262608  0.211562  0.843697  1
  H  H48  1  0.860876  0.806812  0.239866  1
  H  H49  1  0.139124  0.193188  0.760134  1
  H  H50  1  0.739533  0.776620  0.284673  1
  H  H51  1  0.260467  0.223380  0.715327  1
  H  H52  1  0.949183  0.382490  0.484138  1
  H  H53  1  0.050817  0.617510  0.515862  1
  H  H54  1  0.014617  0.297225  0.429558  1
  H  H55  1  0.985383  0.702775  0.570442  1
  H  H56  1  0.055045  0.429581  0.419100  1
  H  H57  1  0.944955  0.570419  0.580900  1
  H  H58  1  0.545360  0.925567  0.111827  1
  H  H59  1  0.454640  0.074433  0.888173  1
  H  H60  1  0.573058  0.057151  0.124623  1
  H  H61  1  0.426942  0.942849  0.875377  1
  H  H62  1  0.637339  0.997543  0.045385  1
  H  H63  1  0.362661  0.002457  0.954615  1
  H  H64  1  0.873745  0.756235  0.724807  1
  H  H65  1  0.126255  0.243765  0.275193  1
  H  H66  1  0.774758  0.650757  0.732204  1
  H  H67  1  0.225242  0.349243  0.267796  1
  H  H68  1  0.739552  0.771319  0.711739  1
  H  H69  1  0.260448  0.228681  0.288261  1
  H  H70  1  0.750720  0.601355  0.056032  1
  H  H71  1  0.249280  0.398645  0.943968  1
  H  H72  1  0.888394  0.620657  0.049862  1
  H  H73  1  0.111606  0.379343  0.950138  1
  H  H74  1  0.794076  0.545352  0.956928  1
  H  H75  1  0.205924  0.454648  0.043072  1
  H  H76  1  0.904680  0.603899  0.305126  1
  H  H77  1  0.095320  0.396101  0.694874  1
  H  H78  1  0.806992  0.552557  0.376848  1
  H  H79  1  0.193008  0.447443  0.623152  1
  H  H80  1  0.771812  0.549987  0.244504  1
  H  H81  1  0.228188  0.450013  0.755496  1
  H  H82  1  0.710652  0.219735  0.314212  1
  H  H83  1  0.289348  0.780265  0.685788  1
  H  H84  1  0.661753  0.332064  0.284065  1
  H  H85  1  0.338247  0.667936  0.715935  1
  H  H86  1  0.689719  0.258121  0.187038  1
  H  H87  1  0.310281  0.741879  0.812962  1
  H  H88  1  0.610686  0.985313  0.383706  1
  H  H89  1  0.389314  0.014687  0.616294  1
  H  H90  1  0.732978  0.064220  0.432867  1
  H  H91  1  0.267022  0.935780  0.567133  1
  H  H92  1  0.724089  0.933399  0.430336  1
  H  H93  1  0.275911  0.066601  0.569664  1
  H  H94  1  0.556162  0.759159  0.945449  1
  H  H95  1  0.443838  0.240841  0.054551  1
  H  H96  1  0.618239  0.850717  0.870567  1
  H  H97  1  0.381761  0.149283  0.129433  1
  H  H98  1  0.567479  0.727067  0.822385  1
  H  H99  1  0.432521  0.272933  0.177615  1
  H  H100  1  0.468445  0.336856  0.358829  1
  H  H101  1  0.531555  0.663144  0.641171  1
  H  H102  1  0.570161  0.434437  0.413141  1
  H  H103  1  0.429839  0.565563  0.586859  1
  H  H104  1  0.454817  0.463594  0.337100  1
  H  H105  1  0.545183  0.536406  0.662900  1
  H  H106  1  0.617959  0.675453  0.374430  1
  H  H107  1  0.382041  0.324547  0.625570  1
  H  H108  1  0.636302  0.711125  0.502069  1
  H  H109  1  0.363698  0.288875  0.497931  1
  H  H110  1  0.744088  0.735112  0.436933  1
  H  H111  1  0.255912  0.264888  0.563067  1
  H  H112  1  0.519841  0.857501  0.662103  1
  H  H113  1  0.480159  0.142499  0.337897  1
  H  H114  1  0.633068  0.915324  0.615592  1
  H  H115  1  0.366932  0.084676  0.384408  1
  H  H116  1  0.522338  0.847349  0.533071  1
  H  H117  1  0.477662  0.152651  0.466929  1
  H  H118  1  0.914509  0.918166  0.583135  1
  H  H119  1  0.085491  0.081834  0.416865  1
  H  H120  1  0.859102  0.810291  0.507791  1
  H  H121  1  0.140898  0.189709  0.492209  1
  H  H122  1  0.972698  0.887168  0.477983  1
  H  H123  1  0.027302  0.112832  0.522017  1
  H  H124  1  0.580718  0.463049  0.205400  1
  H  H125  1  0.419282  0.536951  0.794600  1
  H  H126  1  0.563458  0.579361  0.155058  1
  H  H127  1  0.436542  0.420639  0.844942  1
  H  H128  1  0.583862  0.483602  0.075432  1
  H  H129  1  0.416138  0.516398  0.924568  1
  N  N130  1  0.882241  0.885759  0.988978  1
  N  N131  1  0.117759  0.114241  0.011022  1
  N  N132  1  0.941898  0.394194  0.143269  1
  N  N133  1  0.058102  0.605806  0.856731  1
  N  N134  1  0.886701  0.089085  0.218108  1
  N  N135  1  0.113299  0.910915  0.781892  1
  N  N136  1  0.778400  0.822037  0.229673  1
  N  N137  1  0.221600  0.177963  0.770327  1
  N  N138  1  0.985478  0.369198  0.418352  1
  N  N139  1  0.014522  0.630802  0.581648  1
  N  N140  1  0.611008  0.990875  0.118695  1
  N  N141  1  0.388992  0.009125  0.881305  1
  N  N142  1  0.799485  0.730998  0.754164  1
  N  N143  1  0.200515  0.269002  0.245836  1
  N  N144  1  0.808096  0.614773  0.003796  1
  N  N145  1  0.191904  0.385227  0.996204  1
  N  N146  1  0.837437  0.542310  0.306974  1
  N  N147  1  0.162563  0.457690  0.693026  1
  N  N148  1  0.717849  0.284590  0.265517  1
  N  N149  1  0.282151  0.715410  0.734483  1
  N  N150  1  0.698235  0.995901  0.386222  1
  N  N151  1  0.301765  0.004099  0.613778  1
  N  N152  1  0.610334  0.770800  0.890138  1
  N  N153  1  0.389666  0.229200  0.109862  1
  N  N154  1  0.512267  0.410931  0.343649  1
  N  N155  1  0.487733  0.589069  0.656351  1
  N  N156  1  0.673747  0.679147  0.445565  1
  N  N157  1  0.326253  0.320853  0.554435  1
  N  N158  1  0.571885  0.846685  0.607984  1
  N  N159  1  0.428115  0.153315  0.392016  1
  N  N160  1  0.935433  0.856505  0.540860  1
  N  N161  1  0.064567  0.143495  0.459140  1
  N  N162  1  0.609508  0.518077  0.151115  1
  N  N163  1  0.390492  0.481923  0.848885  1
