# generated using pymatgen
data_NaCo2HSe2O7
_symmetry_space_group_name_H-M   'P 1'
_cell_length_a   6.09356310
_cell_length_b   8.45080945
_cell_length_c   13.40717530
_cell_angle_alpha   90.00000000
_cell_angle_beta   90.00000000
_cell_angle_gamma   90.00000000
_symmetry_Int_Tables_number   1
_chemical_formula_structural   NaCo2HSe2O7
_chemical_formula_sum   'Na4 Co8 H4 Se8 O28'
_cell_volume   690.40974039
_cell_formula_units_Z   4
loop_
 _symmetry_equiv_pos_site_id
 _symmetry_equiv_pos_as_xyz
  1  'x, y, z'
loop_
 _atom_site_type_symbol
 _atom_site_label
 _atom_site_symmetry_multiplicity
 _atom_site_fract_x
 _atom_site_fract_y
 _atom_site_fract_z
 _atom_site_occupancy
  Na  Na0  1  0.750000  0.127389  0.248716  1
  Na  Na1  1  0.750000  0.372611  0.748716  1
  Na  Na2  1  0.250000  0.872611  0.751284  1
  Na  Na3  1  0.250000  0.627389  0.251284  1
  Co  Co4  1  0.000000  0.500000  0.500000  1
  Co  Co5  1  0.500000  0.000000  0.000000  1
  Co  Co6  1  0.500000  0.500000  0.500000  1
  Co  Co7  1  0.000000  0.000000  0.000000  1
  Co  Co8  1  0.250000  0.212972  0.613119  1
  Co  Co9  1  0.250000  0.287028  0.113119  1
  Co  Co10  1  0.750000  0.787028  0.386881  1
  Co  Co11  1  0.750000  0.712972  0.886881  1
  H  H12  1  0.250000  0.975202  0.163481  1
  H  H13  1  0.250000  0.524798  0.663481  1
  H  H14  1  0.750000  0.024798  0.836519  1
  H  H15  1  0.750000  0.475202  0.336519  1
  Se  Se16  1  0.250000  0.224602  0.829107  1
  Se  Se17  1  0.250000  0.275398  0.329107  1
  Se  Se18  1  0.750000  0.775398  0.170893  1
  Se  Se19  1  0.750000  0.724602  0.670893  1
  Se  Se20  1  0.750000  0.120593  0.525036  1
  Se  Se21  1  0.750000  0.379407  0.025036  1
  Se  Se22  1  0.250000  0.879407  0.474964  1
  Se  Se23  1  0.250000  0.620593  0.974964  1
  O  O24  1  0.750000  0.540204  0.607787  1
  O  O25  1  0.750000  0.959796  0.107787  1
  O  O26  1  0.250000  0.459796  0.392213  1
  O  O27  1  0.250000  0.040204  0.892213  1
  O  O28  1  0.250000  0.970025  0.590504  1
  O  O29  1  0.250000  0.529975  0.090504  1
  O  O30  1  0.750000  0.029975  0.409496  1
  O  O31  1  0.750000  0.470025  0.909496  1
  O  O32  1  0.960416  0.695819  0.755867  1
  O  O33  1  0.539584  0.804181  0.255867  1
  O  O34  1  0.460416  0.304181  0.244133  1
  O  O35  1  0.039584  0.195819  0.744133  1
  O  O36  1  0.039584  0.304181  0.244133  1
  O  O37  1  0.460416  0.195819  0.744133  1
  O  O38  1  0.539584  0.695819  0.755867  1
  O  O39  1  0.960416  0.804181  0.255867  1
  O  O40  1  0.972802  0.249039  0.513579  1
  O  O41  1  0.527198  0.250961  0.013579  1
  O  O42  1  0.472802  0.750961  0.486421  1
  O  O43  1  0.027198  0.749039  0.986421  1
  O  O44  1  0.027198  0.750961  0.486421  1
  O  O45  1  0.472802  0.749039  0.986421  1
  O  O46  1  0.527198  0.249039  0.513579  1
  O  O47  1  0.972802  0.250961  0.013579  1
  O  O48  1  0.250000  0.040570  0.103009  1
  O  O49  1  0.250000  0.459430  0.603009  1
  O  O50  1  0.750000  0.959430  0.896991  1
  O  O51  1  0.750000  0.540570  0.396991  1
