# generated using pymatgen
data_V2(OF)3
_symmetry_space_group_name_H-M   'P 1'
_cell_length_a   5.19544674
_cell_length_b   5.25158345
_cell_length_c   9.25417364
_cell_angle_alpha   75.13362391
_cell_angle_beta   73.74078341
_cell_angle_gamma   60.63482673
_symmetry_Int_Tables_number   1
_chemical_formula_structural   V2(OF)3
_chemical_formula_sum   'V4 O6 F6'
_cell_volume   209.09293089
_cell_formula_units_Z   2
loop_
 _symmetry_equiv_pos_site_id
 _symmetry_equiv_pos_as_xyz
  1  'x, y, z'
loop_
 _atom_site_type_symbol
 _atom_site_label
 _atom_site_symmetry_multiplicity
 _atom_site_fract_x
 _atom_site_fract_y
 _atom_site_fract_z
 _atom_site_occupancy
  V  V0  1  0.953359  0.016911  0.001697  1
  V  V1  1  0.722764  0.752285  0.761405  1
  V  V2  1  0.545418  0.486617  0.501103  1
  V  V3  1  0.247179  0.271476  0.262230  1
  O  O4  1  0.393576  0.800191  0.874788  1
  O  O5  1  0.825845  0.944844  0.875182  1
  O  O6  1  0.293756  0.439598  0.377049  1
  O  O7  1  0.702225  0.548969  0.616483  1
  O  O8  1  0.631271  0.191057  0.121859  1
  O  O9  1  0.852673  0.311865  0.372115  1
  F  F10  1  0.127550  0.698960  0.620789  1
  F  F11  1  0.042641  0.626880  0.120199  1
  F  F12  1  0.448422  0.868261  0.374073  1
  F  F13  1  0.201696  0.043823  0.121329  1
  F  F14  1  0.541047  0.130927  0.622799  1
  F  F15  1  0.970577  0.367336  0.876899  1
