# generated using pymatgen
data_LiCu3F10
_symmetry_space_group_name_H-M   'P 1'
_cell_length_a   6.96987372
_cell_length_b   7.12038448
_cell_length_c   7.34623289
_cell_angle_alpha   90.00000000
_cell_angle_beta   90.00000000
_cell_angle_gamma   90.00000000
_symmetry_Int_Tables_number   1
_chemical_formula_structural   LiCu3F10
_chemical_formula_sum   'Li2 Cu6 F20'
_cell_volume   364.58017310
_cell_formula_units_Z   2
loop_
 _symmetry_equiv_pos_site_id
 _symmetry_equiv_pos_as_xyz
  1  'x, y, z'
loop_
 _atom_site_type_symbol
 _atom_site_label
 _atom_site_symmetry_multiplicity
 _atom_site_fract_x
 _atom_site_fract_y
 _atom_site_fract_z
 _atom_site_occupancy
  Li  Li0  1  0.000000  0.678141  0.750000  1
  Li  Li1  1  0.000000  0.321859  0.250000  1
  Cu  Cu2  1  0.500000  0.500000  0.000000  1
  Cu  Cu3  1  0.768044  0.000000  0.000000  1
  Cu  Cu4  1  0.768044  0.000000  0.500000  1
  Cu  Cu5  1  0.231956  0.000000  0.000000  1
  Cu  Cu6  1  0.231956  0.000000  0.500000  1
  Cu  Cu7  1  0.500000  0.500000  0.500000  1
  F  F8  1  0.500000  0.572547  0.250000  1
  F  F9  1  0.500000  0.427453  0.750000  1
  F  F10  1  0.500000  0.000000  0.000000  1
  F  F11  1  0.689882  0.671864  0.953884  1
  F  F12  1  0.689882  0.328136  0.046116  1
  F  F13  1  0.689882  0.671864  0.546116  1
  F  F14  1  0.689882  0.328136  0.453884  1
  F  F15  1  0.774124  0.057811  0.750000  1
  F  F16  1  0.774124  0.942189  0.250000  1
  F  F17  1  0.000000  0.833836  0.959258  1
  F  F18  1  0.000000  0.166164  0.040742  1
  F  F19  1  0.000000  0.833836  0.540742  1
  F  F20  1  0.000000  0.166164  0.459258  1
  F  F21  1  0.225876  0.942189  0.250000  1
  F  F22  1  0.225876  0.057811  0.750000  1
  F  F23  1  0.310118  0.671864  0.953884  1
  F  F24  1  0.310118  0.328136  0.046116  1
  F  F25  1  0.310118  0.671864  0.546116  1
  F  F26  1  0.310118  0.328136  0.453884  1
  F  F27  1  0.500000  0.000000  0.500000  1
