# generated using pymatgen
data_PtO3
_symmetry_space_group_name_H-M   'P 1'
_cell_length_a   4.92862987
_cell_length_b   5.02747828
_cell_length_c   7.21006471
_cell_angle_alpha   90.00000000
_cell_angle_beta   90.00000000
_cell_angle_gamma   90.00000000
_symmetry_Int_Tables_number   1
_chemical_formula_structural   PtO3
_chemical_formula_sum   'Pt4 O12'
_cell_volume   178.65516252
_cell_formula_units_Z   4
loop_
 _symmetry_equiv_pos_site_id
 _symmetry_equiv_pos_as_xyz
  1  'x, y, z'
loop_
 _atom_site_type_symbol
 _atom_site_label
 _atom_site_symmetry_multiplicity
 _atom_site_fract_x
 _atom_site_fract_y
 _atom_site_fract_z
 _atom_site_occupancy
  Pt  Pt0  1  0.000000  0.000000  0.000000  1
  Pt  Pt1  1  0.000000  0.000000  0.500000  1
  Pt  Pt2  1  0.500000  0.500000  0.000000  1
  Pt  Pt3  1  0.500000  0.500000  0.500000  1
  O  O4  1  0.850805  0.652285  0.078586  1
  O  O5  1  0.149195  0.347715  0.578586  1
  O  O6  1  0.840888  0.955314  0.750000  1
  O  O7  1  0.649195  0.152285  0.078586  1
  O  O8  1  0.340888  0.544686  0.250000  1
  O  O9  1  0.649195  0.152285  0.421414  1
  O  O10  1  0.350805  0.847715  0.921414  1
  O  O11  1  0.159112  0.044686  0.250000  1
  O  O12  1  0.659112  0.455314  0.750000  1
  O  O13  1  0.350805  0.847715  0.578586  1
  O  O14  1  0.149195  0.347715  0.921414  1
  O  O15  1  0.850805  0.652285  0.421414  1
