# generated using pymatgen
data_Li4(CuO2)3
_symmetry_space_group_name_H-M   'P 1'
_cell_length_a   7.99265541
_cell_length_b   7.99265541
_cell_length_c   7.36004817
_cell_angle_alpha   50.20239983
_cell_angle_beta   129.79760017
_cell_angle_gamma   117.43222331
_symmetry_Int_Tables_number   1
_chemical_formula_structural   Li4(CuO2)3
_chemical_formula_sum   'Li8 Cu6 O12'
_cell_volume   276.50898563
_cell_formula_units_Z   2
loop_
 _symmetry_equiv_pos_site_id
 _symmetry_equiv_pos_as_xyz
  1  'x, y, z'
loop_
 _atom_site_type_symbol
 _atom_site_label
 _atom_site_symmetry_multiplicity
 _atom_site_fract_x
 _atom_site_fract_y
 _atom_site_fract_z
 _atom_site_occupancy
  Li  Li0  1  0.980371  0.691982  0.480488  1
  Li  Li1  1  0.307154  0.692846  0.416533  1
  Li  Li2  1  0.308018  0.019629  0.480488  1
  Li  Li3  1  0.352727  0.293050  0.599486  1
  Li  Li4  1  0.651502  0.024508  0.409909  1
  Li  Li5  1  0.690805  0.309195  0.527616  1
  Li  Li6  1  0.706950  0.647273  0.599486  1
  Li  Li7  1  0.975492  0.348498  0.409909  1
  Cu  Cu8  1  0.172912  0.157572  0.954110  1
  Cu  Cu9  1  0.158146  0.515232  0.039213  1
  Cu  Cu10  1  0.516479  0.483521  0.961186  1
  Cu  Cu11  1  0.484768  0.841854  0.039213  1
  Cu  Cu12  1  0.842428  0.827088  0.954110  1
  Cu  Cu13  1  0.819843  0.180157  0.043291  1
  O  O14  1  0.265771  0.398612  0.702127  1
  O  O15  1  0.103404  0.896596  0.218460  1
  O  O16  1  0.076122  0.268750  0.292712  1
  O  O17  1  0.442769  0.218227  0.221538  1
  O  O18  1  0.403332  0.596668  0.300017  1
  O  O19  1  0.781773  0.557231  0.221538  1
  O  O20  1  0.249874  0.750126  0.790770  1
  O  O21  1  0.601388  0.734229  0.702127  1
  O  O22  1  0.556261  0.103134  0.780473  1
  O  O23  1  0.895785  0.104215  0.689755  1
  O  O24  1  0.896866  0.443739  0.780473  1
  O  O25  1  0.731250  0.923878  0.292712  1
