# generated using pymatgen
data_Li2NbCr3O8
_symmetry_space_group_name_H-M   'P 1'
_cell_length_a   8.53033003
_cell_length_b   8.53033003
_cell_length_c   8.53033003
_cell_angle_alpha   90.00000000
_cell_angle_beta   90.00000000
_cell_angle_gamma   90.00000000
_symmetry_Int_Tables_number   1
_chemical_formula_structural   Li2NbCr3O8
_chemical_formula_sum   'Li8 Nb4 Cr12 O32'
_cell_volume   620.72252035
_cell_formula_units_Z   4
loop_
 _symmetry_equiv_pos_site_id
 _symmetry_equiv_pos_as_xyz
  1  'x, y, z'
loop_
 _atom_site_type_symbol
 _atom_site_label
 _atom_site_symmetry_multiplicity
 _atom_site_fract_x
 _atom_site_fract_y
 _atom_site_fract_z
 _atom_site_occupancy
  Li  Li0  1  0.995513  0.995513  0.995513  1
  Li  Li1  1  0.254487  0.254487  0.254487  1
  Li  Li2  1  0.245513  0.745513  0.754487  1
  Li  Li3  1  0.504487  0.004487  0.495513  1
  Li  Li4  1  0.495513  0.504487  0.004487  1
  Li  Li5  1  0.754487  0.245513  0.745513  1
  Li  Li6  1  0.745513  0.754487  0.245513  1
  Li  Li7  1  0.004487  0.495513  0.504487  1
  Nb  Nb8  1  0.125000  0.875000  0.375000  1
  Nb  Nb9  1  0.375000  0.125000  0.875000  1
  Nb  Nb10  1  0.625000  0.625000  0.625000  1
  Nb  Nb11  1  0.875000  0.375000  0.125000  1
  Cr  Cr12  1  0.121466  0.128534  0.625000  1
  Cr  Cr13  1  0.125000  0.378534  0.871466  1
  Cr  Cr14  1  0.128534  0.625000  0.121466  1
  Cr  Cr15  1  0.371466  0.375000  0.621466  1
  Cr  Cr16  1  0.375000  0.621466  0.371466  1
  Cr  Cr17  1  0.378534  0.871466  0.125000  1
  Cr  Cr18  1  0.621466  0.371466  0.375000  1
  Cr  Cr19  1  0.625000  0.121466  0.128534  1
  Cr  Cr20  1  0.628534  0.875000  0.878534  1
  Cr  Cr21  1  0.871466  0.125000  0.378534  1
  Cr  Cr22  1  0.875000  0.878534  0.628534  1
  Cr  Cr23  1  0.878534  0.628534  0.875000  1
  O  O24  1  0.113595  0.111641  0.385774  1
  O  O25  1  0.114226  0.886405  0.611641  1
  O  O26  1  0.111239  0.611239  0.888761  1
  O  O27  1  0.138359  0.136405  0.864226  1
  O  O28  1  0.111641  0.385774  0.113595  1
  O  O29  1  0.138761  0.361239  0.638761  1
  O  O30  1  0.135774  0.638359  0.363595  1
  O  O31  1  0.136405  0.864226  0.138359  1
  O  O32  1  0.363595  0.135774  0.638359  1
  O  O33  1  0.364226  0.361641  0.863595  1
  O  O34  1  0.361239  0.638761  0.138761  1
  O  O35  1  0.388359  0.614226  0.613595  1
  O  O36  1  0.361641  0.863595  0.364226  1
  O  O37  1  0.388761  0.388761  0.388761  1
  O  O38  1  0.385774  0.113595  0.111641  1
  O  O39  1  0.386405  0.888359  0.885774  1
  O  O40  1  0.613595  0.388359  0.614226  1
  O  O41  1  0.614226  0.613595  0.388359  1
  O  O42  1  0.611239  0.888761  0.111239  1
  O  O43  1  0.638359  0.363595  0.135774  1
  O  O44  1  0.611641  0.114226  0.886405  1
  O  O45  1  0.638761  0.138761  0.361239  1
  O  O46  1  0.635774  0.861641  0.636405  1
  O  O47  1  0.636405  0.635774  0.861641  1
  O  O48  1  0.863595  0.364226  0.361641  1
  O  O49  1  0.864226  0.138359  0.136405  1
  O  O50  1  0.861239  0.861239  0.861239  1
  O  O51  1  0.888359  0.885774  0.386405  1
  O  O52  1  0.861641  0.636405  0.635774  1
  O  O53  1  0.888761  0.111239  0.611239  1
  O  O54  1  0.885774  0.386405  0.888359  1
  O  O55  1  0.886405  0.611641  0.114226  1
