# generated using pymatgen
data_Li6Cr3Co(PO4)6
_symmetry_space_group_name_H-M   'P 1'
_cell_length_a   8.48080850
_cell_length_b   8.51326309
_cell_length_c   8.51519018
_cell_angle_alpha   61.42202575
_cell_angle_beta   61.45099985
_cell_angle_gamma   61.44284680
_symmetry_Int_Tables_number   1
_chemical_formula_structural   Li6Cr3Co(PO4)6
_chemical_formula_sum   'Li6 Cr3 Co1 P6 O24'
_cell_volume   448.76771033
_cell_formula_units_Z   1
loop_
 _symmetry_equiv_pos_site_id
 _symmetry_equiv_pos_as_xyz
  1  'x, y, z'
loop_
 _atom_site_type_symbol
 _atom_site_label
 _atom_site_symmetry_multiplicity
 _atom_site_fract_x
 _atom_site_fract_y
 _atom_site_fract_z
 _atom_site_occupancy
  Li  Li0  1  0.976793  0.007628  0.998117  1
  Li  Li1  1  0.249813  0.650758  0.849349  1
  Li  Li2  1  0.524276  0.502623  0.494554  1
  Li  Li3  1  0.764192  0.344626  0.150005  1
  Li  Li4  1  0.343281  0.152719  0.765511  1
  Li  Li5  1  0.151979  0.767467  0.341842  1
  Cr  Cr6  1  0.859919  0.861984  0.856522  1
  Cr  Cr7  1  0.640332  0.643765  0.637751  1
  Cr  Cr8  1  0.357602  0.356087  0.355267  1
  Co  Co9  1  0.142061  0.144270  0.143615  1
  P  P10  1  0.955100  0.541765  0.249508  1
  P  P11  1  0.542167  0.249738  0.955098  1
  P  P12  1  0.249638  0.958470  0.538015  1
  P  P13  1  0.752526  0.040187  0.459423  1
  P  P14  1  0.457318  0.752586  0.036289  1
  P  P15  1  0.041909  0.462693  0.752960  1
  O  O16  1  0.870321  0.500015  0.711648  1
  O  O17  1  0.701356  0.879356  0.486188  1
  O  O18  1  0.956454  0.727480  0.077312  1
  O  O19  1  0.467334  0.705771  0.878070  1
  O  O20  1  0.762901  0.564653  0.408668  1
  O  O21  1  0.979115  0.377503  0.198266  1
  O  O22  1  0.734799  0.090921  0.934320  1
  O  O23  1  0.542326  0.422572  0.769827  1
  O  O24  1  0.407260  0.761688  0.562967  1
  O  O25  1  0.798255  0.013172  0.623281  1
  O  O26  1  0.920673  0.056929  0.264201  1
  O  O27  1  0.632093  0.787907  0.998767  1
  O  O28  1  0.377305  0.195868  0.983327  1
  O  O29  1  0.092322  0.936167  0.735093  1
  O  O30  1  0.195670  0.983055  0.376527  1
  O  O31  1  0.593318  0.237529  0.430154  1
  O  O32  1  0.430658  0.593533  0.232933  1
  O  O33  1  0.265960  0.923305  0.056345  1
  O  O34  1  0.032144  0.624062  0.793955  1
  O  O35  1  0.235460  0.429124  0.591577  1
  O  O36  1  0.515701  0.303726  0.116652  1
  O  O37  1  0.055940  0.268640  0.921296  1
  O  O38  1  0.306201  0.117522  0.510357  1
  O  O39  1  0.117530  0.511131  0.305441  1
