# generated using pymatgen
data_Li3VPCO7
_symmetry_space_group_name_H-M   'P 1'
_cell_length_a   6.62183024
_cell_length_b   8.52531410
_cell_length_c   9.96286363
_cell_angle_alpha   95.40383965
_cell_angle_beta   90.35729041
_cell_angle_gamma   90.34608439
_symmetry_Int_Tables_number   1
_chemical_formula_structural   Li3VPCO7
_chemical_formula_sum   'Li12 V4 P4 C4 O28'
_cell_volume   559.91240988
_cell_formula_units_Z   4
loop_
 _symmetry_equiv_pos_site_id
 _symmetry_equiv_pos_as_xyz
  1  'x, y, z'
loop_
 _atom_site_type_symbol
 _atom_site_label
 _atom_site_symmetry_multiplicity
 _atom_site_fract_x
 _atom_site_fract_y
 _atom_site_fract_z
 _atom_site_occupancy
  Li  Li0  1  0.739985  0.897891  0.392528  1
  Li  Li1  1  0.744495  0.904410  0.881024  1
  Li  Li2  1  0.516859  0.719873  0.133785  1
  Li  Li3  1  0.990019  0.722270  0.611734  1
  Li  Li4  1  0.514784  0.720693  0.612571  1
  Li  Li5  1  0.255361  0.654244  0.400234  1
  Li  Li6  1  0.464194  0.283634  0.377376  1
  Li  Li7  1  0.035174  0.283742  0.376663  1
  Li  Li8  1  0.469569  0.281512  0.872653  1
  Li  Li9  1  0.029023  0.279422  0.872265  1
  Li  Li10  1  0.251436  0.096774  0.115415  1
  Li  Li11  1  0.250850  0.102258  0.613128  1
  V  V12  1  0.991902  0.726029  0.145640  1
  V  V13  1  0.254521  0.670088  0.892090  1
  V  V14  1  0.749205  0.327443  0.102738  1
  V  V15  1  0.750747  0.329190  0.603760  1
  P  P16  1  0.749197  0.590926  0.360927  1
  P  P17  1  0.750684  0.588970  0.861919  1
  P  P18  1  0.250187  0.407260  0.140607  1
  P  P19  1  0.250458  0.414013  0.638970  1
  C  C20  1  0.246346  0.963971  0.349738  1
  C  C21  1  0.248856  0.964825  0.846843  1
  C  C22  1  0.747840  0.036722  0.154507  1
  C  C23  1  0.750354  0.035028  0.652174  1
  O  O24  1  0.251664  0.931083  0.471758  1
  O  O25  1  0.746287  0.890715  0.186031  1
  O  O26  1  0.250188  0.925887  0.970789  1
  O  O27  1  0.240142  0.849928  0.250666  1
  O  O28  1  0.750963  0.888587  0.678007  1
  O  O29  1  0.248713  0.850406  0.750548  1
  O  O30  1  0.939082  0.692221  0.403712  1
  O  O31  1  0.564306  0.690363  0.407614  1
  O  O32  1  0.935591  0.689412  0.922445  1
  O  O33  1  0.570760  0.693855  0.914379  1
  O  O34  1  0.250681  0.575220  0.088312  1
  O  O35  1  0.750478  0.568111  0.199918  1
  O  O36  1  0.251007  0.578547  0.589043  1
  O  O37  1  0.757339  0.570726  0.705434  1
  O  O38  1  0.250260  0.428687  0.295702  1
  O  O39  1  0.750348  0.424614  0.410017  1
  O  O40  1  0.250844  0.430515  0.797545  1
  O  O41  1  0.746718  0.422696  0.911366  1
  O  O42  1  0.066491  0.306919  0.083269  1
  O  O43  1  0.432184  0.308507  0.083626  1
  O  O44  1  0.432415  0.310027  0.587683  1
  O  O45  1  0.067883  0.308699  0.586480  1
  O  O46  1  0.746809  0.151271  0.249152  1
  O  O47  1  0.249214  0.109573  0.317280  1
  O  O48  1  0.751233  0.148354  0.750071  1
  O  O49  1  0.749066  0.069466  0.030393  1
  O  O50  1  0.248715  0.109910  0.819951  1
  O  O51  1  0.748576  0.074508  0.529524  1
