# generated using pymatgen
data_Na6CoO4
_symmetry_space_group_name_H-M   'P 1'
_cell_length_a   9.32449930
_cell_length_b   9.32449930
_cell_length_c   9.32449930
_cell_angle_alpha   109.47122063
_cell_angle_beta   109.47122063
_cell_angle_gamma   109.47122063
_symmetry_Int_Tables_number   1
_chemical_formula_structural   Na6CoO4
_chemical_formula_sum   'Na24 Co4 O16'
_cell_volume   624.10070200
_cell_formula_units_Z   4
loop_
 _symmetry_equiv_pos_site_id
 _symmetry_equiv_pos_as_xyz
  1  'x, y, z'
loop_
 _atom_site_type_symbol
 _atom_site_label
 _atom_site_symmetry_multiplicity
 _atom_site_fract_x
 _atom_site_fract_y
 _atom_site_fract_z
 _atom_site_occupancy
  Na  Na0  1  0.733470  0.462477  0.000000  1
  Na  Na1  1  0.733470  1.000000  0.462477  1
  Na  Na2  1  0.430699  0.215940  0.000000  1
  Na  Na3  1  0.430699  1.000000  0.215940  1
  Na  Na4  1  0.729008  0.266530  0.266530  1
  Na  Na5  1  0.784060  0.784060  0.214759  1
  Na  Na6  1  0.784060  0.214759  0.784060  1
  Na  Na7  1  0.215940  0.430699  1.000000  1
  Na  Na8  1  0.215940  1.000000  0.430699  1
  Na  Na9  1  0.537523  0.270992  0.537523  1
  Na  Na10  1  0.537523  0.537523  0.270992  1
  Na  Na11  1  0.462477  0.733470  1.000000  1
  Na  Na12  1  0.462477  1.000000  0.733470  1
  Na  Na13  1  0.785241  0.569301  0.569301  1
  Na  Na14  1  1.000000  0.430699  0.215940  1
  Na  Na15  1  1.000000  0.215940  0.430699  1
  Na  Na16  1  0.266530  0.729008  0.266530  1
  Na  Na17  1  0.266530  0.266530  0.729008  1
  Na  Na18  1  0.569301  0.785241  0.569301  1
  Na  Na19  1  0.569301  0.569301  0.785241  1
  Na  Na20  1  0.270992  0.537523  0.537523  1
  Na  Na21  1  1.000000  0.733470  0.462477  1
  Na  Na22  1  1.000000  0.462477  0.733470  1
  Na  Na23  1  0.214759  0.784060  0.784060  1
  Co  Co24  1  0.747238  1.000000  0.000000  1
  Co  Co25  1  0.252762  0.252762  0.252762  1
  Co  Co26  1  1.000000  0.747238  0.000000  1
  Co  Co27  1  1.000000  1.000000  0.747238  1
  O  O28  1  0.722102  0.209849  0.000000  1
  O  O29  1  0.722102  1.000000  0.209849  1
  O  O30  1  0.000000  0.000000  0.000000  1
  O  O31  1  0.500000  0.500000  0.000000  1
  O  O32  1  0.500000  1.000000  0.500000  1
  O  O33  1  0.487747  0.277898  0.277898  1
  O  O34  1  0.790151  0.512253  0.790151  1
  O  O35  1  0.790151  0.790151  0.512253  1
  O  O36  1  0.209849  0.722102  0.000000  1
  O  O37  1  0.209849  1.000000  0.722102  1
  O  O38  1  0.277898  0.487747  0.277898  1
  O  O39  1  0.277898  0.277898  0.487747  1
  O  O40  1  0.000000  0.722102  0.209849  1
  O  O41  1  1.000000  0.209849  0.722102  1
  O  O42  1  1.000000  0.500000  0.500000  1
  O  O43  1  0.512253  0.790151  0.790151  1
