# generated using pymatgen
data_Ce4Y2O11
_symmetry_space_group_name_H-M   'P 1'
_cell_length_a   3.85853787
_cell_length_b   3.85853787
_cell_length_c   16.35144588
_cell_angle_alpha   90.00000000
_cell_angle_beta   90.00000000
_cell_angle_gamma   90.00000000
_symmetry_Int_Tables_number   1
_chemical_formula_structural   Ce4Y2O11
_chemical_formula_sum   'Ce4 Y2 O11'
_cell_volume   243.44546810
_cell_formula_units_Z   1
loop_
 _symmetry_equiv_pos_site_id
 _symmetry_equiv_pos_as_xyz
  1  'x, y, z'
loop_
 _atom_site_type_symbol
 _atom_site_label
 _atom_site_symmetry_multiplicity
 _atom_site_fract_x
 _atom_site_fract_y
 _atom_site_fract_z
 _atom_site_occupancy
  Ce  Ce0  1  0.500000  0.000000  0.249411  1
  Ce  Ce1  1  0.000000  0.500000  0.416650  1
  Ce  Ce2  1  0.500000  0.000000  0.583350  1
  Ce  Ce3  1  0.000000  0.500000  0.750589  1
  Y  Y4  1  0.500000  0.000000  0.906808  1
  Y  Y5  1  0.000000  0.500000  0.093192  1
  O  O6  1  0.000000  0.000000  0.000000  1
  O  O7  1  0.500000  0.500000  0.153901  1
  O  O8  1  0.000000  0.000000  0.174490  1
  O  O9  1  0.000000  0.000000  0.336912  1
  O  O10  1  0.500000  0.500000  0.329084  1
  O  O11  1  0.500000  0.500000  0.500000  1
  O  O12  1  0.000000  0.000000  0.500000  1
  O  O13  1  0.500000  0.500000  0.670916  1
  O  O14  1  0.000000  0.000000  0.663088  1
  O  O15  1  0.500000  0.500000  0.846099  1
  O  O16  1  0.000000  0.000000  0.825510  1
