# generated using pymatgen
data_Na3Ni2P2(CO7)2
_symmetry_space_group_name_H-M   'P 1'
_cell_length_a   8.27328073
_cell_length_b   8.28453808
_cell_length_c   9.00944991
_cell_angle_alpha   90.97385375
_cell_angle_beta   91.10684413
_cell_angle_gamma   102.89364993
_symmetry_Int_Tables_number   1
_chemical_formula_structural   Na3Ni2P2(CO7)2
_chemical_formula_sum   'Na6 Ni4 P4 C4 O28'
_cell_volume   601.68438125
_cell_formula_units_Z   2
loop_
 _symmetry_equiv_pos_site_id
 _symmetry_equiv_pos_as_xyz
  1  'x, y, z'
loop_
 _atom_site_type_symbol
 _atom_site_label
 _atom_site_symmetry_multiplicity
 _atom_site_fract_x
 _atom_site_fract_y
 _atom_site_fract_z
 _atom_site_occupancy
  Na  Na0  1  0.381138  0.368133  0.247180  1
  Na  Na1  1  0.630771  0.129360  0.236860  1
  Na  Na2  1  0.108640  0.658739  0.256206  1
  Na  Na3  1  0.377396  0.865995  0.753269  1
  Na  Na4  1  0.619152  0.619389  0.760186  1
  Na  Na5  1  0.091886  0.141110  0.748369  1
  Ni  Ni6  1  0.983703  0.229943  0.350501  1
  Ni  Ni7  1  0.486701  0.730197  0.347444  1
  Ni  Ni8  1  0.017260  0.764170  0.647254  1
  Ni  Ni9  1  0.522335  0.265662  0.653970  1
  P  P10  1  0.764863  0.509074  0.429561  1
  P  P11  1  0.271612  0.022658  0.425745  1
  P  P12  1  0.732242  0.978361  0.572264  1
  P  P13  1  0.235467  0.485353  0.572112  1
  C  C14  1  0.516264  0.762416  0.079309  1
  C  C15  1  0.016190  0.272741  0.082369  1
  C  C16  1  0.987146  0.734580  0.917713  1
  C  C17  1  0.479464  0.233684  0.920593  1
  O  O18  1  0.968905  0.717285  0.053857  1
  O  O19  1  0.461363  0.213959  0.057048  1
  O  O20  1  0.402065  0.650884  0.139859  1
  O  O21  1  0.905028  0.155581  0.136443  1
  O  O22  1  0.613281  0.853995  0.177175  1
  O  O23  1  0.105598  0.370125  0.183022  1
  O  O24  1  0.328009  0.890607  0.329227  1
  O  O25  1  0.818542  0.376852  0.330499  1
  O  O26  1  0.630244  0.560940  0.331988  1
  O  O27  1  0.150875  0.090339  0.324775  1
  O  O28  1  0.801950  0.054901  0.427252  1
  O  O29  1  0.302582  0.554684  0.421116  1
  O  O30  1  0.915182  0.655580  0.461645  1
  O  O31  1  0.424826  0.168788  0.461939  1
  O  O32  1  0.585158  0.826023  0.537299  1
  O  O33  1  0.090172  0.334009  0.538153  1
  O  O34  1  0.194695  0.953622  0.572324  1
  O  O35  1  0.696979  0.442134  0.579643  1
  O  O36  1  0.863367  0.921411  0.670673  1
  O  O37  1  0.182596  0.620669  0.666587  1
  O  O38  1  0.665695  0.098044  0.675433  1
  O  O39  1  0.369007  0.431823  0.669714  1
  O  O40  1  0.893497  0.638926  0.820519  1
  O  O41  1  0.384272  0.142295  0.819436  1
  O  O42  1  0.594706  0.344989  0.863655  1
  O  O43  1  0.100383  0.849236  0.860625  1
  O  O44  1  0.529769  0.778899  0.942071  1
  O  O45  1  0.039179  0.291679  0.947119  1
