# generated using pymatgen
data_Fe3O5F
_symmetry_space_group_name_H-M   'P 1'
_cell_length_a   5.53528087
_cell_length_b   4.63895523
_cell_length_c   7.59296164
_cell_angle_alpha   90.00000000
_cell_angle_beta   94.56376976
_cell_angle_gamma   90.00000000
_symmetry_Int_Tables_number   1
_chemical_formula_structural   Fe3O5F
_chemical_formula_sum   'Fe6 O10 F2'
_cell_volume   194.35328471
_cell_formula_units_Z   2
loop_
 _symmetry_equiv_pos_site_id
 _symmetry_equiv_pos_as_xyz
  1  'x, y, z'
loop_
 _atom_site_type_symbol
 _atom_site_label
 _atom_site_symmetry_multiplicity
 _atom_site_fract_x
 _atom_site_fract_y
 _atom_site_fract_z
 _atom_site_occupancy
  Fe  Fe0  1  0.575326  0.479655  0.836688  1
  Fe  Fe1  1  0.908094  0.509770  0.163293  1
  Fe  Fe2  1  0.247503  0.513027  0.510346  1
  Fe  Fe3  1  0.091906  0.009770  0.836707  1
  Fe  Fe4  1  0.752497  0.013027  0.489654  1
  Fe  Fe5  1  0.424674  0.979655  0.163312  1
  O  O6  1  0.044584  0.191594  0.603106  1
  O  O7  1  0.380557  0.190740  0.948778  1
  O  O8  1  0.708855  0.196330  0.259516  1
  O  O9  1  0.878669  0.308393  0.931039  1
  O  O10  1  0.544085  0.308102  0.607140  1
  O  O11  1  0.291145  0.696330  0.740484  1
  O  O12  1  0.955416  0.691594  0.396894  1
  O  O13  1  0.619443  0.690740  0.051222  1
  O  O14  1  0.455915  0.808102  0.392860  1
  O  O15  1  0.121331  0.808393  0.068961  1
  F  F16  1  0.214749  0.302390  0.270496  1
  F  F17  1  0.785251  0.802390  0.729504  1
