# generated using pymatgen
data_Li3Fe4(BO3)4
_symmetry_space_group_name_H-M   'P 1'
_cell_length_a   5.23836651
_cell_length_b   5.26033912
_cell_length_c   10.03285480
_cell_angle_alpha   91.46550919
_cell_angle_beta   89.61809403
_cell_angle_gamma   119.80832748
_symmetry_Int_Tables_number   1
_chemical_formula_structural   Li3Fe4(BO3)4
_chemical_formula_sum   'Li3 Fe4 B4 O12'
_cell_volume   239.79919139
_cell_formula_units_Z   1
loop_
 _symmetry_equiv_pos_site_id
 _symmetry_equiv_pos_as_xyz
  1  'x, y, z'
loop_
 _atom_site_type_symbol
 _atom_site_label
 _atom_site_symmetry_multiplicity
 _atom_site_fract_x
 _atom_site_fract_y
 _atom_site_fract_z
 _atom_site_occupancy
  Li  Li0  1  0.022539  0.349921  0.337400  1
  Li  Li1  1  0.974624  0.326034  0.833757  1
  Li  Li2  1  0.989322  0.656053  0.095748  1
  Fe  Fe3  1  0.339040  0.326414  0.615501  1
  Fe  Fe4  1  0.311341  0.995106  0.868577  1
  Fe  Fe5  1  0.661229  0.991072  0.120932  1
  Fe  Fe6  1  0.675498  0.673410  0.370183  1
  B  B7  1  0.661315  0.666884  0.872835  1
  B  B8  1  0.664950  0.991694  0.623269  1
  B  B9  1  0.342427  0.999954  0.369971  1
  B  B10  1  0.334231  0.330712  0.124310  1
  O  O11  1  0.628769  0.726473  0.575058  1
  O  O12  1  0.668881  0.928409  0.908141  1
  O  O13  1  0.397112  0.426023  0.824967  1
  O  O14  1  0.420744  0.015893  0.658673  1
  O  O15  1  0.077073  0.340352  0.135493  1
  O  O16  1  0.940535  0.230991  0.640531  1
  O  O17  1  0.087711  0.739583  0.362859  1
  O  O18  1  0.908592  0.640343  0.887725  1
  O  O19  1  0.612971  0.028633  0.332327  1
  O  O20  1  0.603252  0.579223  0.159562  1
  O  O21  1  0.329512  0.075466  0.080892  1
  O  O22  1  0.337079  0.256872  0.414574  1
