# generated using pymatgen
data_U(Al2Cu)4
_symmetry_space_group_name_H-M   'P 1'
_cell_length_a   6.74375783
_cell_length_b   6.74375783
_cell_length_c   6.74375783
_cell_angle_alpha   98.12353785
_cell_angle_beta   98.12353785
_cell_angle_gamma   135.83892962
_symmetry_Int_Tables_number   1
_chemical_formula_structural   U(Al2Cu)4
_chemical_formula_sum   'U1 Al8 Cu4'
_cell_volume   197.99609198
_cell_formula_units_Z   1
loop_
 _symmetry_equiv_pos_site_id
 _symmetry_equiv_pos_as_xyz
  1  'x, y, z'
loop_
 _atom_site_type_symbol
 _atom_site_label
 _atom_site_symmetry_multiplicity
 _atom_site_fract_x
 _atom_site_fract_y
 _atom_site_fract_z
 _atom_site_occupancy
  U  U0  1  0.000000  0.000000  0.000000  1
  Al  Al1  1  1.000000  0.345710  0.345710  1
  Al  Al2  1  0.654290  1.000000  0.654290  1
  Al  Al3  1  0.345710  1.000000  0.345710  1
  Al  Al4  1  1.000000  0.654290  0.654290  1
  Al  Al5  1  0.500000  0.283103  0.783103  1
  Al  Al6  1  0.716897  0.500000  0.216897  1
  Al  Al7  1  0.283103  0.500000  0.783103  1
  Al  Al8  1  0.500000  0.716897  0.216897  1
  Cu  Cu9  1  1.000000  0.500000  0.000000  1
  Cu  Cu10  1  1.000000  1.000000  0.500000  1
  Cu  Cu11  1  0.500000  0.500000  0.500000  1
  Cu  Cu12  1  0.500000  1.000000  0.000000  1
