# generated using pymatgen
data_Fe6O7F5
_symmetry_space_group_name_H-M   'P 1'
_cell_length_a   4.76264536
_cell_length_b   4.76264536
_cell_length_c   9.11406999
_cell_angle_alpha   89.81261530
_cell_angle_beta   90.18738470
_cell_angle_gamma   94.03642040
_symmetry_Int_Tables_number   1
_chemical_formula_structural   Fe6O7F5
_chemical_formula_sum   'Fe6 O7 F5'
_cell_volume   206.21768395
_cell_formula_units_Z   1
loop_
 _symmetry_equiv_pos_site_id
 _symmetry_equiv_pos_as_xyz
  1  'x, y, z'
loop_
 _atom_site_type_symbol
 _atom_site_label
 _atom_site_symmetry_multiplicity
 _atom_site_fract_x
 _atom_site_fract_y
 _atom_site_fract_z
 _atom_site_occupancy
  Fe  Fe0  1  0.012319  0.998652  0.327335  1
  Fe  Fe1  1  0.973888  0.973888  0.000000  1
  Fe  Fe2  1  0.998652  0.012319  0.672665  1
  Fe  Fe3  1  0.472484  0.546024  0.174762  1
  Fe  Fe4  1  0.502650  0.502650  0.500000  1
  Fe  Fe5  1  0.546024  0.472484  0.825238  1
  O  O6  1  0.816922  0.180558  0.833804  1
  O  O7  1  0.692784  0.704839  0.343948  1
  O  O8  1  0.679150  0.679150  0.000000  1
  O  O9  1  0.704839  0.692784  0.656052  1
  O  O10  1  0.304434  0.315221  0.341703  1
  O  O11  1  0.315221  0.304434  0.658297  1
  O  O12  1  0.180558  0.816922  0.166196  1
  F  F13  1  0.797818  0.197064  0.167186  1
  F  F14  1  0.815376  0.194891  0.498230  1
  F  F15  1  0.294930  0.294930  0.000000  1
  F  F16  1  0.194891  0.815376  0.501770  1
  F  F17  1  0.197064  0.797818  0.832814  1
