# generated using pymatgen
data_HfO2
_symmetry_space_group_name_H-M   'P 1'
_cell_length_a   5.18420378
_cell_length_b   5.29677235
_cell_length_c   10.16892500
_cell_angle_alpha   90.00000000
_cell_angle_beta   90.00000000
_cell_angle_gamma   90.00000000
_symmetry_Int_Tables_number   1
_chemical_formula_structural   HfO2
_chemical_formula_sum   'Hf8 O16'
_cell_volume   279.23407640
_cell_formula_units_Z   8
loop_
 _symmetry_equiv_pos_site_id
 _symmetry_equiv_pos_as_xyz
  1  'x, y, z'
loop_
 _atom_site_type_symbol
 _atom_site_label
 _atom_site_symmetry_multiplicity
 _atom_site_fract_x
 _atom_site_fract_y
 _atom_site_fract_z
 _atom_site_occupancy
  Hf  Hf0  1  0.958737  0.342789  0.137946  1
  Hf  Hf1  1  0.541263  0.842789  0.137946  1
  Hf  Hf2  1  0.458737  0.342789  0.362054  1
  Hf  Hf3  1  0.041263  0.842789  0.362054  1
  Hf  Hf4  1  0.958737  0.157211  0.637946  1
  Hf  Hf5  1  0.541263  0.657211  0.637946  1
  Hf  Hf6  1  0.458737  0.157211  0.862054  1
  Hf  Hf7  1  0.041263  0.657211  0.862054  1
  O  O8  1  0.832426  0.667500  0.033559  1
  O  O9  1  0.667574  0.167500  0.033559  1
  O  O10  1  0.248913  0.087304  0.224333  1
  O  O11  1  0.251087  0.587304  0.224333  1
  O  O12  1  0.748913  0.087304  0.275667  1
  O  O13  1  0.751087  0.587304  0.275667  1
  O  O14  1  0.167574  0.167500  0.466441  1
  O  O15  1  0.332426  0.667500  0.466441  1
  O  O16  1  0.667574  0.332500  0.533559  1
  O  O17  1  0.832426  0.832500  0.533559  1
  O  O18  1  0.248913  0.412696  0.724333  1
  O  O19  1  0.251087  0.912696  0.724333  1
  O  O20  1  0.748913  0.412696  0.775667  1
  O  O21  1  0.751087  0.912696  0.775667  1
  O  O22  1  0.167574  0.332500  0.966441  1
  O  O23  1  0.332426  0.832500  0.966441  1
