# generated using pymatgen
data_Na5CrO4
_symmetry_space_group_name_H-M   'P 1'
_cell_length_a   10.47267285
_cell_length_b   10.58283971
_cell_length_c   10.67543335
_cell_angle_alpha   90.00000000
_cell_angle_beta   90.00000000
_cell_angle_gamma   90.00000000
_symmetry_Int_Tables_number   1
_chemical_formula_structural   Na5CrO4
_chemical_formula_sum   'Na40 Cr8 O32'
_cell_volume   1183.16487674
_cell_formula_units_Z   8
loop_
 _symmetry_equiv_pos_site_id
 _symmetry_equiv_pos_as_xyz
  1  'x, y, z'
loop_
 _atom_site_type_symbol
 _atom_site_label
 _atom_site_symmetry_multiplicity
 _atom_site_fract_x
 _atom_site_fract_y
 _atom_site_fract_z
 _atom_site_occupancy
  Na  Na0  1  0.893260  0.887808  0.834865  1
  Na  Na1  1  0.893260  0.387808  0.665135  1
  Na  Na2  1  0.887635  0.601516  0.143574  1
  Na  Na3  1  0.887635  0.101516  0.356426  1
  Na  Na4  1  0.880940  0.834240  0.396955  1
  Na  Na5  1  0.880940  0.334240  0.103045  1
  Na  Na6  1  0.876846  0.649048  0.592576  1
  Na  Na7  1  0.876846  0.149048  0.907424  1
  Na  Na8  1  0.843349  0.618183  0.865784  1
  Na  Na9  1  0.843349  0.118183  0.634216  1
  Na  Na10  1  0.656651  0.118183  0.134216  1
  Na  Na11  1  0.656651  0.618183  0.365784  1
  Na  Na12  1  0.623154  0.649048  0.092576  1
  Na  Na13  1  0.623154  0.149048  0.407424  1
  Na  Na14  1  0.619060  0.334240  0.603045  1
  Na  Na15  1  0.619060  0.834240  0.896955  1
  Na  Na16  1  0.612365  0.601516  0.643574  1
  Na  Na17  1  0.612365  0.101516  0.856426  1
  Na  Na18  1  0.606740  0.387808  0.165135  1
  Na  Na19  1  0.606740  0.887808  0.334865  1
  Na  Na20  1  0.393260  0.112192  0.665135  1
  Na  Na21  1  0.393260  0.612192  0.834865  1
  Na  Na22  1  0.387635  0.898484  0.143574  1
  Na  Na23  1  0.387635  0.398484  0.356426  1
  Na  Na24  1  0.380940  0.665760  0.396955  1
  Na  Na25  1  0.380940  0.165760  0.103045  1
  Na  Na26  1  0.376846  0.850952  0.592576  1
  Na  Na27  1  0.376846  0.350952  0.907424  1
  Na  Na28  1  0.343349  0.381817  0.634216  1
  Na  Na29  1  0.343349  0.881817  0.865784  1
  Na  Na30  1  0.156651  0.381817  0.134216  1
  Na  Na31  1  0.156651  0.881817  0.365784  1
  Na  Na32  1  0.123154  0.850952  0.092576  1
  Na  Na33  1  0.123154  0.350952  0.407424  1
  Na  Na34  1  0.119060  0.165760  0.603045  1
  Na  Na35  1  0.119060  0.665760  0.896955  1
  Na  Na36  1  0.112365  0.898484  0.643574  1
  Na  Na37  1  0.112365  0.398484  0.856426  1
  Na  Na38  1  0.106740  0.112192  0.165135  1
  Na  Na39  1  0.106740  0.612192  0.334865  1
  Cr  Cr40  1  0.852705  0.875500  0.115057  1
  Cr  Cr41  1  0.852705  0.375500  0.384943  1
  Cr  Cr42  1  0.647295  0.375500  0.884943  1
  Cr  Cr43  1  0.647295  0.875500  0.615057  1
  Cr  Cr44  1  0.352705  0.624500  0.115057  1
  Cr  Cr45  1  0.352705  0.124500  0.384943  1
  Cr  Cr46  1  0.147295  0.624500  0.615057  1
  Cr  Cr47  1  0.147295  0.124500  0.884943  1
  O  O48  1  0.977298  0.944767  0.234980  1
  O  O49  1  0.977298  0.444767  0.265020  1
  O  O50  1  0.944620  0.762040  0.002177  1
  O  O51  1  0.944620  0.262040  0.497823  1
  O  O52  1  0.760516  0.979251  0.995174  1
  O  O53  1  0.760516  0.479251  0.504826  1
  O  O54  1  0.759720  0.764115  0.227029  1
  O  O55  1  0.759720  0.264115  0.272971  1
  O  O56  1  0.740280  0.764115  0.727029  1
  O  O57  1  0.740280  0.264115  0.772971  1
  O  O58  1  0.739484  0.479251  0.004826  1
  O  O59  1  0.739484  0.979251  0.495174  1
  O  O60  1  0.555380  0.762040  0.502177  1
  O  O61  1  0.555380  0.262040  0.997823  1
  O  O62  1  0.522702  0.444767  0.765020  1
  O  O63  1  0.522702  0.944767  0.734980  1
  O  O64  1  0.477298  0.055233  0.265020  1
  O  O65  1  0.477298  0.555233  0.234980  1
  O  O66  1  0.444620  0.737960  0.002177  1
  O  O67  1  0.444620  0.237960  0.497823  1
  O  O68  1  0.260516  0.020749  0.504826  1
  O  O69  1  0.260516  0.520749  0.995174  1
  O  O70  1  0.259720  0.735885  0.227029  1
  O  O71  1  0.259720  0.235885  0.272971  1
  O  O72  1  0.240280  0.735885  0.727029  1
  O  O73  1  0.240280  0.235885  0.772971  1
  O  O74  1  0.239484  0.020749  0.004826  1
  O  O75  1  0.239484  0.520749  0.495174  1
  O  O76  1  0.055380  0.237960  0.997823  1
  O  O77  1  0.055380  0.737960  0.502177  1
  O  O78  1  0.022702  0.055233  0.765020  1
  O  O79  1  0.022702  0.555233  0.734980  1
