# generated using pymatgen
data_Li2Cr2(SO4)3
_symmetry_space_group_name_H-M   'P 1'
_cell_length_a   8.11811397
_cell_length_b   8.11811397
_cell_length_c   9.27424527
_cell_angle_alpha   65.46000066
_cell_angle_beta   114.53999934
_cell_angle_gamma   115.50345818
_symmetry_Int_Tables_number   1
_chemical_formula_structural   Li2Cr2(SO4)3
_chemical_formula_sum   'Li4 Cr4 S6 O24'
_cell_volume   480.55121961
_cell_formula_units_Z   2
loop_
 _symmetry_equiv_pos_site_id
 _symmetry_equiv_pos_as_xyz
  1  'x, y, z'
loop_
 _atom_site_type_symbol
 _atom_site_label
 _atom_site_symmetry_multiplicity
 _atom_site_fract_x
 _atom_site_fract_y
 _atom_site_fract_z
 _atom_site_occupancy
  Li  Li0  1  0.136732  0.672695  0.549887  1
  Li  Li1  1  0.327305  0.863268  0.049887  1
  Li  Li2  1  0.672695  0.136732  0.950113  1
  Li  Li3  1  0.863268  0.327305  0.450113  1
  Cr  Cr4  1  0.132047  0.366518  0.980125  1
  Cr  Cr5  1  0.633482  0.867953  0.480125  1
  Cr  Cr6  1  0.366518  0.132047  0.519875  1
  Cr  Cr7  1  0.867953  0.633482  0.019875  1
  S  S8  1  0.454678  0.755147  0.824172  1
  S  S9  1  0.244853  0.545322  0.324172  1
  S  S10  1  0.053580  0.053580  0.750000  1
  S  S11  1  0.946420  0.946420  0.250000  1
  S  S12  1  0.755147  0.454678  0.675828  1
  S  S13  1  0.545322  0.244853  0.175828  1
  O  O14  1  0.042309  0.865456  0.884849  1
  O  O15  1  0.134544  0.957691  0.384849  1
  O  O16  1  0.496695  0.870251  0.930868  1
  O  O17  1  0.260382  0.610569  0.814927  1
  O  O18  1  0.440159  0.874482  0.646039  1
  O  O19  1  0.129749  0.503305  0.430868  1
  O  O20  1  0.090117  0.204670  0.816287  1
  O  O21  1  0.599755  0.663373  0.878464  1
  O  O22  1  0.389431  0.739618  0.314927  1
  O  O23  1  0.125518  0.559841  0.146039  1
  O  O24  1  0.795330  0.909883  0.316287  1
  O  O25  1  0.663373  0.599755  0.621536  1
  O  O26  1  0.336627  0.400245  0.378464  1
  O  O27  1  0.204670  0.090117  0.683713  1
  O  O28  1  0.874482  0.440159  0.853961  1
  O  O29  1  0.610569  0.260382  0.685073  1
  O  O30  1  0.400245  0.336627  0.121536  1
  O  O31  1  0.909883  0.795330  0.183713  1
  O  O32  1  0.870251  0.496695  0.569132  1
  O  O33  1  0.559841  0.125518  0.353961  1
  O  O34  1  0.739618  0.389431  0.185073  1
  O  O35  1  0.503305  0.129749  0.069132  1
  O  O36  1  0.865456  0.042309  0.615151  1
  O  O37  1  0.957691  0.134544  0.115151  1
