# generated using pymatgen
data_Li2TiFe2O5
_symmetry_space_group_name_H-M   'P 1'
_cell_length_a   4.33269887
_cell_length_b   5.07492856
_cell_length_c   9.59739031
_cell_angle_alpha   92.34835610
_cell_angle_beta   90.01160498
_cell_angle_gamma   115.15652639
_symmetry_Int_Tables_number   1
_chemical_formula_structural   Li2TiFe2O5
_chemical_formula_sum   'Li4 Ti2 Fe4 O10'
_cell_volume   190.81598267
_cell_formula_units_Z   2
loop_
 _symmetry_equiv_pos_site_id
 _symmetry_equiv_pos_as_xyz
  1  'x, y, z'
loop_
 _atom_site_type_symbol
 _atom_site_label
 _atom_site_symmetry_multiplicity
 _atom_site_fract_x
 _atom_site_fract_y
 _atom_site_fract_z
 _atom_site_occupancy
  Li  Li0  1  0.307007  0.105348  0.901210  1
  Li  Li1  1  0.692993  0.894652  0.098790  1
  Li  Li2  1  0.095107  0.694784  0.298344  1
  Li  Li3  1  0.904893  0.305216  0.701656  1
  Ti  Ti4  1  0.356497  0.288420  0.194120  1
  Ti  Ti5  1  0.643503  0.711580  0.805880  1
  Fe  Fe6  1  0.000000  0.500000  0.000000  1
  Fe  Fe7  1  0.500000  0.500000  0.500000  1
  Fe  Fe8  1  0.208332  0.917444  0.605669  1
  Fe  Fe9  1  0.791668  0.082556  0.394331  1
  O  O10  1  0.500000  0.500000  0.000000  1
  O  O11  1  0.782871  0.074864  0.898539  1
  O  O12  1  0.217129  0.925136  0.101461  1
  O  O13  1  0.593500  0.675583  0.291038  1
  O  O14  1  0.922889  0.298037  0.195375  1
  O  O15  1  0.305862  0.104701  0.378339  1
  O  O16  1  0.000000  0.500000  0.500000  1
  O  O17  1  0.406500  0.324417  0.708962  1
  O  O18  1  0.694138  0.895299  0.621661  1
  O  O19  1  0.077111  0.701963  0.804625  1
