# generated using pymatgen
data_LiFe2(BO3)2
_symmetry_space_group_name_H-M   'P 1'
_cell_length_a   5.25419327
_cell_length_b   9.13929601
_cell_length_c   10.10471996
_cell_angle_alpha   91.11798927
_cell_angle_beta   90.02741258
_cell_angle_gamma   90.04609398
_symmetry_Int_Tables_number   1
_chemical_formula_structural   LiFe2(BO3)2
_chemical_formula_sum   'Li4 Fe8 B8 O24'
_cell_volume   485.13230299
_cell_formula_units_Z   4
loop_
 _symmetry_equiv_pos_site_id
 _symmetry_equiv_pos_as_xyz
  1  'x, y, z'
loop_
 _atom_site_type_symbol
 _atom_site_label
 _atom_site_symmetry_multiplicity
 _atom_site_fract_x
 _atom_site_fract_y
 _atom_site_fract_z
 _atom_site_occupancy
  Li  Li0  1  0.846944  0.172045  0.355018  1
  Li  Li1  1  0.664248  0.319385  0.089458  1
  Li  Li2  1  0.344927  0.681047  0.337997  1
  Li  Li3  1  0.311351  0.673716  0.834074  1
  Fe  Fe4  1  0.852124  0.839916  0.375522  1
  Fe  Fe5  1  0.818395  0.488321  0.859935  1
  Fe  Fe6  1  0.672249  0.986234  0.119177  1
  Fe  Fe7  1  0.677075  0.662772  0.619926  1
  Fe  Fe8  1  0.349228  0.341486  0.375976  1
  Fe  Fe9  1  0.313536  0.005534  0.871291  1
  Fe  Fe10  1  0.165888  0.164900  0.629025  1
  Fe  Fe11  1  0.165435  0.499982  0.119727  1
  B  B12  1  0.837228  0.502450  0.367884  1
  B  B13  1  0.828187  0.827797  0.873528  1
  B  B14  1  0.663458  0.999513  0.619468  1
  B  B15  1  0.671467  0.658806  0.127924  1
  B  B16  1  0.339441  0.003173  0.367525  1
  B  B17  1  0.329365  0.338332  0.876874  1
  B  B18  1  0.171948  0.493304  0.622767  1
  B  B19  1  0.171019  0.167261  0.123847  1
  O  O20  1  0.915139  0.505859  0.653045  1
  O  O21  1  0.911149  0.153174  0.138274  1
  O  O22  1  0.791296  0.789160  0.161632  1
  O  O23  1  0.752313  0.862156  0.578660  1
  O  O24  1  0.820085  0.117400  0.610249  1
  O  O25  1  0.809385  0.535932  0.086130  1
  O  O26  1  0.720068  0.370102  0.356375  1
  O  O27  1  0.685823  0.943119  0.927421  1
  O  O28  1  0.704159  0.626834  0.414969  1
  O  O29  1  0.688717  0.705105  0.824522  1
  O  O30  1  0.583803  0.329837  0.897371  1
  O  O31  1  0.594125  0.013120  0.321838  1
  O  O32  1  0.412604  0.012611  0.661841  1
  O  O33  1  0.413577  0.647016  0.141660  1
  O  O34  1  0.290088  0.302299  0.153791  1
  O  O35  1  0.266750  0.360622  0.577771  1
  O  O36  1  0.328630  0.611662  0.640754  1
  O  O37  1  0.324388  0.054128  0.081461  1
  O  O38  1  0.198547  0.469102  0.916162  1
  O  O39  1  0.221757  0.871220  0.370006  1
  O  O40  1  0.213665  0.131081  0.409645  1
  O  O41  1  0.188982  0.221548  0.824659  1
  O  O42  1  0.085490  0.831085  0.868434  1
  O  O43  1  0.092582  0.518272  0.327513  1
