# generated using pymatgen
data_V3Cr3(TeO8)2
_symmetry_space_group_name_H-M   'P 1'
_cell_length_a   5.98350224
_cell_length_b   6.01294177
_cell_length_c   9.24748252
_cell_angle_alpha   90.24807711
_cell_angle_beta   90.89412004
_cell_angle_gamma   119.70592703
_symmetry_Int_Tables_number   1
_chemical_formula_structural   V3Cr3(TeO8)2
_chemical_formula_sum   'V3 Cr3 Te2 O16'
_cell_volume   288.92235703
_cell_formula_units_Z   1
loop_
 _symmetry_equiv_pos_site_id
 _symmetry_equiv_pos_as_xyz
  1  'x, y, z'
loop_
 _atom_site_type_symbol
 _atom_site_label
 _atom_site_symmetry_multiplicity
 _atom_site_fract_x
 _atom_site_fract_y
 _atom_site_fract_z
 _atom_site_occupancy
  V  V0  1  0.661007  0.829764  0.223739  1
  V  V1  1  0.834291  0.663945  0.715065  1
  V  V2  1  0.823960  0.170681  0.716815  1
  Cr  Cr3  1  0.173345  0.831326  0.207657  1
  Cr  Cr4  1  0.173103  0.341516  0.207842  1
  Cr  Cr5  1  0.340787  0.173672  0.705178  1
  Te  Te6  1  0.326112  0.663963  0.489425  1
  Te  Te7  1  0.661053  0.330403  0.991360  1
  O  O8  1  0.172142  0.829130  0.594702  1
  O  O9  1  0.046588  0.524736  0.338786  1
  O  O10  1  0.355749  0.677124  0.109045  1
  O  O11  1  0.990959  0.996127  0.298412  1
  O  O12  1  0.998734  0.014219  0.796244  1
  O  O13  1  0.167717  0.345323  0.593172  1
  O  O14  1  0.480439  0.954809  0.346627  1
  O  O15  1  0.483244  0.524724  0.347564  1
  O  O16  1  0.341425  0.168942  0.095588  1
  O  O17  1  0.648219  0.824701  0.597924  1
  O  O18  1  0.519047  0.473167  0.844382  1
  O  O19  1  0.524146  0.044020  0.841523  1
  O  O20  1  0.679023  0.329040  0.607365  1
  O  O21  1  0.822684  0.650416  0.098855  1
  O  O22  1  0.953970  0.468934  0.849443  1
  O  O23  1  0.822257  0.169524  0.099006  1
