# generated using pymatgen
data_Li2CuSbO5
_symmetry_space_group_name_H-M   'P 1'
_cell_length_a   5.14207856
_cell_length_b   5.57080833
_cell_length_c   7.85229371
_cell_angle_alpha   103.68135012
_cell_angle_beta   100.97711328
_cell_angle_gamma   106.23197063
_symmetry_Int_Tables_number   1
_chemical_formula_structural   Li2CuSbO5
_chemical_formula_sum   'Li4 Cu2 Sb2 O10'
_cell_volume   201.74948392
_cell_formula_units_Z   2
loop_
 _symmetry_equiv_pos_site_id
 _symmetry_equiv_pos_as_xyz
  1  'x, y, z'
loop_
 _atom_site_type_symbol
 _atom_site_label
 _atom_site_symmetry_multiplicity
 _atom_site_fract_x
 _atom_site_fract_y
 _atom_site_fract_z
 _atom_site_occupancy
  Li  Li0  1  0.210846  0.899529  0.352660  1
  Li  Li1  1  0.411602  0.297670  0.809851  1
  Li  Li2  1  0.593527  0.706897  0.217138  1
  Li  Li3  1  0.770760  0.095826  0.605546  1
  Cu  Cu4  1  0.016486  0.511782  0.006177  1
  Cu  Cu5  1  0.697536  0.907446  0.909818  1
  Sb  Sb6  1  0.089847  0.685959  0.692017  1
  Sb  Sb7  1  0.890451  0.297407  0.299265  1
  O  O8  1  0.008453  0.009939  0.811880  1
  O  O9  1  0.335626  0.655081  0.920218  1
  O  O10  1  0.135187  0.345127  0.548980  1
  O  O11  1  0.212045  0.523696  0.229258  1
  O  O12  1  0.462925  0.924232  0.702277  1
  O  O13  1  0.579971  0.081258  0.357835  1
  O  O14  1  0.795349  0.474998  0.778793  1
  O  O15  1  0.889156  0.668958  0.445123  1
  O  O16  1  0.696086  0.351573  0.068589  1
  O  O17  1  0.907286  0.952894  0.145713  1
