# generated using pymatgen
data_Li2Cr2CoO6
_symmetry_space_group_name_H-M   'P 1'
_cell_length_a   6.70649255
_cell_length_b   6.70649255
_cell_length_c   5.88466833
_cell_angle_alpha   75.70019264
_cell_angle_beta   104.29980736
_cell_angle_gamma   154.96652897
_symmetry_Int_Tables_number   1
_chemical_formula_structural   Li2Cr2CoO6
_chemical_formula_sum   'Li2 Cr2 Co1 O6'
_cell_volume   108.35265848
_cell_formula_units_Z   1
loop_
 _symmetry_equiv_pos_site_id
 _symmetry_equiv_pos_as_xyz
  1  'x, y, z'
loop_
 _atom_site_type_symbol
 _atom_site_label
 _atom_site_symmetry_multiplicity
 _atom_site_fract_x
 _atom_site_fract_y
 _atom_site_fract_z
 _atom_site_occupancy
  Li  Li0  1  0.349188  0.650812  0.691527  1
  Li  Li1  1  0.650812  0.349188  0.308473  1
  Cr  Cr2  1  0.337235  0.662765  0.164262  1
  Cr  Cr3  1  0.662765  0.337235  0.835738  1
  Co  Co4  1  0.000000  1.000000  0.500000  1
  O  O5  1  0.849864  0.150136  0.408369  1
  O  O6  1  0.504399  0.495601  0.710825  1
  O  O7  1  0.495601  0.504399  0.289175  1
  O  O8  1  0.178594  0.821406  0.076942  1
  O  O9  1  0.150136  0.849864  0.591631  1
  O  O10  1  0.821406  0.178594  0.923058  1
