# generated using pymatgen
data_LiCrSiO4
_symmetry_space_group_name_H-M   'P 1'
_cell_length_a   5.75953477
_cell_length_b   5.75953477
_cell_length_c   5.75953477
_cell_angle_alpha   122.41369345
_cell_angle_beta   117.92800004
_cell_angle_gamma   89.74845818
_symmetry_Int_Tables_number   1
_chemical_formula_structural   LiCrSiO4
_chemical_formula_sum   'Li2 Cr2 Si2 O8'
_cell_volume   134.48759267
_cell_formula_units_Z   2
loop_
 _symmetry_equiv_pos_site_id
 _symmetry_equiv_pos_as_xyz
  1  'x, y, z'
loop_
 _atom_site_type_symbol
 _atom_site_label
 _atom_site_symmetry_multiplicity
 _atom_site_fract_x
 _atom_site_fract_y
 _atom_site_fract_z
 _atom_site_occupancy
  Li  Li0  1  0.629028  0.879028  0.250000  1
  Li  Li1  1  0.370972  0.120972  0.750000  1
  Cr  Cr2  1  0.000000  0.500000  0.000000  1
  Cr  Cr3  1  0.500000  0.500000  0.500000  1
  Si  Si4  1  0.000000  0.500000  0.500000  1
  Si  Si5  1  0.000000  0.000000  0.000000  1
  O  O6  1  0.782063  0.770016  0.987952  1
  O  O7  1  0.782063  0.294111  0.512048  1
  O  O8  1  0.203379  0.746626  0.956753  1
  O  O9  1  0.789872  0.746626  0.543247  1
  O  O10  1  0.210128  0.253374  0.456753  1
  O  O11  1  0.796621  0.253374  0.043247  1
  O  O12  1  0.217937  0.229984  0.012048  1
  O  O13  1  0.217937  0.705889  0.487952  1
