# generated using pymatgen
data_Li4V3CrO8
_symmetry_space_group_name_H-M   'P 1'
_cell_length_a   5.16193304
_cell_length_b   5.22475855
_cell_length_c   5.97065314
_cell_angle_alpha   90.43369692
_cell_angle_beta   106.50046729
_cell_angle_gamma   98.82119943
_symmetry_Int_Tables_number   1
_chemical_formula_structural   Li4V3CrO8
_chemical_formula_sum   'Li4 V3 Cr1 O8'
_cell_volume   152.34759617
_cell_formula_units_Z   1
loop_
 _symmetry_equiv_pos_site_id
 _symmetry_equiv_pos_as_xyz
  1  'x, y, z'
loop_
 _atom_site_type_symbol
 _atom_site_label
 _atom_site_symmetry_multiplicity
 _atom_site_fract_x
 _atom_site_fract_y
 _atom_site_fract_z
 _atom_site_occupancy
  Li  Li0  1  0.997493  0.756255  0.622674  1
  Li  Li1  1  0.001186  0.245902  0.873632  1
  Li  Li2  1  0.998814  0.754098  0.126368  1
  Li  Li3  1  0.002507  0.243745  0.377326  1
  V  V4  1  0.499066  0.500401  0.749162  1
  V  V5  1  0.500000  0.000000  0.000000  1
  V  V6  1  0.500934  0.499599  0.250838  1
  Cr  Cr7  1  0.500000  0.000000  0.500000  1
  O  O8  1  0.728529  0.878274  0.805632  1
  O  O9  1  0.269697  0.126786  0.687694  1
  O  O10  1  0.724623  0.370770  0.054971  1
  O  O11  1  0.275377  0.629230  0.945029  1
  O  O12  1  0.730303  0.873214  0.312306  1
  O  O13  1  0.271471  0.121726  0.194368  1
  O  O14  1  0.722124  0.368919  0.555013  1
  O  O15  1  0.277876  0.631081  0.444987  1
