# generated using pymatgen
data_Na4Mn2C4SO16
_symmetry_space_group_name_H-M   'P 1'
_cell_length_a   10.08079810
_cell_length_b   9.87035352
_cell_length_c   9.84091793
_cell_angle_alpha   61.51711207
_cell_angle_beta   59.38521156
_cell_angle_gamma   59.09767637
_symmetry_Int_Tables_number   1
_chemical_formula_structural   Na4Mn2C4SO16
_chemical_formula_sum   'Na8 Mn4 C8 S2 O32'
_cell_volume   691.63804765
_cell_formula_units_Z   2
loop_
 _symmetry_equiv_pos_site_id
 _symmetry_equiv_pos_as_xyz
  1  'x, y, z'
loop_
 _atom_site_type_symbol
 _atom_site_label
 _atom_site_symmetry_multiplicity
 _atom_site_fract_x
 _atom_site_fract_y
 _atom_site_fract_z
 _atom_site_occupancy
  Na  Na0  1  0.454086  0.454086  0.045914  1
  Na  Na1  1  0.040167  0.459833  0.459833  1
  Na  Na2  1  0.790167  0.209833  0.209833  1
  Na  Na3  1  0.204086  0.204086  0.795914  1
  Na  Na4  1  0.045914  0.045914  0.454086  1
  Na  Na5  1  0.459833  0.040167  0.040167  1
  Na  Na6  1  0.209833  0.790167  0.790167  1
  Na  Na7  1  0.795914  0.795914  0.204086  1
  Mn  Mn8  1  0.625000  0.125000  0.625000  1
  Mn  Mn9  1  0.625000  0.625000  0.625000  1
  Mn  Mn10  1  0.625000  0.625000  0.125000  1
  Mn  Mn11  1  0.125000  0.625000  0.625000  1
  C  C12  1  0.413008  0.398168  0.419898  1
  C  C13  1  0.398168  0.413008  0.768926  1
  C  C14  1  0.830102  0.481074  0.836992  1
  C  C15  1  0.768926  0.419898  0.398168  1
  C  C16  1  0.481074  0.830102  0.851832  1
  C  C17  1  0.419898  0.768926  0.413008  1
  C  C18  1  0.851832  0.836992  0.481074  1
  C  C19  1  0.836992  0.851832  0.830102  1
  S  S20  1  0.000000  0.000000  1.000000  1
  S  S21  1  0.250000  0.250000  0.250000  1
  O  O22  1  0.265679  0.513190  0.447500  1
  O  O23  1  0.419570  0.523286  0.780690  1
  O  O24  1  0.523286  0.419570  0.276454  1
  O  O25  1  0.710867  0.491159  0.810417  1
  O  O26  1  0.758841  0.539133  0.262443  1
  O  O27  1  0.513190  0.265679  0.773630  1
  O  O28  1  0.802500  0.476370  0.984321  1
  O  O29  1  0.773630  0.447500  0.513190  1
  O  O30  1  0.973546  0.469310  0.726714  1
  O  O31  1  0.780690  0.276454  0.419570  1
  O  O32  1  0.815389  0.062306  0.065904  1
  O  O33  1  0.187694  0.434611  0.193599  1
  O  O34  1  0.262443  0.439583  0.758841  1
  O  O35  1  0.810417  0.987557  0.710867  1
  O  O36  1  0.056401  0.065904  0.062306  1
  O  O37  1  0.065904  0.056401  0.815389  1
  O  O38  1  0.184096  0.193599  0.434611  1
  O  O39  1  0.193599  0.184096  0.187694  1
  O  O40  1  0.439583  0.262443  0.539133  1
  O  O41  1  0.987557  0.810417  0.491159  1
  O  O42  1  0.062306  0.815389  0.056401  1
  O  O43  1  0.434611  0.187694  0.184096  1
  O  O44  1  0.469310  0.973546  0.830430  1
  O  O45  1  0.276454  0.780690  0.523286  1
  O  O46  1  0.476370  0.802500  0.736810  1
  O  O47  1  0.447500  0.773630  0.265679  1
  O  O48  1  0.736810  0.984321  0.476370  1
  O  O49  1  0.491159  0.710867  0.987557  1
  O  O50  1  0.539133  0.758841  0.439583  1
  O  O51  1  0.726714  0.830430  0.973546  1
  O  O52  1  0.830430  0.726714  0.469310  1
  O  O53  1  0.984321  0.736810  0.802500  1
