# generated using pymatgen
data_VF4
_symmetry_space_group_name_H-M   'P 1'
_cell_length_a   7.78395656
_cell_length_b   8.19264215
_cell_length_c   9.98305705
_cell_angle_alpha   90.00000000
_cell_angle_beta   90.00000000
_cell_angle_gamma   90.00000000
_symmetry_Int_Tables_number   1
_chemical_formula_structural   VF4
_chemical_formula_sum   'V8 F32'
_cell_volume   636.63123432
_cell_formula_units_Z   8
loop_
 _symmetry_equiv_pos_site_id
 _symmetry_equiv_pos_as_xyz
  1  'x, y, z'
loop_
 _atom_site_type_symbol
 _atom_site_label
 _atom_site_symmetry_multiplicity
 _atom_site_fract_x
 _atom_site_fract_y
 _atom_site_fract_z
 _atom_site_occupancy
  V  V0  1  0.140422  0.053531  0.249090  1
  V  V1  1  0.140422  0.446469  0.249090  1
  V  V2  1  0.359578  0.553531  0.749090  1
  V  V3  1  0.359578  0.946469  0.749090  1
  V  V4  1  0.640422  0.053531  0.250910  1
  V  V5  1  0.640422  0.446469  0.250910  1
  V  V6  1  0.859578  0.553531  0.750910  1
  V  V7  1  0.859578  0.946469  0.750910  1
  F  F8  1  0.109718  0.938344  0.763115  1
  F  F9  1  0.109718  0.561656  0.763115  1
  F  F10  1  0.127677  0.572967  0.390820  1
  F  F11  1  0.127677  0.927033  0.390820  1
  F  F12  1  0.130708  0.250000  0.367539  1
  F  F13  1  0.149644  0.250000  0.130183  1
  F  F14  1  0.152416  0.571651  0.106371  1
  F  F15  1  0.152416  0.928349  0.106371  1
  F  F16  1  0.347584  0.071651  0.606371  1
  F  F17  1  0.347584  0.428349  0.606371  1
  F  F18  1  0.350356  0.750000  0.630183  1
  F  F19  1  0.369292  0.750000  0.867539  1
  F  F20  1  0.372323  0.072967  0.890820  1
  F  F21  1  0.372323  0.427033  0.890820  1
  F  F22  1  0.390282  0.061656  0.263115  1
  F  F23  1  0.390282  0.438344  0.263115  1
  F  F24  1  0.609718  0.561656  0.736885  1
  F  F25  1  0.609718  0.938344  0.736885  1
  F  F26  1  0.627677  0.572967  0.109180  1
  F  F27  1  0.627677  0.927033  0.109180  1
  F  F28  1  0.630708  0.250000  0.132461  1
  F  F29  1  0.649644  0.250000  0.369817  1
  F  F30  1  0.652416  0.571651  0.393629  1
  F  F31  1  0.652416  0.928349  0.393629  1
  F  F32  1  0.847584  0.071651  0.893629  1
  F  F33  1  0.847584  0.428349  0.893629  1
  F  F34  1  0.850356  0.750000  0.869817  1
  F  F35  1  0.869292  0.750000  0.632461  1
  F  F36  1  0.872323  0.072967  0.609180  1
  F  F37  1  0.872323  0.427033  0.609180  1
  F  F38  1  0.890282  0.061656  0.236885  1
  F  F39  1  0.890282  0.438344  0.236885  1
