# generated using pymatgen
data_Hf2N2O
_symmetry_space_group_name_H-M   'P 1'
_cell_length_a   8.72074215
_cell_length_b   8.72551543
_cell_length_c   8.73152215
_cell_angle_alpha   109.39531893
_cell_angle_beta   109.41691596
_cell_angle_gamma   109.50478564
_symmetry_Int_Tables_number   1
_chemical_formula_structural   Hf2N2O
_chemical_formula_sum   'Hf16 N16 O8'
_cell_volume   512.06980685
_cell_formula_units_Z   8
loop_
 _symmetry_equiv_pos_site_id
 _symmetry_equiv_pos_as_xyz
  1  'x, y, z'
loop_
 _atom_site_type_symbol
 _atom_site_label
 _atom_site_symmetry_multiplicity
 _atom_site_fract_x
 _atom_site_fract_y
 _atom_site_fract_z
 _atom_site_occupancy
  Hf  Hf0  1  0.512410  0.499817  0.501017  1
  Hf  Hf1  1  0.206250  0.749454  0.465203  1
  Hf  Hf2  1  0.963664  0.215283  0.249472  1
  Hf  Hf3  1  0.476352  0.719571  0.251127  1
  Hf  Hf4  1  0.294513  0.246095  0.034907  1
  Hf  Hf5  1  0.748344  0.965349  0.714957  1
  Hf  Hf6  1  0.253145  0.035280  0.285763  1
  Hf  Hf7  1  0.240829  0.530918  0.785429  1
  Hf  Hf8  1  0.982816  0.493048  0.995154  1
  Hf  Hf9  1  0.752553  0.471583  0.213275  1
  Hf  Hf10  1  0.000786  0.999086  0.488954  1
  Hf  Hf11  1  0.501684  0.999931  0.000409  1
  Hf  Hf12  1  0.718533  0.759064  0.969740  1
  Hf  Hf13  1  0.535214  0.281884  0.747824  1
  Hf  Hf14  1  0.026335  0.780273  0.751658  1
  Hf  Hf15  1  0.787894  0.249746  0.542281  1
  N  N16  1  0.768624  0.728376  0.734834  1
  N  N17  1  0.540055  0.511569  0.272129  1
  N  N18  1  0.956212  0.728434  0.473425  1
  N  N19  1  0.504664  0.766844  0.040057  1
  N  N20  1  0.737154  0.015628  0.966829  1
  N  N21  1  0.013331  0.465979  0.238362  1
  N  N22  1  0.048015  0.274394  0.534154  1
  N  N23  1  0.761601  0.229040  0.773328  1
  N  N24  1  0.726889  0.963661  0.456997  1
  N  N25  1  0.996550  0.538942  0.767889  1
  N  N26  1  0.969206  0.955735  0.226363  1
  N  N27  1  0.258946  0.987177  0.032552  1
  N  N28  1  0.487746  0.225706  0.954649  1
  N  N29  1  0.771659  0.547218  0.010817  1
  N  N30  1  0.273711  0.030204  0.542908  1
  N  N31  1  0.536422  0.266168  0.485247  1
  O  O32  1  0.228047  0.273189  0.264847  1
  O  O33  1  0.461419  0.738999  0.515048  1
  O  O34  1  0.279732  0.760555  0.725197  1
  O  O35  1  0.451072  0.488278  0.722000  1
  O  O36  1  0.245438  0.771864  0.230516  1
  O  O37  1  0.725095  0.233709  0.270870  1
  O  O38  1  0.034551  0.054972  0.779852  1
  O  O39  1  0.222544  0.446977  0.983962  1
