# generated using pymatgen
data_Li2MnCrO4
_symmetry_space_group_name_H-M   'P 1'
_cell_length_a   5.26732683
_cell_length_b   5.26732683
_cell_length_c   5.26732683
_cell_angle_alpha   134.37119757
_cell_angle_beta   134.37119757
_cell_angle_gamma   66.50880229
_symmetry_Int_Tables_number   1
_chemical_formula_structural   Li2MnCrO4
_chemical_formula_sum   'Li2 Mn1 Cr1 O4'
_cell_volume   73.49560220
_cell_formula_units_Z   1
loop_
 _symmetry_equiv_pos_site_id
 _symmetry_equiv_pos_as_xyz
  1  'x, y, z'
loop_
 _atom_site_type_symbol
 _atom_site_label
 _atom_site_symmetry_multiplicity
 _atom_site_fract_x
 _atom_site_fract_y
 _atom_site_fract_z
 _atom_site_occupancy
  Li  Li0  1  0.250000  0.750000  0.500000  1
  Li  Li1  1  0.500000  0.500000  0.000000  1
  Mn  Mn2  1  0.000000  0.000000  0.000000  1
  Cr  Cr3  1  0.750000  0.250000  0.500000  1
  O  O4  1  0.520747  0.020747  0.500000  1
  O  O5  1  0.229262  0.229262  0.000000  1
  O  O6  1  0.979253  0.479253  0.500000  1
  O  O7  1  0.770738  0.770738  0.000000  1
