# generated using pymatgen
data_LiSbCSO7
_symmetry_space_group_name_H-M   'P 1'
_cell_length_a   5.58055205
_cell_length_b   6.75729330
_cell_length_c   8.85400988
_cell_angle_alpha   90.00000000
_cell_angle_beta   93.50984540
_cell_angle_gamma   90.00000000
_symmetry_Int_Tables_number   1
_chemical_formula_structural   LiSbCSO7
_chemical_formula_sum   'Li2 Sb2 C2 S2 O14'
_cell_volume   333.25337887
_cell_formula_units_Z   2
loop_
 _symmetry_equiv_pos_site_id
 _symmetry_equiv_pos_as_xyz
  1  'x, y, z'
loop_
 _atom_site_type_symbol
 _atom_site_label
 _atom_site_symmetry_multiplicity
 _atom_site_fract_x
 _atom_site_fract_y
 _atom_site_fract_z
 _atom_site_occupancy
  Li  Li0  1  0.278441  0.491223  0.204575  1
  Li  Li1  1  0.721559  0.991223  0.795425  1
  Sb  Sb2  1  0.794002  0.744058  0.357904  1
  Sb  Sb3  1  0.205998  0.244058  0.642096  1
  C  C4  1  0.722833  0.742573  0.070512  1
  C  C5  1  0.277167  0.242573  0.929488  1
  S  S6  1  0.727856  0.256534  0.397775  1
  S  S7  1  0.272144  0.756534  0.602225  1
  O  O8  1  0.306147  0.280026  0.065095  1
  O  O9  1  0.939834  0.745018  0.148790  1
  O  O10  1  0.546600  0.702699  0.162563  1
  O  O11  1  0.785905  0.077593  0.308905  1
  O  O12  1  0.889891  0.417685  0.342984  1
  O  O13  1  0.211078  0.724176  0.434995  1
  O  O14  1  0.475215  0.316267  0.377436  1
  O  O15  1  0.524785  0.816267  0.622564  1
  O  O16  1  0.788922  0.224176  0.565005  1
  O  O17  1  0.110109  0.917685  0.657016  1
  O  O18  1  0.214095  0.577593  0.691095  1
  O  O19  1  0.453400  0.202699  0.837437  1
  O  O20  1  0.060166  0.245018  0.851210  1
  O  O21  1  0.693853  0.780026  0.934905  1
