# generated using pymatgen
data_Li2VF6
_symmetry_space_group_name_H-M   'P 1'
_cell_length_a   6.39442912
_cell_length_b   6.39442912
_cell_length_c   6.05561244
_cell_angle_alpha   90.00000000
_cell_angle_beta   90.00000000
_cell_angle_gamma   90.00000000
_symmetry_Int_Tables_number   1
_chemical_formula_structural   Li2VF6
_chemical_formula_sum   'Li4 V2 F12'
_cell_volume   247.60626404
_cell_formula_units_Z   2
loop_
 _symmetry_equiv_pos_site_id
 _symmetry_equiv_pos_as_xyz
  1  'x, y, z'
loop_
 _atom_site_type_symbol
 _atom_site_label
 _atom_site_symmetry_multiplicity
 _atom_site_fract_x
 _atom_site_fract_y
 _atom_site_fract_z
 _atom_site_occupancy
  Li  Li0  1  0.000000  0.500000  0.750000  1
  Li  Li1  1  0.000000  0.500000  0.250000  1
  Li  Li2  1  0.500000  0.000000  0.750000  1
  Li  Li3  1  0.500000  0.000000  0.250000  1
  V  V4  1  0.500000  0.500000  0.500000  1
  V  V5  1  0.000000  0.000000  0.000000  1
  F  F6  1  0.969614  0.698292  0.000000  1
  F  F7  1  0.801708  0.530386  0.500000  1
  F  F8  1  0.500000  0.500000  0.795702  1
  F  F9  1  0.500000  0.500000  0.204298  1
  F  F10  1  0.301708  0.969614  0.000000  1
  F  F11  1  0.469614  0.801708  0.500000  1
  F  F12  1  0.698292  0.030386  0.000000  1
  F  F13  1  0.530386  0.198292  0.500000  1
  F  F14  1  0.000000  0.000000  0.295702  1
  F  F15  1  0.000000  0.000000  0.704298  1
  F  F16  1  0.030386  0.301708  0.000000  1
  F  F17  1  0.198292  0.469614  0.500000  1
