# generated using pymatgen
data_LiV6O7F5
_symmetry_space_group_name_H-M   'P 1'
_cell_length_a   4.89723654
_cell_length_b   5.67184942
_cell_length_c   7.83643237
_cell_angle_alpha   84.69169944
_cell_angle_beta   88.27370409
_cell_angle_gamma   87.11504586
_symmetry_Int_Tables_number   1
_chemical_formula_structural   LiV6O7F5
_chemical_formula_sum   'Li1 V6 O7 F5'
_cell_volume   216.38858908
_cell_formula_units_Z   1
loop_
 _symmetry_equiv_pos_site_id
 _symmetry_equiv_pos_as_xyz
  1  'x, y, z'
loop_
 _atom_site_type_symbol
 _atom_site_label
 _atom_site_symmetry_multiplicity
 _atom_site_fract_x
 _atom_site_fract_y
 _atom_site_fract_z
 _atom_site_occupancy
  Li  Li0  1  0.498587  0.895317  0.104248  1
  V  V1  1  0.996569  0.005041  0.978833  1
  V  V2  1  0.440767  0.461239  0.995845  1
  V  V3  1  0.558880  0.209180  0.340643  1
  V  V4  1  0.524574  0.845730  0.670176  1
  V  V5  1  0.994787  0.661357  0.339698  1
  V  V6  1  0.988612  0.316086  0.671984  1
  O  O7  1  0.179318  0.295679  0.889385  1
  O  O8  1  0.309023  0.471036  0.239535  1
  O  O9  1  0.318565  0.799468  0.903624  1
  O  O10  1  0.686524  0.188640  0.091494  1
  O  O11  1  0.687766  0.880269  0.427350  1
  O  O12  1  0.805938  0.029400  0.755938  1
  O  O13  1  0.823549  0.384472  0.443638  1
  F  F14  1  0.180464  0.966263  0.224510  1
  F  F15  1  0.196300  0.635755  0.576888  1
  F  F16  1  0.315148  0.144014  0.565530  1
  F  F17  1  0.687309  0.523794  0.772114  1
  F  F18  1  0.808627  0.696126  0.096522  1
