# generated using pymatgen
data_LiCrSiO4
_symmetry_space_group_name_H-M   'P 1'
_cell_length_a   5.56573839
_cell_length_b   10.78364436
_cell_length_c   10.11209039
_cell_angle_alpha   90.00000000
_cell_angle_beta   91.20370330
_cell_angle_gamma   90.00000000
_symmetry_Int_Tables_number   1
_chemical_formula_structural   LiCrSiO4
_chemical_formula_sum   'Li8 Cr8 Si8 O32'
_cell_volume   606.78305053
_cell_formula_units_Z   8
loop_
 _symmetry_equiv_pos_site_id
 _symmetry_equiv_pos_as_xyz
  1  'x, y, z'
loop_
 _atom_site_type_symbol
 _atom_site_label
 _atom_site_symmetry_multiplicity
 _atom_site_fract_x
 _atom_site_fract_y
 _atom_site_fract_z
 _atom_site_occupancy
  Li  Li0  1  0.094624  0.158809  0.329183  1
  Li  Li1  1  0.094624  0.341191  0.829183  1
  Li  Li2  1  0.365185  0.617221  0.093510  1
  Li  Li3  1  0.365185  0.882779  0.593510  1
  Li  Li4  1  0.634815  0.117221  0.406490  1
  Li  Li5  1  0.634815  0.382779  0.906490  1
  Li  Li6  1  0.905376  0.658809  0.170817  1
  Li  Li7  1  0.905376  0.841191  0.670817  1
  Cr  Cr8  1  0.150771  0.877354  0.015829  1
  Cr  Cr9  1  0.150771  0.622646  0.515829  1
  Cr  Cr10  1  0.339876  0.408743  0.267916  1
  Cr  Cr11  1  0.339876  0.091257  0.767916  1
  Cr  Cr12  1  0.660124  0.908743  0.232084  1
  Cr  Cr13  1  0.660124  0.591257  0.732084  1
  Cr  Cr14  1  0.849229  0.377354  0.484171  1
  Cr  Cr15  1  0.849229  0.122646  0.984171  1
  Si  Si16  1  0.111599  0.897323  0.340559  1
  Si  Si17  1  0.111599  0.602677  0.840559  1
  Si  Si18  1  0.403996  0.143259  0.082578  1
  Si  Si19  1  0.403996  0.356741  0.582578  1
  Si  Si20  1  0.596004  0.643259  0.417422  1
  Si  Si21  1  0.596004  0.856741  0.917422  1
  Si  Si22  1  0.888401  0.397323  0.159441  1
  Si  Si23  1  0.888401  0.102677  0.659441  1
  O  O24  1  0.116263  0.798978  0.463231  1
  O  O25  1  0.111096  0.497193  0.142245  1
  O  O26  1  0.116263  0.701022  0.963231  1
  O  O27  1  0.111096  0.002807  0.642245  1
  O  O28  1  0.018560  0.835603  0.193392  1
  O  O29  1  0.160176  0.058606  0.066633  1
  O  O30  1  0.018560  0.664397  0.693392  1
  O  O31  1  0.160176  0.441394  0.566633  1
  O  O32  1  0.346763  0.248317  0.186402  1
  O  O33  1  0.368685  0.972063  0.330246  1
  O  O34  1  0.346763  0.251683  0.686402  1
  O  O35  1  0.368685  0.527937  0.830246  1
  O  O36  1  0.351185  0.570799  0.363076  1
  O  O37  1  0.500507  0.320169  0.431127  1
  O  O38  1  0.351185  0.929201  0.863076  1
  O  O39  1  0.500507  0.179831  0.931127  1
  O  O40  1  0.499493  0.820169  0.068873  1
  O  O41  1  0.648815  0.070799  0.136924  1
  O  O42  1  0.499493  0.679831  0.568873  1
  O  O43  1  0.648815  0.429201  0.636924  1
  O  O44  1  0.631315  0.472063  0.169754  1
  O  O45  1  0.653237  0.748317  0.313598  1
  O  O46  1  0.631315  0.027937  0.669754  1
  O  O47  1  0.653237  0.751683  0.813598  1
  O  O48  1  0.839824  0.558606  0.433367  1
  O  O49  1  0.981440  0.335603  0.306608  1
  O  O50  1  0.839824  0.941394  0.933367  1
  O  O51  1  0.981440  0.164397  0.806608  1
  O  O52  1  0.888904  0.997193  0.357755  1
  O  O53  1  0.883737  0.298978  0.036769  1
  O  O54  1  0.888904  0.502807  0.857755  1
  O  O55  1  0.883737  0.201022  0.536769  1
