# generated using pymatgen
data_P2H12N7Cl
_symmetry_space_group_name_H-M   'P 1'
_cell_length_a   5.92605414
_cell_length_b   7.47476634
_cell_length_c   11.04569638
_cell_angle_alpha   109.74741205
_cell_angle_beta   103.45261274
_cell_angle_gamma   91.17327542
_symmetry_Int_Tables_number   1
_chemical_formula_structural   P2H12N7Cl
_chemical_formula_sum   'P4 H24 N14 Cl2'
_cell_volume   445.23851085
_cell_formula_units_Z   2
loop_
 _symmetry_equiv_pos_site_id
 _symmetry_equiv_pos_as_xyz
  1  'x, y, z'
loop_
 _atom_site_type_symbol
 _atom_site_label
 _atom_site_symmetry_multiplicity
 _atom_site_fract_x
 _atom_site_fract_y
 _atom_site_fract_z
 _atom_site_occupancy
  P  P0  1  0.232749  0.738753  0.569928  1
  P  P1  1  0.400731  0.847194  0.806297  1
  P  P2  1  0.599269  0.152806  0.193703  1
  P  P3  1  0.767251  0.261247  0.430072  1
  H  H4  1  0.214790  0.689706  0.968774  1
  H  H5  1  0.187633  0.576754  0.855978  1
  H  H6  1  0.182524  0.090129  0.827306  1
  H  H7  1  0.154041  0.165392  0.497271  1
  H  H8  1  0.097172  0.379739  0.367426  1
  H  H9  1  0.250954  0.419623  0.599272  1
  H  H10  1  0.195163  0.796488  0.345978  1
  H  H11  1  0.475273  0.128481  0.845643  1
  H  H12  1  0.213319  0.245165  0.171494  1
  H  H13  1  0.384835  0.941754  0.405082  1
  H  H14  1  0.508436  0.480353  0.685750  1
  H  H15  1  0.235974  0.192687  0.036167  1
  H  H16  1  0.764026  0.807313  0.963833  1
  H  H17  1  0.491564  0.519647  0.314250  1
  H  H18  1  0.615165  0.058246  0.594918  1
  H  H19  1  0.786681  0.754835  0.828506  1
  H  H20  1  0.524727  0.871519  0.154357  1
  H  H21  1  0.804837  0.203512  0.654022  1
  H  H22  1  0.749046  0.580377  0.400728  1
  H  H23  1  0.902828  0.620261  0.632574  1
  H  H24  1  0.845959  0.834608  0.502729  1
  H  H25  1  0.817476  0.909871  0.172694  1
  H  H26  1  0.812367  0.423246  0.144022  1
  H  H27  1  0.785210  0.310294  0.031226  1
  N  N28  1  0.216878  0.701990  0.873713  1
  N  N29  1  0.050932  0.289664  0.449643  1
  N  N30  1  0.347362  0.036529  0.840503  1
  N  N31  1  0.334055  0.514539  0.640408  1
  N  N32  1  0.246474  0.858731  0.417365  1
  N  N33  1  0.366869  0.863608  0.654108  1
  N  N34  1  0.317771  0.195294  0.127959  1
  N  N35  1  0.682229  0.804706  0.872041  1
  N  N36  1  0.633131  0.136392  0.345892  1
  N  N37  1  0.753526  0.141269  0.582635  1
  N  N38  1  0.665945  0.485461  0.359592  1
  N  N39  1  0.652638  0.963471  0.159497  1
  N  N40  1  0.949068  0.710336  0.550357  1
  N  N41  1  0.783122  0.298010  0.126287  1
  Cl  Cl42  1  0.129072  0.663282  0.177424  1
  Cl  Cl43  1  0.870928  0.336718  0.822576  1
