# generated using pymatgen
data_LiFeF4
_symmetry_space_group_name_H-M   'P 1'
_cell_length_a   5.10281481
_cell_length_b   5.10281481
_cell_length_c   6.31381369
_cell_angle_alpha   90.00000000
_cell_angle_beta   90.00000000
_cell_angle_gamma   108.30715342
_symmetry_Int_Tables_number   1
_chemical_formula_structural   LiFeF4
_chemical_formula_sum   'Li2 Fe2 F8'
_cell_volume   156.08253953
_cell_formula_units_Z   2
loop_
 _symmetry_equiv_pos_site_id
 _symmetry_equiv_pos_as_xyz
  1  'x, y, z'
loop_
 _atom_site_type_symbol
 _atom_site_label
 _atom_site_symmetry_multiplicity
 _atom_site_fract_x
 _atom_site_fract_y
 _atom_site_fract_z
 _atom_site_occupancy
  Li  Li0  1  0.636849  0.363151  0.250000  1
  Li  Li1  1  0.363151  0.636849  0.750000  1
  Fe  Fe2  1  0.000000  0.000000  0.000000  1
  Fe  Fe3  1  0.000000  0.000000  0.500000  1
  F  F4  1  0.231135  0.206033  0.250000  1
  F  F5  1  0.206033  0.231135  0.750000  1
  F  F6  1  0.775218  0.224782  0.018454  1
  F  F7  1  0.775218  0.224782  0.481546  1
  F  F8  1  0.224782  0.775218  0.518454  1
  F  F9  1  0.224782  0.775218  0.981546  1
  F  F10  1  0.793967  0.768865  0.250000  1
  F  F11  1  0.768865  0.793967  0.750000  1
