# generated using pymatgen
data_LiBiP2O7
_symmetry_space_group_name_H-M   'P 1'
_cell_length_a   7.23047202
_cell_length_b   9.11778058
_cell_length_c   9.90393286
_cell_angle_alpha   90.00000000
_cell_angle_beta   105.24600317
_cell_angle_gamma   90.00000000
_symmetry_Int_Tables_number   1
_chemical_formula_structural   LiBiP2O7
_chemical_formula_sum   'Li4 Bi4 P8 O28'
_cell_volume   629.94599768
_cell_formula_units_Z   4
loop_
 _symmetry_equiv_pos_site_id
 _symmetry_equiv_pos_as_xyz
  1  'x, y, z'
loop_
 _atom_site_type_symbol
 _atom_site_label
 _atom_site_symmetry_multiplicity
 _atom_site_fract_x
 _atom_site_fract_y
 _atom_site_fract_z
 _atom_site_occupancy
  Li  Li0  1  0.709909  0.102578  0.406272  1
  Li  Li1  1  0.709909  0.397422  0.906272  1
  Li  Li2  1  0.290091  0.602578  0.093728  1
  Li  Li3  1  0.290091  0.897422  0.593728  1
  Bi  Bi4  1  0.725678  0.778382  0.007308  1
  Bi  Bi5  1  0.725678  0.721618  0.507308  1
  Bi  Bi6  1  0.274322  0.278382  0.492692  1
  Bi  Bi7  1  0.274322  0.221618  0.992692  1
  P  P8  1  0.945264  0.534120  0.276895  1
  P  P9  1  0.945264  0.965880  0.776895  1
  P  P10  1  0.436120  0.918657  0.207022  1
  P  P11  1  0.563880  0.418657  0.292978  1
  P  P12  1  0.436120  0.581343  0.707022  1
  P  P13  1  0.563880  0.081343  0.792978  1
  P  P14  1  0.054736  0.034120  0.223105  1
  P  P15  1  0.054736  0.465880  0.723105  1
  O  O16  1  0.922900  0.567001  0.121162  1
  O  O17  1  0.864020  0.959472  0.157256  1
  O  O18  1  0.910599  0.670643  0.357930  1
  O  O19  1  0.785144  0.409514  0.286178  1
  O  O20  1  0.922900  0.932999  0.621162  1
  O  O21  1  0.864020  0.540528  0.657256  1
  O  O22  1  0.910599  0.829357  0.857930  1
  O  O23  1  0.459615  0.779408  0.125595  1
  O  O24  1  0.562864  0.920849  0.359078  1
  O  O25  1  0.785144  0.090486  0.786178  1
  O  O26  1  0.469230  0.061251  0.136023  1
  O  O27  1  0.530770  0.561251  0.363977  1
  O  O28  1  0.437136  0.420849  0.140922  1
  O  O29  1  0.540385  0.279408  0.374405  1
  O  O30  1  0.459615  0.720592  0.625595  1
  O  O31  1  0.562864  0.579151  0.859078  1
  O  O32  1  0.469230  0.438749  0.636023  1
  O  O33  1  0.530770  0.938749  0.863977  1
  O  O34  1  0.214856  0.909514  0.213822  1
  O  O35  1  0.437136  0.079151  0.640922  1
  O  O36  1  0.540385  0.220592  0.874405  1
  O  O37  1  0.089401  0.170643  0.142070  1
  O  O38  1  0.135980  0.459472  0.342744  1
  O  O39  1  0.077100  0.067001  0.378838  1
  O  O40  1  0.214856  0.590486  0.713822  1
  O  O41  1  0.089401  0.329357  0.642070  1
  O  O42  1  0.135980  0.040528  0.842744  1
  O  O43  1  0.077100  0.432999  0.878838  1
