# generated using pymatgen
data_Na2SnBAsO7
_symmetry_space_group_name_H-M   'P 1'
_cell_length_a   5.52506566
_cell_length_b   6.94737977
_cell_length_c   9.51545982
_cell_angle_alpha   90.00000000
_cell_angle_beta   92.81370509
_cell_angle_gamma   90.00000000
_symmetry_Int_Tables_number   1
_chemical_formula_structural   Na2SnBAsO7
_chemical_formula_sum   'Na4 Sn2 B2 As2 O14'
_cell_volume   364.80801586
_cell_formula_units_Z   2
loop_
 _symmetry_equiv_pos_site_id
 _symmetry_equiv_pos_as_xyz
  1  'x, y, z'
loop_
 _atom_site_type_symbol
 _atom_site_label
 _atom_site_symmetry_multiplicity
 _atom_site_fract_x
 _atom_site_fract_y
 _atom_site_fract_z
 _atom_site_occupancy
  Na  Na0  1  0.764973  0.483350  0.177772  1
  Na  Na1  1  0.764973  0.016650  0.177772  1
  Na  Na2  1  0.235027  0.516650  0.822228  1
  Na  Na3  1  0.235027  0.983350  0.822228  1
  Sn  Sn4  1  0.224360  0.250000  0.337898  1
  Sn  Sn5  1  0.775640  0.750000  0.662102  1
  B  B6  1  0.277525  0.250000  0.073484  1
  B  B7  1  0.722475  0.750000  0.926516  1
  As  As8  1  0.271723  0.750000  0.431838  1
  As  As9  1  0.728277  0.250000  0.568162  1
  O  O10  1  0.689970  0.750000  0.062892  1
  O  O11  1  0.050240  0.250000  0.139701  1
  O  O12  1  0.470254  0.250000  0.182584  1
  O  O13  1  0.191428  0.944885  0.329862  1
  O  O14  1  0.191428  0.555115  0.329862  1
  O  O15  1  0.865279  0.250000  0.408732  1
  O  O16  1  0.585306  0.750000  0.467979  1
  O  O17  1  0.414694  0.250000  0.532021  1
  O  O18  1  0.134721  0.750000  0.591268  1
  O  O19  1  0.808572  0.444885  0.670138  1
  O  O20  1  0.808572  0.055115  0.670138  1
  O  O21  1  0.529746  0.750000  0.817416  1
  O  O22  1  0.949760  0.750000  0.860299  1
  O  O23  1  0.310030  0.250000  0.937108  1
