# generated using pymatgen
data_Ca3In2O6
_symmetry_space_group_name_H-M   'P 1'
_cell_length_a   3.26227713
_cell_length_b   11.04978120
_cell_length_c   16.75838883
_cell_angle_alpha   90.00000000
_cell_angle_beta   90.00000000
_cell_angle_gamma   90.00000000
_symmetry_Int_Tables_number   1
_chemical_formula_structural   Ca3In2O6
_chemical_formula_sum   'Ca12 In8 O24'
_cell_volume   604.09715732
_cell_formula_units_Z   4
loop_
 _symmetry_equiv_pos_site_id
 _symmetry_equiv_pos_as_xyz
  1  'x, y, z'
loop_
 _atom_site_type_symbol
 _atom_site_label
 _atom_site_symmetry_multiplicity
 _atom_site_fract_x
 _atom_site_fract_y
 _atom_site_fract_z
 _atom_site_occupancy
  Ca  Ca0  1  0.000000  0.842317  0.857066  1
  Ca  Ca1  1  0.500000  0.868319  0.648386  1
  Ca  Ca2  1  0.500000  0.885235  0.046774  1
  Ca  Ca3  1  0.500000  0.114765  0.546774  1
  Ca  Ca4  1  0.500000  0.131681  0.148386  1
  Ca  Ca5  1  0.000000  0.157683  0.357066  1
  Ca  Ca6  1  0.000000  0.344948  0.642265  1
  Ca  Ca7  1  0.500000  0.368163  0.851619  1
  Ca  Ca8  1  0.000000  0.381707  0.045874  1
  Ca  Ca9  1  0.000000  0.618293  0.545874  1
  Ca  Ca10  1  0.500000  0.631837  0.351619  1
  Ca  Ca11  1  0.000000  0.655052  0.142265  1
  In  In12  1  0.000000  0.880873  0.454263  1
  In  In13  1  0.500000  0.904327  0.272902  1
  In  In14  1  0.500000  0.095673  0.772902  1
  In  In15  1  0.000000  0.119127  0.954263  1
  In  In16  1  0.500000  0.387514  0.457826  1
  In  In17  1  0.500000  0.401875  0.232377  1
  In  In18  1  0.500000  0.598125  0.732377  1
  In  In19  1  0.500000  0.612486  0.957826  1
  O  O20  1  0.000000  0.743948  0.996715  1
  O  O21  1  0.500000  0.754082  0.492934  1
  O  O22  1  0.500000  0.794540  0.169108  1
  O  O23  1  0.000000  0.794838  0.334882  1
  O  O24  1  0.000000  0.965681  0.744959  1
  O  O25  1  0.500000  0.991924  0.907159  1
  O  O26  1  0.000000  0.968326  0.568885  1
  O  O27  1  0.000000  0.031674  0.068885  1
  O  O28  1  0.500000  0.008076  0.407159  1
  O  O29  1  0.000000  0.034319  0.244959  1
  O  O30  1  0.000000  0.205162  0.834882  1
  O  O31  1  0.500000  0.205460  0.669108  1
  O  O32  1  0.500000  0.245918  0.992934  1
  O  O33  1  0.000000  0.256052  0.496715  1
  O  O34  1  0.500000  0.298350  0.339877  1
  O  O35  1  0.000000  0.294327  0.173379  1
  O  O36  1  0.000000  0.466713  0.754461  1
  O  O37  1  0.500000  0.474803  0.582113  1
  O  O38  1  0.000000  0.482746  0.926168  1
  O  O39  1  0.000000  0.517254  0.426168  1
  O  O40  1  0.500000  0.525197  0.082113  1
  O  O41  1  0.000000  0.533287  0.254461  1
  O  O42  1  0.000000  0.705673  0.673379  1
  O  O43  1  0.500000  0.701650  0.839877  1
