# generated using pymatgen
data_CrOF
_symmetry_space_group_name_H-M   'P 1'
_cell_length_a   3.05411095
_cell_length_b   4.86381847
_cell_length_c   9.63838291
_cell_angle_alpha   90.00000000
_cell_angle_beta   90.00000000
_cell_angle_gamma   90.00000000
_symmetry_Int_Tables_number   1
_chemical_formula_structural   CrOF
_chemical_formula_sum   'Cr4 O4 F4'
_cell_volume   143.17472034
_cell_formula_units_Z   4
loop_
 _symmetry_equiv_pos_site_id
 _symmetry_equiv_pos_as_xyz
  1  'x, y, z'
loop_
 _atom_site_type_symbol
 _atom_site_label
 _atom_site_symmetry_multiplicity
 _atom_site_fract_x
 _atom_site_fract_y
 _atom_site_fract_z
 _atom_site_occupancy
  Cr  Cr0  1  0.250000  0.910743  0.379545  1
  Cr  Cr1  1  0.750000  0.089257  0.620455  1
  Cr  Cr2  1  0.750000  0.410743  0.120455  1
  Cr  Cr3  1  0.250000  0.589257  0.879545  1
  O  O4  1  0.750000  0.786957  0.487676  1
  O  O5  1  0.250000  0.213043  0.512324  1
  O  O6  1  0.250000  0.286957  0.012324  1
  O  O7  1  0.750000  0.713043  0.987676  1
  F  F8  1  0.750000  0.077492  0.256668  1
  F  F9  1  0.250000  0.922508  0.743332  1
  F  F10  1  0.250000  0.577492  0.243332  1
  F  F11  1  0.750000  0.422508  0.756668  1
