# generated using pymatgen
data_Li4V2Cr3Ni3O16
_symmetry_space_group_name_H-M   'P 1'
_cell_length_a   5.87427645
_cell_length_b   5.87427645
_cell_length_c   9.44594789
_cell_angle_alpha   89.80250408
_cell_angle_beta   90.19749592
_cell_angle_gamma   120.06827291
_symmetry_Int_Tables_number   1
_chemical_formula_structural   Li4V2Cr3Ni3O16
_chemical_formula_sum   'Li4 V2 Cr3 Ni3 O16'
_cell_volume   282.08650637
_cell_formula_units_Z   1
loop_
 _symmetry_equiv_pos_site_id
 _symmetry_equiv_pos_as_xyz
  1  'x, y, z'
loop_
 _atom_site_type_symbol
 _atom_site_label
 _atom_site_symmetry_multiplicity
 _atom_site_fract_x
 _atom_site_fract_y
 _atom_site_fract_z
 _atom_site_occupancy
  Li  Li0  1  0.337359  0.662641  0.101890  1
  Li  Li1  1  0.995400  0.004600  0.012578  1
  Li  Li2  1  0.999474  0.000526  0.504431  1
  Li  Li3  1  0.663453  0.336547  0.600431  1
  V  V4  1  0.334692  0.665308  0.497453  1
  V  V5  1  0.651791  0.348209  0.006933  1
  Cr  Cr6  1  0.159477  0.350136  0.780218  1
  Cr  Cr7  1  0.649864  0.840523  0.780218  1
  Cr  Cr8  1  0.822177  0.177823  0.270380  1
  Ni  Ni9  1  0.169126  0.830874  0.791816  1
  Ni  Ni10  1  0.345521  0.167677  0.289578  1
  Ni  Ni11  1  0.832323  0.654479  0.289578  1
  O  O12  1  0.172333  0.351626  0.410810  1
  O  O13  1  0.476790  0.523210  0.657202  1
  O  O14  1  0.347003  0.652997  0.895227  1
  O  O15  1  0.992672  0.007328  0.698686  1
  O  O16  1  0.993688  0.006312  0.205430  1
  O  O17  1  0.648374  0.827667  0.410810  1
  O  O18  1  0.041362  0.513567  0.657543  1
  O  O19  1  0.486433  0.958638  0.657543  1
  O  O20  1  0.826329  0.173671  0.901216  1
  O  O21  1  0.174997  0.825003  0.418438  1
  O  O22  1  0.533741  0.037441  0.147765  1
  O  O23  1  0.962559  0.466259  0.147765  1
  O  O24  1  0.682145  0.317855  0.395640  1
  O  O25  1  0.342127  0.176568  0.909071  1
  O  O26  1  0.525987  0.474013  0.144955  1
  O  O27  1  0.823432  0.657873  0.909071  1
