# generated using pymatgen
data_Li3Mn2P2(CO7)2
_symmetry_space_group_name_H-M   'P 1'
_cell_length_a   8.20198597
_cell_length_b   8.25806900
_cell_length_c   8.28602202
_cell_angle_alpha   92.45337552
_cell_angle_beta   93.06348101
_cell_angle_gamma   104.18353250
_symmetry_Int_Tables_number   1
_chemical_formula_structural   Li3Mn2P2(CO7)2
_chemical_formula_sum   'Li6 Mn4 P4 C4 O28'
_cell_volume   542.44065905
_cell_formula_units_Z   2
loop_
 _symmetry_equiv_pos_site_id
 _symmetry_equiv_pos_as_xyz
  1  'x, y, z'
loop_
 _atom_site_type_symbol
 _atom_site_label
 _atom_site_symmetry_multiplicity
 _atom_site_fract_x
 _atom_site_fract_y
 _atom_site_fract_z
 _atom_site_occupancy
  Li  Li0  1  0.142218  0.114102  0.734950  1
  Li  Li1  1  0.642398  0.591462  0.728639  1
  Li  Li2  1  0.362187  0.883505  0.738667  1
  Li  Li3  1  0.152640  0.619076  0.266499  1
  Li  Li4  1  0.629440  0.105072  0.267000  1
  Li  Li5  1  0.996391  0.239914  0.094785  1
  Mn  Mn6  1  0.772923  0.025432  0.666917  1
  Mn  Mn7  1  0.268464  0.520562  0.671765  1
  Mn  Mn8  1  0.724940  0.480081  0.332428  1
  Mn  Mn9  1  0.222761  0.980992  0.325998  1
  P  P10  1  0.493294  0.233410  0.580308  1
  P  P11  1  0.988129  0.744559  0.577841  1
  P  P12  1  0.011554  0.269439  0.418917  1
  P  P13  1  0.514286  0.759610  0.422423  1
  C  C14  1  0.224430  0.474653  0.951791  1
  C  C15  1  0.727055  0.981671  0.954231  1
  C  C16  1  0.273154  0.012257  0.043073  1
  C  C17  1  0.768499  0.523414  0.049333  1
  O  O18  1  0.340572  0.597622  0.902648  1
  O  O19  1  0.854634  0.096052  0.906581  1
  O  O20  1  0.294522  0.037695  0.896287  1
  O  O21  1  0.148524  0.367363  0.831478  1
  O  O22  1  0.786686  0.556384  0.906387  1
  O  O23  1  0.639889  0.888307  0.829033  1
  O  O24  1  0.454530  0.380009  0.675391  1
  O  O25  1  0.126668  0.701947  0.686427  1
  O  O26  1  0.622985  0.171093  0.688827  1
  O  O27  1  0.938817  0.889482  0.676293  1
  O  O28  1  0.330012  0.086264  0.546576  1
  O  O29  1  0.455731  0.700368  0.591091  1
  O  O30  1  0.954593  0.192270  0.579537  1
  O  O31  1  0.828468  0.595003  0.543265  1
  O  O32  1  0.151063  0.432563  0.462000  1
  O  O33  1  0.563861  0.284743  0.415202  1
  O  O34  1  0.054272  0.799036  0.412882  1
  O  O35  1  0.658479  0.925057  0.460253  1
  O  O36  1  0.070605  0.149985  0.303362  1
  O  O37  1  0.371773  0.799676  0.318726  1
  O  O38  1  0.573370  0.624929  0.323511  1
  O  O39  1  0.865974  0.313300  0.312764  1
  O  O40  1  0.372654  0.099762  0.162667  1
  O  O41  1  0.180378  0.456273  0.093707  1
  O  O42  1  0.869011  0.605801  0.172610  1
  O  O43  1  0.690416  0.965174  0.096459  1
  O  O44  1  0.648812  0.404251  0.102103  1
  O  O45  1  0.147379  0.901272  0.094585  1
