# generated using pymatgen
data_Li3VS4
_symmetry_space_group_name_H-M   'P 1'
_cell_length_a   6.23515710
_cell_length_b   6.81425346
_cell_length_c   7.93888237
_cell_angle_alpha   90.00000000
_cell_angle_beta   90.00000000
_cell_angle_gamma   90.00000000
_symmetry_Int_Tables_number   1
_chemical_formula_structural   Li3VS4
_chemical_formula_sum   'Li6 V2 S8'
_cell_volume   337.30676449
_cell_formula_units_Z   2
loop_
 _symmetry_equiv_pos_site_id
 _symmetry_equiv_pos_as_xyz
  1  'x, y, z'
loop_
 _atom_site_type_symbol
 _atom_site_label
 _atom_site_symmetry_multiplicity
 _atom_site_fract_x
 _atom_site_fract_y
 _atom_site_fract_z
 _atom_site_occupancy
  Li  Li0  1  0.512972  0.838064  0.000000  1
  Li  Li1  1  0.010419  0.670804  0.246514  1
  Li  Li2  1  0.510419  0.329196  0.253486  1
  Li  Li3  1  0.012972  0.161936  0.500000  1
  Li  Li4  1  0.510419  0.329196  0.746514  1
  Li  Li5  1  0.010419  0.670804  0.753486  1
  V  V6  1  0.999005  0.171398  0.000000  1
  V  V7  1  0.499005  0.828602  0.500000  1
  S  S8  1  0.109567  0.870351  0.000000  1
  S  S9  1  0.652004  0.174508  0.000000  1
  S  S10  1  0.110440  0.320571  0.225407  1
  S  S11  1  0.610440  0.679429  0.274593  1
  S  S12  1  0.152004  0.825492  0.500000  1
  S  S13  1  0.609567  0.129649  0.500000  1
  S  S14  1  0.610440  0.679429  0.725407  1
  S  S15  1  0.110440  0.320571  0.774593  1
