# generated using pymatgen
data_VCrO3
_symmetry_space_group_name_H-M   'P 1'
_cell_length_a   5.10626198
_cell_length_b   5.49689524
_cell_length_c   8.84711278
_cell_angle_alpha   105.53829235
_cell_angle_beta   90.01317230
_cell_angle_gamma   117.66117284
_symmetry_Int_Tables_number   1
_chemical_formula_structural   VCrO3
_chemical_formula_sum   'V4 Cr4 O12'
_cell_volume   209.63494822
_cell_formula_units_Z   4
loop_
 _symmetry_equiv_pos_site_id
 _symmetry_equiv_pos_as_xyz
  1  'x, y, z'
loop_
 _atom_site_type_symbol
 _atom_site_label
 _atom_site_symmetry_multiplicity
 _atom_site_fract_x
 _atom_site_fract_y
 _atom_site_fract_z
 _atom_site_occupancy
  V  V0  1  0.148071  0.871356  0.575162  1
  V  V1  1  0.351578  0.876478  0.174162  1
  V  V2  1  0.850336  0.125503  0.427157  1
  V  V3  1  0.851536  0.629164  0.923329  1
  Cr  Cr4  1  0.150189  0.375747  0.074753  1
  Cr  Cr5  1  0.347380  0.370432  0.674781  1
  Cr  Cr6  1  0.652811  0.627293  0.324173  1
  Cr  Cr7  1  0.648664  0.127466  0.826899  1
  O  O8  1  0.052572  0.524362  0.722806  1
  O  O9  1  0.053157  0.026854  0.223199  1
  O  O10  1  0.447384  0.873273  0.375095  1
  O  O11  1  0.554029  0.623904  0.124429  1
  O  O12  1  0.251522  0.776676  0.973225  1
  O  O13  1  0.253008  0.279191  0.472668  1
  O  O14  1  0.748310  0.719316  0.526453  1
  O  O15  1  0.751644  0.225447  0.026479  1
  O  O16  1  0.444989  0.373723  0.874699  1
  O  O17  1  0.551287  0.125159  0.627608  1
  O  O18  1  0.945726  0.977001  0.776547  1
  O  O19  1  0.945807  0.471653  0.276377  1
