# generated using pymatgen
data_Li4Mn5O10
_symmetry_space_group_name_H-M   'P 1'
_cell_length_a   5.19379256
_cell_length_b   5.23620513
_cell_length_c   7.98751708
_cell_angle_alpha   108.13991039
_cell_angle_beta   89.29211005
_cell_angle_gamma   93.46977502
_symmetry_Int_Tables_number   1
_chemical_formula_structural   Li4Mn5O10
_chemical_formula_sum   'Li4 Mn5 O10'
_cell_volume   206.04702851
_cell_formula_units_Z   1
loop_
 _symmetry_equiv_pos_site_id
 _symmetry_equiv_pos_as_xyz
  1  'x, y, z'
loop_
 _atom_site_type_symbol
 _atom_site_label
 _atom_site_symmetry_multiplicity
 _atom_site_fract_x
 _atom_site_fract_y
 _atom_site_fract_z
 _atom_site_occupancy
  Li  Li0  1  0.564975  0.874207  0.202960  1
  Li  Li1  1  0.426839  0.309705  0.208546  1
  Li  Li2  1  0.417821  0.474736  0.589200  1
  Li  Li3  1  0.425236  0.076688  0.800564  1
  Mn  Mn4  1  0.999719  0.005340  0.005299  1
  Mn  Mn5  1  0.009926  0.591462  0.198937  1
  Mn  Mn6  1  0.973911  0.801944  0.595118  1
  Mn  Mn7  1  0.984050  0.199579  0.398628  1
  Mn  Mn8  1  0.980549  0.408930  0.801088  1
  O  O9  1  0.818153  0.664098  0.010279  1
  O  O10  1  0.208348  0.978234  0.210407  1
  O  O11  1  0.806932  0.854084  0.390239  1
  O  O12  1  0.210677  0.329861  0.015060  1
  O  O13  1  0.770016  0.228224  0.217251  1
  O  O14  1  0.197894  0.511452  0.386616  1
  O  O15  1  0.782932  0.452491  0.575056  1
  O  O16  1  0.191024  0.728930  0.769366  1
  O  O17  1  0.178960  0.159570  0.606459  1
  O  O18  1  0.792760  0.083822  0.818912  1
