# generated using pymatgen
data_Li4Cr3GaO8
_symmetry_space_group_name_H-M   'P 1'
_cell_length_a   5.13888965
_cell_length_b   7.84203587
_cell_length_c   7.84337976
_cell_angle_alpha   81.78006970
_cell_angle_beta   83.75558678
_cell_angle_gamma   70.94471597
_symmetry_Int_Tables_number   1
_chemical_formula_structural   Li4Cr3GaO8
_chemical_formula_sum   'Li8 Cr6 Ga2 O16'
_cell_volume   295.04169246
_cell_formula_units_Z   2
loop_
 _symmetry_equiv_pos_site_id
 _symmetry_equiv_pos_as_xyz
  1  'x, y, z'
loop_
 _atom_site_type_symbol
 _atom_site_label
 _atom_site_symmetry_multiplicity
 _atom_site_fract_x
 _atom_site_fract_y
 _atom_site_fract_z
 _atom_site_occupancy
  Li  Li0  1  0.000347  0.562353  0.812608  1
  Li  Li1  1  0.000011  0.312367  0.562483  1
  Li  Li2  1  0.999653  0.437647  0.187392  1
  Li  Li3  1  0.000082  0.937511  0.687344  1
  Li  Li4  1  0.999918  0.062489  0.312656  1
  Li  Li5  1  0.999690  0.187772  0.937331  1
  Li  Li6  1  0.999989  0.687633  0.437517  1
  Li  Li7  1  0.000310  0.812228  0.062669  1
  Cr  Cr8  1  0.499798  0.249749  0.750260  1
  Cr  Cr9  1  0.500005  0.374816  0.374839  1
  Cr  Cr10  1  0.500000  0.500000  0.000000  1
  Cr  Cr11  1  0.500000  0.000000  0.500000  1
  Cr  Cr12  1  0.499995  0.625184  0.625161  1
  Cr  Cr13  1  0.500202  0.750251  0.249740  1
  Ga  Ga14  1  0.500031  0.124876  0.124866  1
  Ga  Ga15  1  0.499969  0.875124  0.875134  1
  O  O16  1  0.724275  0.411572  0.782352  1
  O  O17  1  0.275785  0.463270  0.592595  1
  O  O18  1  0.724215  0.536730  0.407405  1
  O  O19  1  0.274181  0.088487  0.717710  1
  O  O20  1  0.724284  0.161602  0.532484  1
  O  O21  1  0.725569  0.286142  0.157163  1
  O  O22  1  0.274151  0.213472  0.342449  1
  O  O23  1  0.725849  0.786528  0.657551  1
  O  O24  1  0.725819  0.911513  0.282290  1
  O  O25  1  0.274253  0.338520  0.967821  1
  O  O26  1  0.275716  0.838398  0.467516  1
  O  O27  1  0.726442  0.035732  0.907712  1
  O  O28  1  0.273558  0.964268  0.092288  1
  O  O29  1  0.725747  0.661480  0.032179  1
  O  O30  1  0.275725  0.588428  0.217648  1
  O  O31  1  0.274431  0.713858  0.842837  1
