# generated using pymatgen
data_Li4Ni3O6F
_symmetry_space_group_name_H-M   'P 1'
_cell_length_a   5.05297329
_cell_length_b   5.05297329
_cell_length_c   6.37425741
_cell_angle_alpha   82.39161027
_cell_angle_beta   97.60838973
_cell_angle_gamma   131.62380585
_symmetry_Int_Tables_number   1
_chemical_formula_structural   Li4Ni3O6F
_chemical_formula_sum   'Li4 Ni3 O6 F1'
_cell_volume   120.37164183
_cell_formula_units_Z   1
loop_
 _symmetry_equiv_pos_site_id
 _symmetry_equiv_pos_as_xyz
  1  'x, y, z'
loop_
 _atom_site_type_symbol
 _atom_site_label
 _atom_site_symmetry_multiplicity
 _atom_site_fract_x
 _atom_site_fract_y
 _atom_site_fract_z
 _atom_site_occupancy
  Li  Li0  1  0.424933  0.575067  0.288502  1
  Li  Li1  1  0.719671  0.280329  0.142741  1
  Li  Li2  1  0.280329  0.719671  0.857259  1
  Li  Li3  1  0.575067  0.424933  0.711498  1
  Ni  Ni4  1  0.143014  0.856986  0.425861  1
  Ni  Ni5  1  0.000000  0.000000  0.000000  1
  Ni  Ni6  1  0.856986  0.143014  0.574139  1
  O  O7  1  0.192856  0.807144  0.135885  1
  O  O8  1  0.657782  0.342218  0.439246  1
  O  O9  1  0.944387  0.055613  0.282807  1
  O  O10  1  0.807144  0.192856  0.864115  1
  O  O11  1  0.342218  0.657782  0.560754  1
  O  O12  1  0.055613  0.944387  0.717193  1
  F  F13  1  0.500000  0.500000  0.000000  1
