# generated using pymatgen
data_Li3MnV(PO4)3
_symmetry_space_group_name_H-M   'P 1'
_cell_length_a   9.03689152
_cell_length_b   9.03689152
_cell_length_c   9.03689152
_cell_angle_alpha   56.07671525
_cell_angle_beta   56.07671525
_cell_angle_gamma   56.07671525
_symmetry_Int_Tables_number   1
_chemical_formula_structural   Li3MnV(PO4)3
_chemical_formula_sum   'Li6 Mn2 V2 P6 O24'
_cell_volume   474.43122744
_cell_formula_units_Z   2
loop_
 _symmetry_equiv_pos_site_id
 _symmetry_equiv_pos_as_xyz
  1  'x, y, z'
loop_
 _atom_site_type_symbol
 _atom_site_label
 _atom_site_symmetry_multiplicity
 _atom_site_fract_x
 _atom_site_fract_y
 _atom_site_fract_z
 _atom_site_occupancy
  Li  Li0  1  0.078150  0.732066  0.339643  1
  Li  Li1  1  0.339643  0.078150  0.732066  1
  Li  Li2  1  0.732066  0.339643  0.078150  1
  Li  Li3  1  0.262682  0.670344  0.919724  1
  Li  Li4  1  0.670344  0.919724  0.262682  1
  Li  Li5  1  0.919724  0.262682  0.670344  1
  Mn  Mn6  1  0.853165  0.853165  0.853165  1
  Mn  Mn7  1  0.650821  0.650821  0.650821  1
  V  V8  1  0.349154  0.349154  0.349154  1
  V  V9  1  0.147574  0.147574  0.147574  1
  P  P10  1  0.753771  0.043728  0.453832  1
  P  P11  1  0.043728  0.453832  0.753771  1
  P  P12  1  0.453832  0.753771  0.043728  1
  P  P13  1  0.535577  0.250960  0.963147  1
  P  P14  1  0.963147  0.535577  0.250960  1
  P  P15  1  0.250960  0.963147  0.535577  1
  O  O16  1  0.796504  0.853955  0.446554  1
  O  O17  1  0.538193  0.169813  0.484120  1
  O  O18  1  0.169813  0.484120  0.538193  1
  O  O19  1  0.853955  0.446554  0.796504  1
  O  O20  1  0.446554  0.796504  0.853955  1
  O  O21  1  0.800762  0.011838  0.607770  1
  O  O22  1  0.144868  0.250219  0.880375  1
  O  O23  1  0.011838  0.607770  0.800762  1
  O  O24  1  0.484120  0.538193  0.169813  1
  O  O25  1  0.250219  0.880375  0.144868  1
  O  O26  1  0.607770  0.800762  0.011838  1
  O  O27  1  0.880375  0.144868  0.250219  1
  O  O28  1  0.127453  0.868996  0.738269  1
  O  O29  1  0.384731  0.184904  0.007375  1
  O  O30  1  0.738269  0.127453  0.868996  1
  O  O31  1  0.491862  0.463130  0.841262  1
  O  O32  1  0.007375  0.384731  0.184904  1
  O  O33  1  0.868996  0.738269  0.127453  1
  O  O34  1  0.184904  0.007375  0.384731  1
  O  O35  1  0.532643  0.210582  0.159462  1
  O  O36  1  0.159462  0.532643  0.210582  1
  O  O37  1  0.841262  0.491862  0.463130  1
  O  O38  1  0.463130  0.841262  0.491862  1
  O  O39  1  0.210582  0.159462  0.532643  1
