# generated using pymatgen
data_CoSb3(PO4)6
_symmetry_space_group_name_H-M   'P 1'
_cell_length_a   8.82811538
_cell_length_b   8.82811538
_cell_length_c   8.82811538
_cell_angle_alpha   58.00566623
_cell_angle_beta   58.00566623
_cell_angle_gamma   58.00566623
_symmetry_Int_Tables_number   1
_chemical_formula_structural   CoSb3(PO4)6
_chemical_formula_sum   'Co1 Sb3 P6 O24'
_cell_volume   464.25099065
_cell_formula_units_Z   1
loop_
 _symmetry_equiv_pos_site_id
 _symmetry_equiv_pos_as_xyz
  1  'x, y, z'
loop_
 _atom_site_type_symbol
 _atom_site_label
 _atom_site_symmetry_multiplicity
 _atom_site_fract_x
 _atom_site_fract_y
 _atom_site_fract_z
 _atom_site_occupancy
  Co  Co0  1  0.144083  0.144083  0.144083  1
  Sb  Sb1  1  0.856863  0.856863  0.856863  1
  Sb  Sb2  1  0.643526  0.643526  0.643526  1
  Sb  Sb3  1  0.356712  0.356712  0.356712  1
  P  P4  1  0.247918  0.529712  0.964883  1
  P  P5  1  0.964883  0.247918  0.529712  1
  P  P6  1  0.529712  0.964883  0.247918  1
  P  P7  1  0.454409  0.040300  0.758306  1
  P  P8  1  0.040300  0.758306  0.454409  1
  P  P9  1  0.758306  0.454409  0.040300  1
  O  O10  1  0.724486  0.485285  0.867929  1
  O  O11  1  0.485285  0.867929  0.724486  1
  O  O12  1  0.076657  0.719494  0.940322  1
  O  O13  1  0.867929  0.724486  0.485285  1
  O  O14  1  0.423492  0.559282  0.781392  1
  O  O15  1  0.223076  0.361399  0.989946  1
  O  O16  1  0.940322  0.076657  0.719494  1
  O  O17  1  0.781392  0.423492  0.559282  1
  O  O18  1  0.559282  0.781392  0.423492  1
  O  O19  1  0.636504  0.014907  0.770809  1
  O  O20  1  0.278226  0.060695  0.929913  1
  O  O21  1  0.014907  0.770809  0.636504  1
  O  O22  1  0.989946  0.223076  0.361399  1
  O  O23  1  0.719494  0.940322  0.076657  1
  O  O24  1  0.361399  0.989946  0.223076  1
  O  O25  1  0.443105  0.217914  0.574247  1
  O  O26  1  0.217914  0.574247  0.443105  1
  O  O27  1  0.060695  0.929913  0.278226  1
  O  O28  1  0.770809  0.636504  0.014907  1
  O  O29  1  0.574247  0.443105  0.217914  1
  O  O30  1  0.132774  0.274991  0.516441  1
  O  O31  1  0.929913  0.278226  0.060695  1
  O  O32  1  0.516441  0.132774  0.274991  1
  O  O33  1  0.274991  0.516441  0.132774  1
