# generated using pymatgen
data_Li10Cr3P6(O4F)6
_symmetry_space_group_name_H-M   'P 1'
_cell_length_a   10.16617552
_cell_length_b   10.16617552
_cell_length_c   6.50781859
_cell_angle_alpha   90.00000000
_cell_angle_beta   90.00000000
_cell_angle_gamma   120.00000000
_symmetry_Int_Tables_number   1
_chemical_formula_structural   Li10Cr3P6(O4F)6
_chemical_formula_sum   'Li10 Cr3 P6 O24 F6'
_cell_volume   582.48034757
_cell_formula_units_Z   1
loop_
 _symmetry_equiv_pos_site_id
 _symmetry_equiv_pos_as_xyz
  1  'x, y, z'
loop_
 _atom_site_type_symbol
 _atom_site_label
 _atom_site_symmetry_multiplicity
 _atom_site_fract_x
 _atom_site_fract_y
 _atom_site_fract_z
 _atom_site_occupancy
  Li  Li0  1  0.666667  0.333333  0.418882  1
  Li  Li1  1  0.293748  0.126179  0.524391  1
  Li  Li2  1  0.873821  0.167569  0.524391  1
  Li  Li3  1  0.000000  0.000000  0.713231  1
  Li  Li4  1  0.832431  0.706252  0.524391  1
  Li  Li5  1  0.492758  0.032216  0.254461  1
  Li  Li6  1  0.539457  0.507242  0.254461  1
  Li  Li7  1  0.333333  0.666667  0.165642  1
  Li  Li8  1  0.333333  0.666667  0.640482  1
  Li  Li9  1  0.967784  0.460543  0.254461  1
  Cr  Cr10  1  0.333101  0.162297  0.998258  1
  Cr  Cr11  1  0.837703  0.170804  0.998258  1
  Cr  Cr12  1  0.829196  0.666899  0.998258  1
  P  P13  1  0.158247  0.292097  0.260931  1
  P  P14  1  0.133850  0.841753  0.260931  1
  P  P15  1  0.707903  0.866150  0.260931  1
  P  P16  1  0.520914  0.043278  0.735251  1
  P  P17  1  0.522364  0.479086  0.735251  1
  P  P18  1  0.956722  0.477636  0.735251  1
  O  O19  1  0.405985  0.305390  0.771944  1
  O  O20  1  0.186885  0.212542  0.072879  1
  O  O21  1  0.155213  0.208526  0.457856  1
  O  O22  1  0.273577  0.006295  0.225952  1
  O  O23  1  0.993705  0.267281  0.225952  1
  O  O24  1  0.053314  0.844787  0.457856  1
  O  O25  1  0.025656  0.813115  0.072879  1
  O  O26  1  0.787458  0.974344  0.072879  1
  O  O27  1  0.694610  0.100595  0.771944  1
  O  O28  1  0.791474  0.946686  0.457856  1
  O  O29  1  0.504719  0.120584  0.542903  1
  O  O30  1  0.472976  0.095584  0.934766  1
  O  O31  1  0.899405  0.594015  0.771944  1
  O  O32  1  0.732719  0.726423  0.225952  1
  O  O33  1  0.538500  0.816471  0.261112  1
  O  O34  1  0.622608  0.527024  0.934766  1
  O  O35  1  0.615865  0.495281  0.542903  1
  O  O36  1  0.183529  0.722029  0.261112  1
  O  O37  1  0.277971  0.461500  0.261112  1
  O  O38  1  0.879416  0.384135  0.542903  1
  O  O39  1  0.904416  0.377392  0.934766  1
  O  O40  1  0.433017  0.871021  0.725489  1
  O  O41  1  0.438003  0.566983  0.725489  1
  O  O42  1  0.128979  0.561997  0.725489  1
  F  F43  1  0.472090  0.295713  0.207591  1
  F  F44  1  0.198061  0.032950  0.790168  1
  F  F45  1  0.967050  0.165110  0.790168  1
  F  F46  1  0.704287  0.176377  0.207591  1
  F  F47  1  0.834890  0.801939  0.790168  1
  F  F48  1  0.823623  0.527910  0.207591  1
