# generated using pymatgen
data_LiFeP2O7
_symmetry_space_group_name_H-M   'P 1'
_cell_length_a   7.51117527
_cell_length_b   6.19619588
_cell_length_c   12.57885313
_cell_angle_alpha   90.00000000
_cell_angle_beta   117.21229334
_cell_angle_gamma   90.00000000
_symmetry_Int_Tables_number   1
_chemical_formula_structural   LiFeP2O7
_chemical_formula_sum   'Li4 Fe4 P8 O28'
_cell_volume   520.63252997
_cell_formula_units_Z   4
loop_
 _symmetry_equiv_pos_site_id
 _symmetry_equiv_pos_as_xyz
  1  'x, y, z'
loop_
 _atom_site_type_symbol
 _atom_site_label
 _atom_site_symmetry_multiplicity
 _atom_site_fract_x
 _atom_site_fract_y
 _atom_site_fract_z
 _atom_site_occupancy
  Li  Li0  1  0.674528  0.616395  0.547394  1
  Li  Li1  1  0.325472  0.116395  0.952606  1
  Li  Li2  1  0.674528  0.883605  0.047394  1
  Li  Li3  1  0.325472  0.383605  0.452606  1
  Fe  Fe4  1  0.792568  0.877176  0.767697  1
  Fe  Fe5  1  0.792568  0.622824  0.267697  1
  Fe  Fe6  1  0.207432  0.377176  0.732303  1
  Fe  Fe7  1  0.207432  0.122824  0.232303  1
  P  P8  1  0.311241  0.612140  0.216296  1
  P  P9  1  0.777128  0.148541  0.540120  1
  P  P10  1  0.222872  0.648541  0.959880  1
  P  P11  1  0.688759  0.112140  0.283704  1
  P  P12  1  0.311241  0.887860  0.716296  1
  P  P13  1  0.777128  0.351459  0.040120  1
  P  P14  1  0.222872  0.851459  0.459880  1
  P  P15  1  0.688759  0.387860  0.783704  1
  O  O16  1  0.597580  0.289863  0.510837  1
  O  O17  1  0.809240  0.183195  0.795712  1
  O  O18  1  0.241623  0.533411  0.080945  1
  O  O19  1  0.754454  0.565785  0.723635  1
  O  O20  1  0.034269  0.793257  0.909335  1
  O  O21  1  0.461585  0.140571  0.220813  1
  O  O22  1  0.794252  0.940251  0.613401  1
  O  O23  1  0.538415  0.640571  0.279187  1
  O  O24  1  0.758377  0.033411  0.419055  1
  O  O25  1  0.205748  0.440251  0.886599  1
  O  O26  1  0.965731  0.293257  0.590665  1
  O  O27  1  0.597580  0.210137  0.010837  1
  O  O28  1  0.245546  0.065785  0.776365  1
  O  O29  1  0.809240  0.316805  0.295712  1
  O  O30  1  0.190760  0.683195  0.704288  1
  O  O31  1  0.754454  0.934215  0.223635  1
  O  O32  1  0.402420  0.789863  0.989163  1
  O  O33  1  0.034269  0.706743  0.409335  1
  O  O34  1  0.794252  0.559749  0.113401  1
  O  O35  1  0.241623  0.966589  0.580945  1
  O  O36  1  0.461585  0.359429  0.720813  1
  O  O37  1  0.205748  0.059749  0.386599  1
  O  O38  1  0.538415  0.859429  0.779187  1
  O  O39  1  0.965731  0.206743  0.090665  1
  O  O40  1  0.245546  0.434215  0.276365  1
  O  O41  1  0.758377  0.466589  0.919055  1
  O  O42  1  0.190760  0.816805  0.204288  1
  O  O43  1  0.402420  0.710137  0.489163  1
