# generated using pymatgen
data_CuH20S2(NO7)2
_symmetry_space_group_name_H-M   'P 1'
_cell_length_a   6.10171314
_cell_length_b   12.74891088
_cell_length_c   9.45567335
_cell_angle_alpha   90.00000000
_cell_angle_beta   107.21362447
_cell_angle_gamma   90.00000000
_symmetry_Int_Tables_number   1
_chemical_formula_structural   CuH20S2(NO7)2
_chemical_formula_sum   'Cu2 H40 S4 N4 O28'
_cell_volume   702.61156173
_cell_formula_units_Z   2
loop_
 _symmetry_equiv_pos_site_id
 _symmetry_equiv_pos_as_xyz
  1  'x, y, z'
loop_
 _atom_site_type_symbol
 _atom_site_label
 _atom_site_symmetry_multiplicity
 _atom_site_fract_x
 _atom_site_fract_y
 _atom_site_fract_z
 _atom_site_occupancy
  Cu  Cu0  1  0.000000  0.500000  0.500000  1
  Cu  Cu1  1  0.000000  0.000000  0.000000  1
  H  H2  1  0.770774  0.153395  0.458574  1
  H  H3  1  0.229226  0.653395  0.041426  1
  H  H4  1  0.229226  0.846605  0.541426  1
  H  H5  1  0.770774  0.346605  0.958574  1
  H  H6  1  0.579176  0.195732  0.295696  1
  H  H7  1  0.420824  0.695732  0.204304  1
  H  H8  1  0.420824  0.804268  0.704304  1
  H  H9  1  0.579176  0.304268  0.795696  1
  H  H10  1  0.486154  0.123004  0.416463  1
  H  H11  1  0.513846  0.623004  0.083537  1
  H  H12  1  0.513846  0.876996  0.583537  1
  H  H13  1  0.486154  0.376996  0.916463  1
  H  H14  1  0.649091  0.067339  0.321170  1
  H  H15  1  0.350909  0.567339  0.178830  1
  H  H16  1  0.350909  0.932661  0.678830  1
  H  H17  1  0.649091  0.432661  0.821170  1
  H  H18  1  0.670803  0.407591  0.304561  1
  H  H19  1  0.329197  0.907591  0.195439  1
  H  H20  1  0.329197  0.592409  0.695439  1
  H  H21  1  0.670803  0.092409  0.804561  1
  H  H22  1  0.902891  0.375080  0.266819  1
  H  H23  1  0.097109  0.875080  0.233181  1
  H  H24  1  0.097109  0.624920  0.733181  1
  H  H25  1  0.902891  0.124920  0.766819  1
  H  H26  1  0.047659  0.397931  0.784076  1
  H  H27  1  0.952341  0.897931  0.715924  1
  H  H28  1  0.952341  0.602069  0.215924  1
  H  H29  1  0.047659  0.102069  0.284076  1
  H  H30  1  0.973495  0.313911  0.657335  1
  H  H31  1  0.026505  0.813911  0.842665  1
  H  H32  1  0.026505  0.686089  0.342665  1
  H  H33  1  0.973495  0.186089  0.157335  1
  H  H34  1  0.667284  0.561547  0.585433  1
  H  H35  1  0.332716  0.061547  0.914567  1
  H  H36  1  0.332716  0.438453  0.414567  1
  H  H37  1  0.667284  0.938453  0.085433  1
  H  H38  1  0.684086  0.640364  0.456428  1
  H  H39  1  0.315914  0.140364  0.043572  1
  H  H40  1  0.315914  0.359636  0.543572  1
  H  H41  1  0.684086  0.859636  0.956428  1
  S  S42  1  0.251321  0.356239  0.113410  1
  S  S43  1  0.748679  0.856239  0.386590  1
  S  S44  1  0.748679  0.643761  0.886590  1
  S  S45  1  0.251321  0.143761  0.613410  1
  N  N46  1  0.622523  0.135981  0.373363  1
  N  N47  1  0.377477  0.635981  0.126637  1
  N  N48  1  0.377477  0.864019  0.626637  1
  N  N49  1  0.622523  0.364019  0.873363  1
  O  O50  1  0.394375  0.260471  0.120614  1
  O  O51  1  0.605625  0.760471  0.379386  1
  O  O52  1  0.605625  0.739529  0.879386  1
  O  O53  1  0.394375  0.239529  0.620614  1
  O  O54  1  0.226030  0.412824  0.971888  1
  O  O55  1  0.773970  0.912824  0.528112  1
  O  O56  1  0.773970  0.587176  0.028112  1
  O  O57  1  0.226030  0.087176  0.471888  1
  O  O58  1  0.372154  0.426767  0.240121  1
  O  O59  1  0.627846  0.926767  0.259879  1
  O  O60  1  0.627846  0.573233  0.759879  1
  O  O61  1  0.372154  0.073233  0.740121  1
  O  O62  1  0.019803  0.327358  0.126822  1
  O  O63  1  0.980197  0.827358  0.373178  1
  O  O64  1  0.980197  0.672642  0.873178  1
  O  O65  1  0.019803  0.172642  0.626822  1
  O  O66  1  0.836252  0.390560  0.348595  1
  O  O67  1  0.163748  0.890560  0.151405  1
  O  O68  1  0.163748  0.609440  0.651405  1
  O  O69  1  0.836252  0.109440  0.848595  1
  O  O70  1  0.949194  0.387473  0.681727  1
  O  O71  1  0.050806  0.887473  0.818273  1
  O  O72  1  0.050806  0.612527  0.318273  1
  O  O73  1  0.949194  0.112527  0.181727  1
  O  O74  1  0.701366  0.565418  0.488990  1
  O  O75  1  0.298634  0.065418  0.011010  1
  O  O76  1  0.298634  0.434582  0.511010  1
  O  O77  1  0.701366  0.934582  0.988990  1
