# generated using pymatgen
data_Li2VF4
_symmetry_space_group_name_H-M   'P 1'
_cell_length_a   6.11649191
_cell_length_b   6.11649191
_cell_length_c   8.54242112
_cell_angle_alpha   90.00000000
_cell_angle_beta   90.00000000
_cell_angle_gamma   90.00000000
_symmetry_Int_Tables_number   1
_chemical_formula_structural   Li2VF4
_chemical_formula_sum   'Li8 V4 F16'
_cell_volume   319.58455952
_cell_formula_units_Z   4
loop_
 _symmetry_equiv_pos_site_id
 _symmetry_equiv_pos_as_xyz
  1  'x, y, z'
loop_
 _atom_site_type_symbol
 _atom_site_label
 _atom_site_symmetry_multiplicity
 _atom_site_fract_x
 _atom_site_fract_y
 _atom_site_fract_z
 _atom_site_occupancy
  Li  Li0  1  0.252785  0.252785  0.375000  1
  Li  Li1  1  0.252785  0.747215  0.125000  1
  Li  Li2  1  0.278726  0.500000  0.750000  1
  Li  Li3  1  0.500000  0.278726  0.000000  1
  Li  Li4  1  0.500000  0.721274  0.500000  1
  Li  Li5  1  0.721274  0.500000  0.250000  1
  Li  Li6  1  0.747215  0.252785  0.625000  1
  Li  Li7  1  0.747215  0.747215  0.875000  1
  V  V8  1  0.000000  0.264709  0.000000  1
  V  V9  1  0.000000  0.735291  0.500000  1
  V  V10  1  0.264709  0.000000  0.750000  1
  V  V11  1  0.735291  0.000000  0.250000  1
  F  F12  1  0.020369  0.251339  0.752024  1
  F  F13  1  0.020369  0.748661  0.747976  1
  F  F14  1  0.251339  0.020369  0.997976  1
  F  F15  1  0.251339  0.979631  0.502024  1
  F  F16  1  0.254060  0.492786  0.991807  1
  F  F17  1  0.254060  0.507214  0.508193  1
  F  F18  1  0.492786  0.254060  0.758193  1
  F  F19  1  0.492786  0.745940  0.741807  1
  F  F20  1  0.507214  0.254060  0.241807  1
  F  F21  1  0.507214  0.745940  0.258193  1
  F  F22  1  0.745940  0.507214  0.491807  1
  F  F23  1  0.745940  0.492786  0.008193  1
  F  F24  1  0.748661  0.979631  0.497976  1
  F  F25  1  0.748661  0.020369  0.002024  1
  F  F26  1  0.979631  0.251339  0.247976  1
  F  F27  1  0.979631  0.748661  0.252024  1
