# generated using pymatgen
data_Na2CoO3
_symmetry_space_group_name_H-M   'P 1'
_cell_length_a   5.75683508
_cell_length_b   5.75683508
_cell_length_c   6.21447746
_cell_angle_alpha   73.49753217
_cell_angle_beta   106.50246783
_cell_angle_gamma   118.50264419
_symmetry_Int_Tables_number   1
_chemical_formula_structural   Na2CoO3
_chemical_formula_sum   'Na4 Co2 O6'
_cell_volume   170.82010991
_cell_formula_units_Z   2
loop_
 _symmetry_equiv_pos_site_id
 _symmetry_equiv_pos_as_xyz
  1  'x, y, z'
loop_
 _atom_site_type_symbol
 _atom_site_label
 _atom_site_symmetry_multiplicity
 _atom_site_fract_x
 _atom_site_fract_y
 _atom_site_fract_z
 _atom_site_occupancy
  Na  Na0  1  0.350331  0.649669  0.272464  1
  Na  Na1  1  0.000000  0.000000  0.500000  1
  Na  Na2  1  0.000000  0.000000  0.000000  1
  Na  Na3  1  0.649669  0.350331  0.727536  1
  Co  Co4  1  0.336370  0.663630  0.759618  1
  Co  Co5  1  0.663630  0.336370  0.240382  1
  O  O6  1  0.204573  0.795427  0.875637  1
  O  O7  1  0.191596  0.359369  0.687167  1
  O  O8  1  0.640631  0.808404  0.687167  1
  O  O9  1  0.359369  0.191596  0.312833  1
  O  O10  1  0.808404  0.640631  0.312833  1
  O  O11  1  0.795427  0.204573  0.124363  1
