# generated using pymatgen
data_Na4ZnP6(HO2)12
_symmetry_space_group_name_H-M   'P 1'
_cell_length_a   7.35600447
_cell_length_b   9.31164244
_cell_length_c   9.54838352
_cell_angle_alpha   65.60111605
_cell_angle_beta   74.88099267
_cell_angle_gamma   71.92320664
_symmetry_Int_Tables_number   1
_chemical_formula_structural   Na4ZnP6(HO2)12
_chemical_formula_sum   'Na4 Zn1 P6 H12 O24'
_cell_volume   559.53564884
_cell_formula_units_Z   1
loop_
 _symmetry_equiv_pos_site_id
 _symmetry_equiv_pos_as_xyz
  1  'x, y, z'
loop_
 _atom_site_type_symbol
 _atom_site_label
 _atom_site_symmetry_multiplicity
 _atom_site_fract_x
 _atom_site_fract_y
 _atom_site_fract_z
 _atom_site_occupancy
  Na  Na0  1  0.137762  0.671238  0.088290  1
  Na  Na1  1  0.862238  0.328762  0.911710  1
  Na  Na2  1  0.365692  0.283258  0.963660  1
  Na  Na3  1  0.634308  0.716742  0.036340  1
  Zn  Zn4  1  0.000000  0.500000  0.500000  1
  P  P5  1  0.146270  0.630681  0.709795  1
  P  P6  1  0.853730  0.369319  0.290205  1
  P  P7  1  0.305577  0.744388  0.371755  1
  P  P8  1  0.694423  0.255612  0.628245  1
  P  P9  1  0.041964  0.069698  0.236180  1
  P  P10  1  0.958036  0.930302  0.763820  1
  H  H11  1  0.728889  0.033744  0.011440  1
  H  H12  1  0.271111  0.966256  0.988560  1
  H  H13  1  0.707409  0.088517  0.148254  1
  H  H14  1  0.292591  0.911483  0.851746  1
  H  H15  1  0.673694  0.708859  0.396351  1
  H  H16  1  0.326306  0.291141  0.603649  1
  H  H17  1  0.682573  0.749026  0.539373  1
  H  H18  1  0.317427  0.250974  0.460627  1
  H  H19  1  0.682699  0.637202  0.753354  1
  H  H20  1  0.317301  0.362798  0.246646  1
  H  H21  1  0.523570  0.396756  0.165124  1
  H  H22  1  0.476430  0.603244  0.834876  1
  O  O23  1  0.305285  0.685026  0.557900  1
  O  O24  1  0.694715  0.314974  0.442100  1
  O  O25  1  0.974913  0.792473  0.692040  1
  O  O26  1  0.025087  0.207527  0.307960  1
  O  O27  1  0.241207  0.580667  0.848999  1
  O  O28  1  0.758793  0.419333  0.151001  1
  O  O29  1  0.055449  0.509202  0.702480  1
  O  O30  1  0.944551  0.490798  0.297520  1
  O  O31  1  0.211047  0.935942  0.331607  1
  O  O32  1  0.788953  0.064058  0.668393  1
  O  O33  1  0.180012  0.664195  0.340422  1
  O  O34  1  0.819988  0.335805  0.659578  1
  O  O35  1  0.513494  0.724999  0.298146  1
  O  O36  1  0.486506  0.275001  0.701854  1
  O  O37  1  0.126010  0.134899  0.066139  1
  O  O38  1  0.873990  0.865101  0.933861  1
  O  O39  1  0.142854  0.983598  0.717231  1
  O  O40  1  0.857146  0.016402  0.282769  1
  O  O41  1  0.341721  0.876805  0.951704  1
  O  O42  1  0.658279  0.123195  0.048296  1
  O  O43  1  0.759298  0.691178  0.471406  1
  O  O44  1  0.240702  0.308822  0.528594  1
  O  O45  1  0.394118  0.403705  0.145844  1
  O  O46  1  0.605882  0.596295  0.854156  1
