# generated using pymatgen
data_Li4Ti3Nb2Ni3O16
_symmetry_space_group_name_H-M   'P 1'
_cell_length_a   5.97153865
_cell_length_b   5.97153865
_cell_length_c   9.78159480
_cell_angle_alpha   89.92280496
_cell_angle_beta   90.07719504
_cell_angle_gamma   120.07933277
_symmetry_Int_Tables_number   1
_chemical_formula_structural   Li4Ti3Nb2Ni3O16
_chemical_formula_sum   'Li4 Ti3 Nb2 Ni3 O16'
_cell_volume   301.83148121
_cell_formula_units_Z   1
loop_
 _symmetry_equiv_pos_site_id
 _symmetry_equiv_pos_as_xyz
  1  'x, y, z'
loop_
 _atom_site_type_symbol
 _atom_site_label
 _atom_site_symmetry_multiplicity
 _atom_site_fract_x
 _atom_site_fract_y
 _atom_site_fract_z
 _atom_site_occupancy
  Li  Li0  1  0.666162  0.333838  0.099511  1
  Li  Li1  1  0.997050  0.002950  0.014196  1
  Li  Li2  1  0.000369  0.999631  0.503899  1
  Li  Li3  1  0.332458  0.667542  0.593392  1
  Ti  Ti4  1  0.841990  0.654300  0.780090  1
  Ti  Ti5  1  0.345700  0.158010  0.780090  1
  Ti  Ti6  1  0.178440  0.821560  0.267756  1
  Nb  Nb7  1  0.667338  0.332662  0.498785  1
  Nb  Nb8  1  0.351709  0.648291  0.012360  1
  Ni  Ni9  1  0.830516  0.169484  0.790546  1
  Ni  Ni10  1  0.660358  0.832408  0.290318  1
  Ni  Ni11  1  0.167592  0.339642  0.290318  1
  O  O12  1  0.834616  0.661315  0.409957  1
  O  O13  1  0.517324  0.482676  0.667172  1
  O  O14  1  0.654151  0.345849  0.894596  1
  O  O15  1  0.003859  0.996141  0.694006  1
  O  O16  1  0.006061  0.993939  0.201024  1
  O  O17  1  0.338685  0.165384  0.409957  1
  O  O18  1  0.963128  0.495217  0.661655  1
  O  O19  1  0.504783  0.036872  0.661655  1
  O  O20  1  0.164390  0.835610  0.898244  1
  O  O21  1  0.831748  0.168252  0.414159  1
  O  O22  1  0.470760  0.968083  0.151385  1
  O  O23  1  0.031917  0.529240  0.151385  1
  O  O24  1  0.320880  0.679120  0.392991  1
  O  O25  1  0.667702  0.831278  0.905891  1
  O  O26  1  0.481809  0.518191  0.150932  1
  O  O27  1  0.168722  0.332298  0.905891  1
