# generated using pymatgen
data_PtO3
_symmetry_space_group_name_H-M   'P 1'
_cell_length_a   5.12283400
_cell_length_b   5.12283400
_cell_length_c   5.12283400
_cell_angle_alpha   57.07817664
_cell_angle_beta   57.07817664
_cell_angle_gamma   57.07817664
_symmetry_Int_Tables_number   1
_chemical_formula_structural   PtO3
_chemical_formula_sum   'Pt2 O6'
_cell_volume   88.66192532
_cell_formula_units_Z   2
loop_
 _symmetry_equiv_pos_site_id
 _symmetry_equiv_pos_as_xyz
  1  'x, y, z'
loop_
 _atom_site_type_symbol
 _atom_site_label
 _atom_site_symmetry_multiplicity
 _atom_site_fract_x
 _atom_site_fract_y
 _atom_site_fract_z
 _atom_site_occupancy
  Pt  Pt0  1  0.000000  0.000000  0.000000  1
  Pt  Pt1  1  0.500000  0.500000  0.500000  1
  O  O2  1  0.250000  0.574645  0.925355  1
  O  O3  1  0.425355  0.074645  0.750000  1
  O  O4  1  0.074645  0.750000  0.425355  1
  O  O5  1  0.925355  0.250000  0.574645  1
  O  O6  1  0.574645  0.925355  0.250000  1
  O  O7  1  0.750000  0.425355  0.074645  1
