# generated using pymatgen
data_LiMnP2O7
_symmetry_space_group_name_H-M   'P 1'
_cell_length_a   5.13227972
_cell_length_b   12.95310455
_cell_length_c   9.23401599
_cell_angle_alpha   90.00000000
_cell_angle_beta   120.49727928
_cell_angle_gamma   90.00000000
_symmetry_Int_Tables_number   1
_chemical_formula_structural   LiMnP2O7
_chemical_formula_sum   'Li4 Mn4 P8 O28'
_cell_volume   528.94113990
_cell_formula_units_Z   4
loop_
 _symmetry_equiv_pos_site_id
 _symmetry_equiv_pos_as_xyz
  1  'x, y, z'
loop_
 _atom_site_type_symbol
 _atom_site_label
 _atom_site_symmetry_multiplicity
 _atom_site_fract_x
 _atom_site_fract_y
 _atom_site_fract_z
 _atom_site_occupancy
  Li  Li0  1  0.931271  0.826154  0.642657  1
  Li  Li1  1  0.068729  0.326154  0.857343  1
  Li  Li2  1  0.931271  0.673846  0.142657  1
  Li  Li3  1  0.068729  0.173846  0.357343  1
  Mn  Mn4  1  0.623353  0.641804  0.345817  1
  Mn  Mn5  1  0.376647  0.141804  0.154183  1
  Mn  Mn6  1  0.623353  0.858196  0.845817  1
  Mn  Mn7  1  0.376647  0.358196  0.654183  1
  P  P8  1  0.088426  0.022475  0.796368  1
  P  P9  1  0.235853  0.691848  0.944157  1
  P  P10  1  0.764147  0.191848  0.555843  1
  P  P11  1  0.911574  0.522475  0.703632  1
  P  P12  1  0.088426  0.477525  0.296368  1
  P  P13  1  0.235853  0.808152  0.444157  1
  P  P14  1  0.764147  0.308152  0.055843  1
  P  P15  1  0.911574  0.977525  0.203632  1
  O  O16  1  0.954983  0.779398  0.450714  1
  O  O17  1  0.296096  0.763123  0.831093  1
  O  O18  1  0.721180  0.027978  0.266966  1
  O  O19  1  0.052112  0.439374  0.647267  1
  O  O20  1  0.527069  0.682971  0.117720  1
  O  O21  1  0.257287  0.107545  0.926961  1
  O  O22  1  0.191490  0.577891  0.864552  1
  O  O23  1  0.808510  0.077891  0.635448  1
  O  O24  1  0.742713  0.607545  0.573039  1
  O  O25  1  0.472931  0.182971  0.382280  1
  O  O26  1  0.947888  0.939374  0.852733  1
  O  O27  1  0.278820  0.527978  0.233034  1
  O  O28  1  0.045017  0.279398  0.049286  1
  O  O29  1  0.703904  0.263123  0.668907  1
  O  O30  1  0.296096  0.736877  0.331093  1
  O  O31  1  0.954983  0.720602  0.950714  1
  O  O32  1  0.721180  0.472022  0.766966  1
  O  O33  1  0.052112  0.060626  0.147267  1
  O  O34  1  0.527069  0.817029  0.617720  1
  O  O35  1  0.257287  0.392455  0.426961  1
  O  O36  1  0.191490  0.922109  0.364552  1
  O  O37  1  0.808510  0.422109  0.135448  1
  O  O38  1  0.742713  0.892455  0.073039  1
  O  O39  1  0.472931  0.317029  0.882280  1
  O  O40  1  0.947888  0.560626  0.352733  1
  O  O41  1  0.278820  0.972022  0.733034  1
  O  O42  1  0.703904  0.236877  0.168907  1
  O  O43  1  0.045017  0.220602  0.549286  1
