# generated using pymatgen
data_Na3BSbAsO7
_symmetry_space_group_name_H-M   'P 1'
_cell_length_a   5.50184186
_cell_length_b   7.10855537
_cell_length_c   9.55391508
_cell_angle_alpha   90.00000000
_cell_angle_beta   93.17999919
_cell_angle_gamma   90.00000000
_symmetry_Int_Tables_number   1
_chemical_formula_structural   Na3BSbAsO7
_chemical_formula_sum   'Na6 B2 Sb2 As2 O14'
_cell_volume   373.07966976
_cell_formula_units_Z   2
loop_
 _symmetry_equiv_pos_site_id
 _symmetry_equiv_pos_as_xyz
  1  'x, y, z'
loop_
 _atom_site_type_symbol
 _atom_site_label
 _atom_site_symmetry_multiplicity
 _atom_site_fract_x
 _atom_site_fract_y
 _atom_site_fract_z
 _atom_site_occupancy
  Na  Na0  1  0.765544  0.250000  0.067279  1
  Na  Na1  1  0.248319  0.007565  0.241085  1
  Na  Na2  1  0.248319  0.492435  0.241085  1
  Na  Na3  1  0.751681  0.507565  0.758915  1
  Na  Na4  1  0.751681  0.992435  0.758915  1
  Na  Na5  1  0.234456  0.750000  0.932721  1
  B  B6  1  0.731921  0.750000  0.062746  1
  B  B7  1  0.268079  0.250000  0.937254  1
  Sb  Sb8  1  0.775037  0.750000  0.335338  1
  Sb  Sb9  1  0.224963  0.250000  0.664662  1
  As  As10  1  0.716611  0.250000  0.401744  1
  As  As11  1  0.283389  0.750000  0.598256  1
  O  O12  1  0.271733  0.250000  0.076475  1
  O  O13  1  0.954649  0.750000  0.149696  1
  O  O14  1  0.525751  0.750000  0.144973  1
  O  O15  1  0.823023  0.063165  0.303695  1
  O  O16  1  0.823023  0.436835  0.303695  1
  O  O17  1  0.408722  0.250000  0.395108  1
  O  O18  1  0.175448  0.750000  0.423641  1
  O  O19  1  0.824552  0.250000  0.576359  1
  O  O20  1  0.591278  0.750000  0.604892  1
  O  O21  1  0.176977  0.563165  0.696305  1
  O  O22  1  0.176977  0.936835  0.696305  1
  O  O23  1  0.474249  0.250000  0.855027  1
  O  O24  1  0.045351  0.250000  0.850304  1
  O  O25  1  0.728267  0.750000  0.923525  1
