# generated using pymatgen
data_BeCrO4
_symmetry_space_group_name_H-M   'P 1'
_cell_length_a   7.16479177
_cell_length_b   7.16479177
_cell_length_c   5.72091330
_cell_angle_alpha   77.74123733
_cell_angle_beta   102.25876267
_cell_angle_gamma   98.58215564
_symmetry_Int_Tables_number   1
_chemical_formula_structural   BeCrO4
_chemical_formula_sum   'Be4 Cr4 O16'
_cell_volume   278.76606712
_cell_formula_units_Z   4
loop_
 _symmetry_equiv_pos_site_id
 _symmetry_equiv_pos_as_xyz
  1  'x, y, z'
loop_
 _atom_site_type_symbol
 _atom_site_label
 _atom_site_symmetry_multiplicity
 _atom_site_fract_x
 _atom_site_fract_y
 _atom_site_fract_z
 _atom_site_occupancy
  Be  Be0  1  0.113476  0.886524  0.793312  1
  Be  Be1  1  0.751250  0.751250  0.500000  1
  Be  Be2  1  0.248750  0.248750  0.500000  1
  Be  Be3  1  0.886524  0.113476  0.206688  1
  Cr  Cr4  1  0.279715  0.720285  0.386820  1
  Cr  Cr5  1  0.761552  0.761552  0.000000  1
  Cr  Cr6  1  0.238448  0.238448  0.000000  1
  Cr  Cr7  1  0.720285  0.279715  0.613180  1
  O  O8  1  0.191373  0.808627  0.583062  1
  O  O9  1  0.184601  0.815399  0.095962  1
  O  O10  1  0.538817  0.781791  0.905634  1
  O  O11  1  0.218209  0.461183  0.905634  1
  O  O12  1  0.228980  0.483459  0.436296  1
  O  O13  1  0.516541  0.771020  0.436296  1
  O  O14  1  0.168907  0.124594  0.741638  1
  O  O15  1  0.875406  0.831093  0.741638  1
  O  O16  1  0.831093  0.875406  0.258362  1
  O  O17  1  0.124594  0.168907  0.258362  1
  O  O18  1  0.771020  0.516541  0.563704  1
  O  O19  1  0.483459  0.228980  0.563704  1
  O  O20  1  0.781791  0.538817  0.094366  1
  O  O21  1  0.461183  0.218209  0.094366  1
  O  O22  1  0.815399  0.184601  0.904038  1
  O  O23  1  0.808627  0.191373  0.416938  1
