# generated using pymatgen
data_LiFePO4
_symmetry_space_group_name_H-M   'P 1'
_cell_length_a   4.76352749
_cell_length_b   6.91540564
_cell_length_c   9.54124745
_cell_angle_alpha   90.00000000
_cell_angle_beta   90.00000000
_cell_angle_gamma   90.00000000
_symmetry_Int_Tables_number   1
_chemical_formula_structural   LiFePO4
_chemical_formula_sum   'Li4 Fe4 P4 O16'
_cell_volume   314.30514842
_cell_formula_units_Z   4
loop_
 _symmetry_equiv_pos_site_id
 _symmetry_equiv_pos_as_xyz
  1  'x, y, z'
loop_
 _atom_site_type_symbol
 _atom_site_label
 _atom_site_symmetry_multiplicity
 _atom_site_fract_x
 _atom_site_fract_y
 _atom_site_fract_z
 _atom_site_occupancy
  Li  Li0  1  0.007913  0.094896  0.032099  1
  Li  Li1  1  0.992087  0.594896  0.467901  1
  Li  Li2  1  0.492087  0.905104  0.532099  1
  Li  Li3  1  0.507913  0.405104  0.967901  1
  Fe  Fe4  1  0.455696  0.768406  0.185862  1
  Fe  Fe5  1  0.544304  0.268406  0.314138  1
  Fe  Fe6  1  0.044304  0.231594  0.685862  1
  Fe  Fe7  1  0.955696  0.731594  0.814138  1
  P  P8  1  0.906253  0.503124  0.153890  1
  P  P9  1  0.093747  0.003124  0.346110  1
  P  P10  1  0.593747  0.496876  0.653890  1
  P  P11  1  0.406253  0.996876  0.846110  1
  O  O12  1  0.786848  0.668775  0.059810  1
  O  O13  1  0.784532  0.304612  0.106454  1
  O  O14  1  0.230259  0.503298  0.157619  1
  O  O15  1  0.234370  0.035003  0.198692  1
  O  O16  1  0.765630  0.535003  0.301308  1
  O  O17  1  0.769741  0.003298  0.342381  1
  O  O18  1  0.215468  0.804612  0.393546  1
  O  O19  1  0.213152  0.168775  0.440190  1
  O  O20  1  0.713152  0.331225  0.559810  1
  O  O21  1  0.715468  0.695388  0.606454  1
  O  O22  1  0.269741  0.496702  0.657619  1
  O  O23  1  0.265630  0.964997  0.698692  1
  O  O24  1  0.734370  0.464997  0.801308  1
  O  O25  1  0.730259  0.996702  0.842381  1
  O  O26  1  0.284532  0.195388  0.893546  1
  O  O27  1  0.286848  0.831225  0.940190  1
