# generated using pymatgen
data_LiSbPO5
_symmetry_space_group_name_H-M   'P 1'
_cell_length_a   8.36766030
_cell_length_b   10.37580411
_cell_length_c   11.05648389
_cell_angle_alpha   78.96061924
_cell_angle_beta   68.54338802
_cell_angle_gamma   67.59756577
_symmetry_Int_Tables_number   1
_chemical_formula_structural   LiSbPO5
_chemical_formula_sum   'Li8 Sb8 P8 O40'
_cell_volume   824.46889300
_cell_formula_units_Z   8
loop_
 _symmetry_equiv_pos_site_id
 _symmetry_equiv_pos_as_xyz
  1  'x, y, z'
loop_
 _atom_site_type_symbol
 _atom_site_label
 _atom_site_symmetry_multiplicity
 _atom_site_fract_x
 _atom_site_fract_y
 _atom_site_fract_z
 _atom_site_occupancy
  Li  Li0  1  0.985729  0.921902  0.739286  1
  Li  Li1  1  0.765202  0.819843  0.017300  1
  Li  Li2  1  0.228813  0.273766  0.647643  1
  Li  Li3  1  0.458100  0.420416  0.269091  1
  Li  Li4  1  0.471881  0.528158  0.909566  1
  Li  Li5  1  0.719991  0.666371  0.509030  1
  Li  Li6  1  0.984016  0.022096  0.398873  1
  Li  Li7  1  0.206913  0.170679  0.021700  1
  Sb  Sb8  1  0.000219  0.997020  0.010052  1
  Sb  Sb9  1  0.490875  0.500274  0.509273  1
  Sb  Sb10  1  0.744423  0.746075  0.752176  1
  Sb  Sb11  1  0.625332  0.124522  0.627447  1
  Sb  Sb12  1  0.873044  0.373862  0.879618  1
  Sb  Sb13  1  0.113936  0.624371  0.132561  1
  Sb  Sb14  1  0.383256  0.872846  0.373043  1
  Sb  Sb15  1  0.245123  0.246893  0.259689  1
  P  P16  1  0.602956  0.175211  0.928648  1
  P  P17  1  0.144199  0.573074  0.819742  1
  P  P18  1  0.101441  0.685600  0.424869  1
  P  P19  1  0.353215  0.931674  0.672543  1
  P  P20  1  0.652678  0.071976  0.319492  1
  P  P21  1  0.899926  0.319789  0.569147  1
  P  P22  1  0.852844  0.427895  0.178482  1
  P  P23  1  0.399710  0.816253  0.071339  1
  O  O24  1  0.646675  0.305391  0.945397  1
  O  O25  1  0.209780  0.542247  0.942690  1
  O  O26  1  0.770329  0.039093  0.921316  1
  O  O27  1  0.303297  0.589172  0.700116  1
  O  O28  1  0.973194  0.708650  0.837450  1
  O  O29  1  0.553647  0.208765  0.799594  1
  O  O30  1  0.782856  0.949636  0.678771  1
  O  O31  1  0.573929  0.822095  0.957679  1
  O  O32  1  0.140922  0.816987  0.442337  1
  O  O33  1  0.097214  0.446099  0.800573  1
  O  O34  1  0.463396  0.295976  0.576359  1
  O  O35  1  0.274499  0.555343  0.410231  1
  O  O36  1  0.936398  0.669190  0.540478  1
  O  O37  1  0.036753  0.201845  0.927288  1
  O  O38  1  0.709948  0.542452  0.824468  1
  O  O39  1  0.392586  0.064993  0.686835  1
  O  O40  1  0.529876  0.802853  0.657103  1
  O  O41  1  0.719983  0.044532  0.442420  1
  O  O42  1  0.190917  0.916008  0.788423  1
  O  O43  1  0.041388  0.718320  0.300230  1
  O  O44  1  0.963058  0.291601  0.693476  1
  O  O45  1  0.820810  0.078146  0.202214  1
  O  O46  1  0.291997  0.961200  0.548974  1
  O  O47  1  0.487848  0.208209  0.330077  1
  O  O48  1  0.601995  0.944599  0.309310  1
  O  O49  1  0.281812  0.453688  0.178706  1
  O  O50  1  0.964708  0.796411  0.071422  1
  O  O51  1  0.067692  0.327570  0.452794  1
  O  O52  1  0.734430  0.455394  0.578447  1
  O  O53  1  0.530636  0.699847  0.433231  1
  O  O54  1  0.894436  0.556096  0.200375  1
  O  O55  1  0.853811  0.190179  0.554680  1
  O  O56  1  0.432786  0.165619  0.040189  1
  O  O57  1  0.219131  0.043321  0.319685  1
  O  O58  1  0.456347  0.785631  0.197387  1
  O  O59  1  0.025721  0.295836  0.165020  1
  O  O60  1  0.685974  0.412692  0.290486  1
  O  O61  1  0.240572  0.955974  0.074846  1
  O  O62  1  0.801172  0.463527  0.049665  1
  O  O63  1  0.347857  0.693223  0.051262  1
