# generated using pymatgen
data_LiZn4Fe13O24
_symmetry_space_group_name_H-M   'P 1'
_cell_length_a   6.05944481
_cell_length_b   6.05944481
_cell_length_c   14.81432132
_cell_angle_alpha   89.74261123
_cell_angle_beta   90.25738877
_cell_angle_gamma   120.01713936
_symmetry_Int_Tables_number   1
_chemical_formula_structural   LiZn4Fe13O24
_chemical_formula_sum   'Li1 Zn4 Fe13 O24'
_cell_volume   470.97427548
_cell_formula_units_Z   1
loop_
 _symmetry_equiv_pos_site_id
 _symmetry_equiv_pos_as_xyz
  1  'x, y, z'
loop_
 _atom_site_type_symbol
 _atom_site_label
 _atom_site_symmetry_multiplicity
 _atom_site_fract_x
 _atom_site_fract_y
 _atom_site_fract_z
 _atom_site_occupancy
  Li  Li0  1  0.999267  0.000733  0.249974  1
  Zn  Zn1  1  0.331827  0.668173  0.958789  1
  Zn  Zn2  1  0.166068  0.833932  0.792141  1
  Zn  Zn3  1  0.836251  0.163749  0.456401  1
  Zn  Zn4  1  0.000375  0.999625  0.624224  1
  Fe  Fe5  1  0.998678  0.001322  0.004296  1
  Fe  Fe6  1  0.165639  0.333219  0.791831  1
  Fe  Fe7  1  0.669343  0.330657  0.912488  1
  Fe  Fe8  1  0.661784  0.338216  0.666626  1
  Fe  Fe9  1  0.328501  0.161904  0.457726  1
  Fe  Fe10  1  0.666781  0.834361  0.791831  1
  Fe  Fe11  1  0.501761  0.004915  0.126959  1
  Fe  Fe12  1  0.838096  0.671499  0.457726  1
  Fe  Fe13  1  0.339151  0.660849  0.582952  1
  Fe  Fe14  1  0.502076  0.497924  0.126514  1
  Fe  Fe15  1  0.666261  0.333739  0.287646  1
  Fe  Fe16  1  0.330563  0.669437  0.333915  1
  Fe  Fe17  1  0.995085  0.498239  0.126959  1
  O  O18  1  0.831001  0.681646  0.712948  1
  O  O19  1  0.015110  0.498866  0.872108  1
  O  O20  1  0.338248  0.661752  0.715803  1
  O  O21  1  0.493130  0.506870  0.870107  1
  O  O22  1  0.663975  0.336025  0.534516  1
  O  O23  1  0.837745  0.162255  0.714705  1
  O  O24  1  0.994274  0.005726  0.871821  1
  O  O25  1  0.502288  0.019220  0.373569  1
  O  O26  1  0.318354  0.168999  0.712948  1
  O  O27  1  0.364522  0.182647  0.202147  1
  O  O28  1  0.679440  0.827941  0.538416  1
  O  O29  1  0.501134  0.984890  0.872108  1
  O  O30  1  0.172059  0.320560  0.538416  1
  O  O31  1  0.816452  0.183548  0.203383  1
  O  O32  1  0.165129  0.834871  0.536537  1
  O  O33  1  0.006799  0.993201  0.388582  1
  O  O34  1  0.332745  0.667255  0.200971  1
  O  O35  1  0.509248  0.490752  0.376014  1
  O  O36  1  0.173061  0.826939  0.047937  1
  O  O37  1  0.171764  0.348596  0.048452  1
  O  O38  1  0.980780  0.497712  0.373569  1
  O  O39  1  0.651404  0.828236  0.048452  1
  O  O40  1  0.817353  0.635478  0.202147  1
  O  O41  1  0.666478  0.333522  0.045339  1
