# generated using pymatgen
data_Fe3Cu2Sn(PO4)6
_symmetry_space_group_name_H-M   'P 1'
_cell_length_a   8.62515354
_cell_length_b   8.62515354
_cell_length_c   8.62515354
_cell_angle_alpha   60.24797719
_cell_angle_beta   60.24797719
_cell_angle_gamma   60.24797719
_symmetry_Int_Tables_number   1
_chemical_formula_structural   Fe3Cu2Sn(PO4)6
_chemical_formula_sum   'Fe3 Cu2 Sn1 P6 O24'
_cell_volume   456.26437566
_cell_formula_units_Z   1
loop_
 _symmetry_equiv_pos_site_id
 _symmetry_equiv_pos_as_xyz
  1  'x, y, z'
loop_
 _atom_site_type_symbol
 _atom_site_label
 _atom_site_symmetry_multiplicity
 _atom_site_fract_x
 _atom_site_fract_y
 _atom_site_fract_z
 _atom_site_occupancy
  Fe  Fe0  1  0.855065  0.855065  0.855065  1
  Fe  Fe1  1  0.644704  0.644704  0.644704  1
  Fe  Fe2  1  0.355881  0.355881  0.355881  1
  Cu  Cu3  1  0.995843  0.995843  0.995843  1
  Cu  Cu4  1  0.500289  0.500289  0.500289  1
  Sn  Sn5  1  0.143563  0.143563  0.143563  1
  P  P6  1  0.251537  0.548083  0.953879  1
  P  P7  1  0.953879  0.251537  0.548083  1
  P  P8  1  0.548083  0.953879  0.251537  1
  P  P9  1  0.746462  0.460017  0.044303  1
  P  P10  1  0.460017  0.044303  0.746462  1
  P  P11  1  0.044303  0.746462  0.460017  1
  O  O12  1  0.887664  0.686421  0.495594  1
  O  O13  1  0.686421  0.495594  0.887664  1
  O  O14  1  0.940107  0.086436  0.741481  1
  O  O15  1  0.495594  0.887664  0.686421  1
  O  O16  1  0.985435  0.190623  0.392343  1
  O  O17  1  0.759241  0.414301  0.560902  1
  O  O18  1  0.741481  0.940107  0.086436  1
  O  O19  1  0.560902  0.759241  0.414301  1
  O  O20  1  0.810685  0.613740  0.007045  1
  O  O21  1  0.414301  0.560902  0.759241  1
  O  O22  1  0.910783  0.261617  0.056838  1
  O  O23  1  0.613740  0.007045  0.810685  1
  O  O24  1  0.392343  0.985435  0.190623  1
  O  O25  1  0.086436  0.741481  0.940107  1
  O  O26  1  0.584911  0.443465  0.240456  1
  O  O27  1  0.190623  0.392343  0.985435  1
  O  O28  1  0.443465  0.240456  0.584911  1
  O  O29  1  0.261617  0.056838  0.910783  1
  O  O30  1  0.240456  0.584911  0.443465  1
  O  O31  1  0.007045  0.810685  0.613740  1
  O  O32  1  0.505999  0.114664  0.309622  1
  O  O33  1  0.056838  0.910783  0.261617  1
  O  O34  1  0.309622  0.505999  0.114664  1
  O  O35  1  0.114664  0.309622  0.505999  1
