# generated using pymatgen
data_Li3Nb(CoO2)4
_symmetry_space_group_name_H-M   'P 1'
_cell_length_a   6.02015295
_cell_length_b   6.02015295
_cell_length_c   6.12405881
_cell_angle_alpha   59.54315193
_cell_angle_beta   120.45684807
_cell_angle_gamma   119.04620294
_symmetry_Int_Tables_number   1
_chemical_formula_structural   Li3Nb(CoO2)4
_chemical_formula_sum   'Li3 Nb1 Co4 O8'
_cell_volume   156.92561502
_cell_formula_units_Z   1
loop_
 _symmetry_equiv_pos_site_id
 _symmetry_equiv_pos_as_xyz
  1  'x, y, z'
loop_
 _atom_site_type_symbol
 _atom_site_label
 _atom_site_symmetry_multiplicity
 _atom_site_fract_x
 _atom_site_fract_y
 _atom_site_fract_z
 _atom_site_occupancy
  Li  Li0  1  0.000000  0.500000  0.000000  1
  Li  Li1  1  0.500000  0.000000  0.000000  1
  Li  Li2  1  0.000000  1.000000  0.500000  1
  Nb  Nb3  1  0.500000  0.500000  0.000000  1
  Co  Co4  1  0.000000  0.000000  0.000000  1
  Co  Co5  1  0.500000  0.000000  0.500000  1
  Co  Co6  1  0.000000  0.500000  0.500000  1
  Co  Co7  1  0.500000  0.500000  0.500000  1
  O  O8  1  0.740213  0.259787  0.240349  1
  O  O9  1  0.266394  0.258600  0.766764  1
  O  O10  1  0.741400  0.733606  0.766764  1
  O  O11  1  0.259787  0.740213  0.759651  1
  O  O12  1  0.250015  0.749985  0.268545  1
  O  O13  1  0.733606  0.741400  0.233236  1
  O  O14  1  0.258600  0.266394  0.233236  1
  O  O15  1  0.749985  0.250015  0.731455  1
