# generated using pymatgen
data_La2Bi4O9
_symmetry_space_group_name_H-M   'P 1'
_cell_length_a   4.04090005
_cell_length_b   7.00917197
_cell_length_c   9.43336477
_cell_angle_alpha   96.80399907
_cell_angle_beta   101.20017336
_cell_angle_gamma   90.23957500
_symmetry_Int_Tables_number   1
_chemical_formula_structural   La2Bi4O9
_chemical_formula_sum   'La2 Bi4 O9'
_cell_volume   260.14865265
_cell_formula_units_Z   1
loop_
 _symmetry_equiv_pos_site_id
 _symmetry_equiv_pos_as_xyz
  1  'x, y, z'
loop_
 _atom_site_type_symbol
 _atom_site_label
 _atom_site_symmetry_multiplicity
 _atom_site_fract_x
 _atom_site_fract_y
 _atom_site_fract_z
 _atom_site_occupancy
  La  La0  1  0.495186  0.494452  0.017731  1
  La  La1  1  0.977726  0.997716  0.990557  1
  Bi  Bi2  1  0.836529  0.599759  0.675977  1
  Bi  Bi3  1  0.627066  0.895044  0.327102  1
  Bi  Bi4  1  0.350637  0.122026  0.657337  1
  Bi  Bi5  1  0.174129  0.362206  0.345152  1
  O  O6  1  0.584203  0.555379  0.296725  1
  O  O7  1  0.527566  0.854080  0.092611  1
  O  O8  1  0.952464  0.635964  0.906918  1
  O  O9  1  0.796251  0.925857  0.703131  1
  O  O10  1  0.656085  0.224779  0.485519  1
  O  O11  1  0.110959  0.028065  0.280672  1
  O  O12  1  0.438644  0.159802  0.895442  1
  O  O13  1  0.035906  0.333044  0.107270  1
  O  O14  1  0.365599  0.454839  0.709715  1
