# generated using pymatgen
data_Li2CuSiO4
_symmetry_space_group_name_H-M   'P 1'
_cell_length_a   5.27264704
_cell_length_b   5.27264704
_cell_length_c   6.30294027
_cell_angle_alpha   90.00000000
_cell_angle_beta   90.00000000
_cell_angle_gamma   93.70136342
_symmetry_Int_Tables_number   1
_chemical_formula_structural   Li2CuSiO4
_chemical_formula_sum   'Li4 Cu2 Si2 O8'
_cell_volume   174.86131604
_cell_formula_units_Z   2
loop_
 _symmetry_equiv_pos_site_id
 _symmetry_equiv_pos_as_xyz
  1  'x, y, z'
loop_
 _atom_site_type_symbol
 _atom_site_label
 _atom_site_symmetry_multiplicity
 _atom_site_fract_x
 _atom_site_fract_y
 _atom_site_fract_z
 _atom_site_occupancy
  Li  Li0  1  0.310215  0.310215  0.500000  1
  Li  Li1  1  0.816047  0.183953  0.750000  1
  Li  Li2  1  0.183953  0.816047  0.250000  1
  Li  Li3  1  0.689785  0.689785  0.000000  1
  Cu  Cu4  1  0.817345  0.182655  0.250000  1
  Cu  Cu5  1  0.182655  0.817345  0.750000  1
  Si  Si6  1  0.327922  0.327922  0.000000  1
  Si  Si7  1  0.672078  0.672078  0.500000  1
  O  O8  1  0.197947  0.195395  0.214743  1
  O  O9  1  0.195395  0.197947  0.785257  1
  O  O10  1  0.638927  0.301422  0.000760  1
  O  O11  1  0.301422  0.638927  0.999240  1
  O  O12  1  0.361073  0.698578  0.500760  1
  O  O13  1  0.698578  0.361073  0.499240  1
  O  O14  1  0.802053  0.804605  0.714743  1
  O  O15  1  0.804605  0.802053  0.285257  1
