# generated using pymatgen
data_Li4Co3Ni2Sn3O16
_symmetry_space_group_name_H-M   'P 1'
_cell_length_a   5.96127875
_cell_length_b   5.96127875
_cell_length_c   9.64326854
_cell_angle_alpha   89.64168714
_cell_angle_beta   90.35831286
_cell_angle_gamma   119.75248751
_symmetry_Int_Tables_number   1
_chemical_formula_structural   Li4Co3Ni2Sn3O16
_chemical_formula_sum   'Li4 Co3 Ni2 Sn3 O16'
_cell_volume   297.50904933
_cell_formula_units_Z   1
loop_
 _symmetry_equiv_pos_site_id
 _symmetry_equiv_pos_as_xyz
  1  'x, y, z'
loop_
 _atom_site_type_symbol
 _atom_site_label
 _atom_site_symmetry_multiplicity
 _atom_site_fract_x
 _atom_site_fract_y
 _atom_site_fract_z
 _atom_site_occupancy
  Li  Li0  1  0.321120  0.678880  0.885153  1
  Li  Li1  1  0.024996  0.975004  0.992291  1
  Li  Li2  1  0.017945  0.982055  0.502821  1
  Li  Li3  1  0.657535  0.342465  0.398967  1
  Co  Co4  1  0.167938  0.832062  0.215070  1
  Co  Co5  1  0.828642  0.664112  0.714158  1
  Co  Co6  1  0.335888  0.171358  0.714158  1
  Ni  Ni7  1  0.335497  0.664503  0.494294  1
  Ni  Ni8  1  0.666464  0.333536  0.986993  1
  Sn  Sn9  1  0.661377  0.833861  0.214199  1
  Sn  Sn10  1  0.166139  0.338623  0.214199  1
  Sn  Sn11  1  0.829432  0.170568  0.714996  1
  O  O12  1  0.687888  0.827440  0.601837  1
  O  O13  1  0.480991  0.519009  0.344476  1
  O  O14  1  0.321363  0.678637  0.098229  1
  O  O15  1  0.011721  0.988279  0.318717  1
  O  O16  1  0.009798  0.990202  0.810346  1
  O  O17  1  0.172560  0.312112  0.601837  1
  O  O18  1  0.463840  0.969188  0.334450  1
  O  O19  1  0.030812  0.536160  0.334450  1
  O  O20  1  0.844285  0.155715  0.087649  1
  O  O21  1  0.161034  0.838966  0.619583  1
  O  O22  1  0.957627  0.502199  0.834451  1
  O  O23  1  0.497801  0.042373  0.834451  1
  O  O24  1  0.653711  0.346289  0.607993  1
  O  O25  1  0.857119  0.678817  0.106151  1
  O  O26  1  0.515284  0.484716  0.820025  1
  O  O27  1  0.321183  0.142881  0.106151  1
