# generated using pymatgen
data_Li4Mn2Cr3Sn3O16
_symmetry_space_group_name_H-M   'P 1'
_cell_length_a   6.08522394
_cell_length_b   6.08522394
_cell_length_c   9.65565539
_cell_angle_alpha   89.28304044
_cell_angle_beta   90.71695956
_cell_angle_gamma   119.39705727
_symmetry_Int_Tables_number   1
_chemical_formula_structural   Li4Mn2Cr3Sn3O16
_chemical_formula_sum   'Li4 Mn2 Cr3 Sn3 O16'
_cell_volume   311.47743664
_cell_formula_units_Z   1
loop_
 _symmetry_equiv_pos_site_id
 _symmetry_equiv_pos_as_xyz
  1  'x, y, z'
loop_
 _atom_site_type_symbol
 _atom_site_label
 _atom_site_symmetry_multiplicity
 _atom_site_fract_x
 _atom_site_fract_y
 _atom_site_fract_z
 _atom_site_occupancy
  Li  Li0  1  0.672238  0.327762  0.892847  1
  Li  Li1  1  0.985642  0.014358  0.991498  1
  Li  Li2  1  0.985496  0.014504  0.499282  1
  Li  Li3  1  0.337218  0.662782  0.400056  1
  Mn  Mn4  1  0.671222  0.328778  0.494057  1
  Mn  Mn5  1  0.339895  0.660105  0.979563  1
  Cr  Cr6  1  0.829989  0.170011  0.213479  1
  Cr  Cr7  1  0.169026  0.339621  0.714220  1
  Cr  Cr8  1  0.660379  0.830974  0.714220  1
  Sn  Sn9  1  0.340236  0.165038  0.213067  1
  Sn  Sn10  1  0.834962  0.659764  0.213067  1
  Sn  Sn11  1  0.166506  0.833494  0.710756  1
  O  O12  1  0.317563  0.167662  0.599082  1
  O  O13  1  0.525211  0.474789  0.350114  1
  O  O14  1  0.669570  0.330430  0.097764  1
  O  O15  1  0.997922  0.002078  0.312827  1
  O  O16  1  0.994919  0.005081  0.810016  1
  O  O17  1  0.832338  0.682437  0.599082  1
  O  O18  1  0.528667  0.030304  0.337421  1
  O  O19  1  0.969696  0.471333  0.337421  1
  O  O20  1  0.163305  0.836695  0.089813  1
  O  O21  1  0.829790  0.170210  0.604858  1
  O  O22  1  0.049965  0.517680  0.848444  1
  O  O23  1  0.482320  0.950035  0.848444  1
  O  O24  1  0.335640  0.664360  0.605926  1
  O  O25  1  0.165413  0.331196  0.095465  1
  O  O26  1  0.479443  0.520557  0.841208  1
  O  O27  1  0.668804  0.834587  0.095465  1
