# generated using pymatgen
data_V4OF11
_symmetry_space_group_name_H-M   'P 1'
_cell_length_a   5.25649995
_cell_length_b   5.44724793
_cell_length_c   7.61032891
_cell_angle_alpha   92.99600690
_cell_angle_beta   89.97987311
_cell_angle_gamma   90.63721776
_symmetry_Int_Tables_number   1
_chemical_formula_structural   V4OF11
_chemical_formula_sum   'V4 O1 F11'
_cell_volume   217.59872934
_cell_formula_units_Z   1
loop_
 _symmetry_equiv_pos_site_id
 _symmetry_equiv_pos_as_xyz
  1  'x, y, z'
loop_
 _atom_site_type_symbol
 _atom_site_label
 _atom_site_symmetry_multiplicity
 _atom_site_fract_x
 _atom_site_fract_y
 _atom_site_fract_z
 _atom_site_occupancy
  V  V0  1  0.500561  0.500092  0.499841  1
  V  V1  1  0.478691  0.485194  0.004068  1
  V  V2  1  0.999669  0.999517  0.499770  1
  V  V3  1  0.003599  0.003772  0.000816  1
  O  O4  1  0.225988  0.296489  0.038630  1
  F  F5  1  0.096716  0.991268  0.749415  1
  F  F6  1  0.193863  0.696250  0.450011  1
  F  F7  1  0.296975  0.793498  0.052675  1
  F  F8  1  0.306420  0.195817  0.446736  1
  F  F9  1  0.404923  0.501508  0.750298  1
  F  F10  1  0.600950  0.504097  0.249298  1
  F  F11  1  0.691860  0.805474  0.550982  1
  F  F12  1  0.710238  0.211598  0.948309  1
  F  F13  1  0.782479  0.706105  0.959494  1
  F  F14  1  0.805795  0.302853  0.549633  1
  F  F15  1  0.901272  0.006468  0.250021  1
