# generated using pymatgen
data_BeCrO4
_symmetry_space_group_name_H-M   'P 1'
_cell_length_a   4.91102945
_cell_length_b   8.32874761
_cell_length_c   8.56828820
_cell_angle_alpha   90.00000000
_cell_angle_beta   116.66289932
_cell_angle_gamma   90.00000000
_symmetry_Int_Tables_number   1
_chemical_formula_structural   BeCrO4
_chemical_formula_sum   'Be4 Cr4 O16'
_cell_volume   313.19849724
_cell_formula_units_Z   4
loop_
 _symmetry_equiv_pos_site_id
 _symmetry_equiv_pos_as_xyz
  1  'x, y, z'
loop_
 _atom_site_type_symbol
 _atom_site_label
 _atom_site_symmetry_multiplicity
 _atom_site_fract_x
 _atom_site_fract_y
 _atom_site_fract_z
 _atom_site_occupancy
  Be  Be0  1  0.904529  0.896238  0.247080  1
  Be  Be1  1  0.095471  0.396238  0.252920  1
  Be  Be2  1  0.904529  0.603762  0.747080  1
  Be  Be3  1  0.095471  0.103762  0.752920  1
  Cr  Cr4  1  0.297199  0.698481  0.144271  1
  Cr  Cr5  1  0.702801  0.198481  0.355729  1
  Cr  Cr6  1  0.297199  0.801519  0.644271  1
  Cr  Cr7  1  0.702801  0.301519  0.855729  1
  O  O8  1  0.829047  0.390411  0.049130  1
  O  O9  1  0.084104  0.858203  0.129052  1
  O  O10  1  0.731081  0.069325  0.214097  1
  O  O11  1  0.658119  0.753961  0.213132  1
  O  O12  1  0.341881  0.253961  0.286868  1
  O  O13  1  0.268919  0.569325  0.285903  1
  O  O14  1  0.915896  0.358203  0.370948  1
  O  O15  1  0.829047  0.109589  0.549130  1
  O  O16  1  0.170953  0.890411  0.450870  1
  O  O17  1  0.084104  0.641797  0.629052  1
  O  O18  1  0.731081  0.430675  0.714097  1
  O  O19  1  0.658119  0.746039  0.713132  1
  O  O20  1  0.341881  0.246039  0.786868  1
  O  O21  1  0.268919  0.930675  0.785903  1
  O  O22  1  0.915896  0.141797  0.870948  1
  O  O23  1  0.170953  0.609589  0.950870  1
