# generated using pymatgen
data_LiNiPO4
_symmetry_space_group_name_H-M   'P 1'
_cell_length_a   4.65855625
_cell_length_b   6.11888514
_cell_length_c   10.27901413
_cell_angle_alpha   90.00000000
_cell_angle_beta   90.00000000
_cell_angle_gamma   90.00000000
_symmetry_Int_Tables_number   1
_chemical_formula_structural   LiNiPO4
_chemical_formula_sum   'Li4 Ni4 P4 O16'
_cell_volume   293.00505164
_cell_formula_units_Z   4
loop_
 _symmetry_equiv_pos_site_id
 _symmetry_equiv_pos_as_xyz
  1  'x, y, z'
loop_
 _atom_site_type_symbol
 _atom_site_label
 _atom_site_symmetry_multiplicity
 _atom_site_fract_x
 _atom_site_fract_y
 _atom_site_fract_z
 _atom_site_occupancy
  Li  Li0  1  0.517101  0.250000  0.215305  1
  Li  Li1  1  0.017101  0.750000  0.284695  1
  Li  Li2  1  0.982899  0.250000  0.715305  1
  Li  Li3  1  0.482899  0.750000  0.784695  1
  Ni  Ni4  1  0.000000  0.000000  0.000000  1
  Ni  Ni5  1  0.000000  0.500000  0.000000  1
  Ni  Ni6  1  0.500000  0.000000  0.500000  1
  Ni  Ni7  1  0.500000  0.500000  0.500000  1
  P  P8  1  0.586951  0.750000  0.092397  1
  P  P9  1  0.086951  0.250000  0.407603  1
  P  P10  1  0.913049  0.750000  0.592397  1
  P  P11  1  0.413049  0.250000  0.907603  1
  O  O12  1  0.272329  0.250000  0.049281  1
  O  O13  1  0.255436  0.750000  0.085663  1
  O  O14  1  0.711236  0.958047  0.156496  1
  O  O15  1  0.711236  0.541953  0.156496  1
  O  O16  1  0.211236  0.458047  0.343504  1
  O  O17  1  0.211236  0.041953  0.343504  1
  O  O18  1  0.755436  0.250000  0.414337  1
  O  O19  1  0.772329  0.750000  0.450719  1
  O  O20  1  0.227671  0.250000  0.549281  1
  O  O21  1  0.244564  0.750000  0.585663  1
  O  O22  1  0.788764  0.958047  0.656496  1
  O  O23  1  0.788764  0.541953  0.656496  1
  O  O24  1  0.288764  0.458047  0.843504  1
  O  O25  1  0.288764  0.041953  0.843504  1
  O  O26  1  0.744564  0.250000  0.914337  1
  O  O27  1  0.727671  0.750000  0.950719  1
