# generated using pymatgen
data_LiFe2F7
_symmetry_space_group_name_H-M   'P 1'
_cell_length_a   5.16045348
_cell_length_b   9.39472538
_cell_length_c   6.02184321
_cell_angle_alpha   90.00000000
_cell_angle_beta   95.57687274
_cell_angle_gamma   90.00000000
_symmetry_Int_Tables_number   1
_chemical_formula_structural   LiFe2F7
_chemical_formula_sum   'Li2 Fe4 F14'
_cell_volume   290.56337959
_cell_formula_units_Z   2
loop_
 _symmetry_equiv_pos_site_id
 _symmetry_equiv_pos_as_xyz
  1  'x, y, z'
loop_
 _atom_site_type_symbol
 _atom_site_label
 _atom_site_symmetry_multiplicity
 _atom_site_fract_x
 _atom_site_fract_y
 _atom_site_fract_z
 _atom_site_occupancy
  Li  Li0  1  0.701062  0.750000  0.347631  1
  Li  Li1  1  0.298938  0.250000  0.652369  1
  Fe  Fe2  1  0.378869  0.598014  0.820531  1
  Fe  Fe3  1  0.378869  0.901986  0.820531  1
  Fe  Fe4  1  0.621131  0.401986  0.179469  1
  Fe  Fe5  1  0.621131  0.098014  0.179469  1
  F  F6  1  0.105975  0.750000  0.801273  1
  F  F7  1  0.244261  0.043852  0.630340  1
  F  F8  1  0.244261  0.456148  0.630340  1
  F  F9  1  0.289434  0.505210  0.098137  1
  F  F10  1  0.289434  0.994790  0.098137  1
  F  F11  1  0.458367  0.250000  0.964298  1
  F  F12  1  0.488751  0.250000  0.385208  1
  F  F13  1  0.511249  0.750000  0.614792  1
  F  F14  1  0.541633  0.750000  0.035702  1
  F  F15  1  0.710566  0.494790  0.901863  1
  F  F16  1  0.710566  0.005210  0.901863  1
  F  F17  1  0.755739  0.543852  0.369660  1
  F  F18  1  0.755739  0.956148  0.369660  1
  F  F19  1  0.894025  0.250000  0.198727  1
