# generated using pymatgen
data_Fe4O3F5
_symmetry_space_group_name_H-M   'P 1'
_cell_length_a   4.82237228
_cell_length_b   6.13450844
_cell_length_c   10.11784469
_cell_angle_alpha   72.50161702
_cell_angle_beta   89.66612590
_cell_angle_gamma   89.88051816
_symmetry_Int_Tables_number   1
_chemical_formula_structural   Fe4O3F5
_chemical_formula_sum   'Fe8 O6 F10'
_cell_volume   285.45948422
_cell_formula_units_Z   2
loop_
 _symmetry_equiv_pos_site_id
 _symmetry_equiv_pos_as_xyz
  1  'x, y, z'
loop_
 _atom_site_type_symbol
 _atom_site_label
 _atom_site_symmetry_multiplicity
 _atom_site_fract_x
 _atom_site_fract_y
 _atom_site_fract_z
 _atom_site_occupancy
  Fe  Fe0  1  0.457317  0.129028  0.237894  1
  Fe  Fe1  1  0.527865  0.395052  0.728483  1
  Fe  Fe2  1  0.563415  0.868206  0.750879  1
  Fe  Fe3  1  0.496372  0.624069  0.258667  1
  Fe  Fe4  1  0.951005  0.488012  0.022260  1
  Fe  Fe5  1  0.012205  0.762409  0.494705  1
  Fe  Fe6  1  0.010617  0.002831  0.992280  1
  Fe  Fe7  1  0.979789  0.233233  0.512287  1
  O  O8  1  0.823126  0.792907  0.913355  1
  O  O9  1  0.661813  0.423770  0.159613  1
  O  O10  1  0.696961  0.170287  0.663071  1
  O  O11  1  0.714908  0.674243  0.651134  1
  O  O12  1  0.310631  0.830223  0.336393  1
  O  O13  1  0.170878  0.203282  0.090532  1
  F  F14  1  0.780802  0.060232  0.387483  1
  F  F15  1  0.798352  0.548676  0.395803  1
  F  F16  1  0.795590  0.298242  0.901854  1
  F  F17  1  0.694006  0.924913  0.145930  1
  F  F18  1  0.309300  0.079001  0.849077  1
  F  F19  1  0.326756  0.573141  0.844155  1
  F  F20  1  0.287525  0.325273  0.352362  1
  F  F21  1  0.211422  0.448215  0.598418  1
  F  F22  1  0.193955  0.698273  0.102661  1
  F  F23  1  0.225386  0.946484  0.610705  1
