# generated using pymatgen
data_Na7AlH2C4(O3F)4
_symmetry_space_group_name_H-M   'P 1'
_cell_length_a   6.54311566
_cell_length_b   6.76234853
_cell_length_c   8.91758593
_cell_angle_alpha   80.39138943
_cell_angle_beta   82.65973513
_cell_angle_gamma   61.55583918
_symmetry_Int_Tables_number   1
_chemical_formula_structural   Na7AlH2C4(O3F)4
_chemical_formula_sum   'Na7 Al1 H2 C4 O12 F4'
_cell_volume   341.54483440
_cell_formula_units_Z   1
loop_
 _symmetry_equiv_pos_site_id
 _symmetry_equiv_pos_as_xyz
  1  'x, y, z'
loop_
 _atom_site_type_symbol
 _atom_site_label
 _atom_site_symmetry_multiplicity
 _atom_site_fract_x
 _atom_site_fract_y
 _atom_site_fract_z
 _atom_site_occupancy
  Na  Na0  1  0.000000  0.000000  0.000000  1
  Na  Na1  1  0.000000  0.500000  0.000000  1
  Na  Na2  1  0.500000  0.000000  0.000000  1
  Na  Na3  1  0.339864  0.385125  0.641929  1
  Na  Na4  1  0.660136  0.614875  0.358071  1
  Na  Na5  1  0.657163  0.119477  0.355069  1
  Na  Na6  1  0.342837  0.880523  0.644931  1
  Al  Al7  1  0.500000  0.500000  0.000000  1
  H  H8  1  0.996839  0.227774  0.490495  1
  H  H9  1  0.003161  0.772226  0.509505  1
  C  C10  1  0.175760  0.111094  0.298519  1
  C  C11  1  0.824240  0.888906  0.701481  1
  C  C12  1  0.815271  0.387037  0.714742  1
  C  C13  1  0.184729  0.612963  0.285258  1
  O  O14  1  0.357549  0.992902  0.373757  1
  O  O15  1  0.642451  0.007098  0.626243  1
  O  O16  1  0.969197  0.228734  0.378718  1
  O  O17  1  0.030803  0.771266  0.621282  1
  O  O18  1  0.165139  0.131337  0.155873  1
  O  O19  1  0.834861  0.868663  0.844127  1
  O  O20  1  0.024399  0.256497  0.661858  1
  O  O21  1  0.975601  0.743503  0.338142  1
  O  O22  1  0.782926  0.392387  0.863981  1
  O  O23  1  0.217074  0.607613  0.136019  1
  O  O24  1  0.647023  0.505255  0.626479  1
  O  O25  1  0.352977  0.494745  0.373521  1
  F  F26  1  0.358902  0.393729  0.891750  1
  F  F27  1  0.641098  0.606271  0.108250  1
  F  F28  1  0.635127  0.213870  0.105618  1
  F  F29  1  0.364873  0.786130  0.894382  1
