# generated using pymatgen
data_Na4Ti5O12
_symmetry_space_group_name_H-M   'P 1'
_cell_length_a   5.95568936
_cell_length_b   6.45297177
_cell_length_c   13.43561151
_cell_angle_alpha   95.87291564
_cell_angle_beta   96.35716411
_cell_angle_gamma   90.00708281
_symmetry_Int_Tables_number   1
_chemical_formula_structural   Na4Ti5O12
_chemical_formula_sum   'Na8 Ti10 O24'
_cell_volume   510.45313823
_cell_formula_units_Z   2
loop_
 _symmetry_equiv_pos_site_id
 _symmetry_equiv_pos_as_xyz
  1  'x, y, z'
loop_
 _atom_site_type_symbol
 _atom_site_label
 _atom_site_symmetry_multiplicity
 _atom_site_fract_x
 _atom_site_fract_y
 _atom_site_fract_z
 _atom_site_occupancy
  Na  Na0  1  0.219828  0.592375  0.879752  1
  Na  Na1  1  0.700845  0.674521  0.803466  1
  Na  Na2  1  0.155554  0.410786  0.623901  1
  Na  Na3  1  0.654132  0.400132  0.614569  1
  Na  Na4  1  0.844446  0.589214  0.376099  1
  Na  Na5  1  0.345868  0.599868  0.385431  1
  Na  Na6  1  0.299155  0.325479  0.196534  1
  Na  Na7  1  0.780172  0.407625  0.120248  1
  Ti  Ti8  1  0.748128  0.980790  0.992522  1
  Ti  Ti9  1  0.251872  0.019210  0.007478  1
  Ti  Ti10  1  0.951031  0.164971  0.811104  1
  Ti  Ti11  1  0.454339  0.164974  0.811038  1
  Ti  Ti12  1  0.648019  0.901575  0.584420  1
  Ti  Ti13  1  0.146657  0.902353  0.588683  1
  Ti  Ti14  1  0.853343  0.097647  0.411317  1
  Ti  Ti15  1  0.351981  0.098425  0.415580  1
  Ti  Ti16  1  0.048969  0.835029  0.188896  1
  Ti  Ti17  1  0.545661  0.835026  0.188962  1
  O  O18  1  0.727330  0.225469  0.909571  1
  O  O19  1  0.227070  0.229381  0.908333  1
  O  O20  1  0.976032  0.877440  0.915717  1
  O  O21  1  0.481871  0.877440  0.915701  1
  O  O22  1  0.938190  0.401705  0.760845  1
  O  O23  1  0.442090  0.401908  0.760859  1
  O  O24  1  0.182315  0.014604  0.729464  1
  O  O25  1  0.682611  0.009421  0.730469  1
  O  O26  1  0.897030  0.713172  0.591606  1
  O  O27  1  0.398354  0.713583  0.590409  1
  O  O28  1  0.889927  0.112977  0.562649  1
  O  O29  1  0.391342  0.115315  0.563253  1
  O  O30  1  0.110073  0.887023  0.437351  1
  O  O31  1  0.608658  0.884685  0.436747  1
  O  O32  1  0.601646  0.286417  0.409591  1
  O  O33  1  0.102970  0.286828  0.408394  1
  O  O34  1  0.317389  0.990579  0.269531  1
  O  O35  1  0.817685  0.985396  0.270536  1
  O  O36  1  0.061810  0.598295  0.239155  1
  O  O37  1  0.557910  0.598092  0.239141  1
  O  O38  1  0.023968  0.122560  0.084283  1
  O  O39  1  0.518129  0.122560  0.084299  1
  O  O40  1  0.772930  0.770619  0.091667  1
  O  O41  1  0.272670  0.774531  0.090429  1
