# generated using pymatgen
data_Mn2OF3
_symmetry_space_group_name_H-M   'P 1'
_cell_length_a   4.83055032
_cell_length_b   5.80410528
_cell_length_c   13.64285087
_cell_angle_alpha   78.87222023
_cell_angle_beta   89.15188414
_cell_angle_gamma   88.97626542
_symmetry_Int_Tables_number   1
_chemical_formula_structural   Mn2OF3
_chemical_formula_sum   'Mn10 O5 F15'
_cell_volume   375.22848356
_cell_formula_units_Z   5
loop_
 _symmetry_equiv_pos_site_id
 _symmetry_equiv_pos_as_xyz
  1  'x, y, z'
loop_
 _atom_site_type_symbol
 _atom_site_label
 _atom_site_symmetry_multiplicity
 _atom_site_fract_x
 _atom_site_fract_y
 _atom_site_fract_z
 _atom_site_occupancy
  Mn  Mn0  1  0.495634  0.502666  0.001896  1
  Mn  Mn1  1  0.497284  0.299890  0.599990  1
  Mn  Mn2  1  0.548398  0.686137  0.404644  1
  Mn  Mn3  1  0.477864  0.904342  0.786382  1
  Mn  Mn4  1  0.496444  0.096949  0.201093  1
  Mn  Mn5  1  0.970357  0.400994  0.814141  1
  Mn  Mn6  1  0.014641  0.792214  0.595842  1
  Mn  Mn7  1  0.009923  0.607167  0.198050  1
  Mn  Mn8  1  0.987379  0.220780  0.398398  1
  Mn  Mn9  1  0.992637  0.997049  0.999650  1
  O  O10  1  0.817897  0.529815  0.334292  1
  O  O11  1  0.792901  0.302632  0.948450  1
  O  O12  1  0.691952  0.591035  0.540127  1
  O  O13  1  0.312106  0.000646  0.655888  1
  O  O14  1  0.192376  0.694441  0.060489  1
  F  F15  1  0.808779  0.922174  0.139713  1
  F  F16  1  0.803467  0.727088  0.738072  1
  F  F17  1  0.797313  0.107007  0.539173  1
  F  F18  1  0.687638  0.821442  0.926747  1
  F  F19  1  0.695732  0.227377  0.738064  1
  F  F20  1  0.690830  0.426442  0.139619  1
  F  F21  1  0.701638  0.024136  0.340147  1
  F  F22  1  0.305323  0.577381  0.860467  1
  F  F23  1  0.295032  0.185699  0.060944  1
  F  F24  1  0.323906  0.768346  0.270369  1
  F  F25  1  0.299641  0.370818  0.464689  1
  F  F26  1  0.211381  0.883771  0.452879  1
  F  F27  1  0.198451  0.476611  0.671893  1
  F  F28  1  0.193225  0.070805  0.861536  1
  F  F29  1  0.189852  0.284147  0.256357  1
