# generated using pymatgen
data_Co5CuO8
_symmetry_space_group_name_H-M   'P 1'
_cell_length_a   5.81060110
_cell_length_b   5.81060110
_cell_length_c   5.81060110
_cell_angle_alpha   59.47955645
_cell_angle_beta   59.47955645
_cell_angle_gamma   59.47955645
_symmetry_Int_Tables_number   1
_chemical_formula_structural   Co5CuO8
_chemical_formula_sum   'Co5 Cu1 O8'
_cell_volume   137.08074222
_cell_formula_units_Z   1
loop_
 _symmetry_equiv_pos_site_id
 _symmetry_equiv_pos_as_xyz
  1  'x, y, z'
loop_
 _atom_site_type_symbol
 _atom_site_label
 _atom_site_symmetry_multiplicity
 _atom_site_fract_x
 _atom_site_fract_y
 _atom_site_fract_z
 _atom_site_occupancy
  Co  Co0  1  1.000000  0.500000  0.000000  1
  Co  Co1  1  0.624195  0.624195  0.624195  1
  Co  Co2  1  0.000000  1.000000  0.500000  1
  Co  Co3  1  0.375805  0.375805  0.375805  1
  Co  Co4  1  0.500000  1.000000  1.000000  1
  Cu  Cu5  1  0.000000  1.000000  0.000000  1
  O  O6  1  0.787656  0.243706  0.243706  1
  O  O7  1  0.237200  0.237200  0.237200  1
  O  O8  1  0.762800  0.762800  0.762800  1
  O  O9  1  0.756294  0.212344  0.756294  1
  O  O10  1  0.212344  0.756294  0.756294  1
  O  O11  1  0.756294  0.756294  0.212344  1
  O  O12  1  0.243706  0.243706  0.787656  1
  O  O13  1  0.243706  0.787656  0.243706  1
