# generated using pymatgen
data_Ti2N2O
_symmetry_space_group_name_H-M   'P 1'
_cell_length_a   8.19294280
_cell_length_b   8.22062791
_cell_length_c   8.23533165
_cell_angle_alpha   109.53958458
_cell_angle_beta   109.40120914
_cell_angle_gamma   109.29562638
_symmetry_Int_Tables_number   1
_chemical_formula_structural   Ti2N2O
_chemical_formula_sum   'Ti16 N16 O8'
_cell_volume   427.90659785
_cell_formula_units_Z   8
loop_
 _symmetry_equiv_pos_site_id
 _symmetry_equiv_pos_as_xyz
  1  'x, y, z'
loop_
 _atom_site_type_symbol
 _atom_site_label
 _atom_site_symmetry_multiplicity
 _atom_site_fract_x
 _atom_site_fract_y
 _atom_site_fract_z
 _atom_site_occupancy
  Ti  Ti0  1  0.512925  0.499432  0.500969  1
  Ti  Ti1  1  0.214071  0.759891  0.455721  1
  Ti  Ti2  1  0.959122  0.208408  0.258402  1
  Ti  Ti3  1  0.462095  0.712081  0.246178  1
  Ti  Ti4  1  0.291200  0.238761  0.035536  1
  Ti  Ti5  1  0.001561  0.009905  0.498570  1
  Ti  Ti6  1  0.759499  0.964421  0.704032  1
  Ti  Ti7  1  0.987580  0.499379  0.991793  1
  Ti  Ti8  1  0.243907  0.544139  0.793707  1
  Ti  Ti9  1  0.503436  0.008803  0.012270  1
  Ti  Ti10  1  0.734843  0.451130  0.201115  1
  Ti  Ti11  1  0.251054  0.035711  0.295593  1
  Ti  Ti12  1  0.710290  0.750935  0.961799  1
  Ti  Ti13  1  0.038863  0.797020  0.755288  1
  Ti  Ti14  1  0.546143  0.288819  0.749371  1
  Ti  Ti15  1  0.791149  0.250819  0.543617  1
  N  N16  1  0.771947  0.723169  0.730950  1
  N  N17  1  0.549814  0.509910  0.277151  1
  N  N18  1  0.507260  0.771068  0.045451  1
  N  N19  1  0.724015  0.231753  0.271308  1
  N  N20  1  0.235728  0.771656  0.226043  1
  N  N21  1  0.040352  0.051628  0.776209  1
  N  N22  1  0.055431  0.278647  0.541642  1
  N  N23  1  0.765213  0.223724  0.777454  1
  N  N24  1  0.774605  0.550013  0.008702  1
  N  N25  1  0.958244  0.953215  0.226050  1
  N  N26  1  0.724690  0.957482  0.450224  1
  N  N27  1  0.993950  0.541436  0.770265  1
  N  N28  1  0.264529  0.988740  0.038870  1
  N  N29  1  0.487373  0.222895  0.949105  1
  N  N30  1  0.276976  0.034518  0.551127  1
  N  N31  1  0.538579  0.268240  0.490402  1
  O  O32  1  0.272146  0.761277  0.721621  1
  O  O33  1  0.222452  0.276618  0.265563  1
  O  O34  1  0.454264  0.732720  0.510583  1
  O  O35  1  0.008188  0.458201  0.235535  1
  O  O36  1  0.226033  0.448539  0.987348  1
  O  O37  1  0.956096  0.723733  0.461209  1
  O  O38  1  0.735009  0.009017  0.959076  1
  O  O39  1  0.449368  0.492144  0.724147  1
