# generated using pymatgen
data_Rb3ClO
_symmetry_space_group_name_H-M   'P 1'
_cell_length_a   7.71887197
_cell_length_b   7.73794873
_cell_length_c   10.95886211
_cell_angle_alpha   90.00000000
_cell_angle_beta   90.00000000
_cell_angle_gamma   90.00000000
_symmetry_Int_Tables_number   1
_chemical_formula_structural   Rb3ClO
_chemical_formula_sum   'Rb12 Cl4 O4'
_cell_volume   654.55349755
_cell_formula_units_Z   4
loop_
 _symmetry_equiv_pos_site_id
 _symmetry_equiv_pos_as_xyz
  1  'x, y, z'
loop_
 _atom_site_type_symbol
 _atom_site_label
 _atom_site_symmetry_multiplicity
 _atom_site_fract_x
 _atom_site_fract_y
 _atom_site_fract_z
 _atom_site_occupancy
  Rb  Rb0  1  0.072500  0.477560  0.250000  1
  Rb  Rb1  1  0.200532  0.200624  0.534830  1
  Rb  Rb2  1  0.200532  0.200624  0.965170  1
  Rb  Rb3  1  0.299468  0.700624  0.965170  1
  Rb  Rb4  1  0.299468  0.700624  0.534830  1
  Rb  Rb5  1  0.427500  0.977560  0.250000  1
  Rb  Rb6  1  0.572500  0.022440  0.750000  1
  Rb  Rb7  1  0.700532  0.299376  0.034830  1
  Rb  Rb8  1  0.700532  0.299376  0.465170  1
  Rb  Rb9  1  0.799468  0.799376  0.034830  1
  Rb  Rb10  1  0.799468  0.799376  0.465170  1
  Rb  Rb11  1  0.927500  0.522440  0.750000  1
  Cl  Cl12  1  0.997393  0.033778  0.250000  1
  Cl  Cl13  1  0.502607  0.533778  0.250000  1
  Cl  Cl14  1  0.497393  0.466222  0.750000  1
  Cl  Cl15  1  0.002607  0.966222  0.750000  1
  O  O16  1  0.000000  0.500000  0.000000  1
  O  O17  1  0.000000  0.500000  0.500000  1
  O  O18  1  0.500000  0.000000  0.000000  1
  O  O19  1  0.500000  0.000000  0.500000  1
