# generated using pymatgen
data_MgCr3Se2(SO6)4
_symmetry_space_group_name_H-M   'P 1'
_cell_length_a   8.41488457
_cell_length_b   8.43038999
_cell_length_c   8.93950243
_cell_angle_alpha   62.31887483
_cell_angle_beta   62.38623971
_cell_angle_gamma   60.07218522
_symmetry_Int_Tables_number   1
_chemical_formula_structural   MgCr3Se2(SO6)4
_chemical_formula_sum   'Mg1 Cr3 Se2 S4 O24'
_cell_volume   463.98736875
_cell_formula_units_Z   1
loop_
 _symmetry_equiv_pos_site_id
 _symmetry_equiv_pos_as_xyz
  1  'x, y, z'
loop_
 _atom_site_type_symbol
 _atom_site_label
 _atom_site_symmetry_multiplicity
 _atom_site_fract_x
 _atom_site_fract_y
 _atom_site_fract_z
 _atom_site_occupancy
  Mg  Mg0  1  0.850438  0.861509  0.432747  1
  Cr  Cr1  1  0.639840  0.646543  0.071272  1
  Cr  Cr2  1  0.355868  0.348537  0.935553  1
  Cr  Cr3  1  0.157078  0.153989  0.545558  1
  Se  Se4  1  0.745857  0.462789  0.745077  1
  Se  Se5  1  0.044075  0.747356  0.747117  1
  S  S6  1  0.529346  0.962372  0.251375  1
  S  S7  1  0.961371  0.260054  0.251011  1
  S  S8  1  0.256039  0.532270  0.247483  1
  S  S9  1  0.462696  0.039881  0.750123  1
  O  O10  1  0.880329  0.705765  0.944515  1
  O  O11  1  0.482165  0.886042  0.920059  1
  O  O12  1  0.662947  0.988601  0.290226  1
  O  O13  1  0.337752  0.983901  0.394900  1
  O  O14  1  0.013578  0.978217  0.699227  1
  O  O15  1  0.701686  0.670474  0.590760  1
  O  O16  1  0.701139  0.474116  0.943203  1
  O  O17  1  0.602942  0.767369  0.239559  1
  O  O18  1  0.981249  0.317872  0.698687  1
  O  O19  1  0.263548  0.608322  0.768189  1
  O  O20  1  0.617916  0.346759  0.770977  1
  O  O21  1  0.024375  0.707204  0.594612  1
  O  O22  1  0.987008  0.289061  0.392545  1
  O  O23  1  0.387537  0.610767  0.232456  1
  O  O24  1  0.766551  0.395678  0.238426  1
  O  O25  1  0.057755  0.663523  0.290518  1
  O  O26  1  0.366802  0.230217  0.779788  1
  O  O27  1  0.311126  0.499183  0.078529  1
  O  O28  1  0.290380  0.338977  0.389819  1
  O  O29  1  0.980372  0.063183  0.295522  1
  O  O30  1  0.647197  0.025651  0.611345  1
  O  O31  1  0.329074  0.019048  0.697698  1
  O  O32  1  0.498231  0.103509  0.081140  1
  O  O33  1  0.105734  0.311259  0.079984  1
