# generated using pymatgen
data_Li8VCo3(PO4)6
_symmetry_space_group_name_H-M   'P 1'
_cell_length_a   8.62534897
_cell_length_b   8.62534897
_cell_length_c   8.62534897
_cell_angle_alpha   62.40228848
_cell_angle_beta   62.40228848
_cell_angle_gamma   62.40228848
_symmetry_Int_Tables_number   1
_chemical_formula_structural   Li8VCo3(PO4)6
_chemical_formula_sum   'Li8 V1 Co3 P6 O24'
_cell_volume   478.05776382
_cell_formula_units_Z   1
loop_
 _symmetry_equiv_pos_site_id
 _symmetry_equiv_pos_as_xyz
  1  'x, y, z'
loop_
 _atom_site_type_symbol
 _atom_site_label
 _atom_site_symmetry_multiplicity
 _atom_site_fract_x
 _atom_site_fract_y
 _atom_site_fract_z
 _atom_site_occupancy
  Li  Li0  1  0.982410  0.982410  0.982410  1
  Li  Li1  1  0.654662  0.292118  0.835613  1
  Li  Li2  1  0.292118  0.835613  0.654662  1
  Li  Li3  1  0.835613  0.654662  0.292118  1
  Li  Li4  1  0.507846  0.507846  0.507846  1
  Li  Li5  1  0.149354  0.331116  0.716017  1
  Li  Li6  1  0.716017  0.149354  0.331116  1
  Li  Li7  1  0.331116  0.716017  0.149354  1
  V  V8  1  0.145554  0.145554  0.145554  1
  Co  Co9  1  0.650652  0.650652  0.650652  1
  Co  Co10  1  0.852016  0.852016  0.852016  1
  Co  Co11  1  0.354099  0.354099  0.354099  1
  P  P12  1  0.254267  0.544358  0.953986  1
  P  P13  1  0.953986  0.254267  0.544358  1
  P  P14  1  0.544358  0.953986  0.254267  1
  P  P15  1  0.449537  0.047192  0.757799  1
  P  P16  1  0.047192  0.757799  0.449537  1
  P  P17  1  0.757799  0.449537  0.047192  1
  O  O18  1  0.112570  0.740818  0.907746  1
  O  O19  1  0.424333  0.530573  0.775154  1
  O  O20  1  0.907746  0.112570  0.740818  1
  O  O21  1  0.111908  0.304150  0.524664  1
  O  O22  1  0.775154  0.424333  0.530573  1
  O  O23  1  0.524664  0.111908  0.304150  1
  O  O24  1  0.606122  0.010160  0.817062  1
  O  O25  1  0.530573  0.775154  0.424333  1
  O  O26  1  0.252178  0.086049  0.912061  1
  O  O27  1  0.304150  0.524664  0.111908  1
  O  O28  1  0.010160  0.817062  0.606122  1
  O  O29  1  0.009663  0.180007  0.384555  1
  O  O30  1  0.718864  0.461969  0.883172  1
  O  O31  1  0.740818  0.907746  0.112570  1
  O  O32  1  0.430574  0.231445  0.595548  1
  O  O33  1  0.461969  0.883172  0.718864  1
  O  O34  1  0.384555  0.009663  0.180007  1
  O  O35  1  0.231445  0.595548  0.430574  1
  O  O36  1  0.180007  0.384555  0.009663  1
  O  O37  1  0.883172  0.718864  0.461969  1
  O  O38  1  0.086049  0.912061  0.252178  1
  O  O39  1  0.595548  0.430574  0.231445  1
  O  O40  1  0.817062  0.606122  0.010160  1
  O  O41  1  0.912061  0.252178  0.086049  1
