# generated using pymatgen
data_Li2TiNi2O5
_symmetry_space_group_name_H-M   'P 1'
_cell_length_a   7.78530267
_cell_length_b   7.78530267
_cell_length_c   5.11219103
_cell_angle_alpha   83.72914791
_cell_angle_beta   96.27085209
_cell_angle_gamma   38.11043938
_symmetry_Int_Tables_number   1
_chemical_formula_structural   Li2TiNi2O5
_chemical_formula_sum   'Li4 Ti2 Ni4 O10'
_cell_volume   180.21545029
_cell_formula_units_Z   2
loop_
 _symmetry_equiv_pos_site_id
 _symmetry_equiv_pos_as_xyz
  1  'x, y, z'
loop_
 _atom_site_type_symbol
 _atom_site_label
 _atom_site_symmetry_multiplicity
 _atom_site_fract_x
 _atom_site_fract_y
 _atom_site_fract_z
 _atom_site_occupancy
  Li  Li0  1  0.200434  0.200434  0.000000  1
  Li  Li1  1  0.300684  0.300684  0.500000  1
  Li  Li2  1  0.799871  0.799871  0.000000  1
  Li  Li3  1  0.496176  0.496176  0.500000  1
  Ti  Ti4  1  0.392511  0.392511  0.000000  1
  Ti  Ti5  1  0.696268  0.696268  0.500000  1
  Ni  Ni6  1  0.100153  0.100153  0.500000  1
  Ni  Ni7  1  0.000873  0.000873  0.000000  1
  Ni  Ni8  1  0.601719  0.601719  0.000000  1
  Ni  Ni9  1  0.899829  0.899829  0.500000  1
  O  O10  1  0.055038  0.549276  0.750513  1
  O  O11  1  0.364096  0.849163  0.258793  1
  O  O12  1  0.466587  0.930440  0.730791  1
  O  O13  1  0.166131  0.637299  0.230762  1
  O  O14  1  0.248713  0.744888  0.759553  1
  O  O15  1  0.849163  0.364096  0.741207  1
  O  O16  1  0.637299  0.166131  0.769238  1
  O  O17  1  0.549276  0.055038  0.249487  1
  O  O18  1  0.930440  0.466587  0.269209  1
  O  O19  1  0.744888  0.248713  0.240447  1
