# generated using pymatgen
data_LiVF4
_symmetry_space_group_name_H-M   'P 1'
_cell_length_a   5.43671353
_cell_length_b   6.40092568
_cell_length_c   9.07304352
_cell_angle_alpha   90.00000000
_cell_angle_beta   90.00000000
_cell_angle_gamma   90.00000000
_symmetry_Int_Tables_number   1
_chemical_formula_structural   LiVF4
_chemical_formula_sum   'Li4 V4 F16'
_cell_volume   315.74190768
_cell_formula_units_Z   4
loop_
 _symmetry_equiv_pos_site_id
 _symmetry_equiv_pos_as_xyz
  1  'x, y, z'
loop_
 _atom_site_type_symbol
 _atom_site_label
 _atom_site_symmetry_multiplicity
 _atom_site_fract_x
 _atom_site_fract_y
 _atom_site_fract_z
 _atom_site_occupancy
  Li  Li0  1  0.007710  0.531396  0.591303  1
  Li  Li1  1  0.507710  0.968604  0.408697  1
  Li  Li2  1  0.492290  0.468604  0.091303  1
  Li  Li3  1  0.992290  0.031396  0.908697  1
  V  V4  1  0.486885  0.267752  0.757919  1
  V  V5  1  0.986885  0.232248  0.242081  1
  V  V6  1  0.013115  0.732248  0.257919  1
  V  V7  1  0.513115  0.767752  0.742081  1
  F  F8  1  0.156610  0.299860  0.693395  1
  F  F9  1  0.588473  0.042595  0.619484  1
  F  F10  1  0.657771  0.491270  0.644219  1
  F  F11  1  0.269089  0.733844  0.593724  1
  F  F12  1  0.769089  0.766156  0.406276  1
  F  F13  1  0.157771  0.008730  0.355781  1
  F  F14  1  0.088473  0.457405  0.380516  1
  F  F15  1  0.656610  0.200140  0.306605  1
  F  F16  1  0.343390  0.700140  0.193395  1
  F  F17  1  0.911527  0.957405  0.119484  1
  F  F18  1  0.842229  0.508730  0.144219  1
  F  F19  1  0.230911  0.266156  0.093724  1
  F  F20  1  0.730911  0.233844  0.906276  1
  F  F21  1  0.342229  0.991270  0.855781  1
  F  F22  1  0.411527  0.542595  0.880516  1
  F  F23  1  0.843390  0.799860  0.806605  1
