# generated using pymatgen
data_Li4NbCr(WO6)2
_symmetry_space_group_name_H-M   'P 1'
_cell_length_a   5.18115881
_cell_length_b   5.47965971
_cell_length_c   7.54636510
_cell_angle_alpha   94.30805854
_cell_angle_beta   90.03743461
_cell_angle_gamma   90.10000095
_symmetry_Int_Tables_number   1
_chemical_formula_structural   Li4NbCr(WO6)2
_chemical_formula_sum   'Li4 Nb1 Cr1 W2 O12'
_cell_volume   213.64302000
_cell_formula_units_Z   1
loop_
 _symmetry_equiv_pos_site_id
 _symmetry_equiv_pos_as_xyz
  1  'x, y, z'
loop_
 _atom_site_type_symbol
 _atom_site_label
 _atom_site_symmetry_multiplicity
 _atom_site_fract_x
 _atom_site_fract_y
 _atom_site_fract_z
 _atom_site_occupancy
  Li  Li0  1  0.000566  0.413412  0.268702  1
  Li  Li1  1  0.496626  0.938014  0.806656  1
  Li  Li2  1  0.996318  0.422610  0.806232  1
  Li  Li3  1  0.504426  0.981426  0.244158  1
  Nb  Nb4  1  0.502821  0.480952  0.512138  1
  Cr  Cr5  1  0.000047  0.000883  0.996448  1
  W  W6  1  0.995805  0.980109  0.497570  1
  W  W7  1  0.505510  0.505465  0.009705  1
  O  O8  1  0.308700  0.192341  0.431221  1
  O  O9  1  0.116119  0.011244  0.736137  1
  O  O10  1  0.315323  0.809079  0.046290  1
  O  O11  1  0.182138  0.694452  0.430216  1
  O  O12  1  0.792322  0.698306  0.933167  1
  O  O13  1  0.373442  0.509383  0.748196  1
  O  O14  1  0.622897  0.516795  0.249351  1
  O  O15  1  0.199888  0.317185  0.049071  1
  O  O16  1  0.822623  0.321151  0.555933  1
  O  O17  1  0.694853  0.212667  0.936946  1
  O  O18  1  0.886949  0.024713  0.256416  1
  O  O19  1  0.682629  0.827413  0.556648  1
