# generated using pymatgen
data_LiMnBO3
_symmetry_space_group_name_H-M   'P 1'
_cell_length_a   5.83329930
_cell_length_b   6.02167393
_cell_length_c   13.02833067
_cell_angle_alpha   90.00000000
_cell_angle_beta   90.00000000
_cell_angle_gamma   90.00000000
_symmetry_Int_Tables_number   1
_chemical_formula_structural   LiMnBO3
_chemical_formula_sum   'Li8 Mn8 B8 O24'
_cell_volume   457.63609170
_cell_formula_units_Z   8
loop_
 _symmetry_equiv_pos_site_id
 _symmetry_equiv_pos_as_xyz
  1  'x, y, z'
loop_
 _atom_site_type_symbol
 _atom_site_label
 _atom_site_symmetry_multiplicity
 _atom_site_fract_x
 _atom_site_fract_y
 _atom_site_fract_z
 _atom_site_occupancy
  Li  Li0  1  0.488113  0.282196  0.247490  1
  Li  Li1  1  0.988113  0.217804  0.247490  1
  Li  Li2  1  0.488113  0.782196  0.252510  1
  Li  Li3  1  0.988113  0.717804  0.252510  1
  Li  Li4  1  0.011887  0.282196  0.747490  1
  Li  Li5  1  0.511887  0.217804  0.747490  1
  Li  Li6  1  0.011887  0.782196  0.752510  1
  Li  Li7  1  0.511887  0.717804  0.752510  1
  Mn  Mn8  1  0.748950  0.490728  0.067359  1
  Mn  Mn9  1  0.248950  0.009272  0.067359  1
  Mn  Mn10  1  0.248950  0.509272  0.432641  1
  Mn  Mn11  1  0.748950  0.990728  0.432641  1
  Mn  Mn12  1  0.751050  0.490728  0.567359  1
  Mn  Mn13  1  0.251050  0.009272  0.567359  1
  Mn  Mn14  1  0.751050  0.990728  0.932641  1
  Mn  Mn15  1  0.251050  0.509272  0.932641  1
  B  B16  1  0.748488  0.984619  0.146172  1
  B  B17  1  0.248488  0.515381  0.146172  1
  B  B18  1  0.748488  0.484619  0.353828  1
  B  B19  1  0.248488  0.015381  0.353828  1
  B  B20  1  0.751512  0.984619  0.646172  1
  B  B21  1  0.251512  0.515381  0.646172  1
  B  B22  1  0.751512  0.484619  0.853828  1
  B  B23  1  0.251512  0.015381  0.853828  1
  O  O24  1  0.589611  0.856911  0.091957  1
  O  O25  1  0.089611  0.643089  0.091957  1
  O  O26  1  0.391712  0.372240  0.090619  1
  O  O27  1  0.891712  0.127760  0.090619  1
  O  O28  1  0.763098  0.471383  0.248830  1
  O  O29  1  0.263098  0.028617  0.248830  1
  O  O30  1  0.763098  0.971383  0.251170  1
  O  O31  1  0.263098  0.528617  0.251170  1
  O  O32  1  0.391712  0.872240  0.409381  1
  O  O33  1  0.891712  0.627760  0.409381  1
  O  O34  1  0.589611  0.356911  0.408043  1
  O  O35  1  0.089611  0.143089  0.408043  1
  O  O36  1  0.910389  0.856911  0.591957  1
  O  O37  1  0.410389  0.643089  0.591957  1
  O  O38  1  0.108288  0.372240  0.590619  1
  O  O39  1  0.608288  0.127760  0.590619  1
  O  O40  1  0.736902  0.471383  0.748830  1
  O  O41  1  0.236902  0.028617  0.748830  1
  O  O42  1  0.736902  0.971383  0.751170  1
  O  O43  1  0.236902  0.528617  0.751170  1
  O  O44  1  0.108288  0.872240  0.909381  1
  O  O45  1  0.608288  0.627760  0.909381  1
  O  O46  1  0.910389  0.356911  0.908043  1
  O  O47  1  0.410389  0.143089  0.908043  1
