# generated using pymatgen
data_LiTi2P3O11
_symmetry_space_group_name_H-M   'P 1'
_cell_length_a   7.34190890
_cell_length_b   7.34190890
_cell_length_c   8.86025702
_cell_angle_alpha   69.68985237
_cell_angle_beta   110.31014763
_cell_angle_gamma   106.46665482
_symmetry_Int_Tables_number   1
_chemical_formula_structural   LiTi2P3O11
_chemical_formula_sum   'Li2 Ti4 P6 O22'
_cell_volume   412.78410633
_cell_formula_units_Z   2
loop_
 _symmetry_equiv_pos_site_id
 _symmetry_equiv_pos_as_xyz
  1  'x, y, z'
loop_
 _atom_site_type_symbol
 _atom_site_label
 _atom_site_symmetry_multiplicity
 _atom_site_fract_x
 _atom_site_fract_y
 _atom_site_fract_z
 _atom_site_occupancy
  Li  Li0  1  0.013114  0.515322  0.261017  1
  Li  Li1  1  0.515322  0.013114  0.738983  1
  Ti  Ti2  1  0.640802  0.889808  0.205991  1
  Ti  Ti3  1  0.111289  0.359178  0.707283  1
  Ti  Ti4  1  0.889808  0.640802  0.794009  1
  Ti  Ti5  1  0.359178  0.111289  0.292717  1
  P  P6  1  0.325897  0.548463  0.036992  1
  P  P7  1  0.954123  0.954123  0.000000  1
  P  P8  1  0.451733  0.676393  0.535796  1
  P  P9  1  0.548463  0.325897  0.963008  1
  P  P10  1  0.045261  0.045261  0.500000  1
  P  P11  1  0.676393  0.451733  0.464204  1
  O  O12  1  0.119698  0.991819  0.157113  1
  O  O13  1  0.006515  0.879500  0.656390  1
  O  O14  1  0.391823  0.754593  0.061860  1
  O  O15  1  0.155834  0.537277  0.874376  1
  O  O16  1  0.273316  0.388700  0.188309  1
  O  O17  1  0.745915  0.959885  0.003053  1
  O  O18  1  0.242691  0.608199  0.555348  1
  O  O19  1  0.508968  0.508968  0.000000  1
  O  O20  1  0.463571  0.846314  0.373306  1
  O  O21  1  0.609322  0.730111  0.687301  1
  O  O22  1  0.040510  0.253261  0.504669  1
  O  O23  1  0.959885  0.745915  0.996947  1
  O  O24  1  0.388700  0.273316  0.811691  1
  O  O25  1  0.537277  0.155834  0.125624  1
  O  O26  1  0.493763  0.493763  0.500000  1
  O  O27  1  0.754593  0.391823  0.938140  1
  O  O28  1  0.253261  0.040510  0.495331  1
  O  O29  1  0.730111  0.609322  0.312699  1
  O  O30  1  0.846314  0.463571  0.626694  1
  O  O31  1  0.608199  0.242691  0.444652  1
  O  O32  1  0.991819  0.119698  0.842887  1
  O  O33  1  0.879500  0.006515  0.343610  1
