# generated using pymatgen
data_Mg3Mn4O7
_symmetry_space_group_name_H-M   'P 1'
_cell_length_a   11.27392220
_cell_length_b   11.27392220
_cell_length_c   11.27392220
_cell_angle_alpha   164.09260450
_cell_angle_beta   157.43199919
_cell_angle_gamma   27.73239797
_symmetry_Int_Tables_number   1
_chemical_formula_structural   Mg3Mn4O7
_chemical_formula_sum   'Mg3 Mn4 O7'
_cell_volume   150.66795322
_cell_formula_units_Z   1
loop_
 _symmetry_equiv_pos_site_id
 _symmetry_equiv_pos_as_xyz
  1  'x, y, z'
loop_
 _atom_site_type_symbol
 _atom_site_label
 _atom_site_symmetry_multiplicity
 _atom_site_fract_x
 _atom_site_fract_y
 _atom_site_fract_z
 _atom_site_occupancy
  Mg  Mg0  1  0.000000  0.000000  0.000000  1
  Mg  Mg1  1  0.141120  0.141120  0.000000  1
  Mg  Mg2  1  0.858880  0.858880  0.000000  1
  Mn  Mn3  1  0.714191  0.714191  0.000000  1
  Mn  Mn4  1  0.571123  0.571123  0.000000  1
  Mn  Mn5  1  0.428877  0.428877  0.000000  1
  Mn  Mn6  1  0.285809  0.285809  0.000000  1
  O  O7  1  0.070155  0.570155  0.500000  1
  O  O8  1  0.929845  0.429845  0.500000  1
  O  O9  1  0.790953  0.290953  0.500000  1
  O  O10  1  0.209047  0.709047  0.500000  1
  O  O11  1  0.500000  0.000000  0.500000  1
  O  O12  1  0.642823  0.142823  0.500000  1
  O  O13  1  0.357177  0.857177  0.500000  1
