# generated using pymatgen
data_Mn3OF5
_symmetry_space_group_name_H-M   'P 1'
_cell_length_a   4.86754182
_cell_length_b   5.79934461
_cell_length_c   8.20355643
_cell_angle_alpha   87.01732369
_cell_angle_beta   89.00003562
_cell_angle_gamma   87.08104670
_symmetry_Int_Tables_number   1
_chemical_formula_structural   Mn3OF5
_chemical_formula_sum   'Mn6 O2 F10'
_cell_volume   230.93532822
_cell_formula_units_Z   2
loop_
 _symmetry_equiv_pos_site_id
 _symmetry_equiv_pos_as_xyz
  1  'x, y, z'
loop_
 _atom_site_type_symbol
 _atom_site_label
 _atom_site_symmetry_multiplicity
 _atom_site_fract_x
 _atom_site_fract_y
 _atom_site_fract_z
 _atom_site_occupancy
  Mn  Mn0  1  0.469556  0.345181  0.687413  1
  Mn  Mn1  1  0.530444  0.654819  0.312587  1
  Mn  Mn2  1  0.500000  0.000000  0.000000  1
  Mn  Mn3  1  0.996831  0.166240  0.336586  1
  Mn  Mn4  1  0.000000  0.500000  0.000000  1
  Mn  Mn5  1  0.003169  0.833760  0.663414  1
  O  O6  1  0.706685  0.715845  0.084834  1
  O  O7  1  0.293315  0.284155  0.915166  1
  F  F8  1  0.793416  0.214373  0.104696  1
  F  F9  1  0.802616  0.865243  0.433405  1
  F  F10  1  0.814474  0.528384  0.767898  1
  F  F11  1  0.690046  0.030375  0.775414  1
  F  F12  1  0.687290  0.360761  0.450214  1
  F  F13  1  0.309954  0.969625  0.224586  1
  F  F14  1  0.312710  0.639239  0.549786  1
  F  F15  1  0.185526  0.471616  0.232102  1
  F  F16  1  0.206584  0.785627  0.895304  1
  F  F17  1  0.197384  0.134757  0.566595  1
