# generated using pymatgen
data_FeSbO4
_symmetry_space_group_name_H-M   'P 1'
_cell_length_a   5.64976180
_cell_length_b   5.64976180
_cell_length_c   5.64976180
_cell_angle_alpha   107.84481545
_cell_angle_beta   107.84481545
_cell_angle_gamma   112.77542247
_symmetry_Int_Tables_number   1
_chemical_formula_structural   FeSbO4
_chemical_formula_sum   'Fe2 Sb2 O8'
_cell_volume   138.47684769
_cell_formula_units_Z   2
loop_
 _symmetry_equiv_pos_site_id
 _symmetry_equiv_pos_as_xyz
  1  'x, y, z'
loop_
 _atom_site_type_symbol
 _atom_site_label
 _atom_site_symmetry_multiplicity
 _atom_site_fract_x
 _atom_site_fract_y
 _atom_site_fract_z
 _atom_site_occupancy
  Fe  Fe0  1  0.743002  0.243002  0.500000  1
  Fe  Fe1  1  0.493002  0.493002  0.000000  1
  Sb  Sb2  1  0.257444  0.757444  0.500000  1
  Sb  Sb3  1  0.007444  0.007444  0.000000  1
  O  O4  1  0.049107  0.244931  0.804176  1
  O  O5  1  0.563477  0.754846  0.808631  1
  O  O6  1  0.494931  0.190754  0.695824  1
  O  O7  1  0.004846  0.696215  0.691369  1
  O  O8  1  0.494931  0.799107  0.304176  1
  O  O9  1  0.004846  0.313477  0.308631  1
  O  O10  1  0.440754  0.244931  0.195824  1
  O  O11  1  0.946215  0.754846  0.191369  1
