# generated using pymatgen
data_Fe10O9F11
_symmetry_space_group_name_H-M   'P 1'
_cell_length_a   4.76415493
_cell_length_b   4.76554699
_cell_length_c   15.48688546
_cell_angle_alpha   90.15143692
_cell_angle_beta   90.26892803
_cell_angle_gamma   93.26002509
_symmetry_Int_Tables_number   1
_chemical_formula_structural   Fe10O9F11
_chemical_formula_sum   'Fe10 O9 F11'
_cell_volume   351.03685745
_cell_formula_units_Z   1
loop_
 _symmetry_equiv_pos_site_id
 _symmetry_equiv_pos_as_xyz
  1  'x, y, z'
loop_
 _atom_site_type_symbol
 _atom_site_label
 _atom_site_symmetry_multiplicity
 _atom_site_fract_x
 _atom_site_fract_y
 _atom_site_fract_z
 _atom_site_occupancy
  Fe  Fe0  1  0.011222  0.986252  0.998587  1
  Fe  Fe1  1  0.979722  0.964767  0.203562  1
  Fe  Fe2  1  0.038227  0.016297  0.389595  1
  Fe  Fe3  1  0.990763  0.990235  0.599338  1
  Fe  Fe4  1  0.038870  0.017135  0.807858  1
  Fe  Fe5  1  0.518737  0.500838  0.093944  1
  Fe  Fe6  1  0.490322  0.483156  0.504465  1
  Fe  Fe7  1  0.474347  0.523852  0.297840  1
  Fe  Fe8  1  0.494743  0.486692  0.696825  1
  Fe  Fe9  1  0.461053  0.516483  0.907186  1
  O  O10  1  0.201208  0.802727  0.305399  1
  O  O11  1  0.192127  0.815377  0.898236  1
  O  O12  1  0.297572  0.300031  0.002085  1
  O  O13  1  0.317705  0.320775  0.403387  1
  O  O14  1  0.295450  0.289649  0.601062  1
  O  O15  1  0.317480  0.323028  0.797385  1
  O  O16  1  0.698197  0.699253  0.997388  1
  O  O17  1  0.672010  0.669921  0.198957  1
  O  O18  1  0.697641  0.691550  0.600486  1
  F  F19  1  0.197151  0.788760  0.096769  1
  F  F20  1  0.195357  0.808429  0.500701  1
  F  F21  1  0.194326  0.808419  0.700476  1
  F  F22  1  0.287056  0.288958  0.198645  1
  F  F23  1  0.708703  0.712533  0.405282  1
  F  F24  1  0.708218  0.714422  0.794349  1
  F  F25  1  0.802101  0.187663  0.096455  1
  F  F26  1  0.810899  0.190016  0.499915  1
  F  F27  1  0.790955  0.211697  0.306175  1
  F  F28  1  0.806524  0.201394  0.896472  1
  F  F29  1  0.811314  0.189691  0.701174  1
