# generated using pymatgen
data_Li2Fe2OF6
_symmetry_space_group_name_H-M   'P 1'
_cell_length_a   5.69348793
_cell_length_b   7.05750375
_cell_length_c   7.28996828
_cell_angle_alpha   64.26009202
_cell_angle_beta   70.58286077
_cell_angle_gamma   76.74128137
_symmetry_Int_Tables_number   1
_chemical_formula_structural   Li2Fe2OF6
_chemical_formula_sum   'Li4 Fe4 O2 F12'
_cell_volume   247.60331173
_cell_formula_units_Z   2
loop_
 _symmetry_equiv_pos_site_id
 _symmetry_equiv_pos_as_xyz
  1  'x, y, z'
loop_
 _atom_site_type_symbol
 _atom_site_label
 _atom_site_symmetry_multiplicity
 _atom_site_fract_x
 _atom_site_fract_y
 _atom_site_fract_z
 _atom_site_occupancy
  Li  Li0  1  0.677049  0.611821  0.771856  1
  Li  Li1  1  0.212359  0.867382  0.916887  1
  Li  Li2  1  0.787641  0.132618  0.083113  1
  Li  Li3  1  0.322951  0.388179  0.228144  1
  Fe  Fe4  1  0.759535  0.132772  0.585452  1
  Fe  Fe5  1  0.676954  0.583564  0.273648  1
  Fe  Fe6  1  0.323046  0.416436  0.726352  1
  Fe  Fe7  1  0.240465  0.867228  0.414548  1
  O  O8  1  0.513258  0.674683  0.515059  1
  O  O9  1  0.486742  0.325317  0.484941  1
  F  F10  1  0.964237  0.389423  0.377593  1
  F  F11  1  0.580675  0.892944  0.768123  1
  F  F12  1  0.859185  0.825067  0.093183  1
  F  F13  1  0.666106  0.262429  0.800351  1
  F  F14  1  0.907070  0.020392  0.355570  1
  F  F15  1  0.708378  0.461604  0.068263  1
  F  F16  1  0.291622  0.538396  0.931737  1
  F  F17  1  0.092930  0.979608  0.644430  1
  F  F18  1  0.333894  0.737571  0.199649  1
  F  F19  1  0.140815  0.174933  0.906817  1
  F  F20  1  0.419325  0.107056  0.231877  1
  F  F21  1  0.035763  0.610577  0.622407  1
