# generated using pymatgen
data_Li3CrSi2O7
_symmetry_space_group_name_H-M   'P 1'
_cell_length_a   8.58308152
_cell_length_b   8.58308152
_cell_length_c   12.98229837
_cell_angle_alpha   90.00000000
_cell_angle_beta   90.00000000
_cell_angle_gamma   120.00000000
_symmetry_Int_Tables_number   1
_chemical_formula_structural   Li3CrSi2O7
_chemical_formula_sum   'Li18 Cr6 Si12 O42'
_cell_volume   828.26382279
_cell_formula_units_Z   6
loop_
 _symmetry_equiv_pos_site_id
 _symmetry_equiv_pos_as_xyz
  1  'x, y, z'
loop_
 _atom_site_type_symbol
 _atom_site_label
 _atom_site_symmetry_multiplicity
 _atom_site_fract_x
 _atom_site_fract_y
 _atom_site_fract_z
 _atom_site_occupancy
  Li  Li0  1  0.024686  0.691056  0.897159  1
  Li  Li1  1  0.023435  0.690490  0.566007  1
  Li  Li2  1  0.333333  0.666667  0.216497  1
  Li  Li3  1  0.333333  0.666667  0.733525  1
  Li  Li4  1  0.000000  0.000000  0.467076  1
  Li  Li5  1  0.000000  0.000000  0.967076  1
  Li  Li6  1  0.309510  0.332944  0.566007  1
  Li  Li7  1  0.308944  0.333631  0.897159  1
  Li  Li8  1  0.666369  0.975314  0.897159  1
  Li  Li9  1  0.667056  0.976565  0.566007  1
  Li  Li10  1  0.332944  0.023435  0.066007  1
  Li  Li11  1  0.333631  0.024686  0.397159  1
  Li  Li12  1  0.691056  0.666369  0.397159  1
  Li  Li13  1  0.690490  0.667056  0.066007  1
  Li  Li14  1  0.666667  0.333333  0.233525  1
  Li  Li15  1  0.666667  0.333333  0.716497  1
  Li  Li16  1  0.976565  0.309510  0.066007  1
  Li  Li17  1  0.975314  0.308944  0.397159  1
  Cr  Cr18  1  0.000000  0.000000  0.231358  1
  Cr  Cr19  1  0.000000  0.000000  0.731358  1
  Cr  Cr20  1  0.333333  0.666667  0.509825  1
  Cr  Cr21  1  0.333333  0.666667  0.955470  1
  Cr  Cr22  1  0.666667  0.333333  0.455470  1
  Cr  Cr23  1  0.666667  0.333333  0.009825  1
  Si  Si24  1  0.026873  0.674380  0.345835  1
  Si  Si25  1  0.023380  0.673590  0.119749  1
  Si  Si26  1  0.326410  0.349790  0.119749  1
  Si  Si27  1  0.325620  0.352493  0.345835  1
  Si  Si28  1  0.650210  0.976620  0.119749  1
  Si  Si29  1  0.647507  0.973127  0.345835  1
  Si  Si30  1  0.352493  0.026873  0.845835  1
  Si  Si31  1  0.349790  0.023380  0.619749  1
  Si  Si32  1  0.674380  0.647507  0.845835  1
  Si  Si33  1  0.673590  0.650210  0.619749  1
  Si  Si34  1  0.976620  0.326410  0.619749  1
  Si  Si35  1  0.973127  0.325620  0.845835  1
  O  O36  1  0.133269  0.931916  0.842703  1
  O  O37  1  0.130958  0.926483  0.625321  1
  O  O38  1  0.127337  0.691993  0.232393  1
  O  O39  1  0.187833  0.756569  0.035336  1
  O  O40  1  0.189436  0.758271  0.430891  1
  O  O41  1  0.120666  0.539600  0.605023  1
  O  O42  1  0.120394  0.538500  0.860414  1
  O  O43  1  0.068084  0.201353  0.842703  1
  O  O44  1  0.418106  0.879606  0.860414  1
  O  O45  1  0.073517  0.204475  0.625321  1
  O  O46  1  0.418933  0.879334  0.605023  1
  O  O47  1  0.243431  0.431265  0.035336  1
  O  O48  1  0.241729  0.431164  0.430891  1
  O  O49  1  0.308007  0.435343  0.232393  1
  O  O50  1  0.201353  0.133269  0.342703  1
  O  O51  1  0.564657  0.872663  0.232393  1
  O  O52  1  0.204475  0.130958  0.125321  1
  O  O53  1  0.568836  0.810564  0.430891  1
  O  O54  1  0.568735  0.812167  0.035336  1
  O  O55  1  0.460400  0.581067  0.605023  1
  O  O56  1  0.461500  0.581894  0.860414  1
  O  O57  1  0.538500  0.418106  0.360414  1
  O  O58  1  0.539600  0.418933  0.105023  1
  O  O59  1  0.431265  0.187833  0.535336  1
  O  O60  1  0.431164  0.189436  0.930891  1
  O  O61  1  0.795525  0.869042  0.625321  1
  O  O62  1  0.435343  0.127337  0.732393  1
  O  O63  1  0.798647  0.866731  0.842703  1
  O  O64  1  0.691993  0.564657  0.732393  1
  O  O65  1  0.758271  0.568836  0.930891  1
  O  O66  1  0.756569  0.568735  0.535336  1
  O  O67  1  0.581067  0.120666  0.105023  1
  O  O68  1  0.926483  0.795525  0.125321  1
  O  O69  1  0.581894  0.120394  0.360414  1
  O  O70  1  0.931916  0.798647  0.342703  1
  O  O71  1  0.879606  0.461500  0.360414  1
  O  O72  1  0.879334  0.460400  0.105023  1
  O  O73  1  0.810564  0.241729  0.930891  1
  O  O74  1  0.812167  0.243431  0.535336  1
  O  O75  1  0.872663  0.308007  0.732393  1
  O  O76  1  0.869042  0.073517  0.125321  1
  O  O77  1  0.866731  0.068084  0.342703  1
