# generated using pymatgen
data_LiMnPO4
_symmetry_space_group_name_H-M   'P 1'
_cell_length_a   5.30117356
_cell_length_b   5.30117356
_cell_length_c   9.44451659
_cell_angle_alpha   90.00000000
_cell_angle_beta   90.00000000
_cell_angle_gamma   120.00000000
_symmetry_Int_Tables_number   1
_chemical_formula_structural   LiMnPO4
_chemical_formula_sum   'Li2 Mn2 P2 O8'
_cell_volume   229.85524135
_cell_formula_units_Z   2
loop_
 _symmetry_equiv_pos_site_id
 _symmetry_equiv_pos_as_xyz
  1  'x, y, z'
loop_
 _atom_site_type_symbol
 _atom_site_label
 _atom_site_symmetry_multiplicity
 _atom_site_fract_x
 _atom_site_fract_y
 _atom_site_fract_z
 _atom_site_occupancy
  Li  Li0  1  0.000000  0.000000  0.202327  1
  Li  Li1  1  0.000000  0.000000  0.702327  1
  Mn  Mn2  1  0.333333  0.666667  0.137860  1
  Mn  Mn3  1  0.666667  0.333333  0.637860  1
  P  P4  1  0.333333  0.666667  0.764772  1
  P  P5  1  0.666667  0.333333  0.264772  1
  O  O6  1  0.063472  0.384640  0.706459  1
  O  O7  1  0.321168  0.936528  0.706459  1
  O  O8  1  0.333333  0.666667  0.925701  1
  O  O9  1  0.384640  0.321168  0.206459  1
  O  O10  1  0.615360  0.678832  0.706459  1
  O  O11  1  0.666667  0.333333  0.425701  1
  O  O12  1  0.678832  0.063472  0.206459  1
  O  O13  1  0.936528  0.615360  0.206459  1
