# generated using pymatgen
data_Li4FeNi5(PO4)6
_symmetry_space_group_name_H-M   'P 1'
_cell_length_a   8.33095680
_cell_length_b   8.39599689
_cell_length_c   8.41041372
_cell_angle_alpha   63.25094456
_cell_angle_beta   63.44243366
_cell_angle_gamma   63.58182347
_symmetry_Int_Tables_number   1
_chemical_formula_structural   Li4FeNi5(PO4)6
_chemical_formula_sum   'Li4 Fe1 Ni5 P6 O24'
_cell_volume   447.49519469
_cell_formula_units_Z   1
loop_
 _symmetry_equiv_pos_site_id
 _symmetry_equiv_pos_as_xyz
  1  'x, y, z'
loop_
 _atom_site_type_symbol
 _atom_site_label
 _atom_site_symmetry_multiplicity
 _atom_site_fract_x
 _atom_site_fract_y
 _atom_site_fract_z
 _atom_site_occupancy
  Li  Li0  1  0.747446  0.145580  0.356137  1
  Li  Li1  1  0.264502  0.854237  0.645289  1
  Li  Li2  1  0.644620  0.263734  0.854841  1
  Li  Li3  1  0.854746  0.644610  0.265056  1
  Fe  Fe4  1  0.851002  0.849432  0.851681  1
  Ni  Ni5  1  0.007849  0.002432  0.996988  1
  Ni  Ni6  1  0.357959  0.356367  0.356770  1
  Ni  Ni7  1  0.493530  0.502504  0.498859  1
  Ni  Ni8  1  0.142570  0.144461  0.144984  1
  Ni  Ni9  1  0.645494  0.646493  0.648460  1
  P  P10  1  0.055972  0.746870  0.445838  1
  P  P11  1  0.442544  0.052071  0.751454  1
  P  P12  1  0.749217  0.444767  0.051995  1
  P  P13  1  0.249343  0.547688  0.953216  1
  P  P14  1  0.552396  0.954315  0.250320  1
  P  P15  1  0.947932  0.248724  0.546090  1
  O  O16  1  0.472662  0.895904  0.684037  1
  O  O17  1  0.680100  0.474689  0.897785  1
  O  O18  1  0.898156  0.678499  0.476250  1
  O  O19  1  0.053663  0.911995  0.258014  1
  O  O20  1  0.012960  0.815782  0.607914  1
  O  O21  1  0.250812  0.598302  0.431420  1
  O  O22  1  0.248630  0.072357  0.903656  1
  O  O23  1  0.451050  0.240619  0.589631  1
  O  O24  1  0.179845  0.392133  0.988482  1
  O  O25  1  0.603050  0.428792  0.251742  1
  O  O26  1  0.096541  0.749129  0.929375  1
  O  O27  1  0.389495  0.000547  0.187587  1
  O  O28  1  0.605496  0.008083  0.822694  1
  O  O29  1  0.898689  0.246269  0.074363  1
  O  O30  1  0.400782  0.568061  0.753127  1
  O  O31  1  0.820562  0.604467  0.011219  1
  O  O32  1  0.568388  0.754034  0.402943  1
  O  O33  1  0.753743  0.925286  0.094485  1
  O  O34  1  0.748693  0.403178  0.572161  1
  O  O35  1  0.963173  0.183012  0.396226  1
  O  O36  1  0.929360  0.094570  0.748020  1
  O  O37  1  0.111591  0.309754  0.501237  1
  O  O38  1  0.316658  0.512242  0.108875  1
  O  O39  1  0.538776  0.105012  0.313778  1
