# generated using pymatgen
data_Li5Fe3Ni2(PO4)6
_symmetry_space_group_name_H-M   'P 1'
_cell_length_a   8.40658431
_cell_length_b   8.49910683
_cell_length_c   8.51548386
_cell_angle_alpha   61.96078078
_cell_angle_beta   62.34155424
_cell_angle_gamma   62.31270724
_symmetry_Int_Tables_number   1
_chemical_formula_structural   Li5Fe3Ni2(PO4)6
_chemical_formula_sum   'Li5 Fe3 Ni2 P6 O24'
_cell_volume   451.39197187
_cell_formula_units_Z   1
loop_
 _symmetry_equiv_pos_site_id
 _symmetry_equiv_pos_as_xyz
  1  'x, y, z'
loop_
 _atom_site_type_symbol
 _atom_site_label
 _atom_site_symmetry_multiplicity
 _atom_site_fract_x
 _atom_site_fract_y
 _atom_site_fract_z
 _atom_site_occupancy
  Li  Li0  1  0.752566  0.140751  0.355365  1
  Li  Li1  1  0.186065  0.853145  0.675322  1
  Li  Li2  1  0.673082  0.181347  0.859340  1
  Li  Li3  1  0.859081  0.670011  0.181120  1
  Li  Li4  1  0.840363  0.839232  0.837646  1
  Fe  Fe5  1  0.146015  0.146400  0.143834  1
  Fe  Fe6  1  0.353994  0.357243  0.354086  1
  Fe  Fe7  1  0.647447  0.650843  0.652659  1
  Ni  Ni8  1  0.006710  0.997216  0.997508  1
  Ni  Ni9  1  0.492665  0.501461  0.502901  1
  P  P10  1  0.752956  0.452486  0.053076  1
  P  P11  1  0.057226  0.748958  0.451675  1
  P  P12  1  0.445709  0.053928  0.758377  1
  P  P13  1  0.255661  0.542205  0.957563  1
  P  P14  1  0.553466  0.961560  0.257334  1
  P  P15  1  0.946710  0.252160  0.537463  1
  O  O16  1  0.106239  0.334448  0.454770  1
  O  O17  1  0.353592  0.479354  0.098303  1
  O  O18  1  0.054660  0.911920  0.258931  1
  O  O19  1  0.532687  0.101514  0.336800  1
  O  O20  1  0.031360  0.813669  0.601791  1
  O  O21  1  0.253267  0.591808  0.424944  1
  O  O22  1  0.248337  0.063964  0.913729  1
  O  O23  1  0.430773  0.246879  0.593991  1
  O  O24  1  0.183545  0.388397  0.996649  1
  O  O25  1  0.600289  0.422700  0.254972  1
  O  O26  1  0.095278  0.732684  0.963785  1
  O  O27  1  0.377190  0.020790  0.206910  1
  O  O28  1  0.598527  0.024978  0.824698  1
  O  O29  1  0.900752  0.248426  0.071959  1
  O  O30  1  0.394592  0.581208  0.748862  1
  O  O31  1  0.819650  0.603072  0.024033  1
  O  O32  1  0.578798  0.755258  0.400166  1
  O  O33  1  0.740025  0.955467  0.088675  1
  O  O34  1  0.742443  0.398882  0.583610  1
  O  O35  1  0.953726  0.189515  0.390587  1
  O  O36  1  0.490473  0.891707  0.693525  1
  O  O37  1  0.962095  0.092129  0.726081  1
  O  O38  1  0.689373  0.496453  0.890613  1
  O  O39  1  0.892612  0.682832  0.499347  1
