# generated using pymatgen
data_Li2H4(SO4)3
_symmetry_space_group_name_H-M   'P 1'
_cell_length_a   5.45725723
_cell_length_b   11.05455677
_cell_length_c   17.73473403
_cell_angle_alpha   90.00000000
_cell_angle_beta   90.00000000
_cell_angle_gamma   90.00000000
_symmetry_Int_Tables_number   1
_chemical_formula_structural   Li2H4(SO4)3
_chemical_formula_sum   'Li8 H16 S12 O48'
_cell_volume   1069.89322875
_cell_formula_units_Z   4
loop_
 _symmetry_equiv_pos_site_id
 _symmetry_equiv_pos_as_xyz
  1  'x, y, z'
loop_
 _atom_site_type_symbol
 _atom_site_label
 _atom_site_symmetry_multiplicity
 _atom_site_fract_x
 _atom_site_fract_y
 _atom_site_fract_z
 _atom_site_occupancy
  Li  Li0  1  0.229206  0.482749  0.596699  1
  Li  Li1  1  0.270794  0.482749  0.903301  1
  Li  Li2  1  0.770794  0.017251  0.096699  1
  Li  Li3  1  0.729206  0.017251  0.403301  1
  Li  Li4  1  0.770794  0.517251  0.403301  1
  Li  Li5  1  0.729206  0.517251  0.096699  1
  Li  Li6  1  0.229206  0.982749  0.903301  1
  Li  Li7  1  0.270794  0.982749  0.596699  1
  H  H8  1  0.111107  0.189317  0.442407  1
  H  H9  1  0.388893  0.189317  0.057593  1
  H  H10  1  0.888893  0.310683  0.942407  1
  H  H11  1  0.611107  0.310683  0.557593  1
  H  H12  1  0.888893  0.810683  0.557593  1
  H  H13  1  0.611107  0.810683  0.942407  1
  H  H14  1  0.111107  0.689317  0.057593  1
  H  H15  1  0.388893  0.689317  0.442407  1
  H  H16  1  0.508898  0.326825  0.302700  1
  H  H17  1  0.991102  0.326825  0.197300  1
  H  H18  1  0.491102  0.173175  0.802700  1
  H  H19  1  0.008898  0.173175  0.697300  1
  H  H20  1  0.491102  0.673175  0.697300  1
  H  H21  1  0.008898  0.673175  0.802700  1
  H  H22  1  0.508898  0.826825  0.197300  1
  H  H23  1  0.991102  0.826825  0.302700  1
  S  S24  1  0.291617  0.362559  0.434794  1
  S  S25  1  0.208383  0.362559  0.065206  1
  S  S26  1  0.708383  0.137441  0.934794  1
  S  S27  1  0.791617  0.137441  0.565206  1
  S  S28  1  0.708383  0.637441  0.565206  1
  S  S29  1  0.791617  0.637441  0.934794  1
  S  S30  1  0.291617  0.862559  0.065206  1
  S  S31  1  0.208383  0.862559  0.434794  1
  S  S32  1  0.250000  0.303120  0.750000  1
  S  S33  1  0.750000  0.196880  0.250000  1
  S  S34  1  0.750000  0.696880  0.250000  1
  S  S35  1  0.250000  0.803120  0.750000  1
  O  O36  1  0.365055  0.378900  0.514459  1
  O  O37  1  0.134945  0.378900  0.985541  1
  O  O38  1  0.634945  0.121100  0.014459  1
  O  O39  1  0.865055  0.121100  0.485541  1
  O  O40  1  0.634945  0.621100  0.485541  1
  O  O41  1  0.865055  0.621100  0.014459  1
  O  O42  1  0.365055  0.878900  0.985541  1
  O  O43  1  0.134945  0.878900  0.514459  1
  O  O44  1  0.493413  0.396253  0.383402  1
  O  O45  1  0.006587  0.396253  0.116598  1
  O  O46  1  0.506587  0.103747  0.883402  1
  O  O47  1  0.993413  0.103747  0.616598  1
  O  O48  1  0.506587  0.603747  0.616598  1
  O  O49  1  0.993413  0.603747  0.883402  1
  O  O50  1  0.493413  0.896253  0.116598  1
  O  O51  1  0.006587  0.896253  0.383402  1
  O  O52  1  0.060502  0.421355  0.417989  1
  O  O53  1  0.439498  0.421355  0.082011  1
  O  O54  1  0.939498  0.078645  0.917989  1
  O  O55  1  0.560502  0.078645  0.582011  1
  O  O56  1  0.939498  0.578645  0.582011  1
  O  O57  1  0.560502  0.578645  0.917989  1
  O  O58  1  0.060502  0.921355  0.082011  1
  O  O59  1  0.439498  0.921355  0.417989  1
  O  O60  1  0.265819  0.222711  0.419495  1
  O  O61  1  0.234181  0.222711  0.080505  1
  O  O62  1  0.734181  0.277289  0.919495  1
  O  O63  1  0.765819  0.277289  0.580505  1
  O  O64  1  0.734181  0.777289  0.580505  1
  O  O65  1  0.765819  0.777289  0.919495  1
  O  O66  1  0.265819  0.722711  0.080505  1
  O  O67  1  0.234181  0.722711  0.419495  1
  O  O68  1  0.271146  0.369662  0.680820  1
  O  O69  1  0.228854  0.369662  0.819180  1
  O  O70  1  0.728854  0.130338  0.180820  1
  O  O71  1  0.771146  0.130338  0.319180  1
  O  O72  1  0.728854  0.630338  0.319180  1
  O  O73  1  0.771146  0.630338  0.180820  1
  O  O74  1  0.271146  0.869662  0.819180  1
  O  O75  1  0.228854  0.869662  0.680820  1
  O  O76  1  0.023826  0.217340  0.747713  1
  O  O77  1  0.476174  0.217340  0.752287  1
  O  O78  1  0.976174  0.282660  0.247713  1
  O  O79  1  0.523826  0.282660  0.252287  1
  O  O80  1  0.976174  0.782660  0.252287  1
  O  O81  1  0.523826  0.782660  0.247713  1
  O  O82  1  0.023826  0.717340  0.752287  1
  O  O83  1  0.476174  0.717340  0.747713  1
