# generated using pymatgen
data_Ba3(ClO)2
_symmetry_space_group_name_H-M   'P 1'
_cell_length_a   6.34792696
_cell_length_b   10.79339271
_cell_length_c   12.63299934
_cell_angle_alpha   90.00000000
_cell_angle_beta   90.00000000
_cell_angle_gamma   90.00000000
_symmetry_Int_Tables_number   1
_chemical_formula_structural   Ba3(ClO)2
_chemical_formula_sum   'Ba12 Cl8 O8'
_cell_volume   865.55839587
_cell_formula_units_Z   4
loop_
 _symmetry_equiv_pos_site_id
 _symmetry_equiv_pos_as_xyz
  1  'x, y, z'
loop_
 _atom_site_type_symbol
 _atom_site_label
 _atom_site_symmetry_multiplicity
 _atom_site_fract_x
 _atom_site_fract_y
 _atom_site_fract_z
 _atom_site_occupancy
  Ba  Ba0  1  0.250000  0.702050  0.046816  1
  Ba  Ba1  1  0.250000  0.058662  0.082387  1
  Ba  Ba2  1  0.750000  0.858842  0.213228  1
  Ba  Ba3  1  0.250000  0.358842  0.286772  1
  Ba  Ba4  1  0.750000  0.558662  0.417613  1
  Ba  Ba5  1  0.750000  0.202050  0.453184  1
  Ba  Ba6  1  0.250000  0.797950  0.546816  1
  Ba  Ba7  1  0.250000  0.441338  0.582387  1
  Ba  Ba8  1  0.750000  0.641158  0.713228  1
  Ba  Ba9  1  0.250000  0.141158  0.786772  1
  Ba  Ba10  1  0.750000  0.941338  0.917613  1
  Ba  Ba11  1  0.750000  0.297950  0.953184  1
  Cl  Cl12  1  0.750000  0.557719  0.134694  1
  Cl  Cl13  1  0.750000  0.177458  0.195431  1
  Cl  Cl14  1  0.250000  0.677458  0.304569  1
  Cl  Cl15  1  0.250000  0.057719  0.365306  1
  Cl  Cl16  1  0.750000  0.942281  0.634694  1
  Cl  Cl17  1  0.750000  0.322542  0.695431  1
  Cl  Cl18  1  0.250000  0.822542  0.804569  1
  Cl  Cl19  1  0.250000  0.442281  0.865306  1
  O  O20  1  0.999896  0.872237  0.072692  1
  O  O21  1  0.500104  0.872237  0.072692  1
  O  O22  1  0.000104  0.372237  0.427308  1
  O  O23  1  0.499896  0.372237  0.427308  1
  O  O24  1  0.999896  0.627763  0.572692  1
  O  O25  1  0.500104  0.627763  0.572692  1
  O  O26  1  0.499896  0.127763  0.927308  1
  O  O27  1  0.000104  0.127763  0.927308  1
