# generated using pymatgen
data_Li2MnPCO7
_symmetry_space_group_name_H-M   'P 1'
_cell_length_a   5.26418493
_cell_length_b   6.36799341
_cell_length_c   8.50581576
_cell_angle_alpha   90.72826663
_cell_angle_beta   93.46585158
_cell_angle_gamma   92.50890338
_symmetry_Int_Tables_number   1
_chemical_formula_structural   Li2MnPCO7
_chemical_formula_sum   'Li4 Mn2 P2 C2 O14'
_cell_volume   284.30641707
_cell_formula_units_Z   2
loop_
 _symmetry_equiv_pos_site_id
 _symmetry_equiv_pos_as_xyz
  1  'x, y, z'
loop_
 _atom_site_type_symbol
 _atom_site_label
 _atom_site_symmetry_multiplicity
 _atom_site_fract_x
 _atom_site_fract_y
 _atom_site_fract_z
 _atom_site_occupancy
  Li  Li0  1  0.783485  0.440847  0.202649  1
  Li  Li1  1  0.796826  0.929929  0.262834  1
  Li  Li2  1  0.203174  0.070071  0.737166  1
  Li  Li3  1  0.216515  0.559153  0.797351  1
  Mn  Mn4  1  0.221542  0.244361  0.348200  1
  Mn  Mn5  1  0.778458  0.755639  0.651800  1
  P  P6  1  0.287411  0.753902  0.433007  1
  P  P7  1  0.712589  0.246098  0.566993  1
  C  C8  1  0.262991  0.269948  0.054636  1
  C  C9  1  0.737009  0.730052  0.945364  1
  O  O10  1  0.749766  0.715909  0.093583  1
  O  O11  1  0.050671  0.247140  0.131989  1
  O  O12  1  0.467856  0.274192  0.144828  1
  O  O13  1  0.185825  0.551322  0.346649  1
  O  O14  1  0.188522  0.934065  0.327573  1
  O  O15  1  0.588223  0.765298  0.445246  1
  O  O16  1  0.808848  0.227256  0.399938  1
  O  O17  1  0.191152  0.772744  0.600062  1
  O  O18  1  0.411777  0.234702  0.554754  1
  O  O19  1  0.811478  0.065935  0.672427  1
  O  O20  1  0.814175  0.448678  0.653351  1
  O  O21  1  0.532144  0.725808  0.855172  1
  O  O22  1  0.949329  0.752860  0.868011  1
  O  O23  1  0.250234  0.284091  0.906417  1
