# generated using pymatgen
data_Ca3WO6
_symmetry_space_group_name_H-M   'P 1'
_cell_length_a   5.60329067
_cell_length_b   5.87336068
_cell_length_c   9.83542997
_cell_angle_alpha   90.00000000
_cell_angle_beta   124.25128974
_cell_angle_gamma   90.00000000
_symmetry_Int_Tables_number   1
_chemical_formula_structural   Ca3WO6
_chemical_formula_sum   'Ca6 W2 O12'
_cell_volume   267.55097181
_cell_formula_units_Z   2
loop_
 _symmetry_equiv_pos_site_id
 _symmetry_equiv_pos_as_xyz
  1  'x, y, z'
loop_
 _atom_site_type_symbol
 _atom_site_label
 _atom_site_symmetry_multiplicity
 _atom_site_fract_x
 _atom_site_fract_y
 _atom_site_fract_z
 _atom_site_occupancy
  Ca  Ca0  1  0.500000  0.500000  0.500000  1
  Ca  Ca1  1  0.725764  0.944611  0.741597  1
  Ca  Ca2  1  0.274236  0.444611  0.758403  1
  Ca  Ca3  1  0.500000  0.000000  0.000000  1
  Ca  Ca4  1  0.725764  0.555389  0.241597  1
  Ca  Ca5  1  0.274236  0.055389  0.258403  1
  W  W6  1  0.000000  0.500000  0.000000  1
  W  W7  1  0.000000  0.000000  0.500000  1
  O  O8  1  0.107837  0.441543  0.224965  1
  O  O9  1  0.756303  0.224948  0.925336  1
  O  O10  1  0.334981  0.176017  0.550013  1
  O  O11  1  0.665019  0.676017  0.949987  1
  O  O12  1  0.243697  0.724948  0.574664  1
  O  O13  1  0.892163  0.941543  0.275035  1
  O  O14  1  0.107837  0.058457  0.724965  1
  O  O15  1  0.756303  0.275052  0.425336  1
  O  O16  1  0.334981  0.323983  0.050013  1
  O  O17  1  0.665019  0.823983  0.449987  1
  O  O18  1  0.243697  0.775052  0.074664  1
  O  O19  1  0.892163  0.558457  0.775035  1
