# generated using pymatgen
data_LiTi3Nb(PO4)6
_symmetry_space_group_name_H-M   'P 1'
_cell_length_a   8.87309703
_cell_length_b   8.87309703
_cell_length_c   8.87309703
_cell_angle_alpha   58.48188290
_cell_angle_beta   58.48188290
_cell_angle_gamma   58.48188290
_symmetry_Int_Tables_number   1
_chemical_formula_structural   LiTi3Nb(PO4)6
_chemical_formula_sum   'Li1 Ti3 Nb1 P6 O24'
_cell_volume   476.82466368
_cell_formula_units_Z   1
loop_
 _symmetry_equiv_pos_site_id
 _symmetry_equiv_pos_as_xyz
  1  'x, y, z'
loop_
 _atom_site_type_symbol
 _atom_site_label
 _atom_site_symmetry_multiplicity
 _atom_site_fract_x
 _atom_site_fract_y
 _atom_site_fract_z
 _atom_site_occupancy
  Li  Li0  1  0.994633  0.994633  0.994633  1
  Ti  Ti1  1  0.854777  0.854777  0.854777  1
  Ti  Ti2  1  0.639696  0.639696  0.639696  1
  Ti  Ti3  1  0.359670  0.359670  0.359670  1
  Nb  Nb4  1  0.143810  0.143810  0.143810  1
  P  P5  1  0.249383  0.543316  0.965425  1
  P  P6  1  0.965425  0.249383  0.543316  1
  P  P7  1  0.543316  0.965425  0.249383  1
  P  P8  1  0.467595  0.032592  0.745055  1
  P  P9  1  0.032592  0.745055  0.467595  1
  P  P10  1  0.745055  0.467595  0.032592  1
  O  O11  1  0.718888  0.496727  0.861332  1
  O  O12  1  0.496727  0.861332  0.718888  1
  O  O13  1  0.076486  0.723902  0.939357  1
  O  O14  1  0.861332  0.718888  0.496727  1
  O  O15  1  0.421948  0.564048  0.785972  1
  O  O16  1  0.213750  0.371847  0.996646  1
  O  O17  1  0.939357  0.076486  0.723902  1
  O  O18  1  0.785972  0.421948  0.564048  1
  O  O19  1  0.564048  0.785972  0.421948  1
  O  O20  1  0.633037  0.002053  0.785482  1
  O  O21  1  0.282203  0.060231  0.919214  1
  O  O22  1  0.002053  0.785482  0.633037  1
  O  O23  1  0.996646  0.213750  0.371847  1
  O  O24  1  0.723902  0.939357  0.076486  1
  O  O25  1  0.371847  0.996646  0.213750  1
  O  O26  1  0.439186  0.212936  0.576172  1
  O  O27  1  0.212936  0.576172  0.439186  1
  O  O28  1  0.060231  0.919214  0.282203  1
  O  O29  1  0.785482  0.633037  0.002053  1
  O  O30  1  0.576172  0.439186  0.212936  1
  O  O31  1  0.137918  0.279846  0.504867  1
  O  O32  1  0.919214  0.282203  0.060231  1
  O  O33  1  0.504867  0.137918  0.279846  1
  O  O34  1  0.279846  0.504867  0.137918  1
