# generated using pymatgen
data_LiMnF3
_symmetry_space_group_name_H-M   'P 1'
_cell_length_a   5.41297753
_cell_length_b   5.41297753
_cell_length_c   9.86130506
_cell_angle_alpha   90.00000000
_cell_angle_beta   90.00000000
_cell_angle_gamma   120.00000000
_symmetry_Int_Tables_number   1
_chemical_formula_structural   LiMnF3
_chemical_formula_sum   'Li4 Mn4 F12'
_cell_volume   250.22890479
_cell_formula_units_Z   4
loop_
 _symmetry_equiv_pos_site_id
 _symmetry_equiv_pos_as_xyz
  1  'x, y, z'
loop_
 _atom_site_type_symbol
 _atom_site_label
 _atom_site_symmetry_multiplicity
 _atom_site_fract_x
 _atom_site_fract_y
 _atom_site_fract_z
 _atom_site_occupancy
  Li  Li0  1  0.333333  0.666667  0.932794  1
  Li  Li1  1  0.333333  0.666667  0.567206  1
  Li  Li2  1  0.666667  0.333333  0.067206  1
  Li  Li3  1  0.666667  0.333333  0.432794  1
  Mn  Mn4  1  0.000000  0.000000  0.750000  1
  Mn  Mn5  1  0.000000  0.000000  0.250000  1
  Mn  Mn6  1  0.333333  0.666667  0.250000  1
  Mn  Mn7  1  0.666667  0.333333  0.750000  1
  F  F8  1  0.007228  0.667756  0.369913  1
  F  F9  1  0.332244  0.992772  0.130087  1
  F  F10  1  0.007228  0.339472  0.130087  1
  F  F11  1  0.332244  0.339472  0.369913  1
  F  F12  1  0.660528  0.992772  0.369913  1
  F  F13  1  0.339472  0.332244  0.869913  1
  F  F14  1  0.660528  0.667756  0.130087  1
  F  F15  1  0.339472  0.007228  0.630087  1
  F  F16  1  0.667756  0.660528  0.630087  1
  F  F17  1  0.992772  0.660528  0.869913  1
  F  F18  1  0.667756  0.007228  0.869913  1
  F  F19  1  0.992772  0.332244  0.630087  1
