# generated using pymatgen
data_LiSiBiO4
_symmetry_space_group_name_H-M   'P 1'
_cell_length_a   5.28222144
_cell_length_b   8.85058355
_cell_length_c   22.33826944
_cell_angle_alpha   90.00000000
_cell_angle_beta   90.00000000
_cell_angle_gamma   90.00000000
_symmetry_Int_Tables_number   1
_chemical_formula_structural   LiSiBiO4
_chemical_formula_sum   'Li12 Si12 Bi12 O48'
_cell_volume   1044.33067543
_cell_formula_units_Z   12
loop_
 _symmetry_equiv_pos_site_id
 _symmetry_equiv_pos_as_xyz
  1  'x, y, z'
loop_
 _atom_site_type_symbol
 _atom_site_label
 _atom_site_symmetry_multiplicity
 _atom_site_fract_x
 _atom_site_fract_y
 _atom_site_fract_z
 _atom_site_occupancy
  Li  Li0  1  0.977963  0.420681  0.086767  1
  Li  Li1  1  0.502364  0.925905  0.081260  1
  Li  Li2  1  0.009134  0.078355  0.249653  1
  Li  Li3  1  0.509134  0.578355  0.250347  1
  Li  Li4  1  0.002364  0.425905  0.418740  1
  Li  Li5  1  0.477963  0.920681  0.413233  1
  Li  Li6  1  0.977963  0.079319  0.586767  1
  Li  Li7  1  0.502364  0.574095  0.581260  1
  Li  Li8  1  0.009134  0.421645  0.749653  1
  Li  Li9  1  0.509134  0.921645  0.750347  1
  Li  Li10  1  0.002364  0.074095  0.918740  1
  Li  Li11  1  0.477963  0.579319  0.913233  1
  Si  Si12  1  0.006223  0.081951  0.077424  1
  Si  Si13  1  0.470759  0.585363  0.091140  1
  Si  Si14  1  0.005122  0.419475  0.243974  1
  Si  Si15  1  0.505122  0.919475  0.256026  1
  Si  Si16  1  0.970759  0.085363  0.408860  1
  Si  Si17  1  0.506223  0.581951  0.422576  1
  Si  Si18  1  0.006223  0.418049  0.577424  1
  Si  Si19  1  0.470759  0.914637  0.591140  1
  Si  Si20  1  0.005122  0.080525  0.743974  1
  Si  Si21  1  0.505122  0.580525  0.756026  1
  Si  Si22  1  0.970759  0.414637  0.908860  1
  Si  Si23  1  0.506223  0.918049  0.922576  1
  Bi  Bi24  1  0.957891  0.780205  0.004574  1
  Bi  Bi25  1  0.457891  0.219795  0.995426  1
  Bi  Bi26  1  0.504353  0.271721  0.165833  1
  Bi  Bi27  1  0.032125  0.717153  0.167284  1
  Bi  Bi28  1  0.532125  0.217153  0.332716  1
  Bi  Bi29  1  0.004353  0.771721  0.334167  1
  Bi  Bi30  1  0.957891  0.719795  0.504574  1
  Bi  Bi31  1  0.457891  0.280205  0.495426  1
  Bi  Bi32  1  0.504353  0.228279  0.665833  1
  Bi  Bi33  1  0.032125  0.782847  0.667284  1
  Bi  Bi34  1  0.532125  0.282847  0.832716  1
  Bi  Bi35  1  0.004353  0.728279  0.834167  1
  O  O36  1  0.583617  0.937045  0.994219  1
  O  O37  1  0.083617  0.062955  0.005781  1
  O  O38  1  0.350784  0.425090  0.066501  1
  O  O39  1  0.292273  0.734340  0.074121  1
  O  O40  1  0.766826  0.609493  0.069802  1
  O  O41  1  0.808055  0.223715  0.084494  1
  O  O42  1  0.286666  0.105840  0.109645  1
  O  O43  1  0.872867  0.922483  0.098987  1
  O  O44  1  0.438551  0.583176  0.164784  1
  O  O45  1  0.947924  0.448874  0.172496  1
  O  O46  1  0.639225  0.074225  0.227443  1
  O  O47  1  0.698783  0.773273  0.252219  1
  O  O48  1  0.222491  0.893168  0.226543  1
  O  O49  1  0.198783  0.273273  0.247781  1
  O  O50  1  0.722491  0.393168  0.273457  1
  O  O51  1  0.139225  0.574225  0.272557  1
  O  O52  1  0.447924  0.948874  0.327504  1
  O  O53  1  0.938551  0.083176  0.335216  1
  O  O54  1  0.372867  0.422483  0.401013  1
  O  O55  1  0.786666  0.605840  0.390355  1
  O  O56  1  0.308055  0.723715  0.415506  1
  O  O57  1  0.266826  0.109493  0.430198  1
  O  O58  1  0.792273  0.234340  0.425879  1
  O  O59  1  0.850784  0.925090  0.433499  1
  O  O60  1  0.583617  0.562955  0.494219  1
  O  O61  1  0.083617  0.437045  0.505781  1
  O  O62  1  0.350784  0.074910  0.566501  1
  O  O63  1  0.292273  0.765660  0.574121  1
  O  O64  1  0.766826  0.890507  0.569802  1
  O  O65  1  0.808055  0.276285  0.584494  1
  O  O66  1  0.286666  0.394160  0.609645  1
  O  O67  1  0.872867  0.577517  0.598987  1
  O  O68  1  0.438551  0.916824  0.664784  1
  O  O69  1  0.947924  0.051126  0.672496  1
  O  O70  1  0.639225  0.425775  0.727443  1
  O  O71  1  0.222491  0.606832  0.726543  1
  O  O72  1  0.698783  0.726727  0.752219  1
  O  O73  1  0.722491  0.106832  0.773457  1
  O  O74  1  0.198783  0.226727  0.747781  1
  O  O75  1  0.139225  0.925775  0.772557  1
  O  O76  1  0.447924  0.551126  0.827504  1
  O  O77  1  0.938551  0.416824  0.835216  1
  O  O78  1  0.372867  0.077517  0.901013  1
  O  O79  1  0.786666  0.894160  0.890355  1
  O  O80  1  0.308055  0.776285  0.915506  1
  O  O81  1  0.266826  0.390507  0.930198  1
  O  O82  1  0.792273  0.265660  0.925879  1
  O  O83  1  0.850784  0.574910  0.933499  1
