# generated using pymatgen
data_Hf2N2O
_symmetry_space_group_name_H-M   'P 1'
_cell_length_a   8.72745033
_cell_length_b   8.72722000
_cell_length_c   8.73237893
_cell_angle_alpha   109.43804655
_cell_angle_beta   109.44509471
_cell_angle_gamma   109.44282098
_symmetry_Int_Tables_number   1
_chemical_formula_structural   Hf2N2O
_chemical_formula_sum   'Hf16 N16 O8'
_cell_volume   512.55816096
_cell_formula_units_Z   8
loop_
 _symmetry_equiv_pos_site_id
 _symmetry_equiv_pos_as_xyz
  1  'x, y, z'
loop_
 _atom_site_type_symbol
 _atom_site_label
 _atom_site_symmetry_multiplicity
 _atom_site_fract_x
 _atom_site_fract_y
 _atom_site_fract_z
 _atom_site_occupancy
  Hf  Hf0  1  0.219229  0.258511  0.970671  1
  Hf  Hf1  1  0.996212  0.489361  0.990842  1
  Hf  Hf2  1  0.752924  0.972788  0.720731  1
  Hf  Hf3  1  0.251297  0.536335  0.785079  1
  Hf  Hf4  1  0.538102  0.782422  0.243668  1
  Hf  Hf5  1  0.031384  0.281845  0.252698  1
  Hf  Hf6  1  0.987275  0.990607  0.483353  1
  Hf  Hf7  1  0.507795  0.500589  0.511190  1
  Hf  Hf8  1  0.513199  0.010363  0.004710  1
  Hf  Hf9  1  0.720887  0.256076  0.471466  1
  Hf  Hf10  1  0.289576  0.752732  0.539234  1
  Hf  Hf11  1  0.468980  0.212540  0.752250  1
  Hf  Hf12  1  0.954182  0.707985  0.740825  1
  Hf  Hf13  1  0.741673  0.460354  0.208324  1
  Hf  Hf14  1  0.249738  0.034814  0.296220  1
  Hf  Hf15  1  0.779040  0.747109  0.032097  1
  N  N16  1  0.275267  0.532999  0.050504  1
  N  N17  1  0.259791  0.488953  0.533542  1
  N  N18  1  0.770461  0.043881  0.512573  1
  N  N19  1  0.531213  0.762944  0.987808  1
  N  N20  1  0.462035  0.236456  0.010770  1
  N  N21  1  0.969497  0.461342  0.730786  1
  N  N22  1  0.223072  0.949361  0.487006  1
  N  N23  1  0.730872  0.740957  0.771615  1
  N  N24  1  0.993056  0.034138  0.261180  1
  N  N25  1  0.772519  0.227224  0.238557  1
  N  N26  1  0.739394  0.516393  0.466520  1
  N  N27  1  0.542758  0.006491  0.771031  1
  N  N28  1  0.760110  0.727405  0.273316  1
  N  N29  1  0.956475  0.226718  0.968353  1
  N  N30  1  0.730455  0.466568  0.953465  1
  N  N31  1  0.507357  0.270947  0.540855  1
  O  O32  1  0.481865  0.725277  0.450923  1
  O  O33  1  0.235838  0.272256  0.728768  1
  O  O34  1  0.053010  0.775867  0.036895  1
  O  O35  1  0.447814  0.985914  0.222199  1
  O  O36  1  0.224719  0.775056  0.760101  1
  O  O37  1  0.019786  0.967862  0.740321  1
  O  O38  1  0.274909  0.262112  0.226579  1
  O  O39  1  0.036231  0.548447  0.272971  1
