# generated using pymatgen
data_V(CO3)2
_symmetry_space_group_name_H-M   'P 1'
_cell_length_a   8.46886015
_cell_length_b   8.46886015
_cell_length_c   8.46886015
_cell_angle_alpha   107.43019916
_cell_angle_beta   107.43019916
_cell_angle_gamma   113.63524107
_symmetry_Int_Tables_number   1
_chemical_formula_structural   V(CO3)2
_chemical_formula_sum   'V4 C8 O24'
_cell_volume   465.71048984
_cell_formula_units_Z   4
loop_
 _symmetry_equiv_pos_site_id
 _symmetry_equiv_pos_as_xyz
  1  'x, y, z'
loop_
 _atom_site_type_symbol
 _atom_site_label
 _atom_site_symmetry_multiplicity
 _atom_site_fract_x
 _atom_site_fract_y
 _atom_site_fract_z
 _atom_site_occupancy
  V  V0  1  0.625000  0.154700  0.029700  1
  V  V1  1  0.404700  0.375000  0.529700  1
  V  V2  1  0.125000  0.595300  0.970300  1
  V  V3  1  0.845300  0.875000  0.470300  1
  C  C4  1  0.818622  0.157534  0.765745  1
  C  C5  1  0.947123  0.181378  0.338912  1
  C  C6  1  0.302877  0.141789  0.734255  1
  C  C7  1  0.391789  0.052877  0.234255  1
  C  C8  1  0.842466  0.608211  0.661088  1
  C  C9  1  0.858211  0.592466  0.161088  1
  C  C10  1  0.431378  0.697123  0.838912  1
  C  C11  1  0.407534  0.568622  0.265745  1
  O  O12  1  0.828307  0.045059  0.357593  1
  O  O13  1  0.721582  0.168767  0.856439  1
  O  O14  1  0.364989  0.081811  0.847497  1
  O  O15  1  0.954941  0.312535  0.783248  1
  O  O16  1  0.885011  0.232508  0.216822  1
  O  O17  1  0.115143  0.062328  0.643561  1
  O  O18  1  0.331811  0.114989  0.347497  1
  O  O19  1  0.421693  0.279286  0.716752  1
  O  O20  1  0.529286  0.171693  0.216752  1
  O  O21  1  0.687465  0.470714  0.642407  1
  O  O22  1  0.134857  0.278418  0.447185  1
  O  O23  1  0.720714  0.437465  0.142407  1
  O  O24  1  0.831233  0.687672  0.552815  1
  O  O25  1  0.937672  0.581233  0.052815  1
  O  O26  1  0.418767  0.471582  0.356439  1
  O  O27  1  0.295059  0.578307  0.857593  1
  O  O28  1  0.482508  0.635011  0.716822  1
  O  O29  1  0.918189  0.765686  0.283178  1
  O  O30  1  0.528418  0.884857  0.947185  1
  O  O31  1  0.234314  0.517492  0.152503  1
  O  O32  1  0.562535  0.704941  0.283248  1
  O  O33  1  0.015686  0.668189  0.783178  1
  O  O34  1  0.767492  0.984314  0.652503  1
  O  O35  1  0.312328  0.865143  0.143561  1
