# generated using pymatgen
data_Nb5O12F
_symmetry_space_group_name_H-M   'P 1'
_cell_length_a   3.89218809
_cell_length_b   6.37889470
_cell_length_c   18.37823042
_cell_angle_alpha   90.00000000
_cell_angle_beta   90.00000000
_cell_angle_gamma   90.00000000
_symmetry_Int_Tables_number   1
_chemical_formula_structural   Nb5O12F
_chemical_formula_sum   'Nb10 O24 F2'
_cell_volume   456.29209477
_cell_formula_units_Z   2
loop_
 _symmetry_equiv_pos_site_id
 _symmetry_equiv_pos_as_xyz
  1  'x, y, z'
loop_
 _atom_site_type_symbol
 _atom_site_label
 _atom_site_symmetry_multiplicity
 _atom_site_fract_x
 _atom_site_fract_y
 _atom_site_fract_z
 _atom_site_occupancy
  Nb  Nb0  1  0.000000  0.227425  0.145183  1
  Nb  Nb1  1  0.000000  0.227425  0.354817  1
  Nb  Nb2  1  0.000000  0.218124  0.750000  1
  Nb  Nb3  1  0.000000  0.308991  0.563412  1
  Nb  Nb4  1  0.000000  0.308991  0.936588  1
  Nb  Nb5  1  0.000000  0.691009  0.063412  1
  Nb  Nb6  1  0.000000  0.691009  0.436588  1
  Nb  Nb7  1  0.000000  0.781876  0.250000  1
  Nb  Nb8  1  0.000000  0.772575  0.854817  1
  Nb  Nb9  1  0.000000  0.772575  0.645183  1
  O  O10  1  0.000000  0.093903  0.643903  1
  O  O11  1  0.000000  0.093903  0.856097  1
  O  O12  1  0.000000  0.145292  0.250000  1
  O  O13  1  0.500000  0.207626  0.133715  1
  O  O14  1  0.500000  0.207626  0.366285  1
  O  O15  1  0.500000  0.204358  0.750000  1
  O  O16  1  0.500000  0.292969  0.559650  1
  O  O17  1  0.500000  0.292969  0.940350  1
  O  O18  1  0.000000  0.376120  0.047696  1
  O  O19  1  0.000000  0.376120  0.452304  1
  O  O20  1  0.000000  0.465519  0.674022  1
  O  O21  1  0.000000  0.465519  0.825978  1
  O  O22  1  0.000000  0.534481  0.174022  1
  O  O23  1  0.000000  0.534481  0.325978  1
  O  O24  1  0.000000  0.623880  0.547696  1
  O  O25  1  0.000000  0.623880  0.952304  1
  O  O26  1  0.500000  0.707031  0.059650  1
  O  O27  1  0.500000  0.707031  0.440350  1
  O  O28  1  0.500000  0.795642  0.250000  1
  O  O29  1  0.500000  0.792374  0.866285  1
  O  O30  1  0.500000  0.792374  0.633715  1
  O  O31  1  0.000000  0.854708  0.750000  1
  O  O32  1  0.000000  0.906097  0.143903  1
  O  O33  1  0.000000  0.906097  0.356097  1
  F  F34  1  0.000000  0.000000  0.500000  1
  F  F35  1  0.000000  0.000000  0.000000  1
