# generated using pymatgen
data_USiS
_symmetry_space_group_name_H-M   'P 1'
_cell_length_a   3.76268308
_cell_length_b   3.76268308
_cell_length_c   8.00499532
_cell_angle_alpha   90.00000000
_cell_angle_beta   90.00000000
_cell_angle_gamma   90.00000000
_symmetry_Int_Tables_number   1
_chemical_formula_structural   USiS
_chemical_formula_sum   'U2 Si2 S2'
_cell_volume   113.33299435
_cell_formula_units_Z   2
loop_
 _symmetry_equiv_pos_site_id
 _symmetry_equiv_pos_as_xyz
  1  'x, y, z'
loop_
 _atom_site_type_symbol
 _atom_site_label
 _atom_site_symmetry_multiplicity
 _atom_site_fract_x
 _atom_site_fract_y
 _atom_site_fract_z
 _atom_site_occupancy
  U  U0  1  0.000000  0.500000  0.294064  1
  U  U1  1  0.500000  0.000000  0.705936  1
  Si  Si2  1  0.000000  0.000000  0.000000  1
  Si  Si3  1  0.500000  0.500000  0.000000  1
  S  S4  1  0.000000  0.500000  0.645081  1
  S  S5  1  0.500000  0.000000  0.354919  1
