# generated using pymatgen
data_Li5Fe8(BO3)8
_symmetry_space_group_name_H-M   'P 1'
_cell_length_a   5.22928225
_cell_length_b   9.13762405
_cell_length_c   10.09870077
_cell_angle_alpha   88.76211358
_cell_angle_beta   88.62656614
_cell_angle_gamma   89.26527041
_symmetry_Int_Tables_number   1
_chemical_formula_structural   Li5Fe8(BO3)8
_chemical_formula_sum   'Li5 Fe8 B8 O24'
_cell_volume   482.26062075
_cell_formula_units_Z   1
loop_
 _symmetry_equiv_pos_site_id
 _symmetry_equiv_pos_as_xyz
  1  'x, y, z'
loop_
 _atom_site_type_symbol
 _atom_site_label
 _atom_site_symmetry_multiplicity
 _atom_site_fract_x
 _atom_site_fract_y
 _atom_site_fract_z
 _atom_site_occupancy
  Li  Li0  1  0.150934  0.173034  0.652871  1
  Li  Li1  1  0.330512  0.330120  0.404723  1
  Li  Li2  1  0.326943  0.324580  0.919325  1
  Li  Li3  1  0.825464  0.826309  0.415818  1
  Li  Li4  1  0.830204  0.825694  0.915436  1
  Fe  Fe5  1  0.174224  0.826944  0.632608  1
  Fe  Fe6  1  0.165408  0.504848  0.132973  1
  Fe  Fe7  1  0.323811  0.999107  0.881333  1
  Fe  Fe8  1  0.350690  0.658048  0.376456  1
  Fe  Fe9  1  0.658430  0.348822  0.630496  1
  Fe  Fe10  1  0.666132  0.003913  0.134401  1
  Fe  Fe11  1  0.846117  0.163883  0.377311  1
  Fe  Fe12  1  0.815509  0.505588  0.878748  1
  B  B13  1  0.153187  0.497176  0.624787  1
  B  B14  1  0.168014  0.832950  0.127467  1
  B  B15  1  0.338087  0.997521  0.382905  1
  B  B16  1  0.330235  0.667357  0.879862  1
  B  B17  1  0.673093  0.003390  0.626412  1
  B  B18  1  0.667965  0.332683  0.125859  1
  B  B19  1  0.835916  0.498306  0.373614  1
  B  B20  1  0.824848  0.167858  0.877511  1
  O  O21  1  0.098161  0.483056  0.334225  1
  O  O22  1  0.088905  0.171342  0.858127  1
  O  O23  1  0.177991  0.788379  0.834395  1
  O  O24  1  0.210194  0.869252  0.423417  1
  O  O25  1  0.221228  0.130580  0.387527  1
  O  O26  1  0.203726  0.540436  0.923614  1
  O  O27  1  0.283563  0.365985  0.605851  1
  O  O28  1  0.324677  0.949149  0.090065  1
  O  O29  1  0.267548  0.629315  0.586430  1
  O  O30  1  0.274888  0.701259  0.167760  1
  O  O31  1  0.407300  0.347772  0.118017  1
  O  O32  1  0.409201  0.995506  0.660724  1
  O  O33  1  0.596919  0.983982  0.339244  1
  O  O34  1  0.586689  0.680038  0.881707  1
  O  O35  1  0.674568  0.290053  0.851134  1
  O  O36  1  0.702376  0.372263  0.409008  1
  O  O37  1  0.725387  0.633271  0.377481  1
  O  O38  1  0.707686  0.037364  0.922215  1
  O  O39  1  0.825509  0.447859  0.090147  1
  O  O40  1  0.817347  0.876505  0.620232  1
  O  O41  1  0.783969  0.136099  0.595322  1
  O  O42  1  0.775964  0.199423  0.165214  1
  O  O43  1  0.908526  0.848697  0.116650  1
  O  O44  1  0.909549  0.498192  0.675752  1
