# generated using pymatgen
data_Na2LiMnPCO7
_symmetry_space_group_name_H-M   'P 1'
_cell_length_a   6.77743446
_cell_length_b   8.86920465
_cell_length_c   10.23184952
_cell_angle_alpha   89.12510483
_cell_angle_beta   89.95173914
_cell_angle_gamma   89.90715581
_symmetry_Int_Tables_number   1
_chemical_formula_structural   Na2LiMnPCO7
_chemical_formula_sum   'Na8 Li4 Mn4 P4 C4 O28'
_cell_volume   614.96839757
_cell_formula_units_Z   4
loop_
 _symmetry_equiv_pos_site_id
 _symmetry_equiv_pos_as_xyz
  1  'x, y, z'
loop_
 _atom_site_type_symbol
 _atom_site_label
 _atom_site_symmetry_multiplicity
 _atom_site_fract_x
 _atom_site_fract_y
 _atom_site_fract_z
 _atom_site_occupancy
  Na  Na0  1  0.750579  0.084059  0.879450  1
  Na  Na1  1  0.744006  0.082257  0.378345  1
  Na  Na2  1  0.000579  0.256527  0.623457  1
  Na  Na3  1  0.499333  0.256029  0.623617  1
  Na  Na4  1  0.999864  0.255147  0.125948  1
  Na  Na5  1  0.498188  0.745141  0.874831  1
  Na  Na6  1  0.498276  0.744245  0.377130  1
  Na  Na7  1  0.000740  0.744693  0.376623  1
  Li  Li8  1  0.523193  0.273643  0.116058  1
  Li  Li9  1  0.020585  0.728776  0.884111  1
  Li  Li10  1  0.242382  0.909638  0.627049  1
  Li  Li11  1  0.254266  0.911811  0.124641  1
  Mn  Mn12  1  0.254450  0.359616  0.889732  1
  Mn  Mn13  1  0.250922  0.362148  0.387226  1
  Mn  Mn14  1  0.751289  0.641895  0.612794  1
  Mn  Mn15  1  0.754100  0.643567  0.110137  1
  P  P16  1  0.756893  0.413662  0.854260  1
  P  P17  1  0.745442  0.408673  0.350300  1
  P  P18  1  0.245655  0.597405  0.650384  1
  P  P19  1  0.255783  0.592264  0.145981  1
  C  C20  1  0.241070  0.044556  0.868151  1
  C  C21  1  0.250997  0.052008  0.363951  1
  C  C22  1  0.751053  0.941670  0.634096  1
  C  C23  1  0.741343  0.947220  0.131117  1
  O  O24  1  0.751240  0.086327  0.644809  1
  O  O25  1  0.723496  0.092505  0.140175  1
  O  O26  1  0.247294  0.085898  0.989069  1
  O  O27  1  0.249605  0.089425  0.486879  1
  O  O28  1  0.256041  0.145915  0.773990  1
  O  O29  1  0.253308  0.155668  0.272217  1
  O  O30  1  0.938843  0.316785  0.895352  1
  O  O31  1  0.571459  0.326609  0.905335  1
  O  O32  1  0.933340  0.316483  0.387796  1
  O  O33  1  0.565248  0.316564  0.400230  1
  O  O34  1  0.748478  0.425757  0.701869  1
  O  O35  1  0.249448  0.437690  0.589622  1
  O  O36  1  0.733238  0.423694  0.197433  1
  O  O37  1  0.267420  0.429979  0.090023  1
  O  O38  1  0.768080  0.576417  0.907896  1
  O  O39  1  0.233005  0.577386  0.802564  1
  O  O40  1  0.749416  0.569155  0.408413  1
  O  O41  1  0.247768  0.575855  0.297936  1
  O  O42  1  0.431787  0.692410  0.614623  1
  O  O43  1  0.067751  0.693559  0.601994  1
  O  O44  1  0.435779  0.691968  0.106571  1
  O  O45  1  0.071646  0.682033  0.096393  1
  O  O46  1  0.753044  0.854531  0.737922  1
  O  O47  1  0.753570  0.862342  0.236687  1
  O  O48  1  0.748595  0.880080  0.519225  1
  O  O49  1  0.748631  0.882940  0.018455  1
  O  O50  1  0.221411  0.903644  0.836997  1
  O  O51  1  0.250071  0.911733  0.330133  1
