# generated using pymatgen
data_LiNb(PO3)4
_symmetry_space_group_name_H-M   'P 1'
_cell_length_a   8.71895281
_cell_length_b   8.71895281
_cell_length_c   9.49065377
_cell_angle_alpha   59.34664462
_cell_angle_beta   120.65335538
_cell_angle_gamma   131.54006172
_symmetry_Int_Tables_number   1
_chemical_formula_structural   LiNb(PO3)4
_chemical_formula_sum   'Li2 Nb2 P8 O24'
_cell_volume   447.73447390
_cell_formula_units_Z   2
loop_
 _symmetry_equiv_pos_site_id
 _symmetry_equiv_pos_as_xyz
  1  'x, y, z'
loop_
 _atom_site_type_symbol
 _atom_site_label
 _atom_site_symmetry_multiplicity
 _atom_site_fract_x
 _atom_site_fract_y
 _atom_site_fract_z
 _atom_site_occupancy
  Li  Li0  1  0.696754  0.696754  0.250000  1
  Li  Li1  1  0.303246  0.303246  0.750000  1
  Nb  Nb2  1  0.170554  0.170554  0.250000  1
  Nb  Nb3  1  0.829446  0.829446  0.750000  1
  P  P4  1  0.006344  0.296971  0.811852  1
  P  P5  1  0.421441  0.689292  0.880814  1
  P  P6  1  0.689292  0.421441  0.619186  1
  P  P7  1  0.296971  0.006344  0.688148  1
  P  P8  1  0.703029  0.993656  0.311852  1
  P  P9  1  0.310708  0.578559  0.380814  1
  P  P10  1  0.578559  0.310708  0.119186  1
  P  P11  1  0.993656  0.703029  0.188148  1
  O  O12  1  0.602732  0.822262  0.803338  1
  O  O13  1  0.220667  0.522375  0.769425  1
  O  O14  1  0.991119  0.249099  0.980712  1
  O  O15  1  0.827758  0.334986  0.658675  1
  O  O16  1  0.987941  0.851759  0.220707  1
  O  O17  1  0.334986  0.827758  0.841325  1
  O  O18  1  0.249099  0.991119  0.519288  1
  O  O19  1  0.584152  0.451000  0.432852  1
  O  O20  1  0.451000  0.584152  0.067148  1
  O  O21  1  0.522375  0.220667  0.730575  1
  O  O22  1  0.822262  0.602732  0.696662  1
  O  O23  1  0.851759  0.987941  0.279293  1
  O  O24  1  0.148241  0.012059  0.720707  1
  O  O25  1  0.177738  0.397268  0.303338  1
  O  O26  1  0.477625  0.779333  0.269425  1
  O  O27  1  0.549000  0.415848  0.932852  1
  O  O28  1  0.415848  0.549000  0.567148  1
  O  O29  1  0.750901  0.008881  0.480712  1
  O  O30  1  0.665014  0.172242  0.158675  1
  O  O31  1  0.012059  0.148241  0.779293  1
  O  O32  1  0.172242  0.665014  0.341325  1
  O  O33  1  0.008881  0.750901  0.019288  1
  O  O34  1  0.779333  0.477625  0.230575  1
  O  O35  1  0.397268  0.177738  0.196662  1
