# generated using pymatgen
data_Fe5(OF4)2
_symmetry_space_group_name_H-M   'P 1'
_cell_length_a   4.80795125
_cell_length_b   5.78056026
_cell_length_c   13.57378448
_cell_angle_alpha   78.51847550
_cell_angle_beta   89.44474209
_cell_angle_gamma   89.24456347
_symmetry_Int_Tables_number   1
_chemical_formula_structural   Fe5(OF4)2
_chemical_formula_sum   'Fe10 O4 F16'
_cell_volume   369.66051958
_cell_formula_units_Z   2
loop_
 _symmetry_equiv_pos_site_id
 _symmetry_equiv_pos_as_xyz
  1  'x, y, z'
loop_
 _atom_site_type_symbol
 _atom_site_label
 _atom_site_symmetry_multiplicity
 _atom_site_fract_x
 _atom_site_fract_y
 _atom_site_fract_z
 _atom_site_occupancy
  Fe  Fe0  1  0.485303  0.501241  0.008580  1
  Fe  Fe1  1  0.489014  0.722391  0.396743  1
  Fe  Fe2  1  0.466931  0.119268  0.203642  1
  Fe  Fe3  1  0.517188  0.281680  0.596153  1
  Fe  Fe4  1  0.544610  0.916738  0.795301  1
  Fe  Fe5  1  0.013871  0.190166  0.396177  1
  Fe  Fe6  1  0.984931  0.381511  0.802265  1
  Fe  Fe7  1  0.012675  0.592081  0.197429  1
  Fe  Fe8  1  0.989874  0.805210  0.606450  1
  Fe  Fe9  1  0.992206  0.002658  0.995011  1
  O  O10  1  0.798090  0.103381  0.856252  1
  O  O11  1  0.682972  0.970275  0.665100  1
  O  O12  1  0.316120  0.007170  0.337626  1
  O  O13  1  0.300288  0.402033  0.145526  1
  F  F14  1  0.792381  0.270996  0.262942  1
  F  F15  1  0.815558  0.476812  0.665567  1
  F  F16  1  0.800333  0.682022  0.056857  1
  F  F17  1  0.797439  0.864732  0.462159  1
  F  F18  1  0.700267  0.165426  0.070617  1
  F  F19  1  0.692198  0.404467  0.452248  1
  F  F20  1  0.703013  0.591666  0.856951  1
  F  F21  1  0.702610  0.778281  0.260974  1
  F  F22  1  0.295057  0.213547  0.743121  1
  F  F23  1  0.310358  0.833608  0.928133  1
  F  F24  1  0.311004  0.625129  0.536889  1
  F  F25  1  0.209667  0.920411  0.136552  1
  F  F26  1  0.199751  0.337478  0.931421  1
  F  F27  1  0.176143  0.118340  0.539247  1
  F  F28  1  0.207132  0.526250  0.346483  1
  F  F29  1  0.193012  0.695034  0.747584  1
