# generated using pymatgen
data_K3Na3TeP6(HO4)6
_symmetry_space_group_name_H-M   'P 1'
_cell_length_a   12.71747706
_cell_length_b   12.71747706
_cell_length_c   12.71747706
_cell_angle_alpha   51.25459184
_cell_angle_beta   51.25459184
_cell_angle_gamma   51.25459184
_symmetry_Int_Tables_number   1
_chemical_formula_structural   K3Na3TeP6(HO4)6
_chemical_formula_sum   'K6 Na6 Te2 P12 H12 O48'
_cell_volume   1154.76413283
_cell_formula_units_Z   2
loop_
 _symmetry_equiv_pos_site_id
 _symmetry_equiv_pos_as_xyz
  1  'x, y, z'
loop_
 _atom_site_type_symbol
 _atom_site_label
 _atom_site_symmetry_multiplicity
 _atom_site_fract_x
 _atom_site_fract_y
 _atom_site_fract_z
 _atom_site_occupancy
  K  K0  1  0.750000  0.375890  0.124110  1
  K  K1  1  0.375890  0.124110  0.750000  1
  K  K2  1  0.124110  0.750000  0.375890  1
  K  K3  1  0.875890  0.250000  0.624110  1
  K  K4  1  0.250000  0.624110  0.875890  1
  K  K5  1  0.624110  0.875890  0.250000  1
  Na  Na6  1  0.946668  0.553332  0.750000  1
  Na  Na7  1  0.553332  0.750000  0.946668  1
  Na  Na8  1  0.750000  0.946668  0.553332  1
  Na  Na9  1  0.053332  0.446668  0.250000  1
  Na  Na10  1  0.446668  0.250000  0.053332  1
  Na  Na11  1  0.250000  0.053332  0.446668  1
  Te  Te12  1  0.500000  0.500000  0.500000  1
  Te  Te13  1  0.000000  0.000000  0.000000  1
  P  P14  1  0.660485  0.506791  0.812371  1
  P  P15  1  0.506791  0.812371  0.660485  1
  P  P16  1  0.812371  0.660485  0.506791  1
  P  P17  1  0.006791  0.160485  0.312371  1
  P  P18  1  0.160485  0.312371  0.006791  1
  P  P19  1  0.312371  0.006791  0.160485  1
  P  P20  1  0.339515  0.493209  0.187629  1
  P  P21  1  0.493209  0.187629  0.339515  1
  P  P22  1  0.187629  0.339515  0.493209  1
  P  P23  1  0.993209  0.839515  0.687629  1
  P  P24  1  0.839515  0.687629  0.993209  1
  P  P25  1  0.687629  0.993209  0.839515  1
  H  H26  1  0.697239  0.594858  0.290672  1
  H  H27  1  0.594858  0.290672  0.697239  1
  H  H28  1  0.290672  0.697239  0.594858  1
  H  H29  1  0.094858  0.197239  0.790672  1
  H  H30  1  0.197239  0.790672  0.094858  1
  H  H31  1  0.790672  0.094858  0.197239  1
  H  H32  1  0.302761  0.405142  0.709328  1
  H  H33  1  0.405142  0.709328  0.302761  1
  H  H34  1  0.709328  0.302761  0.405142  1
  H  H35  1  0.905142  0.802761  0.209328  1
  H  H36  1  0.802761  0.209328  0.905142  1
  H  H37  1  0.209328  0.905142  0.802761  1
  O  O38  1  0.627992  0.369712  0.605412  1
  O  O39  1  0.369712  0.605412  0.627992  1
  O  O40  1  0.605412  0.627992  0.369712  1
  O  O41  1  0.869712  0.127992  0.105412  1
  O  O42  1  0.127992  0.105412  0.869712  1
  O  O43  1  0.105412  0.869712  0.127992  1
  O  O44  1  0.372008  0.630288  0.394588  1
  O  O45  1  0.630288  0.394588  0.372008  1
  O  O46  1  0.394588  0.372008  0.630288  1
  O  O47  1  0.130288  0.872008  0.894588  1
  O  O48  1  0.872008  0.894588  0.130288  1
  O  O49  1  0.894588  0.130288  0.872008  1
  O  O50  1  0.636696  0.369156  0.891783  1
  O  O51  1  0.369156  0.891783  0.636696  1
  O  O52  1  0.891783  0.636696  0.369156  1
  O  O53  1  0.869156  0.136696  0.391783  1
  O  O54  1  0.136696  0.391783  0.869156  1
  O  O55  1  0.391783  0.869156  0.136696  1
  O  O56  1  0.363304  0.630844  0.108217  1
  O  O57  1  0.630844  0.108217  0.363304  1
  O  O58  1  0.108217  0.363304  0.630844  1
  O  O59  1  0.130844  0.863304  0.608217  1
  O  O60  1  0.863304  0.608217  0.130844  1
  O  O61  1  0.608217  0.130844  0.863304  1
  O  O62  1  0.707696  0.534597  0.872824  1
  O  O63  1  0.534597  0.872824  0.707696  1
  O  O64  1  0.872824  0.707696  0.534597  1
  O  O65  1  0.034597  0.207696  0.372824  1
  O  O66  1  0.207696  0.372824  0.034597  1
  O  O67  1  0.372824  0.034597  0.207696  1
  O  O68  1  0.292304  0.465403  0.127176  1
  O  O69  1  0.465403  0.127176  0.292304  1
  O  O70  1  0.127176  0.292304  0.465403  1
  O  O71  1  0.965403  0.792304  0.627176  1
  O  O72  1  0.792304  0.627176  0.965403  1
  O  O73  1  0.627176  0.965403  0.792304  1
  O  O74  1  0.779376  0.514894  0.645420  1
  O  O75  1  0.514894  0.645420  0.779376  1
  O  O76  1  0.645420  0.779376  0.514894  1
  O  O77  1  0.014894  0.279376  0.145420  1
  O  O78  1  0.279376  0.145420  0.014894  1
  O  O79  1  0.145420  0.014894  0.279376  1
  O  O80  1  0.220624  0.485106  0.354580  1
  O  O81  1  0.485106  0.354580  0.220624  1
  O  O82  1  0.354580  0.220624  0.485106  1
  O  O83  1  0.985106  0.720624  0.854580  1
  O  O84  1  0.720624  0.854580  0.985106  1
  O  O85  1  0.854580  0.985106  0.720624  1
