# generated using pymatgen
data_Ca12Al11Si3Cl5O32
_symmetry_space_group_name_H-M   'P 1'
_cell_length_a   10.45966247
_cell_length_b   10.47055397
_cell_length_c   10.47357955
_cell_angle_alpha   109.26056322
_cell_angle_beta   109.51197324
_cell_angle_gamma   109.55956303
_symmetry_Int_Tables_number   1
_chemical_formula_structural   Ca12Al11Si3Cl5O32
_chemical_formula_sum   'Ca12 Al11 Si3 Cl5 O32'
_cell_volume   883.88222926
_cell_formula_units_Z   1
loop_
 _symmetry_equiv_pos_site_id
 _symmetry_equiv_pos_as_xyz
  1  'x, y, z'
loop_
 _atom_site_type_symbol
 _atom_site_label
 _atom_site_symmetry_multiplicity
 _atom_site_fract_x
 _atom_site_fract_y
 _atom_site_fract_z
 _atom_site_occupancy
  Ca  Ca0  1  0.652058  0.258694  0.901699  1
  Ca  Ca1  1  0.748727  0.140202  0.391617  1
  Ca  Ca2  1  0.352419  0.099858  0.246096  1
  Ca  Ca3  1  0.753179  0.606729  0.862028  1
  Ca  Ca4  1  0.142652  0.394762  0.750954  1
  Ca  Ca5  1  0.101315  0.240474  0.348644  1
  Ca  Ca6  1  0.244357  0.361856  0.107227  1
  Ca  Ca7  1  0.852181  0.751401  0.604979  1
  Ca  Ca8  1  0.891067  0.647312  0.246416  1
  Ca  Ca9  1  0.608836  0.861476  0.761127  1
  Ca  Ca10  1  0.391489  0.740805  0.135222  1
  Ca  Ca11  1  0.250821  0.891135  0.641524  1
  Al  Al12  1  0.872119  0.124174  0.744615  1
  Al  Al13  1  0.001831  0.034227  0.500615  1
  Al  Al14  1  0.380319  0.254784  0.625574  1
  Al  Al15  1  0.629714  0.375215  0.256496  1
  Al  Al16  1  0.532263  0.497314  0.000397  1
  Al  Al17  1  0.966419  0.965667  0.963310  1
  Al  Al18  1  0.254600  0.626896  0.377285  1
  Al  Al19  1  0.121010  0.744926  0.872316  1
  Al  Al20  1  0.031619  0.499232  0.000604  1
  Al  Al21  1  0.748397  0.874623  0.124419  1
  Al  Al22  1  0.498255  0.001927  0.033307  1
  Si  Si23  1  0.466330  0.465912  0.465590  1
  Si  Si24  1  0.003303  0.536825  0.500867  1
  Si  Si25  1  0.499104  0.999958  0.535305  1
  Cl  Cl26  1  0.749509  0.374036  0.623891  1
  Cl  Cl27  1  0.875885  0.247869  0.126125  1
  Cl  Cl28  1  0.376674  0.628114  0.752012  1
  Cl  Cl29  1  0.624335  0.748624  0.372693  1
  Cl  Cl30  1  0.124142  0.877243  0.251632  1
  O  O31  1  0.902290  0.020620  0.316480  1
  O  O32  1  0.917878  0.123546  0.598069  1
  O  O33  1  0.673059  0.076443  0.689853  1
  O  O34  1  0.419410  0.097143  0.607172  1
  O  O35  1  0.578829  0.182121  0.207928  1
  O  O36  1  0.188665  0.203387  0.587036  1
  O  O37  1  0.522619  0.395785  0.818727  1
  O  O38  1  0.386912  0.308992  0.482283  1
  O  O39  1  0.014428  0.313683  0.900325  1
  O  O40  1  0.139893  0.133256  0.123294  1
  O  O41  1  0.828856  0.517749  0.402819  1
  O  O42  1  0.490514  0.393584  0.313794  1
  O  O43  1  0.975349  0.793436  0.870216  1
  O  O44  1  0.613083  0.410366  0.101387  1
  O  O45  1  0.001335  0.380993  0.497448  1
  O  O46  1  0.868775  0.503871  0.005554  1
  O  O47  1  0.618150  0.620384  0.620771  1
  O  O48  1  0.121891  0.599225  0.918373  1
  O  O49  1  0.311452  0.487262  0.390304  1
  O  O50  1  0.797059  0.881247  0.979415  1
  O  O51  1  0.358568  0.482465  0.992714  1
  O  O52  1  0.700768  0.682373  0.085173  1
  O  O53  1  0.879921  0.979756  0.792217  1
  O  O54  1  0.080742  0.690216  0.675089  1
  O  O55  1  0.104623  0.615349  0.425934  1
  O  O56  1  0.202424  0.580894  0.185513  1
  O  O57  1  0.400226  0.825483  0.517799  1
  O  O58  1  0.492301  0.009044  0.866785  1
  O  O59  1  0.596109  0.915735  0.118228  1
  O  O60  1  0.011549  0.876724  0.518202  1
  O  O61  1  0.498012  0.995582  0.379470  1
  O  O62  1  0.309381  0.906016  0.012038  1
