# generated using pymatgen
data_Li2Fe3(CoO4)3
_symmetry_space_group_name_H-M   'P 1'
_cell_length_a   5.85011895
_cell_length_b   5.97753663
_cell_length_c   6.71085846
_cell_angle_alpha   105.18809608
_cell_angle_beta   103.27992254
_cell_angle_gamma   90.03682811
_symmetry_Int_Tables_number   1
_chemical_formula_structural   Li2Fe3(CoO4)3
_chemical_formula_sum   'Li2 Fe3 Co3 O12'
_cell_volume   219.95830780
_cell_formula_units_Z   1
loop_
 _symmetry_equiv_pos_site_id
 _symmetry_equiv_pos_as_xyz
  1  'x, y, z'
loop_
 _atom_site_type_symbol
 _atom_site_label
 _atom_site_symmetry_multiplicity
 _atom_site_fract_x
 _atom_site_fract_y
 _atom_site_fract_z
 _atom_site_occupancy
  Li  Li0  1  0.686231  0.681928  0.681327  1
  Li  Li1  1  0.313769  0.318072  0.318673  1
  Fe  Fe2  1  0.832990  0.845987  0.325495  1
  Fe  Fe3  1  0.500000  0.500000  0.000000  1
  Fe  Fe4  1  0.167010  0.154013  0.674505  1
  Co  Co5  1  0.333972  0.833593  0.330678  1
  Co  Co6  1  0.000000  0.500000  0.000000  1
  Co  Co7  1  0.666028  0.166407  0.669322  1
  O  O8  1  0.244663  0.727123  0.029834  1
  O  O9  1  0.755701  0.709551  0.007263  1
  O  O10  1  0.427968  0.932145  0.637103  1
  O  O11  1  0.091231  0.606509  0.301414  1
  O  O12  1  0.893263  0.942350  0.645600  1
  O  O13  1  0.568022  0.612354  0.315710  1
  O  O14  1  0.431978  0.387646  0.684290  1
  O  O15  1  0.106737  0.057650  0.354400  1
  O  O16  1  0.908769  0.393491  0.698586  1
  O  O17  1  0.572032  0.067855  0.362897  1
  O  O18  1  0.244299  0.290449  0.992737  1
  O  O19  1  0.755337  0.272877  0.970166  1
