# generated using pymatgen
data_Li2FeBO4
_symmetry_space_group_name_H-M   'P 1'
_cell_length_a   4.81521527
_cell_length_b   5.82714844
_cell_length_c   10.78449099
_cell_angle_alpha   90.00000000
_cell_angle_beta   90.00000000
_cell_angle_gamma   90.00000000
_symmetry_Int_Tables_number   1
_chemical_formula_structural   Li2FeBO4
_chemical_formula_sum   'Li8 Fe4 B4 O16'
_cell_volume   302.60175390
_cell_formula_units_Z   4
loop_
 _symmetry_equiv_pos_site_id
 _symmetry_equiv_pos_as_xyz
  1  'x, y, z'
loop_
 _atom_site_type_symbol
 _atom_site_label
 _atom_site_symmetry_multiplicity
 _atom_site_fract_x
 _atom_site_fract_y
 _atom_site_fract_z
 _atom_site_occupancy
  Li  Li0  1  0.697326  0.496624  0.583956  1
  Li  Li1  1  0.802674  0.496624  0.083956  1
  Li  Li2  1  0.802674  0.003376  0.083956  1
  Li  Li3  1  0.697326  0.003376  0.583956  1
  Li  Li4  1  0.197326  0.996624  0.916044  1
  Li  Li5  1  0.302674  0.996624  0.416044  1
  Li  Li6  1  0.302674  0.503376  0.416044  1
  Li  Li7  1  0.197326  0.503376  0.916044  1
  Fe  Fe8  1  0.688394  0.750000  0.821776  1
  Fe  Fe9  1  0.811606  0.750000  0.321776  1
  Fe  Fe10  1  0.188394  0.250000  0.678224  1
  Fe  Fe11  1  0.311606  0.250000  0.178224  1
  B  B12  1  0.182444  0.750000  0.664227  1
  B  B13  1  0.317556  0.750000  0.164227  1
  B  B14  1  0.817556  0.250000  0.335773  1
  B  B15  1  0.682444  0.250000  0.835773  1
  O  O16  1  0.280406  0.537062  0.597358  1
  O  O17  1  0.219594  0.537062  0.097358  1
  O  O18  1  0.873701  0.750000  0.666876  1
  O  O19  1  0.207258  0.750000  0.295913  1
  O  O20  1  0.626299  0.750000  0.166876  1
  O  O21  1  0.292742  0.750000  0.795913  1
  O  O22  1  0.219594  0.962938  0.097358  1
  O  O23  1  0.280406  0.962938  0.597358  1
  O  O24  1  0.719594  0.037062  0.402642  1
  O  O25  1  0.780406  0.037062  0.902642  1
  O  O26  1  0.126299  0.250000  0.333124  1
  O  O27  1  0.373701  0.250000  0.833124  1
  O  O28  1  0.792742  0.250000  0.704087  1
  O  O29  1  0.707258  0.250000  0.204087  1
  O  O30  1  0.719594  0.462938  0.402642  1
  O  O31  1  0.780406  0.462938  0.902642  1
