# generated using pymatgen
data_Li6Mn3Sn(PO4)6
_symmetry_space_group_name_H-M   'P 1'
_cell_length_a   8.54765843
_cell_length_b   8.63730658
_cell_length_c   8.72215517
_cell_angle_alpha   61.49892000
_cell_angle_beta   61.99499733
_cell_angle_gamma   62.62247398
_symmetry_Int_Tables_number   1
_chemical_formula_structural   Li6Mn3Sn(PO4)6
_chemical_formula_sum   'Li6 Mn3 Sn1 P6 O24'
_cell_volume   476.01066732
_cell_formula_units_Z   1
loop_
 _symmetry_equiv_pos_site_id
 _symmetry_equiv_pos_as_xyz
  1  'x, y, z'
loop_
 _atom_site_type_symbol
 _atom_site_label
 _atom_site_symmetry_multiplicity
 _atom_site_fract_x
 _atom_site_fract_y
 _atom_site_fract_z
 _atom_site_occupancy
  Li  Li0  1  0.997050  0.994326  0.975055  1
  Li  Li1  1  0.651253  0.846902  0.249422  1
  Li  Li2  1  0.502487  0.501523  0.513055  1
  Li  Li3  1  0.350348  0.160229  0.709613  1
  Li  Li4  1  0.159107  0.707171  0.355786  1
  Li  Li5  1  0.709747  0.356253  0.160039  1
  Mn  Mn6  1  0.857247  0.856896  0.856438  1
  Mn  Mn7  1  0.643076  0.641448  0.645277  1
  Mn  Mn8  1  0.345567  0.348874  0.350513  1
  Sn  Sn9  1  0.146539  0.152313  0.143973  1
  P  P10  1  0.943730  0.558830  0.250564  1
  P  P11  1  0.563365  0.258352  0.943663  1
  P  P12  1  0.248845  0.941603  0.559794  1
  P  P13  1  0.039788  0.461683  0.753304  1
  P  P14  1  0.749417  0.035943  0.457840  1
  P  P15  1  0.463450  0.756376  0.045736  1
  O  O16  1  0.501854  0.713630  0.880880  1
  O  O17  1  0.883246  0.492928  0.692835  1
  O  O18  1  0.741362  0.092356  0.936766  1
  O  O19  1  0.696715  0.879079  0.470877  1
  O  O20  1  0.395144  0.201356  0.981148  1
  O  O21  1  0.573138  0.416150  0.755083  1
  O  O22  1  0.083853  0.921492  0.741894  1
  O  O23  1  0.411413  0.759336  0.559636  1
  O  O24  1  0.998025  0.608207  0.826429  1
  O  O25  1  0.748249  0.574970  0.394604  1
  O  O26  1  0.064426  0.260535  0.909576  1
  O  O27  1  0.807030  0.985078  0.619193  1
  O  O28  1  0.193648  0.987640  0.391595  1
  O  O29  1  0.927172  0.749619  0.094317  1
  O  O30  1  0.231720  0.444362  0.597219  1
  O  O31  1  0.985078  0.395260  0.191002  1
  O  O32  1  0.593370  0.224456  0.440796  1
  O  O33  1  0.910065  0.065133  0.264701  1
  O  O34  1  0.440881  0.596992  0.233659  1
  O  O35  1  0.618524  0.819212  0.024108  1
  O  O36  1  0.304282  0.096853  0.540481  1
  O  O37  1  0.267360  0.913759  0.069257  1
  O  O38  1  0.096935  0.529342  0.314773  1
  O  O39  1  0.532491  0.316534  0.099101  1
