# generated using pymatgen
data_BaYBr5
_symmetry_space_group_name_H-M   'P 1'
_cell_length_a   9.48489942
_cell_length_b   12.18749152
_cell_length_c   11.33757477
_cell_angle_alpha   90.00000000
_cell_angle_beta   124.30942249
_cell_angle_gamma   90.00000000
_symmetry_Int_Tables_number   1
_chemical_formula_structural   BaYBr5
_chemical_formula_sum   'Ba4 Y4 Br20'
_cell_volume   1082.55561524
_cell_formula_units_Z   4
loop_
 _symmetry_equiv_pos_site_id
 _symmetry_equiv_pos_as_xyz
  1  'x, y, z'
loop_
 _atom_site_type_symbol
 _atom_site_label
 _atom_site_symmetry_multiplicity
 _atom_site_fract_x
 _atom_site_fract_y
 _atom_site_fract_z
 _atom_site_occupancy
  Ba  Ba0  1  0.515605  0.154249  0.315756  1
  Ba  Ba1  1  0.484395  0.654249  0.184244  1
  Ba  Ba2  1  0.515605  0.345751  0.815756  1
  Ba  Ba3  1  0.484395  0.845751  0.684244  1
  Y  Y4  1  0.102734  0.501573  0.233877  1
  Y  Y5  1  0.102734  0.998427  0.733877  1
  Y  Y6  1  0.897266  0.001573  0.266123  1
  Y  Y7  1  0.897266  0.498427  0.766123  1
  Br  Br8  1  0.236460  0.029296  0.350534  1
  Br  Br9  1  0.187974  0.110124  0.972468  1
  Br  Br10  1  0.059977  0.646993  0.005604  1
  Br  Br11  1  0.310126  0.684331  0.378969  1
  Br  Br12  1  0.385563  0.411750  0.241022  1
  Br  Br13  1  0.236460  0.470704  0.850534  1
  Br  Br14  1  0.614437  0.911750  0.258978  1
  Br  Br15  1  0.187974  0.389876  0.472468  1
  Br  Br16  1  0.059977  0.853007  0.505604  1
  Br  Br17  1  0.689874  0.184331  0.121031  1
  Br  Br18  1  0.310126  0.815669  0.878969  1
  Br  Br19  1  0.940023  0.146993  0.494396  1
  Br  Br20  1  0.812026  0.610124  0.527532  1
  Br  Br21  1  0.385563  0.088250  0.741022  1
  Br  Br22  1  0.763540  0.529296  0.149466  1
  Br  Br23  1  0.614437  0.588250  0.758978  1
  Br  Br24  1  0.689874  0.315669  0.621031  1
  Br  Br25  1  0.940023  0.353007  0.994396  1
  Br  Br26  1  0.812026  0.889876  0.027532  1
  Br  Br27  1  0.763540  0.970704  0.649466  1
