# generated using pymatgen
data_Li7Mn4O12
_symmetry_space_group_name_H-M   'P 1'
_cell_length_a   4.99970934
_cell_length_b   4.99944477
_cell_length_c   9.73975397
_cell_angle_alpha   94.37889541
_cell_angle_beta   94.51922468
_cell_angle_gamma   119.54688512
_symmetry_Int_Tables_number   1
_chemical_formula_structural   Li7Mn4O12
_chemical_formula_sum   'Li7 Mn4 O12'
_cell_volume   209.26250838
_cell_formula_units_Z   1
loop_
 _symmetry_equiv_pos_site_id
 _symmetry_equiv_pos_as_xyz
  1  'x, y, z'
loop_
 _atom_site_type_symbol
 _atom_site_label
 _atom_site_symmetry_multiplicity
 _atom_site_fract_x
 _atom_site_fract_y
 _atom_site_fract_z
 _atom_site_occupancy
  Li  Li0  1  0.497565  0.996079  0.000482  1
  Li  Li1  1  0.366675  0.177155  0.506099  1
  Li  Li2  1  0.995551  0.497826  0.500293  1
  Li  Li3  1  0.817517  0.626457  0.992414  1
  Li  Li4  1  0.128679  0.315995  0.993330  1
  Li  Li5  1  0.662216  0.851406  0.500070  1
  Li  Li6  1  0.252273  0.747127  0.248411  1
  Mn  Mn7  1  0.921923  0.080558  0.250032  1
  Mn  Mn8  1  0.585676  0.416337  0.249621  1
  Mn  Mn9  1  0.413536  0.582365  0.749586  1
  Mn  Mn10  1  0.079384  0.916860  0.749256  1
  O  O11  1  0.647911  0.142841  0.364524  1
  O  O12  1  0.857957  0.352957  0.134644  1
  O  O13  1  0.220927  0.073561  0.138694  1
  O  O14  1  0.408217  0.282205  0.863471  1
  O  O15  1  0.086345  0.216939  0.635545  1
  O  O16  1  0.713137  0.588722  0.635284  1
  O  O17  1  0.287704  0.425477  0.361225  1
  O  O18  1  0.929350  0.780971  0.361063  1
  O  O19  1  0.578826  0.716374  0.138691  1
  O  O20  1  0.780524  0.909580  0.863828  1
  O  O21  1  0.155344  0.657428  0.865710  1
  O  O22  1  0.337891  0.840884  0.633176  1
