# generated using pymatgen
data_Li4Ti3Fe2Ni3O16
_symmetry_space_group_name_H-M   'P 1'
_cell_length_a   5.87625551
_cell_length_b   5.87625551
_cell_length_c   9.54771753
_cell_angle_alpha   87.31808851
_cell_angle_beta   92.68191149
_cell_angle_gamma   120.98431459
_symmetry_Int_Tables_number   1
_chemical_formula_structural   Li4Ti3Fe2Ni3O16
_chemical_formula_sum   'Li4 Ti3 Fe2 Ni3 O16'
_cell_volume   282.23398230
_cell_formula_units_Z   1
loop_
 _symmetry_equiv_pos_site_id
 _symmetry_equiv_pos_as_xyz
  1  'x, y, z'
loop_
 _atom_site_type_symbol
 _atom_site_label
 _atom_site_symmetry_multiplicity
 _atom_site_fract_x
 _atom_site_fract_y
 _atom_site_fract_z
 _atom_site_occupancy
  Li  Li0  1  0.669218  0.330782  0.895821  1
  Li  Li1  1  0.983731  0.016269  0.991575  1
  Li  Li2  1  0.992595  0.007405  0.495572  1
  Li  Li3  1  0.340450  0.659550  0.398876  1
  Ti  Ti4  1  0.340806  0.161768  0.217406  1
  Ti  Ti5  1  0.838232  0.659194  0.217406  1
  Ti  Ti6  1  0.167831  0.832169  0.709992  1
  Fe  Fe7  1  0.669473  0.330527  0.494742  1
  Fe  Fe8  1  0.334246  0.665754  0.983472  1
  Ni  Ni9  1  0.827182  0.172818  0.208083  1
  Ni  Ni10  1  0.169928  0.336074  0.714017  1
  Ni  Ni11  1  0.663926  0.830072  0.714017  1
  O  O12  1  0.335366  0.147344  0.598383  1
  O  O13  1  0.519393  0.480607  0.335030  1
  O  O14  1  0.657915  0.342085  0.103413  1
  O  O15  1  0.995624  0.004376  0.305948  1
  O  O16  1  0.001572  0.998428  0.807190  1
  O  O17  1  0.852656  0.664634  0.598383  1
  O  O18  1  0.506929  0.033565  0.340919  1
  O  O19  1  0.966435  0.493071  0.340919  1
  O  O20  1  0.156775  0.843225  0.103191  1
  O  O21  1  0.842463  0.157537  0.603273  1
  O  O22  1  0.042378  0.526160  0.849055  1
  O  O23  1  0.473840  0.957622  0.849055  1
  O  O24  1  0.336848  0.663152  0.612070  1
  O  O25  1  0.173125  0.340140  0.094415  1
  O  O26  1  0.484015  0.515985  0.831163  1
  O  O27  1  0.659860  0.826875  0.094415  1
