# generated using pymatgen
data_Hf2N2O
_symmetry_space_group_name_H-M   'P 1'
_cell_length_a   8.71805919
_cell_length_b   8.72776855
_cell_length_c   8.73052231
_cell_angle_alpha   109.54469444
_cell_angle_beta   109.28114233
_cell_angle_gamma   109.41870694
_symmetry_Int_Tables_number   1
_chemical_formula_structural   Hf2N2O
_chemical_formula_sum   'Hf16 N16 O8'
_cell_volume   512.43971462
_cell_formula_units_Z   8
loop_
 _symmetry_equiv_pos_site_id
 _symmetry_equiv_pos_as_xyz
  1  'x, y, z'
loop_
 _atom_site_type_symbol
 _atom_site_label
 _atom_site_symmetry_multiplicity
 _atom_site_fract_x
 _atom_site_fract_y
 _atom_site_fract_z
 _atom_site_occupancy
  Hf  Hf0  1  0.986996  0.497624  0.989223  1
  Hf  Hf1  1  0.535222  0.749407  0.292017  1
  Hf  Hf2  1  0.250277  0.217094  0.963054  1
  Hf  Hf3  1  0.247244  0.720170  0.471673  1
  Hf  Hf4  1  0.955863  0.251914  0.214039  1
  Hf  Hf5  1  0.719170  0.462985  0.256376  1
  Hf  Hf6  1  0.216138  0.967889  0.259161  1
  Hf  Hf7  1  0.510474  0.502162  0.499592  1
  Hf  Hf8  1  0.006203  0.008664  0.520122  1
  Hf  Hf9  1  0.283999  0.534160  0.749226  1
  Hf  Hf10  1  0.506886  0.997862  0.997003  1
  Hf  Hf11  1  0.775334  0.026793  0.740771  1
  Hf  Hf12  1  0.034056  0.744996  0.782200  1
  Hf  Hf13  1  0.751665  0.780124  0.024284  1
  Hf  Hf14  1  0.751508  0.283266  0.536900  1
  Hf  Hf15  1  0.464600  0.251010  0.704814  1
  N  N16  1  0.961848  0.733792  0.995261  1
  N  N17  1  0.969399  0.512875  0.239865  1
  N  N18  1  0.525597  0.770108  0.541225  1
  N  N19  1  0.266450  0.772805  0.730809  1
  N  N20  1  0.455752  0.465620  0.223877  1
  N  N21  1  0.034924  0.486280  0.763540  1
  N  N22  1  0.232892  0.961925  0.503489  1
  N  N23  1  0.463074  0.227254  0.450936  1
  N  N24  1  0.775444  0.549610  0.533407  1
  N  N25  1  0.990999  0.958194  0.732912  1
  N  N26  1  0.544240  0.537946  0.772869  1
  N  N27  1  0.730875  0.988411  0.958614  1
  N  N28  1  0.734898  0.226061  0.268020  1
  N  N29  1  0.229324  0.272707  0.742854  1
  N  N30  1  0.726326  0.262236  0.779150  1
  N  N31  1  0.760291  0.030000  0.483830  1
  O  O32  1  0.278147  0.742782  0.221785  1
  O  O33  1  0.486158  0.763854  0.038005  1
  O  O34  1  0.049379  0.275837  0.014853  1
  O  O35  1  0.769281  0.727278  0.252377  1
  O  O36  1  0.016343  0.052468  0.276951  1
  O  O37  1  0.278434  0.013815  0.047998  1
  O  O38  1  0.219831  0.444369  0.465406  1
  O  O39  1  0.504455  0.227657  0.961511  1
