# generated using pymatgen
data_VIO4
_symmetry_space_group_name_H-M   'P 1'
_cell_length_a   7.03820154
_cell_length_b   7.03820154
_cell_length_c   9.27971345
_cell_angle_alpha   80.29762298
_cell_angle_beta   99.70237702
_cell_angle_gamma   95.01619838
_symmetry_Int_Tables_number   1
_chemical_formula_structural   VIO4
_chemical_formula_sum   'V4 I4 O16'
_cell_volume   445.80117818
_cell_formula_units_Z   4
loop_
 _symmetry_equiv_pos_site_id
 _symmetry_equiv_pos_as_xyz
  1  'x, y, z'
loop_
 _atom_site_type_symbol
 _atom_site_label
 _atom_site_symmetry_multiplicity
 _atom_site_fract_x
 _atom_site_fract_y
 _atom_site_fract_z
 _atom_site_occupancy
  V  V0  1  0.727301  0.272699  0.581951  1
  V  V1  1  0.754871  0.754871  0.000000  1
  V  V2  1  0.245129  0.245129  0.000000  1
  V  V3  1  0.272699  0.727301  0.418049  1
  I  I4  1  0.760544  0.239456  0.106850  1
  I  I5  1  0.196017  0.196017  0.500000  1
  I  I6  1  0.803983  0.803983  0.500000  1
  I  I7  1  0.239456  0.760544  0.893150  1
  O  O8  1  0.862261  0.137739  0.491199  1
  O  O9  1  0.784446  0.215554  0.761426  1
  O  O10  1  0.765634  0.536601  0.123244  1
  O  O11  1  0.463399  0.234366  0.123244  1
  O  O12  1  0.481080  0.205510  0.517005  1
  O  O13  1  0.794490  0.518920  0.517005  1
  O  O14  1  0.062625  0.238461  0.107121  1
  O  O15  1  0.761539  0.937375  0.107121  1
  O  O16  1  0.937376  0.761539  0.892879  1
  O  O17  1  0.238461  0.062624  0.892879  1
  O  O18  1  0.518920  0.794490  0.482995  1
  O  O19  1  0.205510  0.481080  0.482995  1
  O  O20  1  0.536601  0.765634  0.876756  1
  O  O21  1  0.234366  0.463399  0.876756  1
  O  O22  1  0.215554  0.784446  0.238574  1
  O  O23  1  0.137739  0.862261  0.508801  1
