# generated using pymatgen
data_CaB5H3O10
_symmetry_space_group_name_H-M   'P 1'
_cell_length_a   6.57974215
_cell_length_b   20.03708486
_cell_length_c   6.62052172
_cell_angle_alpha   90.00000000
_cell_angle_beta   119.36340250
_cell_angle_gamma   90.00000000
_symmetry_Int_Tables_number   1
_chemical_formula_structural   CaB5H3O10
_chemical_formula_sum   'Ca4 B20 H12 O40'
_cell_volume   760.70552611
_cell_formula_units_Z   4
loop_
 _symmetry_equiv_pos_site_id
 _symmetry_equiv_pos_as_xyz
  1  'x, y, z'
loop_
 _atom_site_type_symbol
 _atom_site_label
 _atom_site_symmetry_multiplicity
 _atom_site_fract_x
 _atom_site_fract_y
 _atom_site_fract_z
 _atom_site_occupancy
  Ca  Ca0  1  0.184881  0.194635  0.549075  1
  Ca  Ca1  1  0.184881  0.305365  0.049075  1
  Ca  Ca2  1  0.815119  0.694635  0.950925  1
  Ca  Ca3  1  0.815119  0.805365  0.450925  1
  B  B4  1  0.087592  0.344848  0.558826  1
  B  B5  1  0.222766  0.683733  0.835988  1
  B  B6  1  0.322777  0.447673  0.654032  1
  B  B7  1  0.319538  0.671884  0.527422  1
  B  B8  1  0.087592  0.155152  0.058826  1
  B  B9  1  0.222766  0.816267  0.335988  1
  B  B10  1  0.485752  0.839904  0.756518  1
  B  B11  1  0.514248  0.339904  0.743482  1
  B  B12  1  0.680462  0.171884  0.972578  1
  B  B13  1  0.322777  0.052327  0.154032  1
  B  B14  1  0.677223  0.947673  0.845968  1
  B  B15  1  0.319538  0.828116  0.027422  1
  B  B16  1  0.485752  0.660096  0.256518  1
  B  B17  1  0.514248  0.160096  0.243482  1
  B  B18  1  0.777234  0.183733  0.664012  1
  B  B19  1  0.912408  0.844848  0.941174  1
  B  B20  1  0.680462  0.328116  0.472578  1
  B  B21  1  0.677223  0.552327  0.345968  1
  B  B22  1  0.777234  0.316267  0.164012  1
  B  B23  1  0.912408  0.655152  0.441174  1
  H  H24  1  0.086059  0.049373  0.569022  1
  H  H25  1  0.183330  0.538477  0.588051  1
  H  H26  1  0.356465  0.050020  0.647703  1
  H  H27  1  0.086059  0.450627  0.069022  1
  H  H28  1  0.183330  0.961523  0.088051  1
  H  H29  1  0.643535  0.550020  0.852297  1
  H  H30  1  0.356465  0.449980  0.147703  1
  H  H31  1  0.816670  0.038477  0.911949  1
  H  H32  1  0.913941  0.549373  0.930978  1
  H  H33  1  0.643535  0.949980  0.352297  1
  H  H34  1  0.816670  0.461523  0.411949  1
  H  H35  1  0.913941  0.950627  0.430978  1
  O  O36  1  0.008988  0.190747  0.829683  1
  O  O37  1  0.089133  0.833932  0.866734  1
  O  O38  1  0.008988  0.309253  0.329683  1
  O  O39  1  0.107957  0.416579  0.529524  1
  O  O40  1  0.089133  0.666068  0.366734  1
  O  O41  1  0.209668  0.076049  0.570526  1
  O  O42  1  0.299421  0.311873  0.732674  1
  O  O43  1  0.273434  0.811134  0.560035  1
  O  O44  1  0.337600  0.516648  0.663261  1
  O  O45  1  0.388990  0.672753  0.766988  1
  O  O46  1  0.495332  0.821513  0.979706  1
  O  O47  1  0.107957  0.083421  0.029524  1
  O  O48  1  0.475439  0.912364  0.729803  1
  O  O49  1  0.524561  0.412364  0.770197  1
  O  O50  1  0.209668  0.423951  0.070526  1
  O  O51  1  0.299421  0.188127  0.232674  1
  O  O52  1  0.273434  0.688866  0.060035  1
  O  O53  1  0.504668  0.321513  0.520294  1
  O  O54  1  0.611010  0.172753  0.733012  1
  O  O55  1  0.662400  0.016648  0.836739  1
  O  O56  1  0.337600  0.983352  0.163261  1
  O  O57  1  0.388990  0.827247  0.266988  1
  O  O58  1  0.495332  0.678487  0.479706  1
  O  O59  1  0.726566  0.311134  0.939965  1
  O  O60  1  0.700579  0.811873  0.767326  1
  O  O61  1  0.790332  0.576049  0.929474  1
  O  O62  1  0.475439  0.587636  0.229803  1
  O  O63  1  0.524561  0.087636  0.270197  1
  O  O64  1  0.892043  0.916579  0.970476  1
  O  O65  1  0.504668  0.178487  0.020294  1
  O  O66  1  0.611010  0.327247  0.233012  1
  O  O67  1  0.662400  0.483352  0.336739  1
  O  O68  1  0.726566  0.188866  0.439965  1
  O  O69  1  0.700579  0.688127  0.267326  1
  O  O70  1  0.790332  0.923951  0.429474  1
  O  O71  1  0.910867  0.333932  0.633266  1
  O  O72  1  0.892043  0.583421  0.470476  1
  O  O73  1  0.991012  0.690747  0.670317  1
  O  O74  1  0.910867  0.166068  0.133266  1
  O  O75  1  0.991012  0.809253  0.170317  1
