# generated using pymatgen
data_Li2Mn3CuO8
_symmetry_space_group_name_H-M   'P 1'
_cell_length_a   8.22703359
_cell_length_b   8.31499255
_cell_length_c   8.35940559
_cell_angle_alpha   90.00000000
_cell_angle_beta   90.00000000
_cell_angle_gamma   90.00000000
_symmetry_Int_Tables_number   1
_chemical_formula_structural   Li2Mn3CuO8
_chemical_formula_sum   'Li8 Mn12 Cu4 O32'
_cell_volume   571.84790265
_cell_formula_units_Z   4
loop_
 _symmetry_equiv_pos_site_id
 _symmetry_equiv_pos_as_xyz
  1  'x, y, z'
loop_
 _atom_site_type_symbol
 _atom_site_label
 _atom_site_symmetry_multiplicity
 _atom_site_fract_x
 _atom_site_fract_y
 _atom_site_fract_z
 _atom_site_occupancy
  Li  Li0  1  0.875775  0.122221  0.876788  1
  Li  Li1  1  0.745535  0.246374  0.247053  1
  Li  Li2  1  0.754465  0.753626  0.747053  1
  Li  Li3  1  0.624225  0.877779  0.376788  1
  Li  Li4  1  0.375775  0.377779  0.123212  1
  Li  Li5  1  0.245535  0.253626  0.752947  1
  Li  Li6  1  0.254465  0.746374  0.252947  1
  Li  Li7  1  0.124225  0.622221  0.623212  1
  Mn  Mn8  1  0.874790  0.378023  0.623642  1
  Mn  Mn9  1  0.874233  0.620604  0.375071  1
  Mn  Mn10  1  0.873564  0.873289  0.122447  1
  Mn  Mn11  1  0.626436  0.126711  0.622447  1
  Mn  Mn12  1  0.625767  0.379396  0.875071  1
  Mn  Mn13  1  0.625210  0.621977  0.123642  1
  Mn  Mn14  1  0.374790  0.121977  0.376358  1
  Mn  Mn15  1  0.374233  0.879396  0.624929  1
  Mn  Mn16  1  0.373564  0.626711  0.877553  1
  Mn  Mn17  1  0.126436  0.373289  0.377553  1
  Mn  Mn18  1  0.125767  0.120604  0.124929  1
  Mn  Mn19  1  0.125210  0.878023  0.876358  1
  Cu  Cu20  1  0.012386  0.491925  0.995259  1
  Cu  Cu21  1  0.487614  0.508075  0.495259  1
  Cu  Cu22  1  0.512386  0.008075  0.004741  1
  Cu  Cu23  1  0.987614  0.991925  0.504741  1
  O  O24  1  0.892619  0.871863  0.894368  1
  O  O25  1  0.889221  0.099035  0.126653  1
  O  O26  1  0.883314  0.384783  0.388594  1
  O  O27  1  0.869618  0.606492  0.600481  1
  O  O28  1  0.876558  0.851076  0.357254  1
  O  O29  1  0.862476  0.634194  0.136649  1
  O  O30  1  0.860943  0.376953  0.852560  1
  O  O31  1  0.855000  0.140980  0.627368  1
  O  O32  1  0.645000  0.859020  0.127368  1
  O  O33  1  0.639057  0.623047  0.352560  1
  O  O34  1  0.637524  0.365806  0.636649  1
  O  O35  1  0.623442  0.148924  0.857254  1
  O  O36  1  0.630382  0.393508  0.100481  1
  O  O37  1  0.616686  0.615217  0.888594  1
  O  O38  1  0.610779  0.900965  0.626653  1
  O  O39  1  0.607381  0.128137  0.394368  1
  O  O40  1  0.392619  0.628137  0.105632  1
  O  O41  1  0.389221  0.400965  0.873347  1
  O  O42  1  0.383314  0.115217  0.611406  1
  O  O43  1  0.369618  0.893508  0.399519  1
  O  O44  1  0.376558  0.648924  0.642746  1
  O  O45  1  0.362476  0.865806  0.863351  1
  O  O46  1  0.360943  0.123047  0.147440  1
  O  O47  1  0.355000  0.359020  0.372632  1
  O  O48  1  0.145000  0.640980  0.872632  1
  O  O49  1  0.139057  0.876953  0.647440  1
  O  O50  1  0.137524  0.134194  0.363351  1
  O  O51  1  0.123442  0.351076  0.142746  1
  O  O52  1  0.130382  0.106492  0.899519  1
  O  O53  1  0.116686  0.884783  0.111406  1
  O  O54  1  0.110779  0.599035  0.373347  1
  O  O55  1  0.107381  0.371863  0.605632  1
