# generated using pymatgen
data_Fe4O7F
_symmetry_space_group_name_H-M   'P 1'
_cell_length_a   7.57072282
_cell_length_b   4.64245415
_cell_length_c   7.58780410
_cell_angle_alpha   90.00000000
_cell_angle_beta   104.35513962
_cell_angle_gamma   90.00000000
_symmetry_Int_Tables_number   1
_chemical_formula_structural   Fe4O7F
_chemical_formula_sum   'Fe8 O14 F2'
_cell_volume   258.35992985
_cell_formula_units_Z   2
loop_
 _symmetry_equiv_pos_site_id
 _symmetry_equiv_pos_as_xyz
  1  'x, y, z'
loop_
 _atom_site_type_symbol
 _atom_site_label
 _atom_site_symmetry_multiplicity
 _atom_site_fract_x
 _atom_site_fract_y
 _atom_site_fract_z
 _atom_site_occupancy
  Fe  Fe0  1  0.687427  0.484392  0.573115  1
  Fe  Fe1  1  0.442960  0.523389  0.817655  1
  Fe  Fe2  1  0.951552  0.489966  0.316325  1
  Fe  Fe3  1  0.185322  0.500757  0.057421  1
  Fe  Fe4  1  0.557040  0.023389  0.182345  1
  Fe  Fe5  1  0.814678  0.000757  0.942579  1
  Fe  Fe6  1  0.048448  0.989966  0.683675  1
  Fe  Fe7  1  0.312573  0.984392  0.426885  1
  O  O8  1  0.351033  0.805446  0.207586  1
  O  O9  1  0.831446  0.801728  0.721332  1
  O  O10  1  0.596595  0.816184  0.975386  1
  O  O11  1  0.090852  0.808582  0.465690  1
  O  O12  1  0.462885  0.693148  0.593345  1
  O  O13  1  0.215005  0.692503  0.836216  1
  O  O14  1  0.973344  0.687931  0.093412  1
  O  O15  1  0.403405  0.316184  0.024614  1
  O  O16  1  0.648967  0.305446  0.792414  1
  O  O17  1  0.168554  0.301728  0.278668  1
  O  O18  1  0.909148  0.308582  0.534310  1
  O  O19  1  0.784995  0.192503  0.163784  1
  O  O20  1  0.537115  0.193148  0.406655  1
  O  O21  1  0.026656  0.187931  0.906588  1
  F  F22  1  0.718221  0.695974  0.343343  1
  F  F23  1  0.281779  0.195974  0.656657  1
