# generated using pymatgen
data_Li2Ti4O9
_symmetry_space_group_name_H-M   'P 1'
_cell_length_a   5.07312337
_cell_length_b   5.07312337
_cell_length_c   13.97506252
_cell_angle_alpha   90.00000000
_cell_angle_beta   90.00000000
_cell_angle_gamma   120.00000000
_symmetry_Int_Tables_number   1
_chemical_formula_structural   Li2Ti4O9
_chemical_formula_sum   'Li4 Ti8 O18'
_cell_volume   311.48363857
_cell_formula_units_Z   2
loop_
 _symmetry_equiv_pos_site_id
 _symmetry_equiv_pos_as_xyz
  1  'x, y, z'
loop_
 _atom_site_type_symbol
 _atom_site_label
 _atom_site_symmetry_multiplicity
 _atom_site_fract_x
 _atom_site_fract_y
 _atom_site_fract_z
 _atom_site_occupancy
  Li  Li0  1  0.000000  0.000000  0.144185  1
  Li  Li1  1  0.000000  0.000000  0.355815  1
  Li  Li2  1  0.000000  0.000000  0.644185  1
  Li  Li3  1  0.000000  0.000000  0.855815  1
  Ti  Ti4  1  0.333333  0.666667  0.024851  1
  Ti  Ti5  1  0.333333  0.666667  0.312393  1
  Ti  Ti6  1  0.333333  0.666667  0.524851  1
  Ti  Ti7  1  0.333333  0.666667  0.812393  1
  Ti  Ti8  1  0.666667  0.333333  0.187607  1
  Ti  Ti9  1  0.666667  0.333333  0.687607  1
  Ti  Ti10  1  0.666667  0.333333  0.475149  1
  Ti  Ti11  1  0.666667  0.333333  0.975149  1
  O  O12  1  0.000000  0.657938  0.750000  1
  O  O13  1  0.024865  0.640886  0.418643  1
  O  O14  1  0.359114  0.975135  0.918643  1
  O  O15  1  0.000000  0.342062  0.250000  1
  O  O16  1  0.024865  0.383980  0.918643  1
  O  O17  1  0.359114  0.383980  0.418643  1
  O  O18  1  0.342062  0.342062  0.750000  1
  O  O19  1  0.383980  0.359114  0.081357  1
  O  O20  1  0.616020  0.975135  0.418643  1
  O  O21  1  0.342062  0.000000  0.250000  1
  O  O22  1  0.383980  0.024865  0.581357  1
  O  O23  1  0.616020  0.640886  0.918643  1
  O  O24  1  0.657938  0.657938  0.250000  1
  O  O25  1  0.640886  0.616020  0.581357  1
  O  O26  1  0.975135  0.616020  0.081357  1
  O  O27  1  0.640886  0.024865  0.081357  1
  O  O28  1  0.657938  0.000000  0.750000  1
  O  O29  1  0.975135  0.359114  0.581357  1
