# generated using pymatgen
data_LiFe4OF7
_symmetry_space_group_name_H-M   'P 1'
_cell_length_a   8.09078932
_cell_length_b   5.08352797
_cell_length_c   8.09143494
_cell_angle_alpha   90.00000000
_cell_angle_beta   105.10797242
_cell_angle_gamma   90.00000000
_symmetry_Int_Tables_number   1
_chemical_formula_structural   LiFe4OF7
_chemical_formula_sum   'Li2 Fe8 O2 F14'
_cell_volume   321.29599607
_cell_formula_units_Z   2
loop_
 _symmetry_equiv_pos_site_id
 _symmetry_equiv_pos_as_xyz
  1  'x, y, z'
loop_
 _atom_site_type_symbol
 _atom_site_label
 _atom_site_symmetry_multiplicity
 _atom_site_fract_x
 _atom_site_fract_y
 _atom_site_fract_z
 _atom_site_occupancy
  Li  Li0  1  0.630183  0.001685  0.604909  1
  Li  Li1  1  0.369817  0.501685  0.395091  1
  Fe  Fe2  1  0.951805  0.962927  0.814623  1
  Fe  Fe3  1  0.601037  0.514069  0.727019  1
  Fe  Fe4  1  0.306192  0.496064  0.921019  1
  Fe  Fe5  1  0.048195  0.462927  0.185377  1
  Fe  Fe6  1  0.398963  0.014069  0.272981  1
  Fe  Fe7  1  0.693808  0.996064  0.078981  1
  Fe  Fe8  1  0.817984  0.523304  0.461242  1
  Fe  Fe9  1  0.182016  0.023304  0.538758  1
  O  O10  1  0.783834  0.713860  0.666630  1
  O  O11  1  0.216166  0.213860  0.333370  1
  F  F12  1  0.183948  0.804828  0.773105  1
  F  F13  1  0.418479  0.806188  0.531093  1
  F  F14  1  0.915183  0.780051  0.049961  1
  F  F15  1  0.633738  0.824537  0.296687  1
  F  F16  1  0.035751  0.696303  0.409549  1
  F  F17  1  0.543664  0.704322  0.933953  1
  F  F18  1  0.284214  0.664017  0.158195  1
  F  F19  1  0.816052  0.304828  0.226895  1
  F  F20  1  0.581521  0.306188  0.468907  1
  F  F21  1  0.084817  0.280051  0.950039  1
  F  F22  1  0.366262  0.324537  0.703313  1
  F  F23  1  0.964249  0.196303  0.590451  1
  F  F24  1  0.456336  0.204322  0.066047  1
  F  F25  1  0.715786  0.164017  0.841805  1
