# generated using pymatgen
data_Mn6O11F
_symmetry_space_group_name_H-M   'P 1'
_cell_length_a   5.39327403
_cell_length_b   5.39327403
_cell_length_c   7.08658463
_cell_angle_alpha   71.96284684
_cell_angle_beta   108.03715316
_cell_angle_gamma   108.32235206
_symmetry_Int_Tables_number   1
_chemical_formula_structural   Mn6O11F
_chemical_formula_sum   'Mn6 O11 F1'
_cell_volume   180.84433475
_cell_formula_units_Z   1
loop_
 _symmetry_equiv_pos_site_id
 _symmetry_equiv_pos_as_xyz
  1  'x, y, z'
loop_
 _atom_site_type_symbol
 _atom_site_label
 _atom_site_symmetry_multiplicity
 _atom_site_fract_x
 _atom_site_fract_y
 _atom_site_fract_z
 _atom_site_occupancy
  Mn  Mn0  1  0.332217  0.667783  0.834363  1
  Mn  Mn1  1  0.344459  0.655541  0.332368  1
  Mn  Mn2  1  0.662252  0.337748  0.668993  1
  Mn  Mn3  1  0.668900  0.331100  0.161787  1
  Mn  Mn4  1  0.993795  0.006205  0.511413  1
  Mn  Mn5  1  0.999304  0.000696  0.990194  1
  O  O6  1  0.971688  0.640407  0.664159  1
  O  O7  1  0.639433  0.970576  0.334514  1
  O  O8  1  0.434699  0.565301  0.628606  1
  O  O9  1  0.768377  0.231623  0.961051  1
  O  O10  1  0.894140  0.105860  0.702263  1
  O  O11  1  0.567691  0.432309  0.370861  1
  O  O12  1  0.232759  0.767241  0.038348  1
  O  O13  1  0.694312  0.695710  0.001031  1
  O  O14  1  0.029424  0.360567  0.334514  1
  O  O15  1  0.359593  0.028312  0.664159  1
  O  O16  1  0.304290  0.305688  0.001031  1
  F  F17  1  0.102668  0.897332  0.300344  1
