# generated using pymatgen
data_Sn2(SO4)3
_symmetry_space_group_name_H-M   'P 1'
_cell_length_a   9.19060739
_cell_length_b   9.19060739
_cell_length_c   9.19060739
_cell_angle_alpha   59.99873579
_cell_angle_beta   59.99873579
_cell_angle_gamma   59.99873579
_symmetry_Int_Tables_number   1
_chemical_formula_structural   Sn2(SO4)3
_chemical_formula_sum   'Sn4 S6 O24'
_cell_volume   548.91512369
_cell_formula_units_Z   2
loop_
 _symmetry_equiv_pos_site_id
 _symmetry_equiv_pos_as_xyz
  1  'x, y, z'
loop_
 _atom_site_type_symbol
 _atom_site_label
 _atom_site_symmetry_multiplicity
 _atom_site_fract_x
 _atom_site_fract_y
 _atom_site_fract_z
 _atom_site_occupancy
  Sn  Sn0  1  0.640130  0.640130  0.640130  1
  Sn  Sn1  1  0.859870  0.859870  0.859870  1
  Sn  Sn2  1  0.359870  0.359870  0.359870  1
  Sn  Sn3  1  0.140130  0.140130  0.140130  1
  S  S4  1  0.545957  0.954043  0.250000  1
  S  S5  1  0.750000  0.454043  0.045957  1
  S  S6  1  0.045957  0.750000  0.454043  1
  S  S7  1  0.954043  0.250000  0.545957  1
  S  S8  1  0.250000  0.545957  0.954043  1
  S  S9  1  0.454043  0.045957  0.750000  1
  O  O10  1  0.719794  0.941484  0.099613  1
  O  O11  1  0.058516  0.900386  0.280206  1
  O  O12  1  0.306074  0.510716  0.098042  1
  O  O13  1  0.193926  0.401958  0.989284  1
  O  O14  1  0.558516  0.780206  0.400387  1
  O  O15  1  0.599613  0.441484  0.219794  1
  O  O16  1  0.900387  0.280206  0.058516  1
  O  O17  1  0.598042  0.010716  0.806074  1
  O  O18  1  0.901958  0.693926  0.489284  1
  O  O19  1  0.489284  0.901958  0.693926  1
  O  O20  1  0.010716  0.806074  0.598042  1
  O  O21  1  0.219794  0.599614  0.441484  1
  O  O22  1  0.780206  0.400386  0.558516  1
  O  O23  1  0.510716  0.098042  0.306074  1
  O  O24  1  0.989284  0.193926  0.401958  1
  O  O25  1  0.401958  0.989284  0.193926  1
  O  O26  1  0.098042  0.306074  0.510716  1
  O  O27  1  0.099614  0.719794  0.941484  1
  O  O28  1  0.400386  0.558516  0.780206  1
  O  O29  1  0.441484  0.219794  0.599613  1
  O  O30  1  0.693926  0.489284  0.901958  1
  O  O31  1  0.806074  0.598042  0.010716  1
  O  O32  1  0.941484  0.099614  0.719794  1
  O  O33  1  0.280206  0.058516  0.900386  1
