# generated using pymatgen
data_SrMgUH24C3O23
_symmetry_space_group_name_H-M   'P 1'
_cell_length_a   6.55127709
_cell_length_b   14.82617990
_cell_length_c   11.36695947
_cell_angle_alpha   90.00000000
_cell_angle_beta   99.81275136
_cell_angle_gamma   90.00000000
_symmetry_Int_Tables_number   1
_chemical_formula_structural   SrMgUH24C3O23
_chemical_formula_sum   'Sr2 Mg2 U2 H48 C6 O46'
_cell_volume   1087.92480431
_cell_formula_units_Z   2
loop_
 _symmetry_equiv_pos_site_id
 _symmetry_equiv_pos_as_xyz
  1  'x, y, z'
loop_
 _atom_site_type_symbol
 _atom_site_label
 _atom_site_symmetry_multiplicity
 _atom_site_fract_x
 _atom_site_fract_y
 _atom_site_fract_z
 _atom_site_occupancy
  Sr  Sr0  1  0.211637  0.250000  0.409787  1
  Sr  Sr1  1  0.788363  0.750000  0.590213  1
  Mg  Mg2  1  0.000000  0.500000  0.000000  1
  Mg  Mg3  1  0.000000  0.000000  0.000000  1
  U  U4  1  0.449329  0.250000  0.782546  1
  U  U5  1  0.550671  0.750000  0.217454  1
  H  H6  1  0.879476  0.250000  0.601268  1
  H  H7  1  0.120524  0.750000  0.398732  1
  H  H8  1  0.746298  0.250000  0.473296  1
  H  H9  1  0.253702  0.750000  0.526704  1
  H  H10  1  0.880954  0.250000  0.183280  1
  H  H11  1  0.119046  0.750000  0.816720  1
  H  H12  1  0.072463  0.250000  0.119243  1
  H  H13  1  0.927537  0.750000  0.880757  1
  H  H14  1  0.167406  0.454023  0.446004  1
  H  H15  1  0.832594  0.954023  0.553996  1
  H  H16  1  0.832594  0.545977  0.553996  1
  H  H17  1  0.167406  0.045977  0.446004  1
  H  H18  1  0.936374  0.448395  0.380077  1
  H  H19  1  0.063626  0.948395  0.619923  1
  H  H20  1  0.063626  0.551605  0.619923  1
  H  H21  1  0.936374  0.051605  0.380077  1
  H  H22  1  0.543830  0.330886  0.269597  1
  H  H23  1  0.456170  0.830886  0.730403  1
  H  H24  1  0.456170  0.669114  0.730403  1
  H  H25  1  0.543830  0.169114  0.269597  1
  H  H26  1  0.564580  0.408500  0.366728  1
  H  H27  1  0.435420  0.908500  0.633272  1
  H  H28  1  0.435420  0.591500  0.633272  1
  H  H29  1  0.564580  0.091500  0.366728  1
  H  H30  1  0.650976  0.417840  0.051661  1
  H  H31  1  0.349024  0.917840  0.948339  1
  H  H32  1  0.349024  0.582160  0.948339  1
  H  H33  1  0.650976  0.082160  0.051661  1
  H  H34  1  0.676779  0.505518  0.133960  1
  H  H35  1  0.323221  0.005518  0.866040  1
  H  H36  1  0.323221  0.494482  0.866040  1
  H  H37  1  0.676779  0.994482  0.133960  1
  H  H38  1  0.680250  0.477573  0.808583  1
  H  H39  1  0.319750  0.977573  0.191417  1
  H  H40  1  0.319750  0.522427  0.191417  1
  H  H41  1  0.680250  0.022427  0.808583  1
  H  H42  1  0.855398  0.532603  0.758922  1
  H  H43  1  0.144602  0.032603  0.241078  1
  H  H44  1  0.144602  0.467397  0.241078  1
  H  H45  1  0.855398  0.967397  0.758922  1
  H  H46  1  0.005405  0.334694  0.898640  1
  H  H47  1  0.994595  0.834694  0.101360  1
  H  H48  1  0.994595  0.665306  0.101360  1
  H  H49  1  0.005405  0.165306  0.898640  1
  H  H50  1  0.209220  0.353029  0.987007  1
  H  H51  1  0.790780  0.853029  0.012993  1
  H  H52  1  0.790780  0.646971  0.012993  1
  H  H53  1  0.209220  0.146971  0.987007  1
  C  C54  1  0.540205  0.250000  0.044753  1
  C  C55  1  0.459795  0.750000  0.955247  1
  C  C56  1  0.364204  0.418656  0.650987  1
  C  C57  1  0.635796  0.918656  0.349013  1
  C  C58  1  0.635796  0.581344  0.349013  1
  C  C59  1  0.364204  0.081344  0.650987  1
  O  O60  1  0.726508  0.250000  0.776862  1
  O  O61  1  0.273492  0.750000  0.223138  1
  O  O62  1  0.173340  0.250000  0.791212  1
  O  O63  1  0.826660  0.750000  0.208788  1
  O  O64  1  0.503716  0.324497  0.981915  1
  O  O65  1  0.496284  0.824497  0.018085  1
  O  O66  1  0.496284  0.675503  0.018085  1
  O  O67  1  0.503716  0.175503  0.981915  1
  O  O68  1  0.606268  0.250000  0.156230  1
  O  O69  1  0.393732  0.750000  0.843770  1
  O  O70  1  0.432606  0.419253  0.766928  1
  O  O71  1  0.567394  0.919253  0.233072  1
  O  O72  1  0.567394  0.580747  0.233072  1
  O  O73  1  0.432606  0.080747  0.766928  1
  O  O74  1  0.364917  0.338997  0.602002  1
  O  O75  1  0.635083  0.838997  0.397998  1
  O  O76  1  0.635083  0.661003  0.397998  1
  O  O77  1  0.364917  0.161003  0.602002  1
  O  O78  1  0.301669  0.488814  0.591206  1
  O  O79  1  0.698331  0.988814  0.408794  1
  O  O80  1  0.698331  0.511186  0.408794  1
  O  O81  1  0.301669  0.011186  0.591206  1
  O  O82  1  0.888711  0.250000  0.516478  1
  O  O83  1  0.111289  0.750000  0.483522  1
  O  O84  1  0.034239  0.250000  0.198119  1
  O  O85  1  0.965761  0.750000  0.801881  1
  O  O86  1  0.078075  0.429089  0.373506  1
  O  O87  1  0.921925  0.929089  0.626494  1
  O  O88  1  0.921925  0.570911  0.626494  1
  O  O89  1  0.078075  0.070911  0.373506  1
  O  O90  1  0.498944  0.349343  0.344262  1
  O  O91  1  0.501056  0.849343  0.655738  1
  O  O92  1  0.501056  0.650657  0.655738  1
  O  O93  1  0.498944  0.150657  0.344262  1
  O  O94  1  0.746223  0.467932  0.080914  1
  O  O95  1  0.253777  0.967932  0.919086  1
  O  O96  1  0.253777  0.532068  0.919086  1
  O  O97  1  0.746223  0.032068  0.080914  1
  O  O98  1  0.817430  0.505443  0.832553  1
  O  O99  1  0.182570  0.005443  0.167447  1
  O  O100  1  0.182570  0.494557  0.167447  1
  O  O101  1  0.817430  0.994557  0.832553  1
  O  O102  1  0.057656  0.360126  0.977423  1
  O  O103  1  0.942344  0.860126  0.022577  1
  O  O104  1  0.942344  0.639874  0.022577  1
  O  O105  1  0.057656  0.139874  0.977423  1
