# generated using pymatgen
data_Na2TiCr(PO4)3
_symmetry_space_group_name_H-M   'P 1'
_cell_length_a   8.69352841
_cell_length_b   8.69352841
_cell_length_c   8.87236190
_cell_angle_alpha   60.72035700
_cell_angle_beta   119.27964300
_cell_angle_gamma   119.87479529
_symmetry_Int_Tables_number   1
_chemical_formula_structural   Na2TiCr(PO4)3
_chemical_formula_sum   'Na4 Ti2 Cr2 P6 O24'
_cell_volume   479.70940298
_cell_formula_units_Z   2
loop_
 _symmetry_equiv_pos_site_id
 _symmetry_equiv_pos_as_xyz
  1  'x, y, z'
loop_
 _atom_site_type_symbol
 _atom_site_label
 _atom_site_symmetry_multiplicity
 _atom_site_fract_x
 _atom_site_fract_y
 _atom_site_fract_z
 _atom_site_occupancy
  Na  Na0  1  0.005006  0.499982  0.247477  1
  Na  Na1  1  0.499982  0.005006  0.752523  1
  Na  Na2  1  0.115802  0.748831  0.500301  1
  Na  Na3  1  0.748831  0.115802  0.499699  1
  Ti  Ti4  1  0.856676  0.641277  0.821237  1
  Ti  Ti5  1  0.641277  0.856676  0.178763  1
  Cr  Cr6  1  0.352289  0.150374  0.308025  1
  Cr  Cr7  1  0.150374  0.352289  0.691975  1
  P  P8  1  0.537160  0.250114  0.000673  1
  P  P9  1  0.250114  0.537160  0.999327  1
  P  P10  1  0.962618  0.962618  0.000000  1
  P  P11  1  0.041003  0.041003  0.500000  1
  P  P12  1  0.745658  0.460133  0.499831  1
  P  P13  1  0.460133  0.745658  0.500169  1
  O  O14  1  0.495679  0.783128  0.329015  1
  O  O15  1  0.866234  0.006397  0.330543  1
  O  O16  1  0.720156  0.422348  0.982112  1
  O  O17  1  0.720525  0.635038  0.330569  1
  O  O18  1  0.370369  0.277945  0.829349  1
  O  O19  1  0.566460  0.077884  0.018585  1
  O  O20  1  0.077884  0.566460  0.981415  1
  O  O21  1  0.422348  0.720156  0.017888  1
  O  O22  1  0.779820  0.934313  0.018046  1
  O  O23  1  0.006397  0.866234  0.669457  1
  O  O24  1  0.057770  0.219470  0.512669  1
  O  O25  1  0.783128  0.495679  0.670985  1
  O  O26  1  0.219529  0.519130  0.822133  1
  O  O27  1  0.934313  0.779820  0.981954  1
  O  O28  1  0.983404  0.128499  0.824780  1
  O  O29  1  0.219470  0.057770  0.487331  1
  O  O30  1  0.579763  0.276507  0.487961  1
  O  O31  1  0.919360  0.437850  0.512158  1
  O  O32  1  0.437850  0.919360  0.487842  1
  O  O33  1  0.635038  0.720525  0.669431  1
  O  O34  1  0.277945  0.370369  0.170651  1
  O  O35  1  0.276507  0.579763  0.512039  1
  O  O36  1  0.128499  0.983404  0.175220  1
  O  O37  1  0.519130  0.219529  0.177867  1
