# generated using pymatgen
data_TbErO3
_symmetry_space_group_name_H-M   'P 1'
_cell_length_a   5.68178439
_cell_length_b   5.93756061
_cell_length_c   8.40251358
_cell_angle_alpha   90.00000000
_cell_angle_beta   90.00000000
_cell_angle_gamma   90.00000000
_symmetry_Int_Tables_number   1
_chemical_formula_structural   TbErO3
_chemical_formula_sum   'Tb4 Er4 O12'
_cell_volume   283.46668717
_cell_formula_units_Z   4
loop_
 _symmetry_equiv_pos_site_id
 _symmetry_equiv_pos_as_xyz
  1  'x, y, z'
loop_
 _atom_site_type_symbol
 _atom_site_label
 _atom_site_symmetry_multiplicity
 _atom_site_fract_x
 _atom_site_fract_y
 _atom_site_fract_z
 _atom_site_occupancy
  Tb  Tb0  1  0.016676  0.946611  0.750000  1
  Tb  Tb1  1  0.483324  0.446611  0.750000  1
  Tb  Tb2  1  0.516676  0.553389  0.250000  1
  Tb  Tb3  1  0.983324  0.053389  0.250000  1
  Er  Er4  1  0.000000  0.500000  0.000000  1
  Er  Er5  1  0.000000  0.500000  0.500000  1
  Er  Er6  1  0.500000  0.000000  0.000000  1
  Er  Er7  1  0.500000  0.000000  0.500000  1
  O  O8  1  0.145655  0.425268  0.250000  1
  O  O9  1  0.181776  0.185365  0.576757  1
  O  O10  1  0.181776  0.185365  0.923243  1
  O  O11  1  0.318224  0.685365  0.923243  1
  O  O12  1  0.318224  0.685365  0.576757  1
  O  O13  1  0.354345  0.925268  0.250000  1
  O  O14  1  0.645655  0.074732  0.750000  1
  O  O15  1  0.681776  0.314635  0.076757  1
  O  O16  1  0.681776  0.314635  0.423243  1
  O  O17  1  0.818224  0.814635  0.076757  1
  O  O18  1  0.818224  0.814635  0.423243  1
  O  O19  1  0.854345  0.574732  0.750000  1
