# generated using pymatgen
data_Li4V3Cr2O10
_symmetry_space_group_name_H-M   'P 1'
_cell_length_a   5.13063667
_cell_length_b   5.15615774
_cell_length_c   7.84703574
_cell_angle_alpha   72.12691479
_cell_angle_beta   72.12246966
_cell_angle_gamma   79.78850907
_symmetry_Int_Tables_number   1
_chemical_formula_structural   Li4V3Cr2O10
_chemical_formula_sum   'Li4 V3 Cr2 O10'
_cell_volume   187.23788387
_cell_formula_units_Z   1
loop_
 _symmetry_equiv_pos_site_id
 _symmetry_equiv_pos_as_xyz
  1  'x, y, z'
loop_
 _atom_site_type_symbol
 _atom_site_label
 _atom_site_symmetry_multiplicity
 _atom_site_fract_x
 _atom_site_fract_y
 _atom_site_fract_z
 _atom_site_occupancy
  Li  Li0  1  0.503821  0.776703  0.432045  1
  Li  Li1  1  0.978498  0.499735  0.506331  1
  Li  Li2  1  0.484703  0.381395  0.231906  1
  Li  Li3  1  0.499767  0.201531  0.589197  1
  V  V4  1  0.499887  0.998045  0.998922  1
  V  V5  1  0.995773  0.319728  0.884910  1
  V  V6  1  0.004206  0.690196  0.107426  1
  Cr  Cr7  1  0.011816  0.899464  0.688106  1
  Cr  Cr8  1  0.995759  0.098965  0.307332  1
  O  O9  1  0.225942  0.970481  0.860190  1
  O  O10  1  0.777889  0.668183  0.941903  1
  O  O11  1  0.779652  0.877664  0.536361  1
  O  O12  1  0.253733  0.768039  0.229417  1
  O  O13  1  0.211127  0.536955  0.670349  1
  O  O14  1  0.777753  0.456734  0.329300  1
  O  O15  1  0.764353  0.224051  0.772281  1
  O  O16  1  0.233353  0.130397  0.455961  1
  O  O17  1  0.224753  0.323119  0.054017  1
  O  O18  1  0.765018  0.059570  0.134645  1
