# generated using pymatgen
data_Li2MnVP2(HO5)2
_symmetry_space_group_name_H-M   'P 1'
_cell_length_a   5.17723118
_cell_length_b   7.41347524
_cell_length_c   10.29773524
_cell_angle_alpha   102.38970043
_cell_angle_beta   97.61891541
_cell_angle_gamma   105.28857162
_symmetry_Int_Tables_number   1
_chemical_formula_structural   Li2MnVP2(HO5)2
_chemical_formula_sum   'Li4 Mn2 V2 P4 H4 O20'
_cell_volume   364.79114862
_cell_formula_units_Z   2
loop_
 _symmetry_equiv_pos_site_id
 _symmetry_equiv_pos_as_xyz
  1  'x, y, z'
loop_
 _atom_site_type_symbol
 _atom_site_label
 _atom_site_symmetry_multiplicity
 _atom_site_fract_x
 _atom_site_fract_y
 _atom_site_fract_z
 _atom_site_occupancy
  Li  Li0  1  0.360722  0.105068  0.288792  1
  Li  Li1  1  0.130630  0.387637  0.215279  1
  Li  Li2  1  0.868783  0.616779  0.780910  1
  Li  Li3  1  0.643013  0.894055  0.715451  1
  Mn  Mn4  1  0.749865  0.748402  0.251033  1
  Mn  Mn5  1  0.504372  0.502268  0.501395  1
  V  V6  1  0.993634  0.997154  0.999875  1
  V  V7  1  0.250643  0.250843  0.747789  1
  P  P8  1  0.612626  0.294605  0.062537  1
  P  P9  1  0.877548  0.200170  0.434273  1
  P  P10  1  0.133262  0.801541  0.568043  1
  P  P11  1  0.373766  0.702613  0.934249  1
  H  H12  1  0.154482  0.792358  0.138123  1
  H  H13  1  0.347352  0.703867  0.365592  1
  H  H14  1  0.662511  0.302320  0.636033  1
  H  H15  1  0.839149  0.201299  0.860974  1
  O  O16  1  0.786267  0.159994  0.089178  1
  O  O17  1  0.337573  0.225450  0.109682  1
  O  O18  1  0.411466  0.703597  0.084527  1
  O  O19  1  0.794949  0.495356  0.154976  1
  O  O20  1  0.038894  0.879572  0.161991  1
  O  O21  1  0.143609  0.262954  0.381923  1
  O  O22  1  0.701409  0.337077  0.410223  1
  O  O23  1  0.458605  0.613523  0.340384  1
  O  O24  1  0.318702  0.004721  0.657654  1
  O  O25  1  0.089112  0.794695  0.416367  1
  O  O26  1  0.932879  0.207713  0.587097  1
  O  O27  1  0.689771  0.998078  0.345495  1
  O  O28  1  0.554510  0.392983  0.660242  1
  O  O29  1  0.305449  0.663290  0.596281  1
  O  O30  1  0.862874  0.742006  0.618033  1
  O  O31  1  0.954430  0.115786  0.839841  1
  O  O32  1  0.197245  0.501355  0.839771  1
  O  O33  1  0.565109  0.291863  0.910713  1
  O  O34  1  0.653549  0.771487  0.890055  1
  O  O35  1  0.201237  0.837521  0.905220  1
