# generated using pymatgen
data_LiCuCO3
_symmetry_space_group_name_H-M   'P 1'
_cell_length_a   3.05134228
_cell_length_b   14.37116480
_cell_length_c   14.37378025
_cell_angle_alpha   60.04097495
_cell_angle_beta   89.55599310
_cell_angle_gamma   89.32054631
_symmetry_Int_Tables_number   1
_chemical_formula_structural   LiCuCO3
_chemical_formula_sum   'Li9 Cu9 C9 O27'
_cell_volume   546.04972583
_cell_formula_units_Z   9
loop_
 _symmetry_equiv_pos_site_id
 _symmetry_equiv_pos_as_xyz
  1  'x, y, z'
loop_
 _atom_site_type_symbol
 _atom_site_label
 _atom_site_symmetry_multiplicity
 _atom_site_fract_x
 _atom_site_fract_y
 _atom_site_fract_z
 _atom_site_occupancy
  Li  Li0  1  0.511966  0.881354  0.905523  1
  Li  Li1  1  0.482442  0.564244  0.882629  1
  Li  Li2  1  0.556130  0.881704  0.553538  1
  Li  Li3  1  0.510916  0.213024  0.882055  1
  Li  Li4  1  0.454973  0.553673  0.565180  1
  Li  Li5  1  0.503319  0.254172  0.543854  1
  Li  Li6  1  0.490839  0.905693  0.213047  1
  Li  Li7  1  0.488343  0.543690  0.202465  1
  Li  Li8  1  0.503720  0.201892  0.254914  1
  Cu  Cu9  1  0.064883  0.791221  0.767539  1
  Cu  Cu10  1  0.010283  0.441302  0.792379  1
  Cu  Cu11  1  0.019227  0.115672  0.770425  1
  Cu  Cu12  1  0.939741  0.767566  0.441798  1
  Cu  Cu13  1  0.967361  0.464281  0.433328  1
  Cu  Cu14  1  0.038511  0.102807  0.464696  1
  Cu  Cu15  1  0.984592  0.770313  0.114673  1
  Cu  Cu16  1  0.980450  0.432495  0.103753  1
  Cu  Cu17  1  0.005227  0.113942  0.116000  1
  C  C18  1  0.001329  0.663368  0.991982  1
  C  C19  1  0.997647  0.666728  0.667157  1
  C  C20  1  0.989925  0.344875  0.664153  1
  C  C21  1  0.009562  0.991573  0.345209  1
  C  C22  1  0.527031  0.012110  0.667399  1
  C  C23  1  0.467594  0.667050  0.321238  1
  C  C24  1  0.997500  0.333054  0.333992  1
  C  C25  1  0.003585  0.999858  0.000295  1
  C  C26  1  0.505208  0.320279  0.013150  1
  O  O27  1  0.001362  0.919321  0.982802  1
  O  O28  1  0.979530  0.584029  0.972640  1
  O  O29  1  0.060572  0.761851  0.913282  1
  O  O30  1  0.557569  0.922300  0.667088  1
  O  O31  1  0.503539  0.410468  0.923212  1
  O  O32  1  0.007515  0.588500  0.766429  1
  O  O33  1  0.052007  0.765268  0.645148  1
  O  O34  1  0.017511  0.097662  0.919496  1
  O  O35  1  0.043968  0.972033  0.443637  1
  O  O36  1  0.041766  0.324431  0.763126  1
  O  O37  1  0.937519  0.646542  0.589513  1
  O  O38  1  0.936551  0.913246  0.325448  1
  O  O39  1  0.967187  0.265244  0.645780  1
  O  O40  1  0.966586  0.443786  0.584939  1
  O  O41  1  0.510871  0.011918  0.758607  1
  O  O42  1  0.450706  0.667184  0.411233  1
  O  O43  1  0.474003  0.576089  0.320874  1
  O  O44  1  0.515587  0.103255  0.576419  1
  O  O45  1  0.996568  0.982451  0.098526  1
  O  O46  1  0.475890  0.758325  0.230336  1
  O  O47  1  0.002352  0.325796  0.427954  1
  O  O48  1  0.001133  0.246351  0.326602  1
  O  O49  1  0.989481  0.427166  0.247421  1
  O  O50  1  0.966357  0.645013  0.089923  1
  O  O51  1  0.044917  0.089313  0.265725  1
  O  O52  1  0.497581  0.320189  0.104248  1
  O  O53  1  0.514887  0.229237  0.012748  1
