# generated using pymatgen
data_Li4Ti4Co5O18
_symmetry_space_group_name_H-M   'P 1'
_cell_length_a   2.88716897
_cell_length_b   8.98451525
_cell_length_c   24.75377020
_cell_angle_alpha   90.00000000
_cell_angle_beta   90.00000000
_cell_angle_gamma   90.00000000
_symmetry_Int_Tables_number   1
_chemical_formula_structural   Li4Ti4Co5O18
_chemical_formula_sum   'Li8 Ti8 Co10 O36'
_cell_volume   642.10818570
_cell_formula_units_Z   2
loop_
 _symmetry_equiv_pos_site_id
 _symmetry_equiv_pos_as_xyz
  1  'x, y, z'
loop_
 _atom_site_type_symbol
 _atom_site_label
 _atom_site_symmetry_multiplicity
 _atom_site_fract_x
 _atom_site_fract_y
 _atom_site_fract_z
 _atom_site_occupancy
  Li  Li0  1  0.500000  0.690078  0.490604  1
  Li  Li1  1  0.500000  0.701183  0.697046  1
  Li  Li2  1  0.500000  0.798817  0.197046  1
  Li  Li3  1  0.500000  0.809922  0.990604  1
  Li  Li4  1  0.500000  0.190078  0.009396  1
  Li  Li5  1  0.500000  0.201183  0.802954  1
  Li  Li6  1  0.500000  0.298817  0.302954  1
  Li  Li7  1  0.500000  0.309922  0.509396  1
  Ti  Ti8  1  0.500000  0.514464  0.602555  1
  Ti  Ti9  1  0.000000  0.655238  0.306842  1
  Ti  Ti10  1  0.000000  0.844762  0.806842  1
  Ti  Ti11  1  0.500000  0.985536  0.102555  1
  Ti  Ti12  1  0.500000  0.014464  0.897445  1
  Ti  Ti13  1  0.000000  0.155238  0.193158  1
  Ti  Ti14  1  0.000000  0.344762  0.693158  1
  Ti  Ti15  1  0.500000  0.485536  0.397445  1
  Co  Co16  1  0.500000  0.500000  0.000000  1
  Co  Co17  1  0.500000  0.505552  0.814207  1
  Co  Co18  1  0.000000  0.638145  0.083959  1
  Co  Co19  1  0.000000  0.861855  0.583959  1
  Co  Co20  1  0.500000  0.994448  0.314207  1
  Co  Co21  1  0.500000  0.000000  0.500000  1
  Co  Co22  1  0.500000  0.005552  0.685793  1
  Co  Co23  1  0.000000  0.138145  0.416041  1
  Co  Co24  1  0.000000  0.361855  0.916041  1
  Co  Co25  1  0.500000  0.494448  0.185793  1
  O  O26  1  0.500000  0.494626  0.924826  1
  O  O27  1  0.500000  0.505374  0.075174  1
  O  O28  1  0.000000  0.546538  0.443634  1
  O  O29  1  0.000000  0.553884  0.661649  1
  O  O30  1  0.000000  0.616086  0.160016  1
  O  O31  1  0.500000  0.621757  0.255438  1
  O  O32  1  0.000000  0.642482  0.006725  1
  O  O33  1  0.000000  0.627771  0.791560  1
  O  O34  1  0.500000  0.683325  0.358741  1
  O  O35  1  0.500000  0.718556  0.584031  1
  O  O36  1  0.500000  0.781444  0.084031  1
  O  O37  1  0.500000  0.816675  0.858741  1
  O  O38  1  0.000000  0.872229  0.291560  1
  O  O39  1  0.000000  0.857518  0.506725  1
  O  O40  1  0.500000  0.878243  0.755438  1
  O  O41  1  0.000000  0.883914  0.660016  1
  O  O42  1  0.000000  0.946116  0.161649  1
  O  O43  1  0.000000  0.953462  0.943634  1
  O  O44  1  0.500000  0.994626  0.575174  1
  O  O45  1  0.500000  0.005374  0.424826  1
  O  O46  1  0.000000  0.046538  0.056366  1
  O  O47  1  0.000000  0.053884  0.838351  1
  O  O48  1  0.000000  0.116086  0.339984  1
  O  O49  1  0.500000  0.121757  0.244562  1
  O  O50  1  0.000000  0.142482  0.493275  1
  O  O51  1  0.000000  0.127771  0.708440  1
  O  O52  1  0.500000  0.183325  0.141259  1
  O  O53  1  0.500000  0.218556  0.915969  1
  O  O54  1  0.500000  0.281444  0.415969  1
  O  O55  1  0.500000  0.316675  0.641259  1
  O  O56  1  0.000000  0.372229  0.208440  1
  O  O57  1  0.000000  0.357518  0.993275  1
  O  O58  1  0.500000  0.378243  0.744562  1
  O  O59  1  0.000000  0.383914  0.839984  1
  O  O60  1  0.000000  0.446116  0.338351  1
  O  O61  1  0.000000  0.453462  0.556366  1
