# generated using pymatgen
data_LiNiPO4
_symmetry_space_group_name_H-M   'P 1'
_cell_length_a   8.00161780
_cell_length_b   5.13183986
_cell_length_c   8.47532373
_cell_angle_alpha   90.00000000
_cell_angle_beta   96.57114230
_cell_angle_gamma   90.00000000
_symmetry_Int_Tables_number   1
_chemical_formula_structural   LiNiPO4
_chemical_formula_sum   'Li4 Ni4 P4 O16'
_cell_volume   345.73607447
_cell_formula_units_Z   4
loop_
 _symmetry_equiv_pos_site_id
 _symmetry_equiv_pos_as_xyz
  1  'x, y, z'
loop_
 _atom_site_type_symbol
 _atom_site_label
 _atom_site_symmetry_multiplicity
 _atom_site_fract_x
 _atom_site_fract_y
 _atom_site_fract_z
 _atom_site_occupancy
  Li  Li0  1  0.022046  0.450392  0.406362  1
  Li  Li1  1  0.546660  0.526024  0.190254  1
  Li  Li2  1  0.453340  0.026024  0.809746  1
  Li  Li3  1  0.977954  0.950392  0.593638  1
  Ni  Ni4  1  0.180338  0.022158  0.086294  1
  Ni  Ni5  1  0.360643  0.497168  0.569661  1
  Ni  Ni6  1  0.639357  0.997168  0.430339  1
  Ni  Ni7  1  0.819662  0.522158  0.913706  1
  P  P8  1  0.230621  0.519284  0.903308  1
  P  P9  1  0.275460  0.949210  0.447452  1
  P  P10  1  0.724540  0.449210  0.552548  1
  P  P11  1  0.769379  0.019284  0.096692  1
  O  O12  1  0.041090  0.494564  0.840432  1
  O  O13  1  0.270560  0.380379  0.066507  1
  O  O14  1  0.205662  0.221654  0.473271  1
  O  O15  1  0.152368  0.742811  0.504943  1
  O  O16  1  0.281210  0.815247  0.919507  1
  O  O17  1  0.316694  0.900968  0.278801  1
  O  O18  1  0.339874  0.386471  0.786466  1
  O  O19  1  0.443740  0.901586  0.564694  1
  O  O20  1  0.556260  0.401586  0.435306  1
  O  O21  1  0.660126  0.886471  0.213534  1
  O  O22  1  0.683306  0.400968  0.721199  1
  O  O23  1  0.718790  0.315247  0.080493  1
  O  O24  1  0.847632  0.242811  0.495057  1
  O  O25  1  0.794338  0.721654  0.526729  1
  O  O26  1  0.729440  0.880379  0.933493  1
  O  O27  1  0.958910  0.994564  0.159568  1
