# generated using pymatgen
data_Al2O3
_symmetry_space_group_name_H-M   'P 1'
_cell_length_a   4.84648998
_cell_length_b   4.84648998
_cell_length_c   9.08588697
_cell_angle_alpha   90.00000000
_cell_angle_beta   90.00000000
_cell_angle_gamma   120.00000000
_symmetry_Int_Tables_number   1
_chemical_formula_structural   Al2O3
_chemical_formula_sum   'Al8 O12'
_cell_volume   184.82154617
_cell_formula_units_Z   4
loop_
 _symmetry_equiv_pos_site_id
 _symmetry_equiv_pos_as_xyz
  1  'x, y, z'
loop_
 _atom_site_type_symbol
 _atom_site_label
 _atom_site_symmetry_multiplicity
 _atom_site_fract_x
 _atom_site_fract_y
 _atom_site_fract_z
 _atom_site_occupancy
  Al  Al0  1  0.333333  0.666667  0.962846  1
  Al  Al1  1  0.333333  0.666667  0.250000  1
  Al  Al2  1  0.000000  0.000000  0.000000  1
  Al  Al3  1  0.000000  0.000000  0.500000  1
  Al  Al4  1  0.333333  0.666667  0.537154  1
  Al  Al5  1  0.666667  0.333333  0.037154  1
  Al  Al6  1  0.666667  0.333333  0.750000  1
  Al  Al7  1  0.666667  0.333333  0.462846  1
  O  O8  1  0.031827  0.676603  0.111905  1
  O  O9  1  0.968173  0.644776  0.611905  1
  O  O10  1  0.031827  0.355224  0.388095  1
  O  O11  1  0.968173  0.323397  0.888095  1
  O  O12  1  0.323397  0.355224  0.111905  1
  O  O13  1  0.355224  0.323397  0.611905  1
  O  O14  1  0.323397  0.968173  0.388095  1
  O  O15  1  0.355224  0.031827  0.888095  1
  O  O16  1  0.644776  0.676603  0.388095  1
  O  O17  1  0.676603  0.644776  0.888095  1
  O  O18  1  0.644776  0.968173  0.111905  1
  O  O19  1  0.676603  0.031827  0.611905  1
