# generated using pymatgen
data_Li2Si4Ni4O13
_symmetry_space_group_name_H-M   'P 1'
_cell_length_a   6.75040026
_cell_length_b   7.86777496
_cell_length_c   10.13407421
_cell_angle_alpha   67.27710106
_cell_angle_beta   80.71924911
_cell_angle_gamma   77.73449082
_symmetry_Int_Tables_number   1
_chemical_formula_structural   Li2Si4Ni4O13
_chemical_formula_sum   'Li4 Si8 Ni8 O26'
_cell_volume   483.24271728
_cell_formula_units_Z   2
loop_
 _symmetry_equiv_pos_site_id
 _symmetry_equiv_pos_as_xyz
  1  'x, y, z'
loop_
 _atom_site_type_symbol
 _atom_site_label
 _atom_site_symmetry_multiplicity
 _atom_site_fract_x
 _atom_site_fract_y
 _atom_site_fract_z
 _atom_site_occupancy
  Li  Li0  1  0.778788  0.500765  0.882296  1
  Li  Li1  1  0.248619  0.968246  0.575538  1
  Li  Li2  1  0.751381  0.031754  0.424462  1
  Li  Li3  1  0.221212  0.499235  0.117704  1
  Si  Si4  1  0.271009  0.582886  0.821356  1
  Si  Si5  1  0.727559  0.860852  0.713999  1
  Si  Si6  1  0.379810  0.159571  0.716084  1
  Si  Si7  1  0.921646  0.170487  0.715064  1
  Si  Si8  1  0.078354  0.829513  0.284936  1
  Si  Si9  1  0.620190  0.840429  0.283916  1
  Si  Si10  1  0.272441  0.139148  0.286001  1
  Si  Si11  1  0.728991  0.417114  0.178644  1
  Ni  Ni12  1  0.087089  0.190816  0.992458  1
  Ni  Ni13  1  0.571428  0.194318  0.988132  1
  Ni  Ni14  1  0.578249  0.555576  0.615314  1
  Ni  Ni15  1  0.079877  0.558986  0.613115  1
  Ni  Ni16  1  0.920123  0.441014  0.386885  1
  Ni  Ni17  1  0.421751  0.444424  0.384686  1
  Ni  Ni18  1  0.428572  0.805682  0.011868  1
  Ni  Ni19  1  0.912911  0.809184  0.007542  1
  O  O20  1  0.858437  0.116848  0.886725  1
  O  O21  1  0.209130  0.705100  0.926343  1
  O  O22  1  0.507469  0.465272  0.841434  1
  O  O23  1  0.092232  0.455059  0.837142  1
  O  O24  1  0.716499  0.760742  0.888056  1
  O  O25  1  0.390272  0.101453  0.887524  1
  O  O26  1  0.861337  0.387105  0.608009  1
  O  O27  1  0.405649  0.368939  0.607214  1
  O  O28  1  0.280173  0.706260  0.645651  1
  O  O29  1  0.791051  0.724538  0.623510  1
  O  O30  1  0.164551  0.123140  0.693570  1
  O  O31  1  0.512267  0.995384  0.656866  1
  O  O32  1  0.875729  0.021111  0.651420  1
  O  O33  1  0.124271  0.978889  0.348580  1
  O  O34  1  0.487733  0.004616  0.343134  1
  O  O35  1  0.835449  0.876860  0.306430  1
  O  O36  1  0.208949  0.275462  0.376490  1
  O  O37  1  0.719827  0.293740  0.354349  1
  O  O38  1  0.594351  0.631061  0.392786  1
  O  O39  1  0.138663  0.612895  0.391991  1
  O  O40  1  0.609728  0.898547  0.112476  1
  O  O41  1  0.283501  0.239258  0.111944  1
  O  O42  1  0.907768  0.544941  0.162858  1
  O  O43  1  0.492531  0.534728  0.158566  1
  O  O44  1  0.790870  0.294900  0.073657  1
  O  O45  1  0.141563  0.883152  0.113275  1
