# generated using pymatgen
data_Li2MnVP2(O4F)2
_symmetry_space_group_name_H-M   'P 1'
_cell_length_a   5.20046707
_cell_length_b   10.48708148
_cell_length_c   10.50452814
_cell_angle_alpha   78.37344126
_cell_angle_beta   82.71480201
_cell_angle_gamma   80.53220421
_symmetry_Int_Tables_number   1
_chemical_formula_structural   Li2MnVP2(O4F)2
_chemical_formula_sum   'Li6 Mn3 V3 P6 O24 F6'
_cell_volume   550.88783061
_cell_formula_units_Z   3
loop_
 _symmetry_equiv_pos_site_id
 _symmetry_equiv_pos_as_xyz
  1  'x, y, z'
loop_
 _atom_site_type_symbol
 _atom_site_label
 _atom_site_symmetry_multiplicity
 _atom_site_fract_x
 _atom_site_fract_y
 _atom_site_fract_z
 _atom_site_occupancy
  Li  Li0  1  0.995747  0.919567  0.729838  1
  Li  Li1  1  0.666798  0.412921  0.602027  1
  Li  Li2  1  0.332692  0.746311  0.933902  1
  Li  Li3  1  0.667308  0.253689  0.066098  1
  Li  Li4  1  0.333202  0.587079  0.397973  1
  Li  Li5  1  0.004253  0.080433  0.270162  1
  Mn  Mn6  1  0.500000  0.000000  0.500000  1
  Mn  Mn7  1  0.668004  0.333967  0.332765  1
  Mn  Mn8  1  0.331996  0.666033  0.667235  1
  V  V9  1  0.000000  0.000000  0.000000  1
  V  V10  1  0.831949  0.668087  0.166822  1
  V  V11  1  0.168051  0.331913  0.833178  1
  P  P12  1  0.812180  0.626885  0.863419  1
  P  P13  1  0.851691  0.705802  0.471028  1
  P  P14  1  0.482394  0.962467  0.199734  1
  P  P15  1  0.517606  0.037533  0.800266  1
  P  P16  1  0.148309  0.294198  0.528972  1
  P  P17  1  0.187820  0.373115  0.136581  1
  O  O18  1  0.742503  0.973977  0.887339  1
  O  O19  1  0.972030  0.676439  0.334832  1
  O  O20  1  0.880654  0.478659  0.866171  1
  O  O21  1  0.780433  0.853276  0.469103  1
  O  O22  1  0.923674  0.360387  0.441852  1
  O  O23  1  0.941862  0.300110  0.183717  1
  O  O24  1  0.588965  0.692353  0.775731  1
  O  O25  1  0.607556  0.631069  0.519117  1
  O  O26  1  0.693592  0.657947  0.998894  1
  O  O27  1  0.550069  0.814684  0.199884  1
  O  O28  1  0.636819  0.007047  0.664597  1
  O  O29  1  0.276523  0.962714  0.851380  1
  O  O30  1  0.723477  0.037286  0.148620  1
  O  O31  1  0.363181  0.992953  0.335403  1
  O  O32  1  0.449931  0.185316  0.800116  1
  O  O33  1  0.306408  0.342053  0.001106  1
  O  O34  1  0.392444  0.368931  0.480883  1
  O  O35  1  0.411035  0.307647  0.224269  1
  O  O36  1  0.058138  0.699890  0.816283  1
  O  O37  1  0.076326  0.639613  0.558148  1
  O  O38  1  0.219567  0.146724  0.530897  1
  O  O39  1  0.119346  0.521341  0.133829  1
  O  O40  1  0.027970  0.323561  0.665168  1
  O  O41  1  0.257497  0.026023  0.112661  1
  F  F42  1  0.932789  0.198596  0.937407  1
  F  F43  1  0.748636  0.130911  0.395997  1
  F  F44  1  0.594890  0.540318  0.267949  1
  F  F45  1  0.405110  0.459682  0.732051  1
  F  F46  1  0.251364  0.869089  0.604003  1
  F  F47  1  0.067211  0.801404  0.062593  1
