# generated using pymatgen
data_K4Na2H18Pd(IO10)2
_symmetry_space_group_name_H-M   'P 1'
_cell_length_a   6.84111840
_cell_length_b   7.31155473
_cell_length_c   10.97592597
_cell_angle_alpha   93.86337813
_cell_angle_beta   104.54878159
_cell_angle_gamma   94.27609901
_symmetry_Int_Tables_number   1
_chemical_formula_structural   K4Na2H18Pd(IO10)2
_chemical_formula_sum   'K4 Na2 H18 Pd1 I2 O20'
_cell_volume   527.81066851
_cell_formula_units_Z   1
loop_
 _symmetry_equiv_pos_site_id
 _symmetry_equiv_pos_as_xyz
  1  'x, y, z'
loop_
 _atom_site_type_symbol
 _atom_site_label
 _atom_site_symmetry_multiplicity
 _atom_site_fract_x
 _atom_site_fract_y
 _atom_site_fract_z
 _atom_site_occupancy
  K  K0  1  0.099577  0.331138  0.615978  1
  K  K1  1  0.085418  0.318357  0.139199  1
  K  K2  1  0.914582  0.681643  0.860801  1
  K  K3  1  0.900423  0.668862  0.384022  1
  Na  Na4  1  0.293672  0.831412  0.232836  1
  Na  Na5  1  0.706328  0.168588  0.767164  1
  H  H6  1  0.144808  0.139095  0.863157  1
  H  H7  1  0.176917  0.357222  0.879032  1
  H  H8  1  0.091795  0.111424  0.379602  1
  H  H9  1  0.307404  0.012245  0.567841  1
  H  H10  1  0.361326  0.645868  0.464733  1
  H  H11  1  0.329405  0.130319  0.391076  1
  H  H12  1  0.546157  0.465874  0.876738  1
  H  H13  1  0.388565  0.490591  0.366515  1
  H  H14  1  0.651666  0.384576  0.004039  1
  H  H15  1  0.348334  0.615424  0.995961  1
  H  H16  1  0.611435  0.509409  0.633485  1
  H  H17  1  0.453843  0.534126  0.123262  1
  H  H18  1  0.670595  0.869681  0.608924  1
  H  H19  1  0.638674  0.354132  0.535267  1
  H  H20  1  0.692596  0.987755  0.432159  1
  H  H21  1  0.908205  0.888576  0.620398  1
  H  H22  1  0.823083  0.642778  0.120968  1
  H  H23  1  0.855192  0.860905  0.136843  1
  Pd  Pd24  1  0.500000  0.000000  0.000000  1
  I  I25  1  0.343668  0.794036  0.740544  1
  I  I26  1  0.656332  0.205964  0.259456  1
  O  O27  1  0.072090  0.252915  0.865914  1
  O  O28  1  0.083511  0.732099  0.637579  1
  O  O29  1  0.236019  0.928027  0.867658  1
  O  O30  1  0.337534  0.575724  0.822690  1
  O  O31  1  0.215299  0.041314  0.399157  1
  O  O32  1  0.355193  0.038155  0.661830  1
  O  O33  1  0.310086  0.598883  0.373612  1
  O  O34  1  0.481897  0.700280  0.625791  1
  O  O35  1  0.602701  0.894437  0.855322  1
  O  O36  1  0.332110  0.597627  0.081962  1
  O  O37  1  0.667890  0.402373  0.918038  1
  O  O38  1  0.397299  0.105563  0.144678  1
  O  O39  1  0.518103  0.299720  0.374209  1
  O  O40  1  0.689914  0.401117  0.626388  1
  O  O41  1  0.644807  0.961845  0.338170  1
  O  O42  1  0.784701  0.958686  0.600843  1
  O  O43  1  0.662466  0.424276  0.177310  1
  O  O44  1  0.763981  0.071973  0.132342  1
  O  O45  1  0.916489  0.267901  0.362421  1
  O  O46  1  0.927910  0.747085  0.134086  1
