# generated using pymatgen
data_VF4
_symmetry_space_group_name_H-M   'P 1'
_cell_length_a   7.67454709
_cell_length_b   7.67454709
_cell_length_c   7.67454709
_cell_angle_alpha   96.25235438
_cell_angle_beta   96.25235438
_cell_angle_gamma   96.25235438
_symmetry_Int_Tables_number   1
_chemical_formula_structural   VF4
_chemical_formula_sum   'V6 F24'
_cell_volume   443.31078036
_cell_formula_units_Z   6
loop_
 _symmetry_equiv_pos_site_id
 _symmetry_equiv_pos_as_xyz
  1  'x, y, z'
loop_
 _atom_site_type_symbol
 _atom_site_label
 _atom_site_symmetry_multiplicity
 _atom_site_fract_x
 _atom_site_fract_y
 _atom_site_fract_z
 _atom_site_occupancy
  V  V0  1  0.450750  0.186306  0.080411  1
  V  V1  1  0.080411  0.450750  0.186306  1
  V  V2  1  0.813694  0.919589  0.549250  1
  V  V3  1  0.186306  0.080411  0.450750  1
  V  V4  1  0.919589  0.549250  0.813694  1
  V  V5  1  0.549250  0.813694  0.919589  1
  F  F6  1  0.472140  0.716591  0.098432  1
  F  F7  1  0.085484  0.642831  0.032816  1
  F  F8  1  0.244703  0.312775  0.052921  1
  F  F9  1  0.642831  0.032816  0.085484  1
  F  F10  1  0.967184  0.914516  0.357169  1
  F  F11  1  0.901568  0.527860  0.283409  1
  F  F12  1  0.554024  0.326332  0.266729  1
  F  F13  1  0.312775  0.052921  0.244703  1
  F  F14  1  0.673668  0.733271  0.445976  1
  F  F15  1  0.266729  0.554024  0.326332  1
  F  F16  1  0.052921  0.244703  0.312775  1
  F  F17  1  0.716591  0.098432  0.472140  1
  F  F18  1  0.283409  0.901568  0.527860  1
  F  F19  1  0.947079  0.755297  0.687225  1
  F  F20  1  0.733271  0.445976  0.673668  1
  F  F21  1  0.326332  0.266729  0.554024  1
  F  F22  1  0.687225  0.947079  0.755297  1
  F  F23  1  0.445976  0.673668  0.733271  1
  F  F24  1  0.098432  0.472140  0.716591  1
  F  F25  1  0.032816  0.085484  0.642831  1
  F  F26  1  0.357169  0.967184  0.914516  1
  F  F27  1  0.755297  0.687225  0.947079  1
  F  F28  1  0.914516  0.357169  0.967184  1
  F  F29  1  0.527860  0.283409  0.901568  1
