# generated using pymatgen
data_Li(Fe3P2)2
_symmetry_space_group_name_H-M   'P 1'
_cell_length_a   6.70236641
_cell_length_b   6.70236641
_cell_length_c   3.23213787
_cell_angle_alpha   90.00000000
_cell_angle_beta   90.00000000
_cell_angle_gamma   120.00000000
_symmetry_Int_Tables_number   1
_chemical_formula_structural   Li(Fe3P2)2
_chemical_formula_sum   'Li1 Fe6 P4'
_cell_volume   125.74098037
_cell_formula_units_Z   1
loop_
 _symmetry_equiv_pos_site_id
 _symmetry_equiv_pos_as_xyz
  1  'x, y, z'
loop_
 _atom_site_type_symbol
 _atom_site_label
 _atom_site_symmetry_multiplicity
 _atom_site_fract_x
 _atom_site_fract_y
 _atom_site_fract_z
 _atom_site_occupancy
  Li  Li0  1  0.333333  0.666667  0.000000  1
  Fe  Fe1  1  0.532910  0.467090  0.500000  1
  Fe  Fe2  1  0.532910  0.065821  0.500000  1
  Fe  Fe3  1  0.934179  0.467090  0.500000  1
  Fe  Fe4  1  0.872778  0.127222  0.000000  1
  Fe  Fe5  1  0.872778  0.745556  0.000000  1
  Fe  Fe6  1  0.254444  0.127222  0.000000  1
  P  P7  1  0.666667  0.333333  0.000000  1
  P  P8  1  0.693231  0.846616  0.500000  1
  P  P9  1  0.153384  0.306769  0.500000  1
  P  P10  1  0.153384  0.846616  0.500000  1
