# generated using pymatgen
data_Dy2SiO5
_symmetry_space_group_name_H-M   'P 1'
_cell_length_a   8.03022784
_cell_length_b   8.03022784
_cell_length_c   10.52106373
_cell_angle_alpha   61.16754797
_cell_angle_beta   118.83245203
_cell_angle_gamma   129.76127990
_symmetry_Int_Tables_number   1
_chemical_formula_structural   Dy2SiO5
_chemical_formula_sum   'Dy8 Si4 O20'
_cell_volume   441.40045031
_cell_formula_units_Z   4
loop_
 _symmetry_equiv_pos_site_id
 _symmetry_equiv_pos_as_xyz
  1  'x, y, z'
loop_
 _atom_site_type_symbol
 _atom_site_label
 _atom_site_symmetry_multiplicity
 _atom_site_fract_x
 _atom_site_fract_y
 _atom_site_fract_z
 _atom_site_occupancy
  Dy  Dy0  1  0.475205  0.760412  0.662262  1
  Dy  Dy1  1  0.292288  0.219008  0.967410  1
  Dy  Dy2  1  0.219008  0.292288  0.532590  1
  Dy  Dy3  1  0.239588  0.524795  0.162262  1
  Dy  Dy4  1  0.760412  0.475205  0.837738  1
  Dy  Dy5  1  0.780992  0.707712  0.467410  1
  Dy  Dy6  1  0.707712  0.780992  0.032590  1
  Dy  Dy7  1  0.524795  0.239588  0.337738  1
  Si  Si8  1  0.272172  0.908268  0.805412  1
  Si  Si9  1  0.091732  0.727828  0.305412  1
  Si  Si10  1  0.908268  0.272172  0.694588  1
  Si  Si11  1  0.727828  0.091732  0.194588  1
  O  O12  1  0.127923  0.725256  0.931890  1
  O  O13  1  0.100245  0.918389  0.636603  1
  O  O14  1  0.446130  0.850930  0.824205  1
  O  O15  1  0.274744  0.872077  0.431890  1
  O  O16  1  0.081611  0.899755  0.136603  1
  O  O17  1  0.163455  0.404268  0.676202  1
  O  O18  1  0.149070  0.553870  0.324205  1
  O  O19  1  0.610859  0.577633  0.895831  1
  O  O20  1  0.577633  0.610859  0.604169  1
  O  O21  1  0.595732  0.836545  0.176202  1
  O  O22  1  0.404268  0.163455  0.823798  1
  O  O23  1  0.422367  0.389141  0.395831  1
  O  O24  1  0.389141  0.422367  0.104169  1
  O  O25  1  0.850930  0.446130  0.675795  1
  O  O26  1  0.836545  0.595732  0.323798  1
  O  O27  1  0.918389  0.100245  0.863397  1
  O  O28  1  0.725256  0.127923  0.568110  1
  O  O29  1  0.553870  0.149070  0.175795  1
  O  O30  1  0.899755  0.081611  0.363397  1
  O  O31  1  0.872077  0.274744  0.068110  1
