# generated using pymatgen
data_Sb2H4AuF16
_symmetry_space_group_name_H-M   'P 1'
_cell_length_a   5.58314015
_cell_length_b   5.97117615
_cell_length_c   9.41164264
_cell_angle_alpha   89.35301853
_cell_angle_beta   86.00942941
_cell_angle_gamma   87.57736467
_symmetry_Int_Tables_number   1
_chemical_formula_structural   Sb2H4AuF16
_chemical_formula_sum   'Sb2 H4 Au1 F16'
_cell_volume   312.71307459
_cell_formula_units_Z   1
loop_
 _symmetry_equiv_pos_site_id
 _symmetry_equiv_pos_as_xyz
  1  'x, y, z'
loop_
 _atom_site_type_symbol
 _atom_site_label
 _atom_site_symmetry_multiplicity
 _atom_site_fract_x
 _atom_site_fract_y
 _atom_site_fract_z
 _atom_site_occupancy
  Sb  Sb0  1  0.427057  0.291149  0.738329  1
  Sb  Sb1  1  0.572943  0.708851  0.261671  1
  H  H2  1  0.105904  0.214979  0.243278  1
  H  H3  1  0.084924  0.244351  0.454284  1
  H  H4  1  0.915076  0.755649  0.545716  1
  H  H5  1  0.894096  0.785021  0.756722  1
  Au  Au6  1  0.000000  0.000000  0.000000  1
  F  F7  1  0.013211  0.759341  0.627783  1
  F  F8  1  0.188288  0.195653  0.142388  1
  F  F9  1  0.175827  0.264340  0.607034  1
  F  F10  1  0.199928  0.455761  0.862070  1
  F  F11  1  0.341930  0.712743  0.120572  1
  F  F12  1  0.294463  0.014309  0.834734  1
  F  F13  1  0.368779  0.906354  0.375934  1
  F  F14  1  0.452294  0.445892  0.350410  1
  F  F15  1  0.547706  0.554108  0.649590  1
  F  F16  1  0.631221  0.093646  0.624066  1
  F  F17  1  0.705537  0.985691  0.165266  1
  F  F18  1  0.658070  0.287257  0.879428  1
  F  F19  1  0.800072  0.544239  0.137930  1
  F  F20  1  0.824173  0.735660  0.392966  1
  F  F21  1  0.811712  0.804347  0.857612  1
  F  F22  1  0.986789  0.240659  0.372217  1
