# generated using pymatgen
data_Li2Fe(SiO3)2
_symmetry_space_group_name_H-M   'P 1'
_cell_length_a   7.16775445
_cell_length_b   9.98869196
_cell_length_c   10.23340476
_cell_angle_alpha   90.00000000
_cell_angle_beta   90.00000000
_cell_angle_gamma   90.00000000
_symmetry_Int_Tables_number   1
_chemical_formula_structural   Li2Fe(SiO3)2
_chemical_formula_sum   'Li12 Fe6 Si12 O36'
_cell_volume   732.67587432
_cell_formula_units_Z   6
loop_
 _symmetry_equiv_pos_site_id
 _symmetry_equiv_pos_as_xyz
  1  'x, y, z'
loop_
 _atom_site_type_symbol
 _atom_site_label
 _atom_site_symmetry_multiplicity
 _atom_site_fract_x
 _atom_site_fract_y
 _atom_site_fract_z
 _atom_site_occupancy
  Li  Li0  1  0.503531  0.511090  0.000000  1
  Li  Li1  1  0.256344  0.253462  0.000000  1
  Li  Li2  1  0.700535  0.546663  0.785950  1
  Li  Li3  1  0.244514  0.492552  0.768626  1
  Li  Li4  1  0.755486  0.992552  0.731374  1
  Li  Li5  1  0.299465  0.046663  0.714050  1
  Li  Li6  1  0.743656  0.753462  0.500000  1
  Li  Li7  1  0.496469  0.011090  0.500000  1
  Li  Li8  1  0.299465  0.046663  0.285950  1
  Li  Li9  1  0.755486  0.992552  0.268626  1
  Li  Li10  1  0.244514  0.492552  0.231374  1
  Li  Li11  1  0.700535  0.546663  0.214050  1
  Fe  Fe12  1  0.016775  0.982424  0.000000  1
  Fe  Fe13  1  0.750273  0.757639  0.000000  1
  Fe  Fe14  1  0.271368  0.746978  0.000000  1
  Fe  Fe15  1  0.983225  0.482424  0.500000  1
  Fe  Fe16  1  0.728632  0.246978  0.500000  1
  Fe  Fe17  1  0.249727  0.257639  0.500000  1
  Si  Si18  1  0.011535  0.467541  0.000000  1
  Si  Si19  1  0.489437  0.040980  0.000000  1
  Si  Si20  1  0.980411  0.242507  0.775489  1
  Si  Si21  1  0.533818  0.258983  0.777209  1
  Si  Si22  1  0.466182  0.758983  0.722791  1
  Si  Si23  1  0.019589  0.742507  0.724511  1
  Si  Si24  1  0.510563  0.540980  0.500000  1
  Si  Si25  1  0.988465  0.967541  0.500000  1
  Si  Si26  1  0.019589  0.742507  0.275489  1
  Si  Si27  1  0.466182  0.758983  0.277209  1
  Si  Si28  1  0.533818  0.258983  0.222791  1
  Si  Si29  1  0.980411  0.242507  0.224511  1
  O  O30  1  0.696504  0.976428  0.000000  1
  O  O31  1  0.808060  0.536311  0.000000  1
  O  O32  1  0.312854  0.938335  0.000000  1
  O  O33  1  0.199978  0.558549  0.000000  1
  O  O34  1  0.440073  0.146183  0.878042  1
  O  O35  1  0.054073  0.364188  0.874929  1
  O  O36  1  0.974051  0.796977  0.869988  1
  O  O37  1  0.531817  0.709307  0.866943  1
  O  O38  1  0.483621  0.409018  0.822717  1
  O  O39  1  0.066453  0.100470  0.823275  1
  O  O40  1  0.755497  0.222279  0.791412  1
  O  O41  1  0.244503  0.722279  0.708588  1
  O  O42  1  0.933547  0.600470  0.676725  1
  O  O43  1  0.516379  0.909018  0.677283  1
  O  O44  1  0.468183  0.209307  0.633057  1
  O  O45  1  0.025949  0.296977  0.630012  1
  O  O46  1  0.945927  0.864188  0.625071  1
  O  O47  1  0.559927  0.646183  0.621958  1
  O  O48  1  0.303496  0.476428  0.500000  1
  O  O49  1  0.687146  0.438335  0.500000  1
  O  O50  1  0.191940  0.036311  0.500000  1
  O  O51  1  0.800022  0.058549  0.500000  1
  O  O52  1  0.559927  0.646183  0.378042  1
  O  O53  1  0.945927  0.864188  0.374929  1
  O  O54  1  0.025949  0.296977  0.369988  1
  O  O55  1  0.468183  0.209307  0.366943  1
  O  O56  1  0.516379  0.909018  0.322717  1
  O  O57  1  0.933547  0.600470  0.323275  1
  O  O58  1  0.244503  0.722279  0.291412  1
  O  O59  1  0.755497  0.222279  0.208588  1
  O  O60  1  0.066453  0.100470  0.176725  1
  O  O61  1  0.483621  0.409018  0.177283  1
  O  O62  1  0.531817  0.709307  0.133057  1
  O  O63  1  0.974051  0.796977  0.130012  1
  O  O64  1  0.054073  0.364188  0.125071  1
  O  O65  1  0.440073  0.146183  0.121958  1
