# generated using pymatgen
data_Li2Ti3SnO8
_symmetry_space_group_name_H-M   'P 1'
_cell_length_a   5.99031798
_cell_length_b   5.99031798
_cell_length_c   10.03415715
_cell_angle_alpha   90.00000000
_cell_angle_beta   90.00000000
_cell_angle_gamma   120.00000000
_symmetry_Int_Tables_number   1
_chemical_formula_structural   Li2Ti3SnO8
_chemical_formula_sum   'Li4 Ti6 Sn2 O16'
_cell_volume   311.82525256
_cell_formula_units_Z   2
loop_
 _symmetry_equiv_pos_site_id
 _symmetry_equiv_pos_as_xyz
  1  'x, y, z'
loop_
 _atom_site_type_symbol
 _atom_site_label
 _atom_site_symmetry_multiplicity
 _atom_site_fract_x
 _atom_site_fract_y
 _atom_site_fract_z
 _atom_site_occupancy
  Li  Li0  1  0.333333  0.666667  0.896316  1
  Li  Li1  1  0.000000  0.000000  0.993167  1
  Li  Li2  1  0.000000  0.000000  0.493167  1
  Li  Li3  1  0.666667  0.333333  0.396316  1
  Ti  Ti4  1  0.169742  0.830258  0.214862  1
  Ti  Ti5  1  0.660517  0.830258  0.214862  1
  Ti  Ti6  1  0.339483  0.169742  0.714862  1
  Ti  Ti7  1  0.830258  0.169742  0.714862  1
  Ti  Ti8  1  0.169742  0.339483  0.214862  1
  Ti  Ti9  1  0.830258  0.660517  0.714862  1
  Sn  Sn10  1  0.333333  0.666667  0.491207  1
  Sn  Sn11  1  0.666667  0.333333  0.991207  1
  O  O12  1  0.158910  0.841090  0.601277  1
  O  O13  1  0.033660  0.516830  0.335617  1
  O  O14  1  0.333333  0.666667  0.106502  1
  O  O15  1  0.000000  0.000000  0.311215  1
  O  O16  1  0.000000  0.000000  0.811215  1
  O  O17  1  0.158910  0.317820  0.601277  1
  O  O18  1  0.483170  0.966340  0.335617  1
  O  O19  1  0.483170  0.516830  0.335617  1
  O  O20  1  0.317820  0.158910  0.101277  1
  O  O21  1  0.682180  0.841090  0.601277  1
  O  O22  1  0.516830  0.483170  0.835617  1
  O  O23  1  0.516830  0.033660  0.835617  1
  O  O24  1  0.666667  0.333333  0.606502  1
  O  O25  1  0.841090  0.682180  0.101277  1
  O  O26  1  0.966340  0.483170  0.835617  1
  O  O27  1  0.841090  0.158910  0.101277  1
