# generated using pymatgen
data_Li3AlCoO4
_symmetry_space_group_name_H-M   'P 1'
_cell_length_a   10.11568017
_cell_length_b   10.11568017
_cell_length_c   10.11568017
_cell_angle_alpha   116.75850661
_cell_angle_beta   116.75850661
_cell_angle_gamma   95.71256535
_symmetry_Int_Tables_number   1
_chemical_formula_structural   Li3AlCoO4
_chemical_formula_sum   'Li24 Al8 Co8 O32'
_cell_volume   763.68314360
_cell_formula_units_Z   8
loop_
 _symmetry_equiv_pos_site_id
 _symmetry_equiv_pos_as_xyz
  1  'x, y, z'
loop_
 _atom_site_type_symbol
 _atom_site_label
 _atom_site_symmetry_multiplicity
 _atom_site_fract_x
 _atom_site_fract_y
 _atom_site_fract_z
 _atom_site_occupancy
  Li  Li0  1  0.926327  0.107591  0.154337  1
  Li  Li1  1  0.823673  0.142409  0.345663  1
  Li  Li2  1  0.892409  0.046747  0.818736  1
  Li  Li3  1  0.521989  0.176327  0.318736  1
  Li  Li4  1  0.443519  0.294597  0.135649  1
  Li  Li5  1  0.719576  0.567341  0.146573  1
  Li  Li6  1  0.857591  0.203253  0.681264  1
  Li  Li7  1  0.228011  0.073673  0.181264  1
  Li  Li8  1  0.705403  0.841052  0.148922  1
  Li  Li9  1  0.432659  0.579232  0.152236  1
  Li  Li10  1  0.796747  0.478011  0.654337  1
  Li  Li11  1  0.953253  0.771989  0.845663  1
  Li  Li12  1  0.426996  0.280424  0.847764  1
  Li  Li13  1  0.317341  0.670768  0.347764  1
  Li  Li14  1  0.044597  0.408948  0.351078  1
  Li  Li15  1  0.692130  0.556481  0.851078  1
  Li  Li16  1  0.030424  0.682659  0.353427  1
  Li  Li17  1  0.420768  0.573004  0.853427  1
  Li  Li18  1  0.591052  0.942130  0.635649  1
  Li  Li19  1  0.158948  0.307870  0.864351  1
  Li  Li20  1  0.306481  0.955403  0.364351  1
  Li  Li21  1  0.329232  0.676996  0.646573  1
  Li  Li22  1  0.057870  0.693519  0.648922  1
  Li  Li23  1  0.323004  0.969576  0.652236  1
  Al  Al24  1  0.750354  0.414217  0.302239  1
  Al  Al25  1  0.551886  0.249646  0.663863  1
  Al  Al26  1  0.164217  0.361978  0.163863  1
  Al  Al27  1  0.585783  0.888022  0.336137  1
  Al  Al28  1  0.638022  0.801886  0.802239  1
  Al  Al29  1  0.999646  0.835783  0.197761  1
  Al  Al30  1  0.111978  0.448114  0.697761  1
  Al  Al31  1  0.198114  0.000354  0.836137  1
  Co  Co32  1  0.450191  0.925567  0.998418  1
  Co  Co33  1  0.675567  0.177149  0.975376  1
  Co  Co34  1  0.548227  0.549809  0.475376  1
  Co  Co35  1  0.822851  0.798227  0.498418  1
  Co  Co36  1  0.299809  0.324433  0.501582  1
  Co  Co37  1  0.074433  0.072851  0.524624  1
  Co  Co38  1  0.201773  0.700191  0.024624  1
  Co  Co39  1  0.927149  0.451773  0.001582  1
  O  O40  1  0.832928  0.267096  0.244300  1
  O  O41  1  0.338629  0.082928  0.065832  1
  O  O42  1  0.600910  0.352363  0.079449  1
  O  O43  1  0.864042  0.640788  0.093394  1
  O  O44  1  0.885958  0.609212  0.406606  1
  O  O45  1  0.645057  0.394676  0.397481  1
  O  O46  1  0.411371  0.167072  0.434168  1
  O  O47  1  0.359212  0.452605  0.223254  1
  O  O48  1  0.520648  0.114042  0.723254  1
  O  O49  1  0.917072  0.982904  0.255700  1
  O  O50  1  0.144676  0.247196  0.249619  1
  O  O51  1  0.752423  0.354942  0.749619  1
  O  O52  1  0.647637  0.727087  0.248547  1
  O  O53  1  0.102363  0.522913  0.251453  1
  O  O54  1  0.478539  0.399090  0.751453  1
  O  O55  1  0.605324  0.002804  0.250381  1
  O  O56  1  0.727203  0.661371  0.744300  1
  O  O57  1  0.229352  0.135958  0.776746  1
  O  O58  1  0.390788  0.797395  0.276746  1
  O  O59  1  0.732904  0.977203  0.565832  1
  O  O60  1  0.477087  0.728539  0.579449  1
  O  O61  1  0.104942  0.855324  0.102519  1
  O  O62  1  0.997196  0.247577  0.602519  1
  O  O63  1  0.202605  0.479352  0.593394  1
  O  O64  1  0.547395  0.770648  0.906606  1
  O  O65  1  0.752804  0.002423  0.897481  1
  O  O66  1  0.149090  0.897637  0.420550  1
  O  O67  1  0.272913  0.521461  0.920550  1
  O  O68  1  0.017096  0.272797  0.934168  1
  O  O69  1  0.022797  0.588629  0.755700  1
  O  O70  1  0.271461  0.850910  0.748547  1
  O  O71  1  0.997577  0.895057  0.750381  1
