# generated using pymatgen
data_CoSbO4
_symmetry_space_group_name_H-M   'P 1'
_cell_length_a   5.40811416
_cell_length_b   5.40811416
_cell_length_c   5.40811416
_cell_angle_alpha   137.60188767
_cell_angle_beta   137.60188767
_cell_angle_gamma   61.51327633
_symmetry_Int_Tables_number   1
_chemical_formula_structural   CoSbO4
_chemical_formula_sum   'Co1 Sb1 O4'
_cell_volume   71.09599956
_cell_formula_units_Z   1
loop_
 _symmetry_equiv_pos_site_id
 _symmetry_equiv_pos_as_xyz
  1  'x, y, z'
loop_
 _atom_site_type_symbol
 _atom_site_label
 _atom_site_symmetry_multiplicity
 _atom_site_fract_x
 _atom_site_fract_y
 _atom_site_fract_z
 _atom_site_occupancy
  Co  Co0  1  0.000000  0.000000  0.000000  1
  Sb  Sb1  1  0.750000  0.250000  0.500000  1
  O  O2  1  0.537193  0.037193  0.500000  1
  O  O3  1  0.203258  0.203258  0.000000  1
  O  O4  1  0.962807  0.462807  0.500000  1
  O  O5  1  0.796742  0.796742  0.000000  1
