# generated using pymatgen
data_PrH(SeO3)2
_symmetry_space_group_name_H-M   'P 1'
_cell_length_a   7.14464931
_cell_length_b   8.47112919
_cell_length_c   19.51156674
_cell_angle_alpha   90.00000000
_cell_angle_beta   90.00000000
_cell_angle_gamma   90.00000000
_symmetry_Int_Tables_number   1
_chemical_formula_structural   PrH(SeO3)2
_chemical_formula_sum   'Pr8 H8 Se16 O48'
_cell_volume   1180.90337945
_cell_formula_units_Z   8
loop_
 _symmetry_equiv_pos_site_id
 _symmetry_equiv_pos_as_xyz
  1  'x, y, z'
loop_
 _atom_site_type_symbol
 _atom_site_label
 _atom_site_symmetry_multiplicity
 _atom_site_fract_x
 _atom_site_fract_y
 _atom_site_fract_z
 _atom_site_occupancy
  Pr  Pr0  1  0.916642  0.656739  0.000000  1
  Pr  Pr1  1  0.083358  0.343261  0.500000  1
  Pr  Pr2  1  0.916642  0.843261  0.500000  1
  Pr  Pr3  1  0.083358  0.156739  0.000000  1
  Pr  Pr4  1  0.415242  0.558300  0.086598  1
  Pr  Pr5  1  0.584758  0.441700  0.586598  1
  Pr  Pr6  1  0.415242  0.941700  0.586598  1
  Pr  Pr7  1  0.584758  0.058300  0.086598  1
  H  H8  1  0.690217  0.346713  0.299464  1
  H  H9  1  0.309783  0.653287  0.799464  1
  H  H10  1  0.690217  0.153287  0.799464  1
  H  H11  1  0.309783  0.846713  0.299464  1
  H  H12  1  0.214836  0.896861  0.783719  1
  H  H13  1  0.785164  0.103139  0.283719  1
  H  H14  1  0.214836  0.603139  0.283719  1
  H  H15  1  0.785164  0.396861  0.783719  1
  Se  Se16  1  0.928638  0.408433  0.137897  1
  Se  Se17  1  0.071362  0.591567  0.637897  1
  Se  Se18  1  0.928638  0.091567  0.637897  1
  Se  Se19  1  0.071362  0.908433  0.137897  1
  Se  Se20  1  0.409003  0.337917  0.236808  1
  Se  Se21  1  0.590997  0.662083  0.736808  1
  Se  Se22  1  0.409003  0.162083  0.736808  1
  Se  Se23  1  0.590997  0.837917  0.236808  1
  Se  Se24  1  0.941332  0.872630  0.852739  1
  Se  Se25  1  0.058668  0.127370  0.352739  1
  Se  Se26  1  0.941332  0.627370  0.352739  1
  Se  Se27  1  0.058668  0.372630  0.852739  1
  Se  Se28  1  0.434150  0.806440  0.949255  1
  Se  Se29  1  0.565850  0.193560  0.449255  1
  Se  Se30  1  0.434150  0.693560  0.449255  1
  Se  Se31  1  0.565850  0.306440  0.949255  1
  O  O32  1  0.761259  0.535892  0.105096  1
  O  O33  1  0.238741  0.464108  0.605096  1
  O  O34  1  0.761259  0.964108  0.605096  1
  O  O35  1  0.238741  0.035892  0.105096  1
  O  O36  1  0.094665  0.429587  0.071872  1
  O  O37  1  0.905335  0.570413  0.571872  1
  O  O38  1  0.094665  0.070413  0.571872  1
  O  O39  1  0.905335  0.929587  0.071872  1
  O  O40  1  0.865123  0.221469  0.114583  1
  O  O41  1  0.134877  0.778531  0.614583  1
  O  O42  1  0.865123  0.278531  0.614583  1
  O  O43  1  0.134877  0.721469  0.114583  1
  O  O44  1  0.487773  0.301514  0.155698  1
  O  O45  1  0.512227  0.698486  0.655698  1
  O  O46  1  0.487773  0.198486  0.655698  1
  O  O47  1  0.512227  0.801514  0.155698  1
  O  O48  1  0.299050  0.510745  0.218868  1
  O  O49  1  0.700950  0.489255  0.718868  1
  O  O50  1  0.299050  0.989255  0.718868  1
  O  O51  1  0.700950  0.010745  0.218868  1
  O  O52  1  0.607776  0.430446  0.279579  1
  O  O53  1  0.392224  0.569554  0.779579  1
  O  O54  1  0.607776  0.069554  0.779579  1
  O  O55  1  0.392224  0.930446  0.279579  1
  O  O56  1  0.175445  0.818776  0.821526  1
  O  O57  1  0.824555  0.181224  0.321526  1
  O  O58  1  0.175445  0.681224  0.321526  1
  O  O59  1  0.824555  0.318776  0.821526  1
  O  O60  1  0.980726  0.917053  0.936898  1
  O  O61  1  0.019274  0.082947  0.436898  1
  O  O62  1  0.980726  0.582947  0.436898  1
  O  O63  1  0.019274  0.417053  0.936898  1
  O  O64  1  0.853856  0.690086  0.865944  1
  O  O65  1  0.146144  0.309914  0.365944  1
  O  O66  1  0.853856  0.809914  0.365944  1
  O  O67  1  0.146144  0.190086  0.865944  1
  O  O68  1  0.366493  0.993276  0.971036  1
  O  O69  1  0.633507  0.006724  0.471036  1
  O  O70  1  0.366493  0.506724  0.471036  1
  O  O71  1  0.633507  0.493276  0.971036  1
  O  O72  1  0.264742  0.679040  0.980971  1
  O  O73  1  0.735258  0.320960  0.480971  1
  O  O74  1  0.264742  0.820960  0.480971  1
  O  O75  1  0.735258  0.179040  0.980971  1
  O  O76  1  0.594540  0.785685  0.017790  1
  O  O77  1  0.405460  0.214315  0.517790  1
  O  O78  1  0.594540  0.714315  0.517790  1
  O  O79  1  0.405460  0.285685  0.017790  1
