# generated using pymatgen
data_MnCoO4
_symmetry_space_group_name_H-M   'P 1'
_cell_length_a   2.89859467
_cell_length_b   9.91470172
_cell_length_c   4.97795244
_cell_angle_alpha   90.00000000
_cell_angle_beta   90.04608546
_cell_angle_gamma   90.00000000
_symmetry_Int_Tables_number   1
_chemical_formula_structural   MnCoO4
_chemical_formula_sum   'Mn2 Co2 O8'
_cell_volume   143.05984307
_cell_formula_units_Z   2
loop_
 _symmetry_equiv_pos_site_id
 _symmetry_equiv_pos_as_xyz
  1  'x, y, z'
loop_
 _atom_site_type_symbol
 _atom_site_label
 _atom_site_symmetry_multiplicity
 _atom_site_fract_x
 _atom_site_fract_y
 _atom_site_fract_z
 _atom_site_occupancy
  Mn  Mn0  1  0.624986  0.999961  0.874979  1
  Mn  Mn1  1  0.375014  0.499961  0.125021  1
  Co  Co2  1  0.875020  0.500028  0.624928  1
  Co  Co3  1  0.124980  0.000028  0.375072  1
  O  O4  1  0.625145  0.095100  0.535554  1
  O  O5  1  0.124869  0.903797  0.703116  1
  O  O6  1  0.375187  0.404816  0.785470  1
  O  O7  1  0.374855  0.595100  0.464446  1
  O  O8  1  0.875131  0.403797  0.296884  1
  O  O9  1  0.125116  0.096298  0.046760  1
  O  O10  1  0.624813  0.904816  0.214530  1
  O  O11  1  0.874884  0.596298  0.953240  1
