# generated using pymatgen
data_Li5FeHO4
_symmetry_space_group_name_H-M   'P 1'
_cell_length_a   8.95424878
_cell_length_b   9.13780895
_cell_length_c   10.81370893
_cell_angle_alpha   90.00000000
_cell_angle_beta   90.00000000
_cell_angle_gamma   90.00000000
_symmetry_Int_Tables_number   1
_chemical_formula_structural   Li5FeHO4
_chemical_formula_sum   'Li40 Fe8 H8 O32'
_cell_volume   884.80161315
_cell_formula_units_Z   8
loop_
 _symmetry_equiv_pos_site_id
 _symmetry_equiv_pos_as_xyz
  1  'x, y, z'
loop_
 _atom_site_type_symbol
 _atom_site_label
 _atom_site_symmetry_multiplicity
 _atom_site_fract_x
 _atom_site_fract_y
 _atom_site_fract_z
 _atom_site_occupancy
  Li  Li0  1  0.981592  0.584729  0.201966  1
  Li  Li1  1  0.981592  0.915271  0.201966  1
  Li  Li2  1  0.074057  0.065922  0.428855  1
  Li  Li3  1  0.074057  0.434078  0.428855  1
  Li  Li4  1  0.078432  0.750000  0.431612  1
  Li  Li5  1  0.118099  0.250000  0.976921  1
  Li  Li6  1  0.107963  0.569126  0.986585  1
  Li  Li7  1  0.107963  0.930874  0.986585  1
  Li  Li8  1  0.205018  0.588075  0.619937  1
  Li  Li9  1  0.205018  0.911925  0.619937  1
  Li  Li10  1  0.294982  0.088075  0.119937  1
  Li  Li11  1  0.294982  0.411925  0.119937  1
  Li  Li12  1  0.392037  0.069126  0.486585  1
  Li  Li13  1  0.392037  0.430874  0.486585  1
  Li  Li14  1  0.381901  0.750000  0.476921  1
  Li  Li15  1  0.421568  0.250000  0.931612  1
  Li  Li16  1  0.425943  0.565922  0.928855  1
  Li  Li17  1  0.425943  0.934078  0.928855  1
  Li  Li18  1  0.518408  0.084729  0.701966  1
  Li  Li19  1  0.518408  0.415271  0.701966  1
  Li  Li20  1  0.481592  0.584729  0.298034  1
  Li  Li21  1  0.481592  0.915271  0.298034  1
  Li  Li22  1  0.574057  0.065922  0.071145  1
  Li  Li23  1  0.574057  0.434078  0.071145  1
  Li  Li24  1  0.578432  0.750000  0.068388  1
  Li  Li25  1  0.618099  0.250000  0.523079  1
  Li  Li26  1  0.607963  0.569126  0.513415  1
  Li  Li27  1  0.607963  0.930874  0.513415  1
  Li  Li28  1  0.705018  0.588075  0.880063  1
  Li  Li29  1  0.705018  0.911925  0.880063  1
  Li  Li30  1  0.794982  0.088075  0.380063  1
  Li  Li31  1  0.794982  0.411925  0.380063  1
  Li  Li32  1  0.892037  0.069126  0.013415  1
  Li  Li33  1  0.892037  0.430874  0.013415  1
  Li  Li34  1  0.881901  0.750000  0.023079  1
  Li  Li35  1  0.921568  0.250000  0.568388  1
  Li  Li36  1  0.925943  0.934078  0.571145  1
  Li  Li37  1  0.925943  0.565922  0.571145  1
  Li  Li38  1  0.018408  0.084729  0.798034  1
  Li  Li39  1  0.018408  0.415271  0.798034  1
  Fe  Fe40  1  0.022621  0.250000  0.218181  1
  Fe  Fe41  1  0.210854  0.250000  0.624473  1
  Fe  Fe42  1  0.289146  0.750000  0.124473  1
  Fe  Fe43  1  0.477379  0.750000  0.718181  1
  Fe  Fe44  1  0.522621  0.250000  0.281819  1
  Fe  Fe45  1  0.710854  0.250000  0.875527  1
  Fe  Fe46  1  0.789146  0.750000  0.375527  1
  Fe  Fe47  1  0.977379  0.750000  0.781819  1
  H  H48  1  0.225369  0.582860  0.315270  1
  H  H49  1  0.225369  0.917140  0.315270  1
  H  H50  1  0.274631  0.082860  0.815270  1
  H  H51  1  0.274631  0.417140  0.815270  1
  H  H52  1  0.725369  0.582860  0.184730  1
  H  H53  1  0.725369  0.917140  0.184730  1
  H  H54  1  0.774631  0.082860  0.684730  1
  H  H55  1  0.774631  0.417140  0.684730  1
  O  O56  1  0.054574  0.750000  0.616053  1
  O  O57  1  0.074378  0.417247  0.120567  1
  O  O58  1  0.074378  0.082753  0.120567  1
  O  O59  1  0.078920  0.415578  0.618972  1
  O  O60  1  0.078920  0.084422  0.618972  1
  O  O61  1  0.077385  0.750000  0.107378  1
  O  O62  1  0.243820  0.074452  0.902501  1
  O  O63  1  0.243820  0.425548  0.902501  1
  O  O64  1  0.256180  0.574452  0.402501  1
  O  O65  1  0.256180  0.925548  0.402501  1
  O  O66  1  0.422615  0.250000  0.607378  1
  O  O67  1  0.421080  0.584422  0.118972  1
  O  O68  1  0.421080  0.915578  0.118972  1
  O  O69  1  0.425622  0.582753  0.620567  1
  O  O70  1  0.425622  0.917247  0.620567  1
  O  O71  1  0.445426  0.250000  0.116053  1
  O  O72  1  0.554574  0.750000  0.883947  1
  O  O73  1  0.574378  0.082753  0.379433  1
  O  O74  1  0.574378  0.417247  0.379433  1
  O  O75  1  0.578920  0.084422  0.881028  1
  O  O76  1  0.578920  0.415578  0.881028  1
  O  O77  1  0.577385  0.750000  0.392622  1
  O  O78  1  0.743820  0.074452  0.597499  1
  O  O79  1  0.743820  0.425548  0.597499  1
  O  O80  1  0.756180  0.574452  0.097499  1
  O  O81  1  0.756180  0.925548  0.097499  1
  O  O82  1  0.922615  0.250000  0.892622  1
  O  O83  1  0.921080  0.915578  0.381028  1
  O  O84  1  0.921080  0.584422  0.381028  1
  O  O85  1  0.925622  0.917247  0.879433  1
  O  O86  1  0.925622  0.582753  0.879433  1
  O  O87  1  0.945426  0.250000  0.383947  1
