# generated using pymatgen
data_Li4V3CrO8
_symmetry_space_group_name_H-M   'P 1'
_cell_length_a   5.18574872
_cell_length_b   7.91083116
_cell_length_c   7.92026924
_cell_angle_alpha   81.72194374
_cell_angle_beta   83.76866269
_cell_angle_gamma   70.94230579
_symmetry_Int_Tables_number   1
_chemical_formula_structural   Li4V3CrO8
_chemical_formula_sum   'Li8 V6 Cr2 O16'
_cell_volume   303.25106513
_cell_formula_units_Z   2
loop_
 _symmetry_equiv_pos_site_id
 _symmetry_equiv_pos_as_xyz
  1  'x, y, z'
loop_
 _atom_site_type_symbol
 _atom_site_label
 _atom_site_symmetry_multiplicity
 _atom_site_fract_x
 _atom_site_fract_y
 _atom_site_fract_z
 _atom_site_occupancy
  Li  Li0  1  0.999245  0.751149  0.748017  1
  Li  Li1  1  0.000000  0.500000  0.500000  1
  Li  Li2  1  0.000156  0.624229  0.124299  1
  Li  Li3  1  0.001593  0.123731  0.623140  1
  Li  Li4  1  0.000755  0.248851  0.251983  1
  Li  Li5  1  0.999844  0.375771  0.875701  1
  Li  Li6  1  0.998407  0.876269  0.376860  1
  Li  Li7  1  0.000000  0.000000  0.000000  1
  V  V8  1  0.499292  0.437643  0.688020  1
  V  V9  1  0.500708  0.562357  0.311980  1
  V  V10  1  0.500298  0.687793  0.937031  1
  V  V11  1  0.499702  0.312207  0.062969  1
  V  V12  1  0.498799  0.937274  0.187660  1
  V  V13  1  0.501201  0.062726  0.812340  1
  Cr  Cr14  1  0.499738  0.186424  0.437997  1
  Cr  Cr15  1  0.500262  0.813576  0.562003  1
  O  O16  1  0.726317  0.601997  0.719049  1
  O  O17  1  0.274287  0.652785  0.531076  1
  O  O18  1  0.725189  0.724264  0.345050  1
  O  O19  1  0.274811  0.275736  0.654950  1
  O  O20  1  0.725713  0.347215  0.468924  1
  O  O21  1  0.730188  0.470841  0.095282  1
  O  O22  1  0.273683  0.398003  0.280951  1
  O  O23  1  0.725772  0.973519  0.591994  1
  O  O24  1  0.727369  0.098391  0.222334  1
  O  O25  1  0.269812  0.529159  0.904718  1
  O  O26  1  0.274228  0.026481  0.408006  1
  O  O27  1  0.728890  0.222598  0.844990  1
  O  O28  1  0.268504  0.152335  0.033802  1
  O  O29  1  0.731496  0.847665  0.966198  1
  O  O30  1  0.271110  0.777402  0.155010  1
  O  O31  1  0.272631  0.901609  0.777666  1
