# generated using pymatgen
data_SrMoAsH3O8
_symmetry_space_group_name_H-M   'P 1'
_cell_length_a   9.39048286
_cell_length_b   9.39048286
_cell_length_c   9.91700664
_cell_angle_alpha   64.78643609
_cell_angle_beta   115.21356391
_cell_angle_gamma   112.70490629
_symmetry_Int_Tables_number   1
_chemical_formula_structural   SrMoAsH3O8
_chemical_formula_sum   'Sr4 Mo4 As4 H12 O32'
_cell_volume   693.09555855
_cell_formula_units_Z   4
loop_
 _symmetry_equiv_pos_site_id
 _symmetry_equiv_pos_as_xyz
  1  'x, y, z'
loop_
 _atom_site_type_symbol
 _atom_site_label
 _atom_site_symmetry_multiplicity
 _atom_site_fract_x
 _atom_site_fract_y
 _atom_site_fract_z
 _atom_site_occupancy
  Sr  Sr0  1  0.819575  0.639791  0.625260  1
  Sr  Sr1  1  0.639791  0.819575  0.874740  1
  Sr  Sr2  1  0.180425  0.360209  0.374740  1
  Sr  Sr3  1  0.360209  0.180425  0.125260  1
  Mo  Mo4  1  0.755932  0.060095  0.228050  1
  Mo  Mo5  1  0.060095  0.755932  0.271950  1
  Mo  Mo6  1  0.244068  0.939905  0.771950  1
  Mo  Mo7  1  0.939905  0.244068  0.728050  1
  As  As8  1  0.605584  0.229521  0.822820  1
  As  As9  1  0.229521  0.605584  0.677180  1
  As  As10  1  0.394416  0.770479  0.177180  1
  As  As11  1  0.770479  0.394416  0.322820  1
  H  H12  1  0.400582  0.368040  0.678983  1
  H  H13  1  0.368040  0.400582  0.821017  1
  H  H14  1  0.599418  0.631960  0.321017  1
  H  H15  1  0.631960  0.599418  0.178983  1
  H  H16  1  0.478478  0.749508  0.535747  1
  H  H17  1  0.749508  0.478478  0.964253  1
  H  H18  1  0.521522  0.250492  0.464253  1
  H  H19  1  0.250492  0.521522  0.035747  1
  H  H20  1  0.638639  0.888247  0.527478  1
  H  H21  1  0.888247  0.638639  0.972522  1
  H  H22  1  0.361361  0.111753  0.472522  1
  H  H23  1  0.111753  0.361361  0.027478  1
  O  O24  1  0.612571  0.243669  0.991619  1
  O  O25  1  0.243669  0.612571  0.508381  1
  O  O26  1  0.387429  0.756331  0.008381  1
  O  O27  1  0.756331  0.387429  0.491619  1
  O  O28  1  0.508486  0.051703  0.780113  1
  O  O29  1  0.051703  0.508486  0.719887  1
  O  O30  1  0.491514  0.948297  0.219887  1
  O  O31  1  0.948297  0.491514  0.280113  1
  O  O32  1  0.790569  0.320726  0.792398  1
  O  O33  1  0.320726  0.790569  0.707602  1
  O  O34  1  0.209431  0.679274  0.207602  1
  O  O35  1  0.679274  0.209431  0.292398  1
  O  O36  1  0.499348  0.378303  0.662349  1
  O  O37  1  0.378303  0.499348  0.837651  1
  O  O38  1  0.500652  0.621697  0.337651  1
  O  O39  1  0.621697  0.500652  0.162349  1
  O  O40  1  0.720272  0.946100  0.107374  1
  O  O41  1  0.946100  0.720272  0.392626  1
  O  O42  1  0.279728  0.053900  0.892626  1
  O  O43  1  0.053900  0.279728  0.607374  1
  O  O44  1  0.939709  0.208233  0.213495  1
  O  O45  1  0.208233  0.939709  0.286505  1
  O  O46  1  0.060291  0.791767  0.786505  1
  O  O47  1  0.791767  0.060291  0.713495  1
  O  O48  1  0.807784  0.925981  0.421234  1
  O  O49  1  0.925981  0.807784  0.078766  1
  O  O50  1  0.192216  0.074019  0.578766  1
  O  O51  1  0.074019  0.192216  0.921234  1
  O  O52  1  0.591935  0.785989  0.597414  1
  O  O53  1  0.785989  0.591935  0.902586  1
  O  O54  1  0.408065  0.214011  0.402586  1
  O  O55  1  0.214011  0.408065  0.097414  1
