# generated using pymatgen
data_Li2V(Si2O5)3
_symmetry_space_group_name_H-M   'P 1'
_cell_length_a   7.24411522
_cell_length_b   7.24411522
_cell_length_c   14.93444512
_cell_angle_alpha   78.28704153
_cell_angle_beta   101.71295847
_cell_angle_gamma   120.47364607
_symmetry_Int_Tables_number   1
_chemical_formula_structural   Li2V(Si2O5)3
_chemical_formula_sum   'Li4 V2 Si12 O30'
_cell_volume   656.72716824
_cell_formula_units_Z   2
loop_
 _symmetry_equiv_pos_site_id
 _symmetry_equiv_pos_as_xyz
  1  'x, y, z'
loop_
 _atom_site_type_symbol
 _atom_site_label
 _atom_site_symmetry_multiplicity
 _atom_site_fract_x
 _atom_site_fract_y
 _atom_site_fract_z
 _atom_site_occupancy
  Li  Li0  1  0.509205  0.151534  0.949607  1
  Li  Li1  1  0.052537  0.618113  0.836697  1
  Li  Li2  1  0.848466  0.490795  0.449607  1
  Li  Li3  1  0.381887  0.947463  0.336697  1
  V  V4  1  0.793241  0.701299  0.902957  1
  V  V5  1  0.298701  0.206759  0.402957  1
  Si  Si6  1  0.544327  0.361883  0.745379  1
  Si  Si7  1  0.019324  0.916162  0.568303  1
  Si  Si8  1  0.638117  0.455673  0.245379  1
  Si  Si9  1  0.083838  0.980676  0.068303  1
  Si  Si10  1  0.351002  0.821341  0.551317  1
  Si  Si11  1  0.627588  0.990806  0.747457  1
  Si  Si12  1  0.178659  0.648998  0.051317  1
  Si  Si13  1  0.009194  0.372412  0.247457  1
  Si  Si14  1  0.077869  0.093855  0.755021  1
  Si  Si15  1  0.554298  0.562873  0.539629  1
  Si  Si16  1  0.906145  0.922131  0.255021  1
  Si  Si17  1  0.437127  0.445702  0.039629  1
  O  O18  1  0.550381  0.438836  0.958452  1
  O  O19  1  0.057904  0.935225  0.849806  1
  O  O20  1  0.069513  0.964137  0.674612  1
  O  O21  1  0.749344  0.534570  0.804374  1
  O  O22  1  0.578500  0.422560  0.637134  1
  O  O23  1  0.561164  0.449619  0.458452  1
  O  O24  1  0.996220  0.574385  0.963962  1
  O  O25  1  0.064775  0.942096  0.349806  1
  O  O26  1  0.535678  0.126161  0.783896  1
  O  O27  1  0.035863  0.930487  0.174612  1
  O  O28  1  0.465430  0.250656  0.304374  1
  O  O29  1  0.091977  0.736218  0.559561  1
  O  O30  1  0.577440  0.421500  0.137134  1
  O  O31  1  0.425615  0.003780  0.463962  1
  O  O32  1  0.487893  0.899447  0.650840  1
  O  O33  1  0.873839  0.464322  0.283896  1
  O  O34  1  0.607841  0.801611  0.830247  1
  O  O35  1  0.882255  0.156895  0.730034  1
  O  O36  1  0.263782  0.908023  0.059561  1
  O  O37  1  0.348321  0.603267  0.533237  1
  O  O38  1  0.100553  0.512107  0.150840  1
  O  O39  1  0.307041  0.322435  0.759318  1
  O  O40  1  0.198389  0.392159  0.330247  1
  O  O41  1  0.843105  0.117745  0.230034  1
  O  O42  1  0.762195  0.808283  0.536054  1
  O  O43  1  0.155283  0.138922  0.505014  1
  O  O44  1  0.396733  0.651679  0.033237  1
  O  O45  1  0.677565  0.692959  0.259318  1
  O  O46  1  0.191717  0.237805  0.036054  1
  O  O47  1  0.861078  0.844717  0.005014  1
