# generated using pymatgen
data_Li4Ti3Ni3(SbO8)2
_symmetry_space_group_name_H-M   'P 1'
_cell_length_a   5.98651898
_cell_length_b   5.98651898
_cell_length_c   9.70472971
_cell_angle_alpha   89.48284534
_cell_angle_beta   90.51715466
_cell_angle_gamma   120.23893496
_symmetry_Int_Tables_number   1
_chemical_formula_structural   Li4Ti3Ni3(SbO8)2
_chemical_formula_sum   'Li4 Ti3 Ni3 Sb2 O16'
_cell_volume   300.46133456
_cell_formula_units_Z   1
loop_
 _symmetry_equiv_pos_site_id
 _symmetry_equiv_pos_as_xyz
  1  'x, y, z'
loop_
 _atom_site_type_symbol
 _atom_site_label
 _atom_site_symmetry_multiplicity
 _atom_site_fract_x
 _atom_site_fract_y
 _atom_site_fract_z
 _atom_site_occupancy
  Li  Li0  1  0.663384  0.336616  0.895028  1
  Li  Li1  1  0.992205  0.007795  0.981837  1
  Li  Li2  1  0.999298  0.000702  0.495493  1
  Li  Li3  1  0.332273  0.667727  0.407023  1
  Ti  Ti4  1  0.340644  0.165329  0.214029  1
  Ti  Ti5  1  0.834671  0.659356  0.214029  1
  Ti  Ti6  1  0.173276  0.826724  0.717436  1
  Ni  Ni7  1  0.828110  0.171890  0.211475  1
  Ni  Ni8  1  0.170633  0.342491  0.711502  1
  Ni  Ni9  1  0.657509  0.829367  0.711502  1
  Sb  Sb10  1  0.671860  0.328140  0.494009  1
  Sb  Sb11  1  0.342071  0.657929  0.982339  1
  O  O12  1  0.339723  0.161710  0.595069  1
  O  O13  1  0.520493  0.479507  0.339433  1
  O  O14  1  0.652860  0.347140  0.105291  1
  O  O15  1  0.005536  0.994464  0.303112  1
  O  O16  1  0.008375  0.991625  0.797884  1
  O  O17  1  0.838290  0.660277  0.595069  1
  O  O18  1  0.507232  0.041820  0.342505  1
  O  O19  1  0.958180  0.492768  0.342505  1
  O  O20  1  0.172183  0.827817  0.105550  1
  O  O21  1  0.837716  0.162284  0.588050  1
  O  O22  1  0.034442  0.528080  0.853200  1
  O  O23  1  0.471920  0.965558  0.853200  1
  O  O24  1  0.319171  0.680829  0.603754  1
  O  O25  1  0.174605  0.330679  0.099467  1
  O  O26  1  0.483671  0.516329  0.848612  1
  O  O27  1  0.669321  0.825395  0.099467  1
