# generated using pymatgen
data_LiCr2(PO5)2
_symmetry_space_group_name_H-M   'P 1'
_cell_length_a   6.73254702
_cell_length_b   6.97414839
_cell_length_c   8.03872066
_cell_angle_alpha   89.96172501
_cell_angle_beta   90.67258056
_cell_angle_gamma   116.05798906
_symmetry_Int_Tables_number   1
_chemical_formula_structural   LiCr2(PO5)2
_chemical_formula_sum   'Li2 Cr4 P4 O20'
_cell_volume   339.05308503
_cell_formula_units_Z   2
loop_
 _symmetry_equiv_pos_site_id
 _symmetry_equiv_pos_as_xyz
  1  'x, y, z'
loop_
 _atom_site_type_symbol
 _atom_site_label
 _atom_site_symmetry_multiplicity
 _atom_site_fract_x
 _atom_site_fract_y
 _atom_site_fract_z
 _atom_site_occupancy
  Li  Li0  1  0.221655  0.280351  0.072366  1
  Li  Li1  1  0.689852  0.184329  0.568586  1
  Cr  Cr2  1  0.242507  0.002926  0.754759  1
  Cr  Cr3  1  0.247487  0.502241  0.739653  1
  Cr  Cr4  1  0.760199  0.502607  0.248913  1
  Cr  Cr5  1  0.751931  0.000825  0.243317  1
  P  P6  1  0.240165  0.756022  0.083921  1
  P  P7  1  0.263231  0.242932  0.415350  1
  P  P8  1  0.739754  0.754626  0.583134  1
  P  P9  1  0.760263  0.247376  0.914057  1
  O  O10  1  0.146032  0.881321  0.976791  1
  O  O11  1  0.072377  0.633876  0.223036  1
  O  O12  1  0.235058  0.741405  0.696497  1
  O  O13  1  0.281039  0.585162  0.985762  1
  O  O14  1  0.191820  0.389161  0.518222  1
  O  O15  1  0.065542  0.090300  0.307670  1
  O  O16  1  0.451692  0.917131  0.171774  1
  O  O17  1  0.260260  0.258447  0.826627  1
  O  O18  1  0.657087  0.890848  0.475681  1
  O  O19  1  0.434673  0.371630  0.280660  1
  O  O20  1  0.562647  0.623998  0.712374  1
  O  O21  1  0.359211  0.127267  0.531626  1
  O  O22  1  0.739454  0.752191  0.193809  1
  O  O23  1  0.554485  0.085785  0.817980  1
  O  O24  1  0.942740  0.912018  0.682740  1
  O  O25  1  0.798376  0.597980  0.483337  1
  O  O26  1  0.704939  0.402892  0.017734  1
  O  O27  1  0.762959  0.248560  0.323738  1
  O  O28  1  0.921984  0.358883  0.769997  1
  O  O29  1  0.865397  0.135528  0.028824  1
