# generated using pymatgen
data_LiMo2P3O13
_symmetry_space_group_name_H-M   'P 1'
_cell_length_a   6.48859181
_cell_length_b   18.77440470
_cell_length_c   9.64801370
_cell_angle_alpha   90.00000000
_cell_angle_beta   107.44675242
_cell_angle_gamma   90.00000000
_symmetry_Int_Tables_number   1
_chemical_formula_structural   LiMo2P3O13
_chemical_formula_sum   'Li4 Mo8 P12 O52'
_cell_volume   1121.24648252
_cell_formula_units_Z   4
loop_
 _symmetry_equiv_pos_site_id
 _symmetry_equiv_pos_as_xyz
  1  'x, y, z'
loop_
 _atom_site_type_symbol
 _atom_site_label
 _atom_site_symmetry_multiplicity
 _atom_site_fract_x
 _atom_site_fract_y
 _atom_site_fract_z
 _atom_site_occupancy
  Li  Li0  1  0.237960  0.844458  0.031910  1
  Li  Li1  1  0.815070  0.560911  0.381954  1
  Li  Li2  1  0.184930  0.060911  0.618046  1
  Li  Li3  1  0.762040  0.344458  0.968090  1
  Mo  Mo4  1  0.868823  0.003169  0.924920  1
  Mo  Mo5  1  0.370521  0.179668  0.939246  1
  Mo  Mo6  1  0.439145  0.469069  0.619369  1
  Mo  Mo7  1  0.629479  0.679668  0.060754  1
  Mo  Mo8  1  0.131177  0.503169  0.075080  1
  Mo  Mo9  1  0.066640  0.211466  0.394376  1
  Mo  Mo10  1  0.560855  0.969069  0.380631  1
  Mo  Mo11  1  0.933360  0.711466  0.605624  1
  P  P12  1  0.476846  0.746675  0.693796  1
  P  P13  1  0.255258  0.372769  0.308524  1
  P  P14  1  0.753490  0.808172  0.298205  1
  P  P15  1  0.908217  0.170445  0.031024  1
  P  P16  1  0.977822  0.434895  0.700939  1
  P  P17  1  0.408136  0.010543  0.022818  1
  P  P18  1  0.591864  0.510543  0.977182  1
  P  P19  1  0.246510  0.308172  0.701795  1
  P  P20  1  0.523154  0.246675  0.306204  1
  P  P21  1  0.091783  0.670445  0.968976  1
  P  P22  1  0.744742  0.872769  0.691476  1
  P  P23  1  0.022178  0.934895  0.299061  1
  O  O24  1  0.853074  0.897412  0.849800  1
  O  O25  1  0.175006  0.242550  0.607273  1
  O  O26  1  0.436547  0.490417  0.064617  1
  O  O27  1  0.760687  0.238560  0.395233  1
  O  O28  1  0.400181  0.356644  0.655330  1
  O  O29  1  0.317530  0.695606  0.064545  1
  O  O30  1  0.379437  0.208401  0.382103  1
  O  O31  1  0.446907  0.559116  0.596721  1
  O  O32  1  0.704480  0.625422  0.213713  1
  O  O33  1  0.682470  0.195606  0.935455  1
  O  O34  1  0.599819  0.856644  0.344670  1
  O  O35  1  0.651096  0.784089  0.138998  1
  O  O36  1  0.119590  0.474135  0.624011  1
  O  O37  1  0.549488  0.460966  0.843124  1
  O  O38  1  0.563453  0.990417  0.935383  1
  O  O39  1  0.620563  0.708401  0.617897  1
  O  O40  1  0.475284  0.331494  0.311830  1
  O  O41  1  0.983790  0.950499  0.138680  1
  O  O42  1  0.198210  0.554579  0.228361  1
  O  O43  1  0.016210  0.450499  0.861320  1
  O  O44  1  0.239313  0.738560  0.604767  1
  O  O45  1  0.348904  0.284089  0.861002  1
  O  O46  1  0.880410  0.974135  0.375989  1
  O  O47  1  0.524716  0.831494  0.688170  1
  O  O48  1  0.522896  0.728957  0.854411  1
  O  O49  1  0.450512  0.960966  0.156876  1
  O  O50  1  0.672576  0.938336  0.595514  1
  O  O51  1  0.935259  0.695874  0.051793  1
  O  O52  1  0.974571  0.850257  0.306843  1
  O  O53  1  0.575324  0.589342  0.929424  1
  O  O54  1  0.920917  0.089948  0.062293  1
  O  O55  1  0.106277  0.322866  0.357405  1
  O  O56  1  0.893723  0.822866  0.642595  1
  O  O57  1  0.477104  0.228957  0.145589  1
  O  O58  1  0.956539  0.211162  0.175847  1
  O  O59  1  0.182217  0.990240  0.920274  1
  O  O60  1  0.064741  0.195874  0.948207  1
  O  O61  1  0.327424  0.438336  0.404486  1
  O  O62  1  0.257507  0.944480  0.393606  1
  O  O63  1  0.553093  0.059116  0.403279  1
  O  O64  1  0.801790  0.054579  0.771639  1
  O  O65  1  0.077916  0.122974  0.447967  1
  O  O66  1  0.424676  0.089342  0.070576  1
  O  O67  1  0.043461  0.711162  0.824153  1
  O  O68  1  0.025429  0.350257  0.693157  1
  O  O69  1  0.079083  0.589948  0.937707  1
  O  O70  1  0.824994  0.742550  0.392727  1
  O  O71  1  0.146926  0.397412  0.150200  1
  O  O72  1  0.817783  0.490240  0.079726  1
  O  O73  1  0.295520  0.125422  0.786287  1
  O  O74  1  0.922084  0.622974  0.552033  1
  O  O75  1  0.742493  0.444480  0.606394  1
