# generated using pymatgen
data_ZrH14C2(N4F3)2
_symmetry_space_group_name_H-M   'P 1'
_cell_length_a   6.44958477
_cell_length_b   6.46430794
_cell_length_c   14.75295405
_cell_angle_alpha   90.00000000
_cell_angle_beta   98.54395236
_cell_angle_gamma   90.00000000
_symmetry_Int_Tables_number   1
_chemical_formula_structural   ZrH14C2(N4F3)2
_chemical_formula_sum   'Zr2 H28 C4 N16 F12'
_cell_volume   608.25560357
_cell_formula_units_Z   2
loop_
 _symmetry_equiv_pos_site_id
 _symmetry_equiv_pos_as_xyz
  1  'x, y, z'
loop_
 _atom_site_type_symbol
 _atom_site_label
 _atom_site_symmetry_multiplicity
 _atom_site_fract_x
 _atom_site_fract_y
 _atom_site_fract_z
 _atom_site_occupancy
  Zr  Zr0  1  0.000000  0.500000  0.500000  1
  Zr  Zr1  1  0.000000  0.000000  0.000000  1
  H  H2  1  0.001645  0.493600  0.729681  1
  H  H3  1  0.998355  0.993600  0.770319  1
  H  H4  1  0.998355  0.506400  0.270319  1
  H  H5  1  0.001645  0.006400  0.229681  1
  H  H6  1  0.036391  0.494958  0.849315  1
  H  H7  1  0.963609  0.994958  0.650685  1
  H  H8  1  0.963609  0.505042  0.150685  1
  H  H9  1  0.036391  0.005042  0.349315  1
  H  H10  1  0.560269  0.037385  0.785422  1
  H  H11  1  0.439731  0.537385  0.714578  1
  H  H12  1  0.439731  0.962615  0.214578  1
  H  H13  1  0.560269  0.462615  0.285422  1
  H  H14  1  0.348334  0.042683  0.848455  1
  H  H15  1  0.651666  0.542683  0.651545  1
  H  H16  1  0.651666  0.957317  0.151545  1
  H  H17  1  0.348334  0.457317  0.348455  1
  H  H18  1  0.239104  0.976077  0.570253  1
  H  H19  1  0.760896  0.476077  0.929747  1
  H  H20  1  0.760896  0.023923  0.429747  1
  H  H21  1  0.239104  0.523923  0.070253  1
  H  H22  1  0.592283  0.140410  0.589072  1
  H  H23  1  0.407717  0.640410  0.910928  1
  H  H24  1  0.407717  0.859590  0.410928  1
  H  H25  1  0.592283  0.359590  0.089072  1
  H  H26  1  0.596587  0.882856  0.593172  1
  H  H27  1  0.403413  0.382856  0.906828  1
  H  H28  1  0.403413  0.117144  0.406828  1
  H  H29  1  0.596587  0.617144  0.093172  1
  C  C30  1  0.730834  0.511048  0.790142  1
  C  C31  1  0.269166  0.011048  0.709858  1
  C  C32  1  0.269166  0.488952  0.209858  1
  C  C33  1  0.730834  0.988952  0.290142  1
  N  N34  1  0.936944  0.493088  0.789239  1
  N  N35  1  0.063056  0.993088  0.710761  1
  N  N36  1  0.063056  0.506912  0.210761  1
  N  N37  1  0.936944  0.006912  0.289239  1
  N  N38  1  0.402943  0.025929  0.787527  1
  N  N39  1  0.597057  0.525929  0.712473  1
  N  N40  1  0.597057  0.974071  0.212473  1
  N  N41  1  0.402943  0.474071  0.287527  1
  N  N42  1  0.339722  0.013132  0.628386  1
  N  N43  1  0.660278  0.513132  0.871614  1
  N  N44  1  0.660278  0.986868  0.371614  1
  N  N45  1  0.339722  0.486868  0.128386  1
  N  N46  1  0.556141  0.014505  0.625504  1
  N  N47  1  0.443859  0.514505  0.874496  1
  N  N48  1  0.443859  0.985495  0.374496  1
  N  N49  1  0.556141  0.485495  0.125504  1
  F  F50  1  0.145294  0.505164  0.632874  1
  F  F51  1  0.854706  0.005164  0.867126  1
  F  F52  1  0.854706  0.494836  0.367126  1
  F  F53  1  0.145294  0.994836  0.132874  1
  F  F54  1  0.878840  0.212106  0.521607  1
  F  F55  1  0.121160  0.712106  0.978393  1
  F  F56  1  0.121160  0.787894  0.478393  1
  F  F57  1  0.878840  0.287894  0.021607  1
  F  F58  1  0.250987  0.136045  0.952986  1
  F  F59  1  0.749013  0.636045  0.547014  1
  F  F60  1  0.749013  0.863955  0.047014  1
  F  F61  1  0.250987  0.363955  0.452986  1
