# generated using pymatgen
data_NaFe(PO3)3
_symmetry_space_group_name_H-M   'P 1'
_cell_length_a   8.69311130
_cell_length_b   8.77609427
_cell_length_c   9.03868301
_cell_angle_alpha   90.00000000
_cell_angle_beta   90.00000000
_cell_angle_gamma   90.00000000
_symmetry_Int_Tables_number   1
_chemical_formula_structural   NaFe(PO3)3
_chemical_formula_sum   'Na4 Fe4 P12 O36'
_cell_volume   689.57526576
_cell_formula_units_Z   4
loop_
 _symmetry_equiv_pos_site_id
 _symmetry_equiv_pos_as_xyz
  1  'x, y, z'
loop_
 _atom_site_type_symbol
 _atom_site_label
 _atom_site_symmetry_multiplicity
 _atom_site_fract_x
 _atom_site_fract_y
 _atom_site_fract_z
 _atom_site_occupancy
  Na  Na0  1  0.881836  0.597520  0.357058  1
  Na  Na1  1  0.618164  0.402480  0.857058  1
  Na  Na2  1  0.118164  0.097520  0.142942  1
  Na  Na3  1  0.381836  0.902480  0.642942  1
  Fe  Fe4  1  0.607092  0.622549  0.590770  1
  Fe  Fe5  1  0.892908  0.377451  0.090770  1
  Fe  Fe6  1  0.392908  0.122549  0.909230  1
  Fe  Fe7  1  0.107092  0.877451  0.409230  1
  P  P8  1  0.074018  0.718173  0.062247  1
  P  P9  1  0.230006  0.556460  0.558756  1
  P  P10  1  0.557883  0.552313  0.189882  1
  P  P11  1  0.942117  0.447687  0.689882  1
  P  P12  1  0.269994  0.443540  0.058756  1
  P  P13  1  0.425982  0.281827  0.562247  1
  P  P14  1  0.925982  0.218173  0.437753  1
  P  P15  1  0.769994  0.056460  0.941244  1
  P  P16  1  0.442117  0.052313  0.310118  1
  P  P17  1  0.057883  0.947687  0.810118  1
  P  P18  1  0.730006  0.943540  0.441244  1
  P  P19  1  0.574018  0.781827  0.937753  1
  O  O20  1  0.530415  0.706319  0.094625  1
  O  O21  1  0.365978  0.643309  0.617853  1
  O  O22  1  0.626169  0.661663  0.831112  1
  O  O23  1  0.139873  0.630464  0.435518  1
  O  O24  1  0.943695  0.617059  0.110708  1
  O  O25  1  0.217348  0.611841  0.008669  1
  O  O26  1  0.601786  0.596317  0.344038  1
  O  O27  1  0.838213  0.555033  0.605642  1
  O  O28  1  0.114555  0.517895  0.694874  1
  O  O29  1  0.385445  0.482105  0.194874  1
  O  O30  1  0.661787  0.444967  0.105642  1
  O  O31  1  0.898214  0.403683  0.844038  1
  O  O32  1  0.282652  0.388159  0.508669  1
  O  O33  1  0.556305  0.382941  0.610708  1
  O  O34  1  0.360127  0.369536  0.935518  1
  O  O35  1  0.873831  0.338337  0.331112  1
  O  O36  1  0.134022  0.356691  0.117853  1
  O  O37  1  0.969585  0.293681  0.594625  1
  O  O38  1  0.469585  0.206319  0.405375  1
  O  O39  1  0.634022  0.143309  0.882147  1
  O  O40  1  0.373831  0.161663  0.668888  1
  O  O41  1  0.860127  0.130464  0.064482  1
  O  O42  1  0.056305  0.117059  0.389292  1
  O  O43  1  0.782652  0.111841  0.491331  1
  O  O44  1  0.398214  0.096317  0.155962  1
  O  O45  1  0.161787  0.055033  0.894358  1
  O  O46  1  0.885445  0.017895  0.805126  1
  O  O47  1  0.614555  0.982105  0.305126  1
  O  O48  1  0.338213  0.944967  0.394358  1
  O  O49  1  0.101786  0.903683  0.655962  1
  O  O50  1  0.717348  0.888159  0.991331  1
  O  O51  1  0.443695  0.882941  0.889292  1
  O  O52  1  0.639873  0.869536  0.564482  1
  O  O53  1  0.126169  0.838337  0.168888  1
  O  O54  1  0.865978  0.856691  0.382147  1
  O  O55  1  0.030415  0.793681  0.905375  1
