# generated using pymatgen
data_Li5Co2Cu5O12
_symmetry_space_group_name_H-M   'P 1'
_cell_length_a   4.99617279
_cell_length_b   4.99617279
_cell_length_c   9.52181751
_cell_angle_alpha   88.24514748
_cell_angle_beta   91.75485252
_cell_angle_gamma   64.67015616
_symmetry_Int_Tables_number   1
_chemical_formula_structural   Li5Co2Cu5O12
_chemical_formula_sum   'Li5 Co2 Cu5 O12'
_cell_volume   214.47805773
_cell_formula_units_Z   1
loop_
 _symmetry_equiv_pos_site_id
 _symmetry_equiv_pos_as_xyz
  1  'x, y, z'
loop_
 _atom_site_type_symbol
 _atom_site_label
 _atom_site_symmetry_multiplicity
 _atom_site_fract_x
 _atom_site_fract_y
 _atom_site_fract_z
 _atom_site_occupancy
  Li  Li0  1  0.833309  0.340093  0.742334  1
  Li  Li1  1  0.674830  0.151821  0.254876  1
  Li  Li2  1  0.340093  0.833309  0.257666  1
  Li  Li3  1  0.151821  0.674830  0.745124  1
  Li  Li4  1  0.083488  0.083488  0.500000  1
  Co  Co5  1  0.753517  0.753517  0.500000  1
  Co  Co6  1  0.249933  0.249933  0.000000  1
  Cu  Cu7  1  0.919895  0.919895  0.000000  1
  Cu  Cu8  1  0.005411  0.489081  0.251580  1
  Cu  Cu9  1  0.489081  0.005411  0.748420  1
  Cu  Cu10  1  0.580291  0.580291  0.000000  1
  Cu  Cu11  1  0.417512  0.417512  0.500000  1
  O  O12  1  0.015954  0.785256  0.370328  1
  O  O13  1  0.785256  0.015954  0.629672  1
  O  O14  1  0.922751  0.575499  0.903670  1
  O  O15  1  0.575499  0.922751  0.096330  1
  O  O16  1  0.699492  0.482963  0.377958  1
  O  O17  1  0.482963  0.699492  0.622042  1
  O  O18  1  0.517774  0.300276  0.874341  1
  O  O19  1  0.300276  0.517774  0.125659  1
  O  O20  1  0.433185  0.080667  0.400818  1
  O  O21  1  0.080667  0.433185  0.599182  1
  O  O22  1  0.195940  0.991063  0.869822  1
  O  O23  1  0.991063  0.195940  0.130178  1
