# generated using pymatgen
data_SrLaCl5
_symmetry_space_group_name_H-M   'P 1'
_cell_length_a   7.45478529
_cell_length_b   4.27053494
_cell_length_c   13.14124968
_cell_angle_alpha   90.00000000
_cell_angle_beta   94.28332495
_cell_angle_gamma   90.00000000
_symmetry_Int_Tables_number   1
_chemical_formula_structural   SrLaCl5
_chemical_formula_sum   'Sr2 La2 Cl10'
_cell_volume   417.19526076
_cell_formula_units_Z   2
loop_
 _symmetry_equiv_pos_site_id
 _symmetry_equiv_pos_as_xyz
  1  'x, y, z'
loop_
 _atom_site_type_symbol
 _atom_site_label
 _atom_site_symmetry_multiplicity
 _atom_site_fract_x
 _atom_site_fract_y
 _atom_site_fract_z
 _atom_site_occupancy
  Sr  Sr0  1  0.457994  0.750000  0.647360  1
  Sr  Sr1  1  0.542006  0.250000  0.352640  1
  La  La2  1  0.049135  0.250000  0.839395  1
  La  La3  1  0.950865  0.750000  0.160605  1
  Cl  Cl4  1  0.045942  0.750000  0.686064  1
  Cl  Cl5  1  0.142959  0.250000  0.065657  1
  Cl  Cl6  1  0.308484  0.250000  0.523461  1
  Cl  Cl7  1  0.324299  0.750000  0.878717  1
  Cl  Cl8  1  0.316057  0.750000  0.260084  1
  Cl  Cl9  1  0.683943  0.250000  0.739916  1
  Cl  Cl10  1  0.675701  0.250000  0.121283  1
  Cl  Cl11  1  0.691516  0.750000  0.476539  1
  Cl  Cl12  1  0.857041  0.750000  0.934343  1
  Cl  Cl13  1  0.954058  0.250000  0.313936  1
