# generated using pymatgen
data_LiV2OF5
_symmetry_space_group_name_H-M   'P 1'
_cell_length_a   5.50423626
_cell_length_b   5.14371288
_cell_length_c   7.66875962
_cell_angle_alpha   90.00000000
_cell_angle_beta   95.33250766
_cell_angle_gamma   90.00000000
_symmetry_Int_Tables_number   1
_chemical_formula_structural   LiV2OF5
_chemical_formula_sum   'Li2 V4 O2 F10'
_cell_volume   216.17987496
_cell_formula_units_Z   2
loop_
 _symmetry_equiv_pos_site_id
 _symmetry_equiv_pos_as_xyz
  1  'x, y, z'
loop_
 _atom_site_type_symbol
 _atom_site_label
 _atom_site_symmetry_multiplicity
 _atom_site_fract_x
 _atom_site_fract_y
 _atom_site_fract_z
 _atom_site_occupancy
  Li  Li0  1  0.918204  0.014497  0.784746  1
  Li  Li1  1  0.918204  0.985503  0.284746  1
  V  V2  1  0.989324  0.483783  0.506569  1
  V  V3  1  0.507197  0.983064  0.001954  1
  V  V4  1  0.507197  0.016936  0.501954  1
  V  V5  1  0.989324  0.516217  0.006569  1
  O  O6  1  0.807122  0.189424  0.555644  1
  O  O7  1  0.807122  0.810576  0.055644  1
  F  F8  1  0.997877  0.351821  0.252495  1
  F  F9  1  0.305388  0.319483  0.567484  1
  F  F10  1  0.708929  0.290397  0.926809  1
  F  F11  1  0.183854  0.183135  0.936571  1
  F  F12  1  0.502078  0.117241  0.247124  1
  F  F13  1  0.502078  0.882759  0.747124  1
  F  F14  1  0.183854  0.816865  0.436571  1
  F  F15  1  0.708929  0.709603  0.426809  1
  F  F16  1  0.305388  0.680517  0.067484  1
  F  F17  1  0.997877  0.648179  0.752495  1
