# generated using pymatgen
data_LiMo(PO4)2
_symmetry_space_group_name_H-M   'P 1'
_cell_length_a   5.29862344
_cell_length_b   10.89962436
_cell_length_c   11.46979336
_cell_angle_alpha   90.00000000
_cell_angle_beta   90.00000000
_cell_angle_gamma   90.00000000
_symmetry_Int_Tables_number   1
_chemical_formula_structural   LiMo(PO4)2
_chemical_formula_sum   'Li4 Mo4 P8 O32'
_cell_volume   662.41503466
_cell_formula_units_Z   4
loop_
 _symmetry_equiv_pos_site_id
 _symmetry_equiv_pos_as_xyz
  1  'x, y, z'
loop_
 _atom_site_type_symbol
 _atom_site_label
 _atom_site_symmetry_multiplicity
 _atom_site_fract_x
 _atom_site_fract_y
 _atom_site_fract_z
 _atom_site_occupancy
  Li  Li0  1  0.745700  0.233546  0.393752  1
  Li  Li1  1  0.245700  0.266454  0.606248  1
  Li  Li2  1  0.254300  0.733546  0.106248  1
  Li  Li3  1  0.754300  0.766454  0.893752  1
  Mo  Mo4  1  0.763804  0.594699  0.646719  1
  Mo  Mo5  1  0.263804  0.905301  0.353281  1
  Mo  Mo6  1  0.236196  0.094699  0.853281  1
  Mo  Mo7  1  0.736196  0.405301  0.146719  1
  P  P8  1  0.740008  0.139670  0.668635  1
  P  P9  1  0.240848  0.409071  0.957029  1
  P  P10  1  0.240008  0.360330  0.331365  1
  P  P11  1  0.259152  0.590929  0.457029  1
  P  P12  1  0.259992  0.639670  0.831365  1
  P  P13  1  0.759152  0.909071  0.542971  1
  P  P14  1  0.740848  0.090929  0.042971  1
  P  P15  1  0.759992  0.860330  0.168635  1
  O  O16  1  0.242826  0.723456  0.419572  1
  O  O17  1  0.756158  0.546056  0.211408  1
  O  O18  1  0.250604  0.509710  0.339036  1
  O  O19  1  0.976870  0.328970  0.279914  1
  O  O20  1  0.743842  0.453944  0.711408  1
  O  O21  1  0.742826  0.776544  0.580428  1
  O  O22  1  0.023130  0.828970  0.220086  1
  O  O23  1  0.455354  0.327404  0.246384  1
  O  O24  1  0.783328  0.197898  0.552598  1
  O  O25  1  0.283328  0.302102  0.447402  1
  O  O26  1  0.523130  0.671030  0.779914  1
  O  O27  1  0.507227  0.557639  0.517368  1
  O  O28  1  0.216672  0.697898  0.947402  1
  O  O29  1  0.257174  0.276544  0.919572  1
  O  O30  1  0.749396  0.009710  0.160964  1
  O  O31  1  0.256158  0.953944  0.788592  1
  O  O32  1  0.955354  0.172596  0.753616  1
  O  O33  1  0.469291  0.453029  0.027738  1
  O  O34  1  0.492773  0.057639  0.982632  1
  O  O35  1  0.716672  0.802102  0.052598  1
  O  O36  1  0.750604  0.990290  0.660964  1
  O  O37  1  0.992773  0.442361  0.017368  1
  O  O38  1  0.007227  0.942361  0.482632  1
  O  O39  1  0.030709  0.546971  0.527738  1
  O  O40  1  0.757174  0.223456  0.080428  1
  O  O41  1  0.044646  0.672596  0.746384  1
  O  O42  1  0.249396  0.490290  0.839036  1
  O  O43  1  0.969291  0.046971  0.972262  1
  O  O44  1  0.544646  0.827404  0.253616  1
  O  O45  1  0.530709  0.953029  0.472262  1
  O  O46  1  0.243842  0.046056  0.288592  1
  O  O47  1  0.476870  0.171030  0.720086  1
