# generated using pymatgen
data_LiMn3OF5
_symmetry_space_group_name_H-M   'P 1'
_cell_length_a   8.73846949
_cell_length_b   8.73846949
_cell_length_c   10.14066750
_cell_angle_alpha   55.38958342
_cell_angle_beta   124.61041658
_cell_angle_gamma   108.76540058
_symmetry_Int_Tables_number   1
_chemical_formula_structural   LiMn3OF5
_chemical_formula_sum   'Li4 Mn12 O4 F20'
_cell_volume   524.53142466
_cell_formula_units_Z   4
loop_
 _symmetry_equiv_pos_site_id
 _symmetry_equiv_pos_as_xyz
  1  'x, y, z'
loop_
 _atom_site_type_symbol
 _atom_site_label
 _atom_site_symmetry_multiplicity
 _atom_site_fract_x
 _atom_site_fract_y
 _atom_site_fract_z
 _atom_site_occupancy
  Li  Li0  1  0.492530  0.975931  0.529421  1
  Li  Li1  1  0.020175  0.476910  0.543838  1
  Li  Li2  1  0.024069  0.507470  0.029421  1
  Li  Li3  1  0.523090  0.979825  0.043838  1
  Mn  Mn4  1  0.244773  0.742816  0.277226  1
  Mn  Mn5  1  0.951515  0.955698  0.250336  1
  Mn  Mn6  1  0.527549  0.547688  0.748609  1
  Mn  Mn7  1  0.778212  0.730857  0.520277  1
  Mn  Mn8  1  0.269143  0.221788  0.020277  1
  Mn  Mn9  1  0.257184  0.755227  0.777226  1
  Mn  Mn10  1  0.746822  0.231905  0.216641  1
  Mn  Mn11  1  0.216788  0.299208  0.453460  1
  Mn  Mn12  1  0.700792  0.783212  0.953460  1
  Mn  Mn13  1  0.044302  0.048485  0.750336  1
  Mn  Mn14  1  0.452312  0.472451  0.248609  1
  Mn  Mn15  1  0.768095  0.253178  0.716641  1
  O  O16  1  0.036286  0.261473  0.778135  1
  O  O17  1  0.738527  0.963714  0.278135  1
  O  O18  1  0.241789  0.538168  0.240207  1
  O  O19  1  0.461832  0.758211  0.740207  1
  F  F20  1  0.284270  0.952916  0.041452  1
  F  F21  1  0.262790  0.492180  0.552052  1
  F  F22  1  0.522415  0.777774  0.481553  1
  F  F23  1  0.785108  0.520899  0.022168  1
  F  F24  1  0.997493  0.784711  0.754763  1
  F  F25  1  0.215289  0.002507  0.254763  1
  F  F26  1  0.488028  0.277174  0.947983  1
  F  F27  1  0.047084  0.715730  0.541452  1
  F  F28  1  0.744637  0.470740  0.749286  1
  F  F29  1  0.529260  0.255363  0.249286  1
  F  F30  1  0.950835  0.265850  0.452929  1
  F  F31  1  0.773737  0.979588  0.731931  1
  F  F32  1  0.020412  0.226263  0.231931  1
  F  F33  1  0.507820  0.737210  0.052052  1
  F  F34  1  0.222226  0.477585  0.981553  1
  F  F35  1  0.479101  0.214892  0.522168  1
  F  F36  1  0.264101  0.047366  0.707734  1
  F  F37  1  0.952634  0.735899  0.207734  1
  F  F38  1  0.722826  0.511972  0.447983  1
  F  F39  1  0.734150  0.049165  0.952929  1
