# generated using pymatgen
data_LiMnB2O5
_symmetry_space_group_name_H-M   'P 1'
_cell_length_a   7.19837475
_cell_length_b   7.19837475
_cell_length_c   9.50672139
_cell_angle_alpha   73.51549454
_cell_angle_beta   106.48450546
_cell_angle_gamma   83.44421035
_symmetry_Int_Tables_number   1
_chemical_formula_structural   LiMnB2O5
_chemical_formula_sum   'Li4 Mn4 B8 O20'
_cell_volume   442.67290230
_cell_formula_units_Z   4
loop_
 _symmetry_equiv_pos_site_id
 _symmetry_equiv_pos_as_xyz
  1  'x, y, z'
loop_
 _atom_site_type_symbol
 _atom_site_label
 _atom_site_symmetry_multiplicity
 _atom_site_fract_x
 _atom_site_fract_y
 _atom_site_fract_z
 _atom_site_occupancy
  Li  Li0  1  0.832386  0.832386  0.750000  1
  Li  Li1  1  0.391825  0.391825  0.750000  1
  Li  Li2  1  0.608175  0.608175  0.250000  1
  Li  Li3  1  0.167614  0.167614  0.250000  1
  Mn  Mn4  1  0.361171  0.953966  0.652134  1
  Mn  Mn5  1  0.046034  0.638829  0.152134  1
  Mn  Mn6  1  0.953966  0.361171  0.847866  1
  Mn  Mn7  1  0.638829  0.046034  0.347866  1
  B  B8  1  0.227487  0.756560  0.902954  1
  B  B9  1  0.595820  0.735477  0.976848  1
  B  B10  1  0.243440  0.772513  0.402954  1
  B  B11  1  0.264523  0.404180  0.476848  1
  B  B12  1  0.735477  0.595820  0.523152  1
  B  B13  1  0.756560  0.227487  0.597046  1
  B  B14  1  0.404180  0.264523  0.023152  1
  B  B15  1  0.772513  0.243440  0.097046  1
  O  O16  1  0.066164  0.724528  0.947678  1
  O  O17  1  0.193945  0.827539  0.746341  1
  O  O18  1  0.275472  0.933836  0.447678  1
  O  O19  1  0.594202  0.833528  0.830520  1
  O  O20  1  0.238929  0.351536  0.896762  1
  O  O21  1  0.172461  0.806055  0.246341  1
  O  O22  1  0.283616  0.581814  0.513212  1
  O  O23  1  0.581814  0.283616  0.986788  1
  O  O24  1  0.166472  0.405798  0.330520  1
  O  O25  1  0.648464  0.761071  0.396762  1
  O  O26  1  0.351536  0.238929  0.603238  1
  O  O27  1  0.833528  0.594202  0.669480  1
  O  O28  1  0.418186  0.716384  0.013212  1
  O  O29  1  0.716384  0.418186  0.486788  1
  O  O30  1  0.827539  0.193945  0.753659  1
  O  O31  1  0.761071  0.648464  0.103238  1
  O  O32  1  0.405798  0.166472  0.169480  1
  O  O33  1  0.724528  0.066164  0.552322  1
  O  O34  1  0.806055  0.172461  0.253659  1
  O  O35  1  0.933836  0.275472  0.052322  1
