# generated using pymatgen
data_NaCa2Mg2V3O12
_symmetry_space_group_name_H-M   'P 1'
_cell_length_a   10.89301061
_cell_length_b   10.89301061
_cell_length_c   10.89301061
_cell_angle_alpha   109.50281027
_cell_angle_beta   109.50281027
_cell_angle_gamma   109.40805982
_symmetry_Int_Tables_number   1
_chemical_formula_structural   NaCa2Mg2V3O12
_chemical_formula_sum   'Na4 Ca8 Mg8 V12 O48'
_cell_volume   994.99636376
_cell_formula_units_Z   4
loop_
 _symmetry_equiv_pos_site_id
 _symmetry_equiv_pos_as_xyz
  1  'x, y, z'
loop_
 _atom_site_type_symbol
 _atom_site_label
 _atom_site_symmetry_multiplicity
 _atom_site_fract_x
 _atom_site_fract_y
 _atom_site_fract_z
 _atom_site_occupancy
  Na  Na0  1  0.250000  0.250000  0.000000  1
  Na  Na1  1  0.000000  0.500000  0.500000  1
  Na  Na2  1  0.750000  0.750000  0.000000  1
  Na  Na3  1  0.500000  0.000000  0.500000  1
  Ca  Ca4  1  0.501926  0.375000  0.626926  1
  Ca  Ca5  1  0.625000  0.251926  0.126926  1
  Ca  Ca6  1  0.625000  0.751926  0.626926  1
  Ca  Ca7  1  0.001926  0.375000  0.126926  1
  Ca  Ca8  1  0.125000  0.498074  0.873074  1
  Ca  Ca9  1  0.748074  0.875000  0.373074  1
  Ca  Ca10  1  0.125000  0.998074  0.373074  1
  Ca  Ca11  1  0.248074  0.875000  0.873074  1
  Mg  Mg12  1  0.375000  0.125000  0.750000  1
  Mg  Mg13  1  0.875000  0.125000  0.750000  1
  Mg  Mg14  1  0.375000  0.625000  0.750000  1
  Mg  Mg15  1  0.375000  0.625000  0.250000  1
  Mg  Mg16  1  0.875000  0.625000  0.250000  1
  Mg  Mg17  1  0.875000  0.625000  0.750000  1
  Mg  Mg18  1  0.375000  0.125000  0.250000  1
  Mg  Mg19  1  0.875000  0.125000  0.250000  1
  V  V20  1  0.750000  0.250000  0.500000  1
  V  V21  1  0.125000  0.249510  0.624510  1
  V  V22  1  0.625000  0.500490  0.375490  1
  V  V23  1  0.750490  0.375000  0.875490  1
  V  V24  1  0.250490  0.375000  0.375490  1
  V  V25  1  0.500000  0.500000  0.000000  1
  V  V26  1  0.250000  0.750000  0.500000  1
  V  V27  1  0.999510  0.875000  0.624510  1
  V  V28  1  0.125000  0.749510  0.124510  1
  V  V29  1  0.499510  0.875000  0.124510  1
  V  V30  1  0.625000  0.000490  0.875490  1
  V  V31  1  0.000000  0.000000  0.000000  1
  O  O32  1  0.568456  0.231593  0.739472  1
  O  O33  1  0.780560  0.238407  0.349477  1
  O  O34  1  0.771405  0.141565  0.059629  1
  O  O35  1  0.568918  0.219440  0.457848  1
  O  O36  1  0.271405  0.211776  0.629840  1
  O  O37  1  0.288224  0.228595  0.370160  1
  O  O38  1  0.481593  0.318456  0.239472  1
  O  O39  1  0.668064  0.538224  0.559629  1
  O  O40  1  0.768407  0.507879  0.336863  1
  O  O41  1  0.788224  0.418064  0.059629  1
  O  O42  1  0.171016  0.431544  0.663137  1
  O  O43  1  0.988407  0.138930  0.957848  1
  O  O44  1  0.469440  0.318918  0.957848  1
  O  O45  1  0.068456  0.328984  0.336863  1
  O  O46  1  0.391565  0.521405  0.559629  1
  O  O47  1  0.888930  0.431082  0.650523  1
  O  O48  1  0.257879  0.421016  0.239472  1
  O  O49  1  0.078984  0.242121  0.760528  1
  O  O50  1  0.757879  0.518407  0.836863  1
  O  O51  1  0.581936  0.641565  0.370160  1
  O  O52  1  0.681082  0.638930  0.150523  1
  O  O53  1  0.361070  0.511593  0.042152  1
  O  O54  1  0.261593  0.719440  0.650523  1
  O  O55  1  0.891565  0.331936  0.870160  1
  O  O56  1  0.858435  0.918064  0.629840  1
  O  O57  1  0.488407  0.530560  0.849477  1
  O  O58  1  0.388930  0.738407  0.457848  1
  O  O59  1  0.068918  0.611070  0.349477  1
  O  O60  1  0.168064  0.608435  0.129840  1
  O  O61  1  0.992121  0.731593  0.663137  1
  O  O62  1  0.671016  0.007879  0.739472  1
  O  O63  1  0.492121  0.828984  0.260528  1
  O  O64  1  0.861070  0.818918  0.849477  1
  O  O65  1  0.358435  0.728595  0.940371  1
  O  O66  1  0.681544  0.921016  0.163137  1
  O  O67  1  0.280560  0.931082  0.542152  1
  O  O68  1  0.761593  0.111070  0.542152  1
  O  O69  1  0.578984  0.818456  0.836863  1
  O  O70  1  0.981593  0.742121  0.163137  1
  O  O71  1  0.961776  0.831936  0.440371  1
  O  O72  1  0.081936  0.711776  0.940371  1
  O  O73  1  0.268407  0.931544  0.260528  1
  O  O74  1  0.461776  0.021405  0.129840  1
  O  O75  1  0.478595  0.038224  0.870160  1
  O  O76  1  0.181082  0.030560  0.042152  1
  O  O77  1  0.978595  0.108435  0.440371  1
  O  O78  1  0.969440  0.011593  0.150523  1
  O  O79  1  0.181544  0.018407  0.760528  1
