# generated using pymatgen
data_KFeH2S2O9
_symmetry_space_group_name_H-M   'P 1'
_cell_length_a   8.05544088
_cell_length_b   5.18518268
_cell_length_c   9.22409563
_cell_angle_alpha   90.00000000
_cell_angle_beta   102.22894818
_cell_angle_gamma   90.00000000
_symmetry_Int_Tables_number   1
_chemical_formula_structural   KFeH2S2O9
_chemical_formula_sum   'K2 Fe2 H4 S4 O18'
_cell_volume   376.53822505
_cell_formula_units_Z   2
loop_
 _symmetry_equiv_pos_site_id
 _symmetry_equiv_pos_as_xyz
  1  'x, y, z'
loop_
 _atom_site_type_symbol
 _atom_site_label
 _atom_site_symmetry_multiplicity
 _atom_site_fract_x
 _atom_site_fract_y
 _atom_site_fract_z
 _atom_site_occupancy
  K  K0  1  0.425252  0.250000  0.285512  1
  K  K1  1  0.574748  0.750000  0.714488  1
  Fe  Fe2  1  0.088800  0.750000  0.723178  1
  Fe  Fe3  1  0.911200  0.250000  0.276822  1
  H  H4  1  0.157900  0.905620  0.995385  1
  H  H5  1  0.157900  0.594380  0.995385  1
  H  H6  1  0.842100  0.405620  0.004615  1
  H  H7  1  0.842100  0.094380  0.004615  1
  S  S8  1  0.156708  0.750000  0.382877  1
  S  S9  1  0.334197  0.250000  0.846283  1
  S  S10  1  0.665803  0.750000  0.153717  1
  S  S11  1  0.843292  0.250000  0.617123  1
  O  O12  1  0.104083  0.984081  0.288028  1
  O  O13  1  0.104083  0.515919  0.288028  1
  O  O14  1  0.098108  0.750000  0.949097  1
  O  O15  1  0.061223  0.750000  0.504596  1
  O  O16  1  0.340896  0.750000  0.436796  1
  O  O17  1  0.255807  0.250000  0.977292  1
  O  O18  1  0.272797  0.483582  0.749963  1
  O  O19  1  0.272797  0.016418  0.749963  1
  O  O20  1  0.480767  0.750000  0.120760  1
  O  O21  1  0.519233  0.250000  0.879240  1
  O  O22  1  0.727203  0.983582  0.250037  1
  O  O23  1  0.727203  0.516418  0.250037  1
  O  O24  1  0.744193  0.750000  0.022708  1
  O  O25  1  0.659104  0.250000  0.563204  1
  O  O26  1  0.938777  0.250000  0.495404  1
  O  O27  1  0.901892  0.250000  0.050903  1
  O  O28  1  0.895917  0.484081  0.711972  1
  O  O29  1  0.895917  0.015919  0.711972  1
