# generated using pymatgen
data_Sr3Hf2O7
_symmetry_space_group_name_H-M   'P 1'
_cell_length_a   10.91467071
_cell_length_b   10.91467071
_cell_length_c   10.91467071
_cell_angle_alpha   158.17883833
_cell_angle_beta   158.17883833
_cell_angle_gamma   31.05225653
_symmetry_Int_Tables_number   1
_chemical_formula_structural   Sr3Hf2O7
_chemical_formula_sum   'Sr3 Hf2 O7'
_cell_volume   179.53210369
_cell_formula_units_Z   1
loop_
 _symmetry_equiv_pos_site_id
 _symmetry_equiv_pos_as_xyz
  1  'x, y, z'
loop_
 _atom_site_type_symbol
 _atom_site_label
 _atom_site_symmetry_multiplicity
 _atom_site_fract_x
 _atom_site_fract_y
 _atom_site_fract_z
 _atom_site_occupancy
  Sr  Sr0  1  0.500000  0.500000  0.000000  1
  Sr  Sr1  1  0.313484  0.313484  0.000000  1
  Sr  Sr2  1  0.686516  0.686516  0.000000  1
  Hf  Hf3  1  0.099427  0.099427  0.000000  1
  Hf  Hf4  1  0.900573  0.900573  0.000000  1
  O  O5  1  1.000000  0.000000  0.000000  1
  O  O6  1  0.402323  0.902323  0.500000  1
  O  O7  1  0.097677  0.597677  0.500000  1
  O  O8  1  0.198235  0.198235  0.000000  1
  O  O9  1  0.801765  0.801765  0.000000  1
  O  O10  1  0.902323  0.402323  0.500000  1
  O  O11  1  0.597677  0.097677  0.500000  1
