# generated using pymatgen
data_Li2Mn3FeO8
_symmetry_space_group_name_H-M   'P 1'
_cell_length_a   8.33784176
_cell_length_b   8.33784176
_cell_length_c   8.53667282
_cell_angle_alpha   90.00000000
_cell_angle_beta   90.00000000
_cell_angle_gamma   90.00000000
_symmetry_Int_Tables_number   1
_chemical_formula_structural   Li2Mn3FeO8
_chemical_formula_sum   'Li8 Mn12 Fe4 O32'
_cell_volume   593.46612371
_cell_formula_units_Z   4
loop_
 _symmetry_equiv_pos_site_id
 _symmetry_equiv_pos_as_xyz
  1  'x, y, z'
loop_
 _atom_site_type_symbol
 _atom_site_label
 _atom_site_symmetry_multiplicity
 _atom_site_fract_x
 _atom_site_fract_y
 _atom_site_fract_z
 _atom_site_occupancy
  Li  Li0  1  0.497666  0.747670  0.870453  1
  Li  Li1  1  0.252330  0.502334  0.629547  1
  Li  Li2  1  0.247670  0.002334  0.120453  1
  Li  Li3  1  0.002334  0.247670  0.879547  1
  Li  Li4  1  0.997666  0.752330  0.379547  1
  Li  Li5  1  0.752330  0.997666  0.620453  1
  Li  Li6  1  0.747670  0.497666  0.129547  1
  Li  Li7  1  0.502334  0.252330  0.370453  1
  Mn  Mn8  1  0.377341  0.123392  0.751712  1
  Mn  Mn9  1  0.376608  0.877341  0.501712  1
  Mn  Mn10  1  0.371594  0.628406  0.250000  1
  Mn  Mn11  1  0.128406  0.128406  0.500000  1
  Mn  Mn12  1  0.123392  0.377341  0.248288  1
  Mn  Mn13  1  0.122659  0.623392  0.998288  1
  Mn  Mn14  1  0.877341  0.376608  0.498288  1
  Mn  Mn15  1  0.876608  0.622659  0.748288  1
  Mn  Mn16  1  0.871594  0.871594  0.000000  1
  Mn  Mn17  1  0.628406  0.371594  0.750000  1
  Mn  Mn18  1  0.623392  0.122659  0.001712  1
  Mn  Mn19  1  0.622659  0.876608  0.251712  1
  Fe  Fe20  1  0.376374  0.376374  0.000000  1
  Fe  Fe21  1  0.123626  0.876374  0.750000  1
  Fe  Fe22  1  0.876374  0.123626  0.250000  1
  Fe  Fe23  1  0.623626  0.623626  0.500000  1
  O  O24  1  0.390867  0.355860  0.760513  1
  O  O25  1  0.391479  0.127946  0.979489  1
  O  O26  1  0.385792  0.866252  0.269971  1
  O  O27  1  0.372054  0.891479  0.729489  1
  O  O28  1  0.385758  0.649649  0.504871  1
  O  O29  1  0.366252  0.114208  0.519971  1
  O  O30  1  0.355860  0.390867  0.239487  1
  O  O31  1  0.350351  0.614242  0.995129  1
  O  O32  1  0.149649  0.114242  0.754871  1
  O  O33  1  0.144140  0.890867  0.510513  1
  O  O34  1  0.133748  0.614208  0.230029  1
  O  O35  1  0.114242  0.149649  0.245129  1
  O  O36  1  0.127946  0.391479  0.020511  1
  O  O37  1  0.114208  0.366252  0.480029  1
  O  O38  1  0.108521  0.627946  0.770511  1
  O  O39  1  0.109133  0.855860  0.989487  1
  O  O40  1  0.890867  0.144140  0.489487  1
  O  O41  1  0.891479  0.372054  0.270511  1
  O  O42  1  0.885792  0.633748  0.980029  1
  O  O43  1  0.872054  0.608521  0.520511  1
  O  O44  1  0.885758  0.850351  0.745129  1
  O  O45  1  0.866252  0.385792  0.730029  1
  O  O46  1  0.855860  0.109133  0.010513  1
  O  O47  1  0.850351  0.885758  0.254871  1
  O  O48  1  0.649649  0.385758  0.495129  1
  O  O49  1  0.644140  0.609133  0.739487  1
  O  O50  1  0.633748  0.885792  0.019971  1
  O  O51  1  0.614242  0.350351  0.004871  1
  O  O52  1  0.627946  0.108521  0.229489  1
  O  O53  1  0.614208  0.133748  0.769971  1
  O  O54  1  0.608521  0.872054  0.479489  1
  O  O55  1  0.609133  0.644140  0.260513  1
