# generated using pymatgen
data_Ho2(SeO4)3
_symmetry_space_group_name_H-M   'P 1'
_cell_length_a   9.91680497
_cell_length_b   9.91680497
_cell_length_c   9.91680497
_cell_angle_alpha   58.06664512
_cell_angle_beta   58.06664512
_cell_angle_gamma   58.06664512
_symmetry_Int_Tables_number   1
_chemical_formula_structural   Ho2(SeO4)3
_chemical_formula_sum   'Ho4 Se6 O24'
_cell_volume   659.03262709
_cell_formula_units_Z   2
loop_
 _symmetry_equiv_pos_site_id
 _symmetry_equiv_pos_as_xyz
  1  'x, y, z'
loop_
 _atom_site_type_symbol
 _atom_site_label
 _atom_site_symmetry_multiplicity
 _atom_site_fract_x
 _atom_site_fract_y
 _atom_site_fract_z
 _atom_site_occupancy
  Ho  Ho0  1  0.355998  0.355998  0.355998  1
  Ho  Ho1  1  0.644002  0.644002  0.644002  1
  Ho  Ho2  1  0.855998  0.855998  0.855998  1
  Ho  Ho3  1  0.144002  0.144002  0.144002  1
  Se  Se4  1  0.250000  0.538320  0.961680  1
  Se  Se5  1  0.038320  0.750000  0.461680  1
  Se  Se6  1  0.461679  0.038320  0.750000  1
  Se  Se7  1  0.538320  0.961680  0.250000  1
  Se  Se8  1  0.961680  0.250000  0.538320  1
  Se  Se9  1  0.750000  0.461679  0.038321  1
  O  O10  1  0.081442  0.710793  0.935888  1
  O  O11  1  0.226248  0.370241  0.989376  1
  O  O12  1  0.010624  0.773752  0.629759  1
  O  O13  1  0.289207  0.064112  0.918558  1
  O  O14  1  0.418558  0.564112  0.789207  1
  O  O15  1  0.129759  0.273752  0.510624  1
  O  O16  1  0.489376  0.870241  0.726248  1
  O  O17  1  0.210793  0.581442  0.435888  1
  O  O18  1  0.064112  0.918558  0.289207  1
  O  O19  1  0.435888  0.210793  0.581442  1
  O  O20  1  0.629759  0.010624  0.773752  1
  O  O21  1  0.726248  0.489376  0.870241  1
  O  O22  1  0.273752  0.510624  0.129759  1
  O  O23  1  0.370241  0.989376  0.226248  1
  O  O24  1  0.564112  0.789207  0.418558  1
  O  O25  1  0.935888  0.081442  0.710793  1
  O  O26  1  0.789207  0.418558  0.564112  1
  O  O27  1  0.510624  0.129759  0.273752  1
  O  O28  1  0.870241  0.726248  0.489376  1
  O  O29  1  0.581442  0.435888  0.210793  1
  O  O30  1  0.710793  0.935888  0.081442  1
  O  O31  1  0.989376  0.226248  0.370241  1
  O  O32  1  0.773752  0.629759  0.010624  1
  O  O33  1  0.918558  0.289207  0.064112  1
