# generated using pymatgen
data_Li5Cu(PO4)2
_symmetry_space_group_name_H-M   'P 1'
_cell_length_a   5.33075001
_cell_length_b   6.21188231
_cell_length_c   9.95261522
_cell_angle_alpha   90.05458969
_cell_angle_beta   90.09321704
_cell_angle_gamma   90.11288391
_symmetry_Int_Tables_number   1
_chemical_formula_structural   Li5Cu(PO4)2
_chemical_formula_sum   'Li10 Cu2 P4 O16'
_cell_volume   329.56959103
_cell_formula_units_Z   2
loop_
 _symmetry_equiv_pos_site_id
 _symmetry_equiv_pos_as_xyz
  1  'x, y, z'
loop_
 _atom_site_type_symbol
 _atom_site_label
 _atom_site_symmetry_multiplicity
 _atom_site_fract_x
 _atom_site_fract_y
 _atom_site_fract_z
 _atom_site_occupancy
  Li  Li0  1  0.155382  0.000506  0.745784  1
  Li  Li1  1  0.156069  0.000058  0.244848  1
  Li  Li2  1  0.326680  0.751614  0.496017  1
  Li  Li3  1  0.328230  0.753211  0.996213  1
  Li  Li4  1  0.673322  0.746154  0.245109  1
  Li  Li5  1  0.672620  0.747291  0.745191  1
  Li  Li6  1  0.845412  0.499459  0.995001  1
  Li  Li7  1  0.672350  0.252971  0.744792  1
  Li  Li8  1  0.674827  0.253637  0.245546  1
  Li  Li9  1  0.326105  0.250073  0.495054  1
  Cu  Cu10  1  0.826797  0.500089  0.497112  1
  Cu  Cu11  1  0.334024  0.242455  0.998465  1
  P  P12  1  0.824582  0.995892  0.999368  1
  P  P13  1  0.826345  0.999894  0.499771  1
  P  P14  1  0.177340  0.501917  0.249537  1
  P  P15  1  0.175398  0.502999  0.749056  1
  O  O16  1  0.818852  0.999956  0.656168  1
  O  O17  1  0.102236  0.000099  0.449571  1
  O  O18  1  0.820539  0.999928  0.155968  1
  O  O19  1  0.099511  0.985626  0.946160  1
  O  O20  1  0.682146  0.798367  0.444389  1
  O  O21  1  0.681502  0.792904  0.947429  1
  O  O22  1  0.314153  0.706502  0.195338  1
  O  O23  1  0.311451  0.708092  0.695005  1
  O  O24  1  0.178535  0.509616  0.905742  1
  O  O25  1  0.893338  0.501035  0.705652  1
  O  O26  1  0.190474  0.503902  0.405997  1
  O  O27  1  0.901140  0.499859  0.198598  1
  O  O28  1  0.309939  0.296421  0.696843  1
  O  O29  1  0.314878  0.291094  0.204365  1
  O  O30  1  0.682634  0.201395  0.444970  1
  O  O31  1  0.703194  0.206989  0.943534  1
