# generated using pymatgen
data_Mn2O3F
_symmetry_space_group_name_H-M   'P 1'
_cell_length_a   7.28875109
_cell_length_b   7.28875109
_cell_length_c   6.34420038
_cell_angle_alpha   90.00000000
_cell_angle_beta   90.00000000
_cell_angle_gamma   131.12066160
_symmetry_Int_Tables_number   1
_chemical_formula_structural   Mn2O3F
_chemical_formula_sum   'Mn8 O12 F4'
_cell_volume   253.90207600
_cell_formula_units_Z   4
loop_
 _symmetry_equiv_pos_site_id
 _symmetry_equiv_pos_as_xyz
  1  'x, y, z'
loop_
 _atom_site_type_symbol
 _atom_site_label
 _atom_site_symmetry_multiplicity
 _atom_site_fract_x
 _atom_site_fract_y
 _atom_site_fract_z
 _atom_site_occupancy
  Mn  Mn0  1  0.876238  0.626336  0.750000  1
  Mn  Mn1  1  0.373664  0.123762  0.750000  1
  Mn  Mn2  1  0.873703  0.126297  0.750000  1
  Mn  Mn3  1  0.621908  0.378092  0.250000  1
  Mn  Mn4  1  0.378092  0.621908  0.750000  1
  Mn  Mn5  1  0.126297  0.873703  0.250000  1
  Mn  Mn6  1  0.123762  0.373664  0.250000  1
  Mn  Mn7  1  0.626336  0.876238  0.250000  1
  O  O8  1  0.531310  0.468690  0.750000  1
  O  O9  1  0.876167  0.626755  0.441134  1
  O  O10  1  0.373245  0.123833  0.441134  1
  O  O11  1  0.626755  0.876167  0.558866  1
  O  O12  1  0.876167  0.626755  0.058866  1
  O  O13  1  0.373245  0.123833  0.058866  1
  O  O14  1  0.123833  0.373245  0.558866  1
  O  O15  1  0.218862  0.781138  0.750000  1
  O  O16  1  0.468690  0.531310  0.250000  1
  O  O17  1  0.781138  0.218862  0.250000  1
  O  O18  1  0.626755  0.876167  0.941134  1
  O  O19  1  0.123833  0.373245  0.941134  1
  F  F20  1  0.016111  0.983889  0.750000  1
  F  F21  1  0.983889  0.016111  0.250000  1
  F  F22  1  0.732145  0.267855  0.750000  1
  F  F23  1  0.267855  0.732145  0.250000  1
