# generated using pymatgen
data_Li3MnO3
_symmetry_space_group_name_H-M   'P 1'
_cell_length_a   5.16922239
_cell_length_b   9.95461524
_cell_length_c   5.57945352
_cell_angle_alpha   90.00000000
_cell_angle_beta   104.72581734
_cell_angle_gamma   90.00000000
_symmetry_Int_Tables_number   1
_chemical_formula_structural   Li3MnO3
_chemical_formula_sum   'Li12 Mn4 O12'
_cell_volume   277.67493735
_cell_formula_units_Z   4
loop_
 _symmetry_equiv_pos_site_id
 _symmetry_equiv_pos_as_xyz
  1  'x, y, z'
loop_
 _atom_site_type_symbol
 _atom_site_label
 _atom_site_symmetry_multiplicity
 _atom_site_fract_x
 _atom_site_fract_y
 _atom_site_fract_z
 _atom_site_occupancy
  Li  Li0  1  0.940158  0.782059  0.089668  1
  Li  Li1  1  0.866249  0.003968  0.331334  1
  Li  Li2  1  0.932719  0.256552  0.429528  1
  Li  Li3  1  0.440158  0.717941  0.089668  1
  Li  Li4  1  0.567281  0.756552  0.570472  1
  Li  Li5  1  0.366249  0.496032  0.331334  1
  Li  Li6  1  0.633751  0.503968  0.668666  1
  Li  Li7  1  0.432719  0.243448  0.429528  1
  Li  Li8  1  0.559842  0.282059  0.910332  1
  Li  Li9  1  0.067281  0.743448  0.570472  1
  Li  Li10  1  0.133751  0.996032  0.668666  1
  Li  Li11  1  0.059842  0.217941  0.910332  1
  Mn  Mn12  1  0.830127  0.497372  0.178894  1
  Mn  Mn13  1  0.330127  0.002628  0.178894  1
  Mn  Mn14  1  0.669873  0.997372  0.821106  1
  Mn  Mn15  1  0.169873  0.502628  0.821106  1
  O  O16  1  0.614291  0.893175  0.105813  1
  O  O17  1  0.595475  0.364798  0.233986  1
  O  O18  1  0.736571  0.619080  0.403703  1
  O  O19  1  0.763429  0.119080  0.596297  1
  O  O20  1  0.904525  0.864798  0.766014  1
  O  O21  1  0.885709  0.393175  0.894187  1
  O  O22  1  0.114291  0.606825  0.105813  1
  O  O23  1  0.095475  0.135202  0.233986  1
  O  O24  1  0.236571  0.880920  0.403703  1
  O  O25  1  0.263429  0.380920  0.596297  1
  O  O26  1  0.404525  0.635202  0.766014  1
  O  O27  1  0.385709  0.106825  0.894187  1
