# generated using pymatgen
data_LiFeF4
_symmetry_space_group_name_H-M   'P 1'
_cell_length_a   7.49964663
_cell_length_b   7.71362342
_cell_length_c   11.06675526
_cell_angle_alpha   90.00000000
_cell_angle_beta   90.00000000
_cell_angle_gamma   90.00000000
_symmetry_Int_Tables_number   1
_chemical_formula_structural   LiFeF4
_chemical_formula_sum   'Li8 Fe8 F32'
_cell_volume   640.20570382
_cell_formula_units_Z   8
loop_
 _symmetry_equiv_pos_site_id
 _symmetry_equiv_pos_as_xyz
  1  'x, y, z'
loop_
 _atom_site_type_symbol
 _atom_site_label
 _atom_site_symmetry_multiplicity
 _atom_site_fract_x
 _atom_site_fract_y
 _atom_site_fract_z
 _atom_site_occupancy
  Li  Li0  1  0.750000  0.473292  0.010541  1
  Li  Li1  1  0.750000  0.023111  0.000266  1
  Li  Li2  1  0.250000  0.523111  0.499734  1
  Li  Li3  1  0.250000  0.973292  0.489459  1
  Li  Li4  1  0.750000  0.026708  0.510541  1
  Li  Li5  1  0.750000  0.476889  0.500266  1
  Li  Li6  1  0.250000  0.976889  0.999734  1
  Li  Li7  1  0.250000  0.526708  0.989459  1
  Fe  Fe8  1  0.999897  0.110906  0.256250  1
  Fe  Fe9  1  0.500103  0.110906  0.256250  1
  Fe  Fe10  1  0.000103  0.610906  0.243750  1
  Fe  Fe11  1  0.499897  0.610906  0.243750  1
  Fe  Fe12  1  0.999897  0.389094  0.756250  1
  Fe  Fe13  1  0.500103  0.389094  0.756250  1
  Fe  Fe14  1  0.499897  0.889094  0.743750  1
  Fe  Fe15  1  0.000103  0.889094  0.743750  1
  F  F16  1  0.068031  0.072223  0.095006  1
  F  F17  1  0.431969  0.072223  0.095006  1
  F  F18  1  0.067276  0.634195  0.079013  1
  F  F19  1  0.432724  0.634195  0.079013  1
  F  F20  1  0.250000  0.058389  0.322797  1
  F  F21  1  0.250000  0.648997  0.309440  1
  F  F22  1  0.556881  0.857691  0.264633  1
  F  F23  1  0.943119  0.857691  0.264633  1
  F  F24  1  0.056881  0.357691  0.235367  1
  F  F25  1  0.443119  0.357691  0.235367  1
  F  F26  1  0.750000  0.148997  0.190560  1
  F  F27  1  0.750000  0.558389  0.177203  1
  F  F28  1  0.932724  0.134195  0.420987  1
  F  F29  1  0.567276  0.134195  0.420987  1
  F  F30  1  0.931969  0.572223  0.404994  1
  F  F31  1  0.568031  0.572223  0.404994  1
  F  F32  1  0.068031  0.427777  0.595006  1
  F  F33  1  0.431969  0.427777  0.595006  1
  F  F34  1  0.432724  0.865805  0.579013  1
  F  F35  1  0.067276  0.865805  0.579013  1
  F  F36  1  0.250000  0.441611  0.822797  1
  F  F37  1  0.250000  0.851003  0.809440  1
  F  F38  1  0.556881  0.642309  0.764633  1
  F  F39  1  0.943119  0.642309  0.764633  1
  F  F40  1  0.056881  0.142309  0.735367  1
  F  F41  1  0.443119  0.142309  0.735367  1
  F  F42  1  0.750000  0.351003  0.690560  1
  F  F43  1  0.750000  0.941611  0.677203  1
  F  F44  1  0.932724  0.365805  0.920987  1
  F  F45  1  0.567276  0.365805  0.920987  1
  F  F46  1  0.568031  0.927777  0.904994  1
  F  F47  1  0.931969  0.927777  0.904994  1
