# generated using pymatgen
data_Li3V2(O2F)2
_symmetry_space_group_name_H-M   'P 1'
_cell_length_a   5.93706857
_cell_length_b   6.03219999
_cell_length_c   15.07458038
_cell_angle_alpha   80.25103267
_cell_angle_beta   85.17375580
_cell_angle_gamma   60.75174297
_symmetry_Int_Tables_number   1
_chemical_formula_structural   Li3V2(O2F)2
_chemical_formula_sum   'Li12 V8 O16 F8'
_cell_volume   464.24365461
_cell_formula_units_Z   4
loop_
 _symmetry_equiv_pos_site_id
 _symmetry_equiv_pos_as_xyz
  1  'x, y, z'
loop_
 _atom_site_type_symbol
 _atom_site_label
 _atom_site_symmetry_multiplicity
 _atom_site_fract_x
 _atom_site_fract_y
 _atom_site_fract_z
 _atom_site_occupancy
  Li  Li0  1  0.120972  0.784165  0.829559  1
  Li  Li1  1  0.700073  0.202964  0.831819  1
  Li  Li2  1  0.333405  0.477941  0.692973  1
  Li  Li3  1  0.161531  0.239835  0.840966  1
  Li  Li4  1  0.163466  0.499538  0.336211  1
  Li  Li5  1  0.505946  0.001322  0.961031  1
  Li  Li6  1  0.670599  0.006418  0.330864  1
  Li  Li7  1  0.978864  0.528753  0.963926  1
  Li  Li8  1  0.359232  0.972378  0.710008  1
  Li  Li9  1  0.156362  0.009744  0.332687  1
  Li  Li10  1  0.504363  0.532276  0.954457  1
  Li  Li11  1  0.833864  0.496420  0.711545  1
  V  V12  1  0.500089  0.250972  0.497332  1
  V  V13  1  0.995574  0.755993  0.506701  1
  V  V14  1  0.323529  0.249685  0.163382  1
  V  V15  1  0.504923  0.750488  0.490591  1
  V  V16  1  0.833862  0.744550  0.169781  1
  V  V17  1  0.992931  0.256131  0.503319  1
  V  V18  1  0.334677  0.746180  0.168396  1
  V  V19  1  0.822864  0.251053  0.165747  1
  O  O20  1  0.310982  0.625768  0.427601  1
  O  O21  1  0.166357  0.604713  0.103448  1
  O  O22  1  0.166526  0.390699  0.568836  1
  O  O23  1  0.494106  0.365280  0.239926  1
  O  O24  1  0.845806  0.104060  0.428462  1
  O  O25  1  0.680075  0.875110  0.564485  1
  O  O26  1  0.669840  0.121111  0.102495  1
  O  O27  1  0.997984  0.892047  0.243884  1
  O  O28  1  0.319771  0.131215  0.422365  1
  O  O29  1  0.163966  0.129192  0.100244  1
  O  O30  1  0.174780  0.895539  0.563053  1
  O  O31  1  0.494100  0.895585  0.239588  1
  O  O32  1  0.851990  0.614711  0.426853  1
  O  O33  1  0.685210  0.380894  0.563364  1
  O  O34  1  0.667474  0.601206  0.100879  1
  O  O35  1  0.003349  0.369332  0.239225  1
  F  F36  1  0.330824  0.364301  0.923018  1
  F  F37  1  0.482702  0.151885  0.755889  1
  F  F38  1  0.834291  0.874468  0.916125  1
  F  F39  1  0.031679  0.602606  0.755868  1
  F  F40  1  0.325762  0.876499  0.911883  1
  F  F41  1  0.493507  0.623243  0.741771  1
  F  F42  1  0.833189  0.370737  0.911189  1
  F  F43  1  0.011936  0.132994  0.754923  1
