# generated using pymatgen
data_Ba2In2O5
_symmetry_space_group_name_H-M   'P 1'
_cell_length_a   6.10107503
_cell_length_b   6.10107503
_cell_length_c   10.59019752
_cell_angle_alpha   69.56365424
_cell_angle_beta   110.43634576
_cell_angle_gamma   120.78241577
_symmetry_Int_Tables_number   1
_chemical_formula_structural   Ba2In2O5
_chemical_formula_sum   'Ba4 In4 O10'
_cell_volume   310.15234671
_cell_formula_units_Z   2
loop_
 _symmetry_equiv_pos_site_id
 _symmetry_equiv_pos_as_xyz
  1  'x, y, z'
loop_
 _atom_site_type_symbol
 _atom_site_label
 _atom_site_symmetry_multiplicity
 _atom_site_fract_x
 _atom_site_fract_y
 _atom_site_fract_z
 _atom_site_occupancy
  Ba  Ba0  1  0.766354  0.766354  0.750000  1
  Ba  Ba1  1  0.233646  0.233646  0.250000  1
  Ba  Ba2  1  0.500000  0.000000  0.000000  1
  Ba  Ba3  1  1.000000  0.500000  0.500000  1
  In  In4  1  0.908668  0.630506  0.138974  1
  In  In5  1  0.630506  0.908668  0.361026  1
  In  In6  1  0.369494  0.091332  0.638974  1
  In  In7  1  0.091332  0.369494  0.861026  1
  O  O8  1  0.738319  0.738319  0.250000  1
  O  O9  1  0.640605  0.241347  0.202626  1
  O  O10  1  0.241347  0.640605  0.297374  1
  O  O11  1  0.500000  0.000000  0.500000  1
  O  O12  1  0.359395  0.758653  0.797374  1
  O  O13  1  0.758653  0.359395  0.702626  1
  O  O14  1  1.000000  0.000000  0.500000  1
  O  O15  1  0.261681  0.261681  0.750000  1
  O  O16  1  0.000000  0.000000  0.000000  1
  O  O17  1  1.000000  0.500000  0.000000  1
