# generated using pymatgen
data_LiCrP2O7
_symmetry_space_group_name_H-M   'P 1'
_cell_length_a   7.04307316
_cell_length_b   10.02668026
_cell_length_c   8.09974886
_cell_angle_alpha   90.00000000
_cell_angle_beta   110.91581699
_cell_angle_gamma   90.00000000
_symmetry_Int_Tables_number   1
_chemical_formula_structural   LiCrP2O7
_chemical_formula_sum   'Li4 Cr4 P8 O28'
_cell_volume   534.30232181
_cell_formula_units_Z   4
loop_
 _symmetry_equiv_pos_site_id
 _symmetry_equiv_pos_as_xyz
  1  'x, y, z'
loop_
 _atom_site_type_symbol
 _atom_site_label
 _atom_site_symmetry_multiplicity
 _atom_site_fract_x
 _atom_site_fract_y
 _atom_site_fract_z
 _atom_site_occupancy
  Li  Li0  1  0.397601  0.838099  0.450134  1
  Li  Li1  1  0.397601  0.661901  0.950134  1
  Li  Li2  1  0.602399  0.338099  0.049866  1
  Li  Li3  1  0.602399  0.161901  0.549866  1
  Cr  Cr4  1  0.269068  0.392031  0.243573  1
  Cr  Cr5  1  0.269068  0.107969  0.743573  1
  Cr  Cr6  1  0.730932  0.892031  0.256427  1
  Cr  Cr7  1  0.730932  0.607969  0.756427  1
  P  P8  1  0.031384  0.146141  0.295740  1
  P  P9  1  0.031384  0.353859  0.795740  1
  P  P10  1  0.361217  0.090989  0.181678  1
  P  P11  1  0.361217  0.409011  0.681678  1
  P  P12  1  0.638783  0.590989  0.318322  1
  P  P13  1  0.638783  0.909011  0.818322  1
  P  P14  1  0.968616  0.646141  0.204260  1
  P  P15  1  0.968616  0.853859  0.704260  1
  O  O16  1  0.011396  0.294021  0.240240  1
  O  O17  1  0.179544  0.119583  0.481816  1
  O  O18  1  0.175801  0.581942  0.245757  1
  O  O19  1  0.128431  0.071642  0.163818  1
  O  O20  1  0.011396  0.205979  0.740240  1
  O  O21  1  0.179544  0.380417  0.981816  1
  O  O22  1  0.376788  0.395219  0.502960  1
  O  O23  1  0.175801  0.918058  0.745757  1
  O  O24  1  0.128431  0.428358  0.663818  1
  O  O25  1  0.438598  0.218579  0.292750  1
  O  O26  1  0.376788  0.104781  0.002960  1
  O  O27  1  0.525265  0.469095  0.212679  1
  O  O28  1  0.474735  0.969095  0.287321  1
  O  O29  1  0.438598  0.281421  0.792750  1
  O  O30  1  0.561402  0.718579  0.207250  1
  O  O31  1  0.525265  0.030905  0.712679  1
  O  O32  1  0.474735  0.530905  0.787321  1
  O  O33  1  0.623212  0.895219  0.997040  1
  O  O34  1  0.561402  0.781421  0.707250  1
  O  O35  1  0.871569  0.571642  0.336182  1
  O  O36  1  0.824199  0.081942  0.254243  1
  O  O37  1  0.623212  0.604781  0.497040  1
  O  O38  1  0.820456  0.619583  0.018184  1
  O  O39  1  0.988604  0.794021  0.259760  1
  O  O40  1  0.871569  0.928358  0.836182  1
  O  O41  1  0.824199  0.418058  0.754243  1
  O  O42  1  0.820456  0.880417  0.518184  1
  O  O43  1  0.988604  0.705979  0.759760  1
