# generated using pymatgen
data_Li5Co2Ni3O10
_symmetry_space_group_name_H-M   'P 1'
_cell_length_a   5.02180033
_cell_length_b   5.04538661
_cell_length_c   7.59261875
_cell_angle_alpha   109.03091232
_cell_angle_beta   101.49987917
_cell_angle_gamma   100.76655595
_symmetry_Int_Tables_number   1
_chemical_formula_structural   Li5Co2Ni3O10
_chemical_formula_sum   'Li5 Co2 Ni3 O10'
_cell_volume   171.49766467
_cell_formula_units_Z   1
loop_
 _symmetry_equiv_pos_site_id
 _symmetry_equiv_pos_as_xyz
  1  'x, y, z'
loop_
 _atom_site_type_symbol
 _atom_site_label
 _atom_site_symmetry_multiplicity
 _atom_site_fract_x
 _atom_site_fract_y
 _atom_site_fract_z
 _atom_site_occupancy
  Li  Li0  1  0.208183  0.496866  0.404254  1
  Li  Li1  1  0.389312  0.503856  0.788980  1
  Li  Li2  1  0.500000  0.000000  0.500000  1
  Li  Li3  1  0.610688  0.496144  0.211020  1
  Li  Li4  1  0.791817  0.503134  0.595746  1
  Co  Co5  1  0.100416  0.000494  0.693052  1
  Co  Co6  1  0.899584  0.999506  0.306948  1
  Ni  Ni7  1  0.000000  0.500000  0.000000  1
  Ni  Ni8  1  0.694773  0.999115  0.896574  1
  Ni  Ni9  1  0.305227  0.000885  0.103426  1
  O  O10  1  0.048903  0.227422  0.841310  1
  O  O11  1  0.326431  0.759551  0.932685  1
  O  O12  1  0.131094  0.784361  0.545177  1
  O  O13  1  0.215363  0.248395  0.238758  1
  O  O14  1  0.423934  0.229660  0.658550  1
  O  O15  1  0.576066  0.770340  0.341450  1
  O  O16  1  0.784637  0.751605  0.761242  1
  O  O17  1  0.868906  0.215639  0.454823  1
  O  O18  1  0.673569  0.240449  0.067315  1
  O  O19  1  0.951097  0.772578  0.158690  1
