# generated using pymatgen
data_Li2AgF3
_symmetry_space_group_name_H-M   'P 1'
_cell_length_a   5.36207621
_cell_length_b   5.36207621
_cell_length_c   5.39358042
_cell_angle_alpha   90.00000000
_cell_angle_beta   90.00000000
_cell_angle_gamma   118.19160979
_symmetry_Int_Tables_number   1
_chemical_formula_structural   Li2AgF3
_chemical_formula_sum   'Li4 Ag2 F6'
_cell_volume   136.67928171
_cell_formula_units_Z   2
loop_
 _symmetry_equiv_pos_site_id
 _symmetry_equiv_pos_as_xyz
  1  'x, y, z'
loop_
 _atom_site_type_symbol
 _atom_site_label
 _atom_site_symmetry_multiplicity
 _atom_site_fract_x
 _atom_site_fract_y
 _atom_site_fract_z
 _atom_site_occupancy
  Li  Li0  1  0.832994  0.167006  0.000000  1
  Li  Li1  1  0.832994  0.167006  0.500000  1
  Li  Li2  1  0.167006  0.832994  0.000000  1
  Li  Li3  1  0.167006  0.832994  0.500000  1
  Ag  Ag4  1  0.467900  0.467900  0.750000  1
  Ag  Ag5  1  0.532100  0.532100  0.250000  1
  F  F6  1  0.517825  0.098979  0.250000  1
  F  F7  1  0.058398  0.058398  0.750000  1
  F  F8  1  0.901021  0.482175  0.750000  1
  F  F9  1  0.098979  0.517825  0.250000  1
  F  F10  1  0.941602  0.941602  0.250000  1
  F  F11  1  0.482175  0.901021  0.750000  1
