# generated using pymatgen
data_LiFeCSO7
_symmetry_space_group_name_H-M   'P 1'
_cell_length_a   5.24079949
_cell_length_b   6.44510870
_cell_length_c   8.85202781
_cell_angle_alpha   90.00000000
_cell_angle_beta   93.64895690
_cell_angle_gamma   90.00000000
_symmetry_Int_Tables_number   1
_chemical_formula_structural   LiFeCSO7
_chemical_formula_sum   'Li2 Fe2 C2 S2 O14'
_cell_volume   298.39340969
_cell_formula_units_Z   2
loop_
 _symmetry_equiv_pos_site_id
 _symmetry_equiv_pos_as_xyz
  1  'x, y, z'
loop_
 _atom_site_type_symbol
 _atom_site_label
 _atom_site_symmetry_multiplicity
 _atom_site_fract_x
 _atom_site_fract_y
 _atom_site_fract_z
 _atom_site_occupancy
  Li  Li0  1  0.770313  0.461545  0.164534  1
  Li  Li1  1  0.229687  0.961545  0.835466  1
  Fe  Fe2  1  0.216595  0.250177  0.340959  1
  Fe  Fe3  1  0.783405  0.750177  0.659041  1
  C  C4  1  0.271674  0.256824  0.068381  1
  C  C5  1  0.728326  0.756824  0.931619  1
  S  S6  1  0.270599  0.753795  0.430002  1
  S  S7  1  0.729401  0.253795  0.569998  1
  O  O8  1  0.696002  0.722593  0.067190  1
  O  O9  1  0.045334  0.261950  0.128510  1
  O  O10  1  0.460992  0.282097  0.175133  1
  O  O11  1  0.209808  0.937650  0.334491  1
  O  O12  1  0.179253  0.570339  0.341857  1
  O  O13  1  0.855066  0.265663  0.423741  1
  O  O14  1  0.553562  0.739517  0.465181  1
  O  O15  1  0.446438  0.239517  0.534819  1
  O  O16  1  0.144934  0.765663  0.576259  1
  O  O17  1  0.820747  0.070339  0.658143  1
  O  O18  1  0.790192  0.437650  0.665509  1
  O  O19  1  0.539008  0.782097  0.824867  1
  O  O20  1  0.954666  0.761950  0.871490  1
  O  O21  1  0.303998  0.222593  0.932810  1
