# generated using pymatgen
data_DyTe3O8
_symmetry_space_group_name_H-M   'P 1'
_cell_length_a   6.87175239
_cell_length_b   6.87175239
_cell_length_c   10.53490717
_cell_angle_alpha   66.12323506
_cell_angle_beta   113.87676494
_cell_angle_gamma   131.71963808
_symmetry_Int_Tables_number   1
_chemical_formula_structural   DyTe3O8
_chemical_formula_sum   'Dy2 Te6 O16'
_cell_volume   332.78942905
_cell_formula_units_Z   2
loop_
 _symmetry_equiv_pos_site_id
 _symmetry_equiv_pos_as_xyz
  1  'x, y, z'
loop_
 _atom_site_type_symbol
 _atom_site_label
 _atom_site_symmetry_multiplicity
 _atom_site_fract_x
 _atom_site_fract_y
 _atom_site_fract_z
 _atom_site_occupancy
  Dy  Dy0  1  0.439196  0.439196  0.250000  1
  Dy  Dy1  1  0.560804  0.560804  0.750000  1
  Te  Te2  1  0.692546  0.133588  0.142720  1
  Te  Te3  1  0.866412  0.307454  0.642720  1
  Te  Te4  1  0.000000  0.000000  0.500000  1
  Te  Te5  1  0.000000  0.000000  0.000000  1
  Te  Te6  1  0.133588  0.692546  0.357280  1
  Te  Te7  1  0.307454  0.866412  0.857280  1
  O  O8  1  0.005377  0.216305  0.094715  1
  O  O9  1  0.783695  0.994623  0.594715  1
  O  O10  1  0.365305  0.139667  0.132054  1
  O  O11  1  0.785231  0.429837  0.414839  1
  O  O12  1  0.846917  0.678375  0.170211  1
  O  O13  1  0.860333  0.634695  0.632054  1
  O  O14  1  0.570163  0.214769  0.914839  1
  O  O15  1  0.321625  0.153083  0.670211  1
  O  O16  1  0.678375  0.846917  0.329789  1
  O  O17  1  0.429837  0.785231  0.085161  1
  O  O18  1  0.139667  0.365305  0.367946  1
  O  O19  1  0.153083  0.321625  0.829789  1
  O  O20  1  0.214769  0.570163  0.585161  1
  O  O21  1  0.634695  0.860333  0.867946  1
  O  O22  1  0.216305  0.005377  0.405285  1
  O  O23  1  0.994623  0.783695  0.905285  1
