# generated using pymatgen
data_NaB5(H2O5)2
_symmetry_space_group_name_H-M   'P 1'
_cell_length_a   8.77510814
_cell_length_b   8.18790088
_cell_length_c   13.09771064
_cell_angle_alpha   90.00000000
_cell_angle_beta   106.53479536
_cell_angle_gamma   90.00000000
_symmetry_Int_Tables_number   1
_chemical_formula_structural   NaB5(H2O5)2
_chemical_formula_sum   'Na4 B20 H16 O40'
_cell_volume   902.15092275
_cell_formula_units_Z   4
loop_
 _symmetry_equiv_pos_site_id
 _symmetry_equiv_pos_as_xyz
  1  'x, y, z'
loop_
 _atom_site_type_symbol
 _atom_site_label
 _atom_site_symmetry_multiplicity
 _atom_site_fract_x
 _atom_site_fract_y
 _atom_site_fract_z
 _atom_site_occupancy
  Na  Na0  1  0.078622  0.260770  0.736021  1
  Na  Na1  1  0.921378  0.760770  0.763979  1
  Na  Na2  1  0.921378  0.739230  0.263979  1
  Na  Na3  1  0.078622  0.239230  0.236021  1
  B  B4  1  0.278793  0.906592  0.810719  1
  B  B5  1  0.721207  0.406592  0.689281  1
  B  B6  1  0.721207  0.093408  0.189281  1
  B  B7  1  0.278793  0.593408  0.310719  1
  B  B8  1  0.451340  0.685882  0.894891  1
  B  B9  1  0.548660  0.185882  0.605109  1
  B  B10  1  0.548660  0.314118  0.105109  1
  B  B11  1  0.451340  0.814118  0.394891  1
  B  B12  1  0.235150  0.779691  0.970228  1
  B  B13  1  0.764850  0.279691  0.529772  1
  B  B14  1  0.764850  0.220309  0.029772  1
  B  B15  1  0.235150  0.720309  0.470228  1
  B  B16  1  0.229429  0.938169  0.130586  1
  B  B17  1  0.770571  0.438169  0.369414  1
  B  B18  1  0.770571  0.061831  0.869414  1
  B  B19  1  0.229429  0.561831  0.630586  1
  B  B20  1  0.038388  0.722952  0.070824  1
  B  B21  1  0.961612  0.222952  0.429176  1
  B  B22  1  0.961612  0.277048  0.929176  1
  B  B23  1  0.038388  0.777048  0.570824  1
  H  H24  1  0.384438  0.106280  0.203295  1
  H  H25  1  0.615562  0.606280  0.296705  1
  H  H26  1  0.615562  0.893720  0.796705  1
  H  H27  1  0.384438  0.393720  0.703295  1
  H  H28  1  0.895884  0.529633  0.057263  1
  H  H29  1  0.104116  0.029633  0.442737  1
  H  H30  1  0.104116  0.470367  0.942737  1
  H  H31  1  0.895884  0.970367  0.557263  1
  H  H32  1  0.316790  0.047097  0.694416  1
  H  H33  1  0.683210  0.547097  0.805584  1
  H  H34  1  0.683210  0.952903  0.305584  1
  H  H35  1  0.316790  0.452903  0.194416  1
  H  H36  1  0.596789  0.495249  0.947637  1
  H  H37  1  0.403211  0.995249  0.552363  1
  H  H38  1  0.403211  0.504751  0.052363  1
  H  H39  1  0.596789  0.004751  0.447637  1
  O  O40  1  0.419606  0.816949  0.823157  1
  O  O41  1  0.580394  0.316949  0.676843  1
  O  O42  1  0.580394  0.183051  0.176843  1
  O  O43  1  0.419606  0.683051  0.323157  1
  O  O44  1  0.360914  0.660672  0.963335  1
  O  O45  1  0.639086  0.160672  0.536665  1
  O  O46  1  0.639086  0.339328  0.036665  1
  O  O47  1  0.360914  0.839328  0.463335  1
  O  O48  1  0.175577  0.867218  0.867758  1
  O  O49  1  0.824423  0.367218  0.632242  1
  O  O50  1  0.824423  0.132782  0.132242  1
  O  O51  1  0.175577  0.632782  0.367758  1
  O  O52  1  0.099551  0.685693  0.988030  1
  O  O53  1  0.900449  0.185693  0.511970  1
  O  O54  1  0.900449  0.314307  0.011970  1
  O  O55  1  0.099551  0.814307  0.488030  1
  O  O56  1  0.301253  0.897675  0.055388  1
  O  O57  1  0.698747  0.397675  0.444612  1
  O  O58  1  0.698747  0.102325  0.944612  1
  O  O59  1  0.301253  0.602325  0.555388  1
  O  O60  1  0.096269  0.852268  0.140273  1
  O  O61  1  0.903731  0.352268  0.359727  1
  O  O62  1  0.903731  0.147732  0.859727  1
  O  O63  1  0.096269  0.647732  0.640273  1
  O  O64  1  0.279257  0.064124  0.202745  1
  O  O65  1  0.720743  0.564124  0.297255  1
  O  O66  1  0.720743  0.935876  0.797255  1
  O  O67  1  0.279257  0.435876  0.702745  1
  O  O68  1  0.918485  0.636282  0.093516  1
  O  O69  1  0.081515  0.136282  0.406484  1
  O  O70  1  0.081515  0.363718  0.906484  1
  O  O71  1  0.918485  0.863718  0.593516  1
  O  O72  1  0.241547  0.031233  0.738041  1
  O  O73  1  0.758453  0.531233  0.761959  1
  O  O74  1  0.758453  0.968767  0.261959  1
  O  O75  1  0.241547  0.468767  0.238041  1
  O  O76  1  0.576181  0.585466  0.893696  1
  O  O77  1  0.423819  0.085466  0.606304  1
  O  O78  1  0.423819  0.414534  0.106304  1
  O  O79  1  0.576181  0.914534  0.393696  1
