# generated using pymatgen
data_Sr8Mg3Fe(MoO6)4
_symmetry_space_group_name_H-M   'P 1'
_cell_length_a   9.85185070
_cell_length_b   9.85185070
_cell_length_c   9.85185070
_cell_angle_alpha   132.38620113
_cell_angle_beta   132.38620113
_cell_angle_gamma   69.61974389
_symmetry_Int_Tables_number   1
_chemical_formula_structural   Sr8Mg3Fe(MoO6)4
_chemical_formula_sum   'Sr8 Mg3 Fe1 Mo4 O24'
_cell_volume   511.68796762
_cell_formula_units_Z   1
loop_
 _symmetry_equiv_pos_site_id
 _symmetry_equiv_pos_as_xyz
  1  'x, y, z'
loop_
 _atom_site_type_symbol
 _atom_site_label
 _atom_site_symmetry_multiplicity
 _atom_site_fract_x
 _atom_site_fract_y
 _atom_site_fract_z
 _atom_site_occupancy
  Sr  Sr0  1  0.871434  0.369659  0.991100  1
  Sr  Sr1  1  0.880334  0.871434  0.501775  1
  Sr  Sr2  1  0.119666  0.128566  0.498225  1
  Sr  Sr3  1  0.378559  0.880334  0.008900  1
  Sr  Sr4  1  0.128566  0.630341  0.008900  1
  Sr  Sr5  1  0.369659  0.378559  0.498225  1
  Sr  Sr6  1  0.630341  0.621441  0.501775  1
  Sr  Sr7  1  0.621441  0.119666  0.991100  1
  Mg  Mg8  1  0.750000  0.250000  0.500000  1
  Mg  Mg9  1  0.250000  0.750000  0.500000  1
  Mg  Mg10  1  0.500000  0.500000  0.000000  1
  Fe  Fe11  1  0.000000  0.000000  0.000000  1
  Mo  Mo12  1  0.000000  0.500000  0.500000  1
  Mo  Mo13  1  0.251114  0.251114  0.000000  1
  Mo  Mo14  1  0.500000  0.000000  0.500000  1
  Mo  Mo15  1  0.748886  0.748886  0.000000  1
  O  O16  1  0.787783  0.511577  0.794172  1
  O  O17  1  0.872479  0.872479  0.000000  1
  O  O18  1  0.759250  0.466006  0.225256  1
  O  O19  1  0.993612  0.787783  0.276207  1
  O  O20  1  0.036012  0.254618  0.290630  1
  O  O21  1  0.119385  0.619385  0.500000  1
  O  O22  1  0.880615  0.380615  0.500000  1
  O  O23  1  0.963988  0.745382  0.709370  1
  O  O24  1  0.006388  0.212217  0.723793  1
  O  O25  1  0.240750  0.533994  0.774744  1
  O  O26  1  0.282595  0.006388  0.794172  1
  O  O27  1  0.127521  0.127521  0.000000  1
  O  O28  1  0.370534  0.370534  0.000000  1
  O  O29  1  0.212217  0.488423  0.205828  1
  O  O30  1  0.254618  0.963988  0.218605  1
  O  O31  1  0.488423  0.282595  0.276207  1
  O  O32  1  0.533994  0.759250  0.293244  1
  O  O33  1  0.619385  0.119385  0.500000  1
  O  O34  1  0.380615  0.880615  0.500000  1
  O  O35  1  0.466006  0.240750  0.706756  1
  O  O36  1  0.511577  0.717405  0.723793  1
  O  O37  1  0.745382  0.036012  0.781395  1
  O  O38  1  0.629466  0.629466  0.000000  1
  O  O39  1  0.717405  0.993612  0.205828  1
