# generated using pymatgen
data_Dy3Ni2
_symmetry_space_group_name_H-M   'P 1'
_cell_length_a   6.89035297
_cell_length_b   6.89035297
_cell_length_c   9.51605883
_cell_angle_alpha   75.11322816
_cell_angle_beta   104.88677184
_cell_angle_gamma   149.19762412
_symmetry_Int_Tables_number   1
_chemical_formula_structural   Dy3Ni2
_chemical_formula_sum   'Dy6 Ni4'
_cell_volume   222.98819050
_cell_formula_units_Z   2
loop_
 _symmetry_equiv_pos_site_id
 _symmetry_equiv_pos_as_xyz
  1  'x, y, z'
loop_
 _atom_site_type_symbol
 _atom_site_label
 _atom_site_symmetry_multiplicity
 _atom_site_fract_x
 _atom_site_fract_y
 _atom_site_fract_z
 _atom_site_occupancy
  Dy  Dy0  1  0.855904  0.144096  0.632773  1
  Dy  Dy1  1  0.144096  0.855904  0.367227  1
  Dy  Dy2  1  0.402799  0.597201  0.327068  1
  Dy  Dy3  1  0.597201  0.402799  0.672932  1
  Dy  Dy4  1  0.131624  0.868376  0.997417  1
  Dy  Dy5  1  0.868376  0.131624  0.002583  1
  Ni  Ni6  1  0.743693  0.256307  0.226587  1
  Ni  Ni7  1  0.256307  0.743693  0.773413  1
  Ni  Ni8  1  0.534711  0.465289  0.144371  1
  Ni  Ni9  1  0.465289  0.534711  0.855629  1
