# generated using pymatgen
data_Fe5(OF4)2
_symmetry_space_group_name_H-M   'P 1'
_cell_length_a   4.83458997
_cell_length_b   8.00215686
_cell_length_c   10.14961931
_cell_angle_alpha   70.91095754
_cell_angle_beta   87.56990803
_cell_angle_gamma   88.82949424
_symmetry_Int_Tables_number   1
_chemical_formula_structural   Fe5(OF4)2
_chemical_formula_sum   'Fe10 O4 F16'
_cell_volume   370.72537858
_cell_formula_units_Z   2
loop_
 _symmetry_equiv_pos_site_id
 _symmetry_equiv_pos_as_xyz
  1  'x, y, z'
loop_
 _atom_site_type_symbol
 _atom_site_label
 _atom_site_symmetry_multiplicity
 _atom_site_fract_x
 _atom_site_fract_y
 _atom_site_fract_z
 _atom_site_occupancy
  Fe  Fe0  1  0.513039  0.700835  0.891178  1
  Fe  Fe1  1  0.497351  0.899475  0.306246  1
  Fe  Fe2  1  0.502649  0.100525  0.693754  1
  Fe  Fe3  1  0.486961  0.299165  0.108822  1
  Fe  Fe4  1  0.500000  0.500000  0.500000  1
  Fe  Fe5  1  0.032424  0.391545  0.787379  1
  Fe  Fe6  1  0.973936  0.807717  0.611078  1
  Fe  Fe7  1  0.026064  0.192283  0.388922  1
  Fe  Fe8  1  0.967576  0.608455  0.212621  1
  Fe  Fe9  1  0.000000  0.000000  0.000000  1
  O  O10  1  0.312926  0.329869  0.677280  1
  O  O11  1  0.313128  0.119118  0.275047  1
  O  O12  1  0.686872  0.880882  0.724953  1
  O  O13  1  0.687074  0.670131  0.322720  1
  F  F14  1  0.185810  0.249737  0.969680  1
  F  F15  1  0.208160  0.044467  0.581950  1
  F  F16  1  0.185719  0.450739  0.366634  1
  F  F17  1  0.187546  0.621349  0.786462  1
  F  F18  1  0.199599  0.826843  0.183635  1
  F  F19  1  0.298345  0.954193  0.876234  1
  F  F20  1  0.292238  0.553173  0.077117  1
  F  F21  1  0.287847  0.751352  0.481761  1
  F  F22  1  0.712153  0.248648  0.518239  1
  F  F23  1  0.701655  0.045807  0.123766  1
  F  F24  1  0.707762  0.446827  0.922883  1
  F  F25  1  0.814281  0.549261  0.633366  1
  F  F26  1  0.791840  0.955533  0.418050  1
  F  F27  1  0.800401  0.173157  0.816365  1
  F  F28  1  0.814190  0.750263  0.030320  1
  F  F29  1  0.812454  0.378651  0.213538  1
