# generated using pymatgen
data_Li7MnNi3(PO4)6
_symmetry_space_group_name_H-M   'P 1'
_cell_length_a   8.74238440
_cell_length_b   8.74238440
_cell_length_c   8.74238440
_cell_angle_alpha   60.18565113
_cell_angle_beta   60.18565113
_cell_angle_gamma   60.18565113
_symmetry_Int_Tables_number   1
_chemical_formula_structural   Li7MnNi3(PO4)6
_chemical_formula_sum   'Li7 Mn1 Ni3 P6 O24'
_cell_volume   474.45686977
_cell_formula_units_Z   1
loop_
 _symmetry_equiv_pos_site_id
 _symmetry_equiv_pos_as_xyz
  1  'x, y, z'
loop_
 _atom_site_type_symbol
 _atom_site_label
 _atom_site_symmetry_multiplicity
 _atom_site_fract_x
 _atom_site_fract_y
 _atom_site_fract_z
 _atom_site_occupancy
  Li  Li0  1  0.722278  0.327462  0.149047  1
  Li  Li1  1  0.149047  0.722278  0.327462  1
  Li  Li2  1  0.327462  0.149047  0.722278  1
  Li  Li3  1  0.484254  0.484254  0.484254  1
  Li  Li4  1  0.720667  0.889512  0.235244  1
  Li  Li5  1  0.889512  0.235244  0.720667  1
  Li  Li6  1  0.235244  0.720667  0.889512  1
  Mn  Mn7  1  0.853899  0.853899  0.853899  1
  Ni  Ni8  1  0.350503  0.350503  0.350503  1
  Ni  Ni9  1  0.144534  0.144534  0.144534  1
  Ni  Ni10  1  0.642077  0.642077  0.642077  1
  P  P11  1  0.468798  0.740354  0.042521  1
  P  P12  1  0.740354  0.042521  0.468798  1
  P  P13  1  0.042521  0.468798  0.740354  1
  P  P14  1  0.958140  0.546100  0.239081  1
  P  P15  1  0.239081  0.958140  0.546100  1
  P  P16  1  0.546100  0.239081  0.958140  1
  O  O17  1  0.278388  0.895750  0.084932  1
  O  O18  1  0.468865  0.562508  0.220563  1
  O  O19  1  0.639483  0.780164  0.006331  1
  O  O20  1  0.709654  0.878936  0.478722  1
  O  O21  1  0.895750  0.084932  0.278388  1
  O  O22  1  0.562508  0.220563  0.468865  1
  O  O23  1  0.878936  0.478722  0.709654  1
  O  O24  1  0.220563  0.468865  0.562508  1
  O  O25  1  0.981124  0.376698  0.212414  1
  O  O26  1  0.961682  0.725570  0.054686  1
  O  O27  1  0.478722  0.709654  0.878936  1
  O  O28  1  0.212414  0.981124  0.376698  1
  O  O29  1  0.780164  0.006331  0.639483  1
  O  O30  1  0.531314  0.277468  0.120374  1
  O  O31  1  0.084932  0.278388  0.895750  1
  O  O32  1  0.006331  0.639483  0.780164  1
  O  O33  1  0.763678  0.602023  0.384917  1
  O  O34  1  0.120374  0.531314  0.277468  1
  O  O35  1  0.384917  0.763678  0.602023  1
  O  O36  1  0.054686  0.961682  0.725570  1
  O  O37  1  0.277468  0.120374  0.531314  1
  O  O38  1  0.376698  0.212414  0.981124  1
  O  O39  1  0.602023  0.384917  0.763678  1
  O  O40  1  0.725570  0.054686  0.961682  1
