# generated using pymatgen
data_ZrP2(HO4)2
_symmetry_space_group_name_H-M   'P 1'
_cell_length_a   9.79414579
_cell_length_b   9.79414579
_cell_length_c   9.79414579
_cell_angle_alpha   108.07204904
_cell_angle_beta   108.07204904
_cell_angle_gamma   112.30733531
_symmetry_Int_Tables_number   1
_chemical_formula_structural   ZrP2(HO4)2
_chemical_formula_sum   'Zr4 P8 H8 O32'
_cell_volume   721.89605615
_cell_formula_units_Z   4
loop_
 _symmetry_equiv_pos_site_id
 _symmetry_equiv_pos_as_xyz
  1  'x, y, z'
loop_
 _atom_site_type_symbol
 _atom_site_label
 _atom_site_symmetry_multiplicity
 _atom_site_fract_x
 _atom_site_fract_y
 _atom_site_fract_z
 _atom_site_occupancy
  Zr  Zr0  1  0.755003  0.255003  0.500000  1
  Zr  Zr1  1  0.255003  0.755003  0.500000  1
  Zr  Zr2  1  0.505003  0.505003  0.000000  1
  Zr  Zr3  1  0.005003  0.005003  0.000000  1
  P  P4  1  0.465036  0.807102  0.267118  1
  P  P5  1  0.965036  0.697917  0.657933  1
  P  P6  1  0.447917  0.215036  0.157933  1
  P  P7  1  0.557102  0.715036  0.767118  1
  P  P8  1  0.539984  0.197917  0.732882  1
  P  P9  1  0.039984  0.307102  0.342067  1
  P  P10  1  0.057102  0.289984  0.842067  1
  P  P11  1  0.947917  0.789984  0.232882  1
  H  H12  1  0.218380  0.680009  0.052091  1
  H  H13  1  0.718380  0.666289  0.538371  1
  H  H14  1  0.416289  0.968380  0.038371  1
  H  H15  1  0.430009  0.468380  0.552091  1
  H  H16  1  0.627918  0.166289  0.947909  1
  H  H17  1  0.127918  0.180009  0.461629  1
  H  H18  1  0.930009  0.377918  0.961629  1
  H  H19  1  0.916289  0.877918  0.447909  1
  O  O20  1  0.322235  0.792676  0.116974  1
  O  O21  1  0.822235  0.705261  0.529558  1
  O  O22  1  0.455261  0.072235  0.029558  1
  O  O23  1  0.542676  0.572235  0.616974  1
  O  O24  1  0.675702  0.205261  0.883026  1
  O  O25  1  0.175702  0.292676  0.470442  1
  O  O26  1  0.042676  0.425702  0.970442  1
  O  O27  1  0.955261  0.925702  0.383026  1
  O  O28  1  0.606805  0.991623  0.357492  1
  O  O29  1  0.106805  0.749314  0.615182  1
  O  O30  1  0.499314  0.356805  0.115182  1
  O  O31  1  0.741623  0.856805  0.857492  1
  O  O32  1  0.634132  0.249314  0.642508  1
  O  O33  1  0.134132  0.491623  0.384818  1
  O  O34  1  0.241623  0.384132  0.884818  1
  O  O35  1  0.999314  0.884132  0.142508  1
  O  O36  1  0.573180  0.270018  0.332496  1
  O  O37  1  0.073180  0.740684  0.303162  1
  O  O38  1  0.490684  0.323180  0.803162  1
  O  O39  1  0.020018  0.823180  0.832496  1
  O  O40  1  0.937522  0.240684  0.667504  1
  O  O41  1  0.437522  0.770018  0.696838  1
  O  O42  1  0.520018  0.687522  0.196838  1
  O  O43  1  0.990684  0.187522  0.167504  1
  O  O44  1  0.893899  0.518801  0.634197  1
  O  O45  1  0.393899  0.759702  0.375098  1
  O  O46  1  0.509702  0.643899  0.875098  1
  O  O47  1  0.268801  0.143899  0.134197  1
  O  O48  1  0.884604  0.259702  0.365803  1
  O  O49  1  0.384604  0.018801  0.624902  1
  O  O50  1  0.768801  0.634604  0.124902  1
  O  O51  1  0.009702  0.134604  0.865803  1
