# generated using pymatgen
data_NaMnPCO7
_symmetry_space_group_name_H-M   'P 1'
_cell_length_a   8.10642241
_cell_length_b   8.12357210
_cell_length_c   10.33602912
_cell_angle_alpha   107.50231181
_cell_angle_beta   107.50910208
_cell_angle_gamma   100.47186465
_symmetry_Int_Tables_number   1
_chemical_formula_structural   NaMnPCO7
_chemical_formula_sum   'Na4 Mn4 P4 C4 O28'
_cell_volume   590.69074896
_cell_formula_units_Z   4
loop_
 _symmetry_equiv_pos_site_id
 _symmetry_equiv_pos_as_xyz
  1  'x, y, z'
loop_
 _atom_site_type_symbol
 _atom_site_label
 _atom_site_symmetry_multiplicity
 _atom_site_fract_x
 _atom_site_fract_y
 _atom_site_fract_z
 _atom_site_occupancy
  Na  Na0  1  0.267274  0.226228  0.245611  1
  Na  Na1  1  0.975425  0.514880  0.245026  1
  Na  Na2  1  0.024575  0.485120  0.754974  1
  Na  Na3  1  0.732726  0.773772  0.754389  1
  Mn  Mn4  1  0.931015  0.180419  0.343549  1
  Mn  Mn5  1  0.443618  0.693937  0.339329  1
  Mn  Mn6  1  0.556382  0.306063  0.660671  1
  Mn  Mn7  1  0.068985  0.819581  0.656451  1
  P  P8  1  0.200695  0.948246  0.430054  1
  P  P9  1  0.696677  0.448655  0.433009  1
  P  P10  1  0.303323  0.551345  0.566991  1
  P  P11  1  0.799305  0.051754  0.569946  1
  C  C12  1  0.774669  0.031258  0.077600  1
  C  C13  1  0.280798  0.524877  0.075600  1
  C  C14  1  0.719202  0.475123  0.924400  1
  C  C15  1  0.225331  0.968742  0.922400  1
  O  O16  1  0.305528  0.045878  0.056453  1
  O  O17  1  0.802198  0.560745  0.056532  1
  O  O18  1  0.422320  0.668323  0.137115  1
  O  O19  1  0.921178  0.174621  0.144273  1
  O  O20  1  0.727947  0.982966  0.174811  1
  O  O21  1  0.236007  0.482413  0.178636  1
  O  O22  1  0.271383  0.827570  0.325470  1
  O  O23  1  0.090264  0.033109  0.331166  1
  O  O24  1  0.785895  0.342399  0.335946  1
  O  O25  1  0.581925  0.525257  0.330354  1
  O  O26  1  0.158204  0.404168  0.423467  1
  O  O27  1  0.569649  0.321854  0.472777  1
  O  O28  1  0.071696  0.820924  0.469164  1
  O  O29  1  0.652304  0.908728  0.428741  1
  O  O30  1  0.347696  0.091272  0.571259  1
  O  O31  1  0.430351  0.678146  0.527223  1
  O  O32  1  0.928304  0.179076  0.530836  1
  O  O33  1  0.841796  0.595832  0.576533  1
  O  O34  1  0.214105  0.657601  0.664054  1
  O  O35  1  0.418075  0.474743  0.669646  1
  O  O36  1  0.728617  0.172430  0.674530  1
  O  O37  1  0.909736  0.966891  0.668834  1
  O  O38  1  0.763993  0.517587  0.821364  1
  O  O39  1  0.272053  0.017034  0.825189  1
  O  O40  1  0.577680  0.331677  0.862885  1
  O  O41  1  0.078822  0.825379  0.855727  1
  O  O42  1  0.694472  0.954122  0.943547  1
  O  O43  1  0.197802  0.439255  0.943468  1
