# generated using pymatgen
data_K4Li5Mn2O8
_symmetry_space_group_name_H-M   'P 1'
_cell_length_a   5.55544234
_cell_length_b   8.92256512
_cell_length_c   10.95176933
_cell_angle_alpha   90.90499823
_cell_angle_beta   100.01469810
_cell_angle_gamma   90.05913518
_symmetry_Int_Tables_number   1
_chemical_formula_structural   K4Li5Mn2O8
_chemical_formula_sum   'K8 Li10 Mn4 O16'
_cell_volume   534.52384353
_cell_formula_units_Z   2
loop_
 _symmetry_equiv_pos_site_id
 _symmetry_equiv_pos_as_xyz
  1  'x, y, z'
loop_
 _atom_site_type_symbol
 _atom_site_label
 _atom_site_symmetry_multiplicity
 _atom_site_fract_x
 _atom_site_fract_y
 _atom_site_fract_z
 _atom_site_occupancy
  K  K0  1  0.925219  0.009659  0.151179  1
  K  K1  1  0.833906  0.761460  0.635751  1
  K  K2  1  0.669442  0.492517  0.370120  1
  K  K3  1  0.596848  0.238001  0.853315  1
  K  K4  1  0.375167  0.759710  0.157270  1
  K  K5  1  0.289567  0.468830  0.647976  1
  K  K6  1  0.165736  0.232304  0.371798  1
  K  K7  1  0.065972  0.036344  0.815891  1
  Li  Li8  1  0.901312  0.746496  0.305327  1
  Li  Li9  1  0.899693  0.471947  0.800949  1
  Li  Li10  1  0.689696  0.486026  0.074226  1
  Li  Li11  1  0.770766  0.983163  0.423182  1
  Li  Li12  1  0.589290  0.242270  0.197504  1
  Li  Li13  1  0.407551  0.762286  0.798888  1
  Li  Li14  1  0.469098  0.976589  0.994442  1
  Li  Li15  1  0.313901  0.527205  0.933737  1
  Li  Li16  1  0.220932  0.014720  0.564778  1
  Li  Li17  1  0.089410  0.518126  0.201473  1
  Mn  Mn18  1  0.845636  0.712379  0.953171  1
  Mn  Mn19  1  0.159416  0.300547  0.050237  1
  Mn  Mn20  1  0.318285  0.772723  0.446965  1
  Mn  Mn21  1  0.700661  0.219367  0.554971  1
  O  O22  1  0.903323  0.320558  0.150527  1
  O  O23  1  0.849316  0.692661  0.128779  1
  O  O24  1  0.891932  0.059663  0.589178  1
  O  O25  1  0.783298  0.405578  0.623778  1
  O  O26  1  0.666404  0.194732  0.381911  1
  O  O27  1  0.676662  0.902984  0.903656  1
  O  O28  1  0.605668  0.783008  0.388269  1
  O  O29  1  0.645157  0.542859  0.891918  1
  O  O30  1  0.366465  0.464053  0.119301  1
  O  O31  1  0.415525  0.194419  0.606640  1
  O  O32  1  0.331434  0.105516  0.085073  1
  O  O33  1  0.324637  0.803013  0.612281  1
  O  O34  1  0.180394  0.601264  0.370309  1
  O  O35  1  0.102587  0.918038  0.385844  1
  O  O36  1  0.152060  0.330850  0.882001  1
  O  O37  1  0.106519  0.695238  0.859388  1
