# generated using pymatgen
data_MgH40C10Br2(N2O)10
_symmetry_space_group_name_H-M   'P 1'
_cell_length_a   9.87148537
_cell_length_b   7.20174201
_cell_length_c   24.05637036
_cell_angle_alpha   90.00000000
_cell_angle_beta   93.90112165
_cell_angle_gamma   90.00000000
_symmetry_Int_Tables_number   1
_chemical_formula_structural   MgH40C10Br2(N2O)10
_chemical_formula_sum   'Mg2 H80 C20 Br4 N40 O20'
_cell_volume   1706.25020387
_cell_formula_units_Z   2
loop_
 _symmetry_equiv_pos_site_id
 _symmetry_equiv_pos_as_xyz
  1  'x, y, z'
loop_
 _atom_site_type_symbol
 _atom_site_label
 _atom_site_symmetry_multiplicity
 _atom_site_fract_x
 _atom_site_fract_y
 _atom_site_fract_z
 _atom_site_occupancy
  Mg  Mg0  1  0.000000  0.000000  0.000000  1
  Mg  Mg1  1  0.000000  0.500000  0.500000  1
  H  H2  1  0.228830  0.738713  0.993996  1
  H  H3  1  0.771170  0.238713  0.506004  1
  H  H4  1  0.771170  0.261287  0.006004  1
  H  H5  1  0.228830  0.761287  0.493996  1
  H  H6  1  0.320342  0.620659  0.944655  1
  H  H7  1  0.679658  0.120659  0.555345  1
  H  H8  1  0.679658  0.379341  0.055345  1
  H  H9  1  0.320342  0.879341  0.444655  1
  H  H10  1  0.266394  0.696945  0.849219  1
  H  H11  1  0.733606  0.196945  0.650781  1
  H  H12  1  0.733606  0.303055  0.150781  1
  H  H13  1  0.266394  0.803055  0.349219  1
  H  H14  1  0.107496  0.782979  0.830812  1
  H  H15  1  0.892504  0.282979  0.669188  1
  H  H16  1  0.892504  0.217021  0.169188  1
  H  H17  1  0.107496  0.717021  0.330812  1
  H  H18  1  0.262202  0.669277  0.128116  1
  H  H19  1  0.737798  0.169277  0.371884  1
  H  H20  1  0.737798  0.330723  0.871884  1
  H  H21  1  0.262202  0.830723  0.628116  1
  H  H22  1  0.136115  0.572810  0.165956  1
  H  H23  1  0.863885  0.072810  0.334044  1
  H  H24  1  0.863885  0.427190  0.834044  1
  H  H25  1  0.136115  0.927190  0.665956  1
  H  H26  1  0.907756  0.578490  0.127248  1
  H  H27  1  0.092244  0.078490  0.372752  1
  H  H28  1  0.092244  0.421510  0.872752  1
  H  H29  1  0.907756  0.921510  0.627248  1
  H  H30  1  0.869996  0.708758  0.066890  1
  H  H31  1  0.130004  0.208758  0.433110  1
  H  H32  1  0.130004  0.291242  0.933110  1
  H  H33  1  0.869996  0.791242  0.566890  1
  H  H34  1  0.398002  0.338347  0.000335  1
  H  H35  1  0.601998  0.838347  0.499665  1
  H  H36  1  0.601998  0.661653  0.999665  1
  H  H37  1  0.398002  0.161653  0.500335  1
  H  H38  1  0.429510  0.343490  0.072466  1
  H  H39  1  0.570490  0.843490  0.427534  1
  H  H40  1  0.570490  0.656510  0.927534  1
  H  H41  1  0.429510  0.156510  0.572466  1
  H  H42  1  0.147635  0.077090  0.103861  1
  H  H43  1  0.852365  0.577090  0.396139  1
  H  H44  1  0.852365  0.922910  0.896139  1
  H  H45  1  0.147635  0.422910  0.603861  1
  H  H46  1  0.311941  0.145119  0.129205  1
  H  H47  1  0.688059  0.645119  0.370795  1
  H  H48  1  0.688059  0.854881  0.870795  1
  H  H49  1  0.311941  0.354881  0.629205  1
  H  H50  1  0.500652  0.305185  0.315409  1
  H  H51  1  0.499348  0.805185  0.184591  1
  H  H52  1  0.499348  0.694815  0.684591  1
  H  H53  1  0.500652  0.194815  0.815409  1
  H  H54  1  0.499508  0.071331  0.329904  1
  H  H55  1  0.500492  0.571331  0.170096  1
  H  H56  1  0.500492  0.928669  0.670096  1
  H  H57  1  0.499508  0.428669  0.829904  1
  H  H58  1  0.366862  0.436505  0.441341  1
  H  H59  1  0.633138  0.936505  0.058659  1
  H  H60  1  0.633138  0.563495  0.558659  1
  H  H61  1  0.366862  0.063495  0.941341  1
  H  H62  1  0.429941  0.515002  0.379284  1
  H  H63  1  0.570059  0.015002  0.120716  1
  H  H64  1  0.570059  0.484998  0.620716  1
  H  H65  1  0.429941  0.984998  0.879284  1
  H  H66  1  0.718723  0.989841  0.760053  1
  H  H67  1  0.281277  0.489841  0.739947  1
  H  H68  1  0.281277  0.010159  0.239947  1
  H  H69  1  0.718723  0.510159  0.260053  1
  H  H70  1  0.874666  0.107824  0.761675  1
  H  H71  1  0.125334  0.607824  0.738325  1
  H  H72  1  0.125334  0.892176  0.238325  1
  H  H73  1  0.874666  0.392176  0.261675  1
  H  H74  1  0.873576  0.543926  0.747441  1
  H  H75  1  0.126424  0.043926  0.752559  1
  H  H76  1  0.126424  0.456074  0.252559  1
  H  H77  1  0.873576  0.956074  0.247441  1
  H  H78  1  0.718779  0.660454  0.757772  1
  H  H79  1  0.281221  0.160454  0.742228  1
  H  H80  1  0.281221  0.339546  0.242228  1
  H  H81  1  0.718779  0.839546  0.257772  1
  C  C82  1  0.157564  0.779467  0.914597  1
  C  C83  1  0.842436  0.279467  0.585403  1
  C  C84  1  0.842436  0.220533  0.085403  1
  C  C85  1  0.157564  0.720533  0.414597  1
  C  C86  1  0.069191  0.705025  0.092273  1
  C  C87  1  0.930809  0.205025  0.407727  1
  C  C88  1  0.930809  0.294975  0.907727  1
  C  C89  1  0.069191  0.794975  0.592273  1
  C  C90  1  0.257815  0.200558  0.045951  1
  C  C91  1  0.742185  0.700558  0.454049  1
  C  C92  1  0.742185  0.799442  0.954049  1
  C  C93  1  0.257815  0.299442  0.545951  1
  C  C94  1  0.445134  0.232236  0.393842  1
  C  C95  1  0.554866  0.732236  0.106158  1
  C  C96  1  0.554866  0.767764  0.606158  1
  C  C97  1  0.445134  0.267764  0.893842  1
  C  C98  1  0.890520  0.825897  0.755962  1
  C  C99  1  0.109480  0.325897  0.744038  1
  C  C100  1  0.109480  0.174103  0.244038  1
  C  C101  1  0.890520  0.674103  0.255962  1
  Br  Br102  1  0.478315  0.773733  0.801563  1
  Br  Br103  1  0.521685  0.273733  0.698437  1
  Br  Br104  1  0.521685  0.226267  0.198437  1
  Br  Br105  1  0.478315  0.726267  0.301563  1
  N  N106  1  0.254687  0.724591  0.953741  1
  N  N107  1  0.745313  0.224591  0.546259  1
  N  N108  1  0.745313  0.275409  0.046259  1
  N  N109  1  0.254687  0.775409  0.453741  1
  N  N110  1  0.170025  0.721275  0.861066  1
  N  N111  1  0.829975  0.221275  0.638934  1
  N  N112  1  0.829975  0.278725  0.138934  1
  N  N113  1  0.170025  0.778725  0.361066  1
  N  N114  1  0.163036  0.634484  0.130392  1
  N  N115  1  0.836964  0.134484  0.369608  1
  N  N116  1  0.836964  0.365516  0.869608  1
  N  N117  1  0.163036  0.865516  0.630392  1
  N  N118  1  0.936558  0.676598  0.099981  1
  N  N119  1  0.063442  0.176598  0.400019  1
  N  N120  1  0.063442  0.323402  0.900019  1
  N  N121  1  0.936558  0.823402  0.599981  1
  N  N122  1  0.375490  0.290623  0.038860  1
  N  N123  1  0.624510  0.790623  0.461140  1
  N  N124  1  0.624510  0.709377  0.961140  1
  N  N125  1  0.375490  0.209377  0.538860  1
  N  N126  1  0.237309  0.139739  0.097810  1
  N  N127  1  0.762691  0.639739  0.402190  1
  N  N128  1  0.762691  0.860261  0.902190  1
  N  N129  1  0.237309  0.360261  0.597810  1
  N  N130  1  0.506975  0.204023  0.345028  1
  N  N131  1  0.493025  0.704023  0.154972  1
  N  N132  1  0.493025  0.795977  0.654972  1
  N  N133  1  0.506975  0.295977  0.845028  1
  N  N134  1  0.418807  0.410217  0.407301  1
  N  N135  1  0.581193  0.910217  0.092699  1
  N  N136  1  0.581193  0.589783  0.592699  1
  N  N137  1  0.418807  0.089783  0.907301  1
  N  N138  1  0.821779  0.985597  0.763501  1
  N  N139  1  0.178221  0.485597  0.736499  1
  N  N140  1  0.178221  0.014403  0.236499  1
  N  N141  1  0.821779  0.514403  0.263501  1
  N  N142  1  0.820498  0.664396  0.753149  1
  N  N143  1  0.179502  0.164396  0.746851  1
  N  N144  1  0.179502  0.335604  0.246851  1
  N  N145  1  0.820498  0.835604  0.253149  1
  O  O146  1  0.058288  0.879126  0.926754  1
  O  O147  1  0.941712  0.379126  0.573246  1
  O  O148  1  0.941712  0.120874  0.073246  1
  O  O149  1  0.058288  0.620874  0.426754  1
  O  O150  1  0.106563  0.798004  0.050954  1
  O  O151  1  0.893437  0.298004  0.449046  1
  O  O152  1  0.893437  0.201996  0.949046  1
  O  O153  1  0.106563  0.701996  0.550954  1
  O  O154  1  0.172120  0.171638  0.004725  1
  O  O155  1  0.827880  0.671638  0.495275  1
  O  O156  1  0.827880  0.828362  0.995275  1
  O  O157  1  0.172120  0.328362  0.504725  1
  O  O158  1  0.421772  0.097571  0.425198  1
  O  O159  1  0.578228  0.597571  0.074802  1
  O  O160  1  0.578228  0.902429  0.574802  1
  O  O161  1  0.421772  0.402429  0.925198  1
  O  O162  1  0.019112  0.827729  0.752615  1
  O  O163  1  0.980888  0.327729  0.747385  1
  O  O164  1  0.980888  0.172271  0.247385  1
  O  O165  1  0.019112  0.672271  0.252615  1
