# generated using pymatgen
data_Ag2B8O13
_symmetry_space_group_name_H-M   'P 1'
_cell_length_a   7.89822624
_cell_length_b   10.66395301
_cell_length_c   12.03895666
_cell_angle_alpha   80.22462040
_cell_angle_beta   89.99327042
_cell_angle_gamma   89.99107001
_symmetry_Int_Tables_number   1
_chemical_formula_structural   Ag2B8O13
_chemical_formula_sum   'Ag8 B32 O52'
_cell_volume   999.27464740
_cell_formula_units_Z   4
loop_
 _symmetry_equiv_pos_site_id
 _symmetry_equiv_pos_as_xyz
  1  'x, y, z'
loop_
 _atom_site_type_symbol
 _atom_site_label
 _atom_site_symmetry_multiplicity
 _atom_site_fract_x
 _atom_site_fract_y
 _atom_site_fract_z
 _atom_site_occupancy
  Ag  Ag0  1  0.137376  0.463992  0.084600  1
  Ag  Ag1  1  0.362537  0.963908  0.085163  1
  Ag  Ag2  1  0.390827  0.311647  0.382716  1
  Ag  Ag3  1  0.071155  0.802107  0.389916  1
  Ag  Ag4  1  0.927464  0.197690  0.610334  1
  Ag  Ag5  1  0.571540  0.697689  0.610211  1
  Ag  Ag6  1  0.637476  0.036165  0.914759  1
  Ag  Ag7  1  0.862350  0.536153  0.914849  1
  B  B8  1  0.659177  0.278254  0.004199  1
  B  B9  1  0.840942  0.778279  0.004280  1
  B  B10  1  0.414093  0.237359  0.137768  1
  B  B11  1  0.594758  0.434727  0.124686  1
  B  B12  1  0.085994  0.737718  0.137911  1
  B  B13  1  0.918241  0.110808  0.239300  1
  B  B14  1  0.905245  0.934746  0.124664  1
  B  B15  1  0.489653  0.041794  0.296935  1
  B  B16  1  0.581520  0.611001  0.239232  1
  B  B17  1  0.948970  0.304967  0.327139  1
  B  B18  1  0.010247  0.541761  0.296726  1
  B  B19  1  0.106868  0.102225  0.397289  1
  B  B20  1  0.550309  0.805024  0.327213  1
  B  B21  1  0.393098  0.603585  0.397185  1
  B  B22  1  0.813576  0.451778  0.441550  1
  B  B23  1  0.314211  0.048175  0.558443  1
  B  B24  1  0.686015  0.952067  0.441461  1
  B  B25  1  0.185980  0.547991  0.558547  1
  B  B26  1  0.606829  0.396675  0.602764  1
  B  B27  1  0.450341  0.195590  0.672560  1
  B  B28  1  0.892978  0.897079  0.602806  1
  B  B29  1  0.989369  0.458381  0.703282  1
  B  B30  1  0.050102  0.695370  0.672799  1
  B  B31  1  0.418497  0.389258  0.760534  1
  B  B32  1  0.510602  0.958511  0.703255  1
  B  B33  1  0.094774  0.065268  0.875296  1
  B  B34  1  0.081514  0.889303  0.760654  1
  B  B35  1  0.914071  0.262328  0.862039  1
  B  B36  1  0.405289  0.565212  0.875308  1
  B  B37  1  0.585930  0.762379  0.861994  1
  B  B38  1  0.159000  0.221723  0.995642  1
  B  B39  1  0.340950  0.721787  0.995705  1
  O  O40  1  0.536880  0.199604  0.058235  1
  O  O41  1  0.688301  0.397535  0.036619  1
  O  O42  1  0.244189  0.255751  0.084141  1
  O  O43  1  0.859789  0.050551  0.153638  1
  O  O44  1  0.963237  0.699663  0.058362  1
  O  O45  1  0.811849  0.897595  0.036530  1
  O  O46  1  0.255780  0.755727  0.084215  1
  O  O47  1  0.463297  0.361942  0.170703  1
  O  O48  1  0.640285  0.550404  0.153721  1
  O  O49  1  0.401737  0.144960  0.243188  1
  O  O50  1  0.878102  0.233312  0.244363  1
  O  O51  1  0.036304  0.861862  0.171193  1
  O  O52  1  0.019860  0.039790  0.322575  1
  O  O53  1  0.027478  0.423844  0.266236  1
  O  O54  1  0.097804  0.645144  0.243570  1
  O  O55  1  0.621962  0.733283  0.244438  1
  O  O56  1  0.592632  0.055370  0.388303  1
  O  O57  1  0.479181  0.540505  0.322310  1
  O  O58  1  0.473092  0.924062  0.266135  1
  O  O59  1  0.084159  0.228841  0.397659  1
  O  O60  1  0.820483  0.336162  0.407878  1
  O  O61  1  0.907056  0.555394  0.388126  1
  O  O62  1  0.212384  0.024283  0.470081  1
  O  O63  1  0.416260  0.729492  0.398112  1
  O  O64  1  0.680545  0.836300  0.407680  1
  O  O65  1  0.287394  0.524743  0.469771  1
  O  O66  1  0.712165  0.475238  0.529909  1
  O  O67  1  0.319469  0.163741  0.592295  1
  O  O68  1  0.584395  0.270572  0.602812  1
  O  O69  1  0.787718  0.975415  0.529952  1
  O  O70  1  0.092434  0.444658  0.611602  1
  O  O71  1  0.180465  0.663643  0.592340  1
  O  O72  1  0.916394  0.770871  0.602051  1
  O  O73  1  0.526872  0.076054  0.733974  1
  O  O74  1  0.519946  0.460188  0.677253  1
  O  O75  1  0.407683  0.944732  0.611613  1
  O  O76  1  0.378025  0.266877  0.755533  1
  O  O77  1  0.902376  0.354854  0.756437  1
  O  O78  1  0.973075  0.576140  0.733913  1
  O  O79  1  0.979682  0.960057  0.677519  1
  O  O80  1  0.963709  0.138115  0.828877  1
  O  O81  1  0.121884  0.766764  0.755575  1
  O  O82  1  0.597770  0.854757  0.756396  1
  O  O83  1  0.359783  0.449557  0.846365  1
  O  O84  1  0.536377  0.638110  0.828896  1
  O  O85  1  0.744271  0.244295  0.915800  1
  O  O86  1  0.188172  0.102404  0.963484  1
  O  O87  1  0.036742  0.300337  0.941704  1
  O  O88  1  0.140238  0.949472  0.846353  1
  O  O89  1  0.755769  0.744246  0.915817  1
  O  O90  1  0.311851  0.602442  0.963471  1
  O  O91  1  0.463245  0.800337  0.941688  1
