# generated using pymatgen
data_Li4Ti2Mn3Cu3O16
_symmetry_space_group_name_H-M   'P 1'
_cell_length_a   5.82456801
_cell_length_b   5.84941381
_cell_length_c   9.49503293
_cell_angle_alpha   90.58954243
_cell_angle_beta   90.42759011
_cell_angle_gamma   119.46126023
_symmetry_Int_Tables_number   1
_chemical_formula_structural   Li4Ti2Mn3Cu3O16
_chemical_formula_sum   'Li4 Ti2 Mn3 Cu3 O16'
_cell_volume   281.62253159
_cell_formula_units_Z   1
loop_
 _symmetry_equiv_pos_site_id
 _symmetry_equiv_pos_as_xyz
  1  'x, y, z'
loop_
 _atom_site_type_symbol
 _atom_site_label
 _atom_site_symmetry_multiplicity
 _atom_site_fract_x
 _atom_site_fract_y
 _atom_site_fract_z
 _atom_site_occupancy
  Li  Li0  1  0.672973  0.338843  0.103164  1
  Li  Li1  1  0.000066  0.998982  0.003108  1
  Li  Li2  1  0.000203  0.000565  0.506905  1
  Li  Li3  1  0.333450  0.670467  0.605683  1
  Ti  Ti4  1  0.659568  0.319114  0.509138  1
  Ti  Ti5  1  0.333549  0.659187  0.999648  1
  Mn  Mn6  1  0.827360  0.655611  0.783954  1
  Mn  Mn7  1  0.660273  0.829783  0.285125  1
  Mn  Mn8  1  0.167677  0.828467  0.285103  1
  Cu  Cu9  1  0.828551  0.167682  0.785436  1
  Cu  Cu10  1  0.338817  0.168246  0.786044  1
  Cu  Cu11  1  0.174207  0.339833  0.284784  1
  O  O12  1  0.811554  0.146719  0.409742  1
  O  O13  1  0.517240  0.042331  0.649810  1
  O  O14  1  0.671431  0.340332  0.891450  1
  O  O15  1  0.993860  0.989457  0.694927  1
  O  O16  1  0.993942  0.993514  0.192997  1
  O  O17  1  0.327438  0.156869  0.405610  1
  O  O18  1  0.962728  0.495048  0.656200  1
  O  O19  1  0.528607  0.494776  0.657628  1
  O  O20  1  0.168976  0.334857  0.914889  1
  O  O21  1  0.836641  0.670575  0.395805  1
  O  O22  1  0.506678  0.544934  0.155225  1
  O  O23  1  0.044914  0.532450  0.160687  1
  O  O24  1  0.339994  0.674919  0.390589  1
  O  O25  1  0.663761  0.819292  0.903213  1
  O  O26  1  0.481199  0.969364  0.170069  1
  O  O27  1  0.154640  0.817782  0.905230  1
