# generated using pymatgen
data_Ho2TiO5
_symmetry_space_group_name_H-M   'P 1'
_cell_length_a   3.71577076
_cell_length_b   10.44513292
_cell_length_c   11.24137329
_cell_angle_alpha   90.00000000
_cell_angle_beta   90.00000000
_cell_angle_gamma   90.00000000
_symmetry_Int_Tables_number   1
_chemical_formula_structural   Ho2TiO5
_chemical_formula_sum   'Ho8 Ti4 O20'
_cell_volume   436.29702680
_cell_formula_units_Z   4
loop_
 _symmetry_equiv_pos_site_id
 _symmetry_equiv_pos_as_xyz
  1  'x, y, z'
loop_
 _atom_site_type_symbol
 _atom_site_label
 _atom_site_symmetry_multiplicity
 _atom_site_fract_x
 _atom_site_fract_y
 _atom_site_fract_z
 _atom_site_occupancy
  Ho  Ho0  1  0.250000  0.612219  0.776403  1
  Ho  Ho1  1  0.250000  0.635877  0.443230  1
  Ho  Ho2  1  0.750000  0.864123  0.943230  1
  Ho  Ho3  1  0.750000  0.887781  0.276403  1
  Ho  Ho4  1  0.250000  0.112219  0.723597  1
  Ho  Ho5  1  0.250000  0.135877  0.056770  1
  Ho  Ho6  1  0.750000  0.364123  0.556770  1
  Ho  Ho7  1  0.750000  0.387781  0.223597  1
  Ti  Ti8  1  0.250000  0.677999  0.120745  1
  Ti  Ti9  1  0.750000  0.822001  0.620745  1
  Ti  Ti10  1  0.250000  0.177999  0.379255  1
  Ti  Ti11  1  0.750000  0.322001  0.879255  1
  O  O12  1  0.750000  0.506867  0.395759  1
  O  O13  1  0.250000  0.511479  0.159005  1
  O  O14  1  0.250000  0.725747  0.956726  1
  O  O15  1  0.750000  0.740003  0.117139  1
  O  O16  1  0.750000  0.737298  0.771828  1
  O  O17  1  0.250000  0.762702  0.271828  1
  O  O18  1  0.250000  0.759997  0.617139  1
  O  O19  1  0.750000  0.774253  0.456726  1
  O  O20  1  0.750000  0.988521  0.659005  1
  O  O21  1  0.250000  0.993133  0.895759  1
  O  O22  1  0.750000  0.006867  0.104241  1
  O  O23  1  0.250000  0.011479  0.340995  1
  O  O24  1  0.250000  0.225747  0.543274  1
  O  O25  1  0.750000  0.240003  0.382861  1
  O  O26  1  0.750000  0.237298  0.728172  1
  O  O27  1  0.250000  0.262702  0.228172  1
  O  O28  1  0.250000  0.259997  0.882861  1
  O  O29  1  0.750000  0.274253  0.043274  1
  O  O30  1  0.750000  0.488521  0.840995  1
  O  O31  1  0.250000  0.493133  0.604241  1
