# generated using pymatgen
data_BaSrI4
_symmetry_space_group_name_H-M   'P 1'
_cell_length_a   8.18658068
_cell_length_b   8.36275565
_cell_length_c   17.40271514
_cell_angle_alpha   90.00000000
_cell_angle_beta   90.00000000
_cell_angle_gamma   90.00000000
_symmetry_Int_Tables_number   1
_chemical_formula_structural   BaSrI4
_chemical_formula_sum   'Ba4 Sr4 I16'
_cell_volume   1191.43118967
_cell_formula_units_Z   4
loop_
 _symmetry_equiv_pos_site_id
 _symmetry_equiv_pos_as_xyz
  1  'x, y, z'
loop_
 _atom_site_type_symbol
 _atom_site_label
 _atom_site_symmetry_multiplicity
 _atom_site_fract_x
 _atom_site_fract_y
 _atom_site_fract_z
 _atom_site_occupancy
  Ba  Ba0  1  0.250000  0.000000  0.131915  1
  Ba  Ba1  1  0.750000  0.000000  0.868085  1
  Ba  Ba2  1  0.250000  0.500000  0.631915  1
  Ba  Ba3  1  0.750000  0.500000  0.368085  1
  Sr  Sr4  1  0.250000  0.000000  0.405471  1
  Sr  Sr5  1  0.750000  0.000000  0.594529  1
  Sr  Sr6  1  0.750000  0.500000  0.094529  1
  Sr  Sr7  1  0.250000  0.500000  0.905471  1
  I  I8  1  0.012212  0.163059  0.277401  1
  I  I9  1  0.512212  0.163059  0.722599  1
  I  I10  1  0.003736  0.246253  0.012040  1
  I  I11  1  0.503736  0.246253  0.987960  1
  I  I12  1  0.503736  0.253747  0.487960  1
  I  I13  1  0.003736  0.253747  0.512040  1
  I  I14  1  0.512212  0.336941  0.222599  1
  I  I15  1  0.012212  0.336941  0.777401  1
  I  I16  1  0.987788  0.663059  0.222599  1
  I  I17  1  0.487788  0.663059  0.777401  1
  I  I18  1  0.996264  0.746253  0.487960  1
  I  I19  1  0.496264  0.746253  0.512040  1
  I  I20  1  0.496264  0.753747  0.012040  1
  I  I21  1  0.996264  0.753747  0.987960  1
  I  I22  1  0.987788  0.836941  0.722599  1
  I  I23  1  0.487788  0.836941  0.277401  1
