# generated using pymatgen
data_LiVSO4F3
_symmetry_space_group_name_H-M   'P 1'
_cell_length_a   7.07148625
_cell_length_b   10.33798383
_cell_length_c   8.05703513
_cell_angle_alpha   90.00000000
_cell_angle_beta   90.55958972
_cell_angle_gamma   90.00000000
_symmetry_Int_Tables_number   1
_chemical_formula_structural   LiVSO4F3
_chemical_formula_sum   'Li4 V4 S4 O16 F12'
_cell_volume   588.98074016
_cell_formula_units_Z   4
loop_
 _symmetry_equiv_pos_site_id
 _symmetry_equiv_pos_as_xyz
  1  'x, y, z'
loop_
 _atom_site_type_symbol
 _atom_site_label
 _atom_site_symmetry_multiplicity
 _atom_site_fract_x
 _atom_site_fract_y
 _atom_site_fract_z
 _atom_site_occupancy
  Li  Li0  1  0.675956  0.477180  0.421140  1
  Li  Li1  1  0.675956  0.522820  0.921140  1
  Li  Li2  1  0.808632  0.021293  0.427542  1
  Li  Li3  1  0.808632  0.978707  0.927542  1
  V  V4  1  0.000657  0.743527  0.493094  1
  V  V5  1  0.000657  0.256473  0.993094  1
  V  V6  1  0.500158  0.756909  0.492770  1
  V  V7  1  0.500158  0.243091  0.992770  1
  S  S8  1  0.255502  0.251265  0.319481  1
  S  S9  1  0.255502  0.748735  0.819481  1
  S  S10  1  0.747295  0.748996  0.161624  1
  S  S11  1  0.747295  0.251004  0.661624  1
  O  O12  1  0.103561  0.312357  0.201691  1
  O  O13  1  0.103561  0.687643  0.701691  1
  O  O14  1  0.164527  0.151506  0.413527  1
  O  O15  1  0.164527  0.848494  0.913527  1
  O  O16  1  0.353969  0.354197  0.405698  1
  O  O17  1  0.353969  0.645803  0.905698  1
  O  O18  1  0.401001  0.187137  0.200035  1
  O  O19  1  0.401001  0.812863  0.700035  1
  O  O20  1  0.598706  0.689886  0.276533  1
  O  O21  1  0.598706  0.310114  0.776533  1
  O  O22  1  0.670167  0.856435  0.065810  1
  O  O23  1  0.670167  0.143565  0.565810  1
  O  O24  1  0.820043  0.642970  0.062079  1
  O  O25  1  0.820043  0.357030  0.562079  1
  O  O26  1  0.901127  0.806835  0.274343  1
  O  O27  1  0.901127  0.193165  0.774343  1
  F  F28  1  0.998853  0.083425  0.048016  1
  F  F29  1  0.998853  0.916575  0.548016  1
  F  F30  1  0.249636  0.748660  0.394193  1
  F  F31  1  0.249636  0.251340  0.894193  1
  F  F32  1  0.505842  0.414755  0.053234  1
  F  F33  1  0.505842  0.585245  0.553234  1
  F  F34  1  0.555057  0.918008  0.417851  1
  F  F35  1  0.555057  0.081992  0.917851  1
  F  F36  1  0.751680  0.247437  0.100823  1
  F  F37  1  0.751680  0.752563  0.600823  1
  F  F38  1  0.943682  0.581735  0.422732  1
  F  F39  1  0.943682  0.418265  0.922732  1
