# generated using pymatgen
data_Ta2Co4O9
_symmetry_space_group_name_H-M   'P 1'
_cell_length_a   5.19834888
_cell_length_b   8.94225204
_cell_length_c   14.56418930
_cell_angle_alpha   90.00000000
_cell_angle_beta   90.00000000
_cell_angle_gamma   90.00000000
_symmetry_Int_Tables_number   1
_chemical_formula_structural   Ta2Co4O9
_chemical_formula_sum   'Ta8 Co16 O36'
_cell_volume   677.01555126
_cell_formula_units_Z   4
loop_
 _symmetry_equiv_pos_site_id
 _symmetry_equiv_pos_as_xyz
  1  'x, y, z'
loop_
 _atom_site_type_symbol
 _atom_site_label
 _atom_site_symmetry_multiplicity
 _atom_site_fract_x
 _atom_site_fract_y
 _atom_site_fract_z
 _atom_site_occupancy
  Ta  Ta0  1  0.000136  0.023491  0.605256  1
  Ta  Ta1  1  0.000136  0.976509  0.394744  1
  Ta  Ta2  1  0.499460  0.474481  0.104234  1
  Ta  Ta3  1  0.499460  0.525519  0.895766  1
  Ta  Ta4  1  0.500136  0.523491  0.394744  1
  Ta  Ta5  1  0.500136  0.476509  0.605256  1
  Ta  Ta6  1  0.999460  0.025519  0.104234  1
  Ta  Ta7  1  0.999460  0.974481  0.895766  1
  Co  Co8  1  0.000069  0.336175  0.441695  1
  Co  Co9  1  0.000069  0.663825  0.558305  1
  Co  Co10  1  0.003760  0.662657  0.251187  1
  Co  Co11  1  0.003760  0.337343  0.748813  1
  Co  Co12  1  0.497148  0.163053  0.248310  1
  Co  Co13  1  0.497148  0.836947  0.751690  1
  Co  Co14  1  0.498937  0.834801  0.061865  1
  Co  Co15  1  0.498937  0.165199  0.938135  1
  Co  Co16  1  0.500069  0.836175  0.558305  1
  Co  Co17  1  0.500069  0.163825  0.441695  1
  Co  Co18  1  0.503760  0.162657  0.748813  1
  Co  Co19  1  0.503760  0.837343  0.251187  1
  Co  Co20  1  0.997148  0.336947  0.248310  1
  Co  Co21  1  0.997148  0.663053  0.751690  1
  Co  Co22  1  0.998937  0.665199  0.061865  1
  Co  Co23  1  0.998937  0.334801  0.938135  1
  O  O24  1  0.146196  0.145782  0.000607  1
  O  O25  1  0.146196  0.854218  0.999393  1
  O  O26  1  0.163543  0.168225  0.676683  1
  O  O27  1  0.163543  0.831775  0.323317  1
  O  O28  1  0.171120  0.492991  0.336789  1
  O  O29  1  0.171120  0.507009  0.663211  1
  O  O30  1  0.173479  0.159428  0.345887  1
  O  O31  1  0.173479  0.840572  0.654113  1
  O  O32  1  0.215003  0.500000  0.000000  1
  O  O33  1  0.283347  0.000000  0.500000  1
  O  O34  1  0.330065  0.338240  0.847439  1
  O  O35  1  0.330065  0.661760  0.152561  1
  O  O36  1  0.326865  0.993344  0.163875  1
  O  O37  1  0.326865  0.006656  0.836125  1
  O  O38  1  0.335240  0.331731  0.176894  1
  O  O39  1  0.335240  0.668269  0.823106  1
  O  O40  1  0.355951  0.353431  0.499796  1
  O  O41  1  0.355951  0.646569  0.500204  1
  O  O42  1  0.646196  0.645782  0.999393  1
  O  O43  1  0.646196  0.354218  0.000607  1
  O  O44  1  0.663543  0.668225  0.323317  1
  O  O45  1  0.663543  0.331775  0.676683  1
  O  O46  1  0.671120  0.007009  0.336789  1
  O  O47  1  0.671120  0.992991  0.663211  1
  O  O48  1  0.673479  0.340572  0.345887  1
  O  O49  1  0.673479  0.659428  0.654113  1
  O  O50  1  0.715003  0.000000  0.000000  1
  O  O51  1  0.783347  0.500000  0.500000  1
  O  O52  1  0.830065  0.161760  0.847439  1
  O  O53  1  0.830065  0.838240  0.152561  1
  O  O54  1  0.826865  0.493344  0.836125  1
  O  O55  1  0.826865  0.506656  0.163875  1
  O  O56  1  0.835240  0.168269  0.176894  1
  O  O57  1  0.835240  0.831731  0.823106  1
  O  O58  1  0.855951  0.146569  0.499796  1
  O  O59  1  0.855951  0.853431  0.500204  1
