# generated using pymatgen
data_K2Cu5H8(Cl4O3)2
_symmetry_space_group_name_H-M   'P 1'
_cell_length_a   11.59085268
_cell_length_b   6.70385074
_cell_length_c   11.90242280
_cell_angle_alpha   90.00000000
_cell_angle_beta   90.76807400
_cell_angle_gamma   90.00000000
_symmetry_Int_Tables_number   1
_chemical_formula_structural   K2Cu5H8(Cl4O3)2
_chemical_formula_sum   'K4 Cu10 H16 Cl16 O12'
_cell_volume   924.77498126
_cell_formula_units_Z   2
loop_
 _symmetry_equiv_pos_site_id
 _symmetry_equiv_pos_as_xyz
  1  'x, y, z'
loop_
 _atom_site_type_symbol
 _atom_site_label
 _atom_site_symmetry_multiplicity
 _atom_site_fract_x
 _atom_site_fract_y
 _atom_site_fract_z
 _atom_site_occupancy
  K  K0  1  0.915169  0.591460  0.176191  1
  K  K1  1  0.084831  0.091460  0.323809  1
  K  K2  1  0.084831  0.408540  0.823809  1
  K  K3  1  0.915169  0.908540  0.676191  1
  Cu  Cu4  1  0.500000  0.000000  0.500000  1
  Cu  Cu5  1  0.500000  0.500000  0.000000  1
  Cu  Cu6  1  0.719649  0.006016  0.305311  1
  Cu  Cu7  1  0.280351  0.506016  0.194689  1
  Cu  Cu8  1  0.280351  0.993984  0.694689  1
  Cu  Cu9  1  0.719649  0.493984  0.805311  1
  Cu  Cu10  1  0.486932  0.839670  0.237286  1
  Cu  Cu11  1  0.513068  0.339670  0.262714  1
  Cu  Cu12  1  0.513068  0.160330  0.762714  1
  Cu  Cu13  1  0.486932  0.660330  0.737286  1
  H  H14  1  0.614331  0.103256  0.132183  1
  H  H15  1  0.385669  0.603256  0.367817  1
  H  H16  1  0.385669  0.896744  0.867817  1
  H  H17  1  0.614331  0.396744  0.632183  1
  H  H18  1  0.619365  0.735796  0.409455  1
  H  H19  1  0.380635  0.235796  0.090545  1
  H  H20  1  0.380635  0.264204  0.590545  1
  H  H21  1  0.619365  0.764204  0.909455  1
  H  H22  1  0.878221  0.359946  0.464880  1
  H  H23  1  0.121779  0.859946  0.035120  1
  H  H24  1  0.121779  0.640054  0.535120  1
  H  H25  1  0.878221  0.140054  0.964880  1
  H  H26  1  0.962541  0.507092  0.410562  1
  H  H27  1  0.037459  0.007092  0.089438  1
  H  H28  1  0.037459  0.492908  0.589438  1
  H  H29  1  0.962541  0.992908  0.910562  1
  Cl  Cl30  1  0.361976  0.089712  0.366426  1
  Cl  Cl31  1  0.638024  0.589712  0.133574  1
  Cl  Cl32  1  0.638024  0.910288  0.633574  1
  Cl  Cl33  1  0.361976  0.410288  0.866426  1
  Cl  Cl34  1  0.374521  0.852482  0.080219  1
  Cl  Cl35  1  0.625479  0.352482  0.419781  1
  Cl  Cl36  1  0.625479  0.147518  0.919781  1
  Cl  Cl37  1  0.374521  0.647518  0.580219  1
  Cl  Cl38  1  0.854161  0.861871  0.411260  1
  Cl  Cl39  1  0.145839  0.361871  0.088740  1
  Cl  Cl40  1  0.145839  0.138129  0.588740  1
  Cl  Cl41  1  0.854161  0.638129  0.911260  1
  Cl  Cl42  1  0.838547  0.113327  0.170378  1
  Cl  Cl43  1  0.161453  0.613327  0.329622  1
  Cl  Cl44  1  0.161453  0.886673  0.829622  1
  Cl  Cl45  1  0.838547  0.386673  0.670378  1
  O  O46  1  0.586665  0.085632  0.209362  1
  O  O47  1  0.413335  0.585632  0.290638  1
  O  O48  1  0.413335  0.914368  0.790638  1
  O  O49  1  0.586665  0.414368  0.709362  1
  O  O50  1  0.587637  0.860634  0.378992  1
  O  O51  1  0.412363  0.360634  0.121008  1
  O  O52  1  0.412363  0.139366  0.621008  1
  O  O53  1  0.587637  0.639366  0.878992  1
  O  O54  1  0.931341  0.371793  0.402558  1
  O  O55  1  0.068659  0.871793  0.097442  1
  O  O56  1  0.068659  0.628207  0.597442  1
  O  O57  1  0.931341  0.128207  0.902558  1
