# generated using pymatgen
data_Li5Mn2V5O12
_symmetry_space_group_name_H-M   'P 1'
_cell_length_a   5.24706172
_cell_length_b   5.24706172
_cell_length_c   9.97902498
_cell_angle_alpha   85.01259051
_cell_angle_beta   94.98740949
_cell_angle_gamma   60.64990393
_symmetry_Int_Tables_number   1
_chemical_formula_structural   Li5Mn2V5O12
_chemical_formula_sum   'Li5 Mn2 V5 O12'
_cell_volume   235.89723819
_cell_formula_units_Z   1
loop_
 _symmetry_equiv_pos_site_id
 _symmetry_equiv_pos_as_xyz
  1  'x, y, z'
loop_
 _atom_site_type_symbol
 _atom_site_label
 _atom_site_symmetry_multiplicity
 _atom_site_fract_x
 _atom_site_fract_y
 _atom_site_fract_z
 _atom_site_occupancy
  Li  Li0  1  0.829544  0.338426  0.738417  1
  Li  Li1  1  0.685833  0.153189  0.262268  1
  Li  Li2  1  0.338426  0.829544  0.261583  1
  Li  Li3  1  0.153189  0.685833  0.737732  1
  Li  Li4  1  0.081916  0.081916  0.500000  1
  Mn  Mn5  1  0.753892  0.753892  0.500000  1
  Mn  Mn6  1  0.247748  0.247748  0.000000  1
  V  V7  1  0.000608  0.486487  0.258946  1
  V  V8  1  0.486487  0.000608  0.741054  1
  V  V9  1  0.578651  0.578651  0.000000  1
  V  V10  1  0.422876  0.422876  0.500000  1
  V  V11  1  0.917290  0.917290  0.000000  1
  O  O12  1  0.066169  0.760700  0.377030  1
  O  O13  1  0.760700  0.066169  0.622970  1
  O  O14  1  0.842209  0.651327  0.878600  1
  O  O15  1  0.651327  0.842209  0.121400  1
  O  O16  1  0.715740  0.457012  0.372078  1
  O  O17  1  0.457012  0.715740  0.627922  1
  O  O18  1  0.565209  0.268176  0.882759  1
  O  O19  1  0.268176  0.565209  0.117241  1
  O  O20  1  0.361821  0.159341  0.369816  1
  O  O21  1  0.159341  0.361821  0.630184  1
  O  O22  1  0.220595  0.935240  0.881143  1
  O  O23  1  0.935240  0.220595  0.118857  1
