# generated using pymatgen
data_Li4Mn2Co3O10
_symmetry_space_group_name_H-M   'P 1'
_cell_length_a   6.49895861
_cell_length_b   7.60064291
_cell_length_c   7.70257494
_cell_angle_alpha   94.60790894
_cell_angle_beta   91.16608035
_cell_angle_gamma   114.75276711
_symmetry_Int_Tables_number   1
_chemical_formula_structural   Li4Mn2Co3O10
_chemical_formula_sum   'Li8 Mn4 Co6 O20'
_cell_volume   343.79128490
_cell_formula_units_Z   2
loop_
 _symmetry_equiv_pos_site_id
 _symmetry_equiv_pos_as_xyz
  1  'x, y, z'
loop_
 _atom_site_type_symbol
 _atom_site_label
 _atom_site_symmetry_multiplicity
 _atom_site_fract_x
 _atom_site_fract_y
 _atom_site_fract_z
 _atom_site_occupancy
  Li  Li0  1  0.190286  0.794289  0.699087  1
  Li  Li1  1  0.098635  0.406501  0.601710  1
  Li  Li2  1  0.740856  0.491600  0.751658  1
  Li  Li3  1  0.259144  0.508400  0.248342  1
  Li  Li4  1  0.901365  0.593499  0.398290  1
  Li  Li5  1  0.809714  0.205711  0.300913  1
  Li  Li6  1  0.589665  0.411832  0.087652  1
  Li  Li7  1  0.410335  0.588168  0.912348  1
  Mn  Mn8  1  0.453058  0.301440  0.454722  1
  Mn  Mn9  1  0.546942  0.698560  0.545278  1
  Mn  Mn10  1  0.961266  0.303173  0.949878  1
  Mn  Mn11  1  0.038734  0.696827  0.050122  1
  Co  Co12  1  0.646246  0.101135  0.652647  1
  Co  Co13  1  0.353754  0.898865  0.347353  1
  Co  Co14  1  0.000000  0.000000  0.500000  1
  Co  Co15  1  0.500000  0.000000  0.000000  1
  Co  Co16  1  0.148353  0.100744  0.151086  1
  Co  Co17  1  0.851647  0.899256  0.848914  1
  O  O18  1  0.658134  0.949138  0.442583  1
  O  O19  1  0.251068  0.668353  0.472054  1
  O  O20  1  0.748932  0.331647  0.527946  1
  O  O21  1  0.862091  0.762560  0.628200  1
  O  O22  1  0.341866  0.050862  0.557417  1
  O  O23  1  0.431849  0.463096  0.651899  1
  O  O24  1  0.352573  0.763534  0.125306  1
  O  O25  1  0.945328  0.141389  0.731431  1
  O  O26  1  0.054672  0.858611  0.268569  1
  O  O27  1  0.926241  0.454799  0.155093  1
  O  O28  1  0.568151  0.536904  0.348101  1
  O  O29  1  0.451212  0.141534  0.235245  1
  O  O30  1  0.548788  0.858466  0.764755  1
  O  O31  1  0.137909  0.237440  0.371800  1
  O  O32  1  0.073759  0.545201  0.844907  1
  O  O33  1  0.151079  0.939044  0.941033  1
  O  O34  1  0.647427  0.236466  0.874694  1
  O  O35  1  0.749653  0.665724  0.964288  1
  O  O36  1  0.250347  0.334276  0.035712  1
  O  O37  1  0.848921  0.060956  0.058967  1
