# generated using pymatgen
data_Li3Bi3P8O29
_symmetry_space_group_name_H-M   'P 1'
_cell_length_a   10.09760548
_cell_length_b   10.09760548
_cell_length_c   14.39504352
_cell_angle_alpha   89.80979131
_cell_angle_beta   90.19020869
_cell_angle_gamma   119.89434768
_symmetry_Int_Tables_number   1
_chemical_formula_structural   Li3Bi3P8O29
_chemical_formula_sum   'Li6 Bi6 P16 O58'
_cell_volume   1272.44374977
_cell_formula_units_Z   2
loop_
 _symmetry_equiv_pos_site_id
 _symmetry_equiv_pos_as_xyz
  1  'x, y, z'
loop_
 _atom_site_type_symbol
 _atom_site_label
 _atom_site_symmetry_multiplicity
 _atom_site_fract_x
 _atom_site_fract_y
 _atom_site_fract_z
 _atom_site_occupancy
  Li  Li0  1  0.036463  0.056115  0.499204  1
  Li  Li1  1  0.943885  0.963537  0.999204  1
  Li  Li2  1  0.087633  0.318507  0.051653  1
  Li  Li3  1  0.681493  0.912367  0.551653  1
  Li  Li4  1  0.090517  0.772625  0.553880  1
  Li  Li5  1  0.227375  0.909483  0.053880  1
  Bi  Bi6  1  0.437204  0.435722  0.748207  1
  Bi  Bi7  1  0.564278  0.562796  0.248207  1
  Bi  Bi8  1  0.998840  0.433119  0.254554  1
  Bi  Bi9  1  0.995962  0.561759  0.749920  1
  Bi  Bi10  1  0.566881  0.001160  0.754554  1
  Bi  Bi11  1  0.438241  0.004038  0.249920  1
  P  P12  1  0.223005  0.298092  0.346830  1
  P  P13  1  0.083350  0.304935  0.844463  1
  P  P14  1  0.701908  0.776995  0.846830  1
  P  P15  1  0.331171  0.667160  0.120140  1
  P  P16  1  0.332840  0.668829  0.620140  1
  P  P17  1  0.695065  0.916650  0.344463  1
  P  P18  1  0.782124  0.079071  0.155009  1
  P  P19  1  0.084338  0.777221  0.347278  1
  P  P20  1  0.920929  0.217876  0.655009  1
  P  P21  1  0.222779  0.915662  0.847278  1
  P  P22  1  0.301471  0.081479  0.659454  1
  P  P23  1  0.665300  0.334056  0.877470  1
  P  P24  1  0.665944  0.334700  0.377470  1
  P  P25  1  0.299224  0.221568  0.154374  1
  P  P26  1  0.918521  0.698529  0.159454  1
  P  P27  1  0.778432  0.700776  0.654374  1
  O  O28  1  0.218074  0.210738  0.252049  1
  O  O29  1  0.197222  0.215304  0.077414  1
  O  O30  1  0.243838  0.319618  0.840182  1
  O  O31  1  0.987425  0.208815  0.755732  1
  O  O32  1  0.009846  0.198907  0.579276  1
  O  O33  1  0.078420  0.316842  0.346233  1
  O  O34  1  0.369411  0.458091  0.344050  1
  O  O35  1  0.307562  0.516859  0.666017  1
  O  O36  1  0.541909  0.630589  0.844050  1
  O  O37  1  0.784696  0.802778  0.577414  1
  O  O38  1  0.789262  0.781926  0.752049  1
  O  O39  1  0.680382  0.756162  0.340182  1
  O  O40  1  0.193925  0.509715  0.156382  1
  O  O41  1  0.102367  0.467489  0.839329  1
  O  O42  1  0.483141  0.692438  0.166017  1
  O  O43  1  0.328807  0.662729  0.015896  1
  O  O44  1  0.337271  0.671193  0.515896  1
  O  O45  1  0.490285  0.806075  0.656382  1
  O  O46  1  0.108701  0.636743  0.340043  1
  O  O47  1  0.195214  0.691199  0.653312  1
  O  O48  1  0.683158  0.921580  0.846233  1
  O  O49  1  0.791185  0.012575  0.255732  1
  O  O50  1  0.801093  0.990154  0.079276  1
  O  O51  1  0.780646  0.993635  0.431347  1
  O  O52  1  0.532511  0.897633  0.339329  1
  O  O53  1  0.308801  0.804786  0.153312  1
  O  O54  1  0.754956  0.075883  0.653252  1
  O  O55  1  0.363257  0.891299  0.840043  1
  O  O56  1  0.075516  0.756462  0.842392  1
  O  O57  1  0.006365  0.219354  0.931347  1
  O  O58  1  0.014779  0.804590  0.084060  1
  O  O59  1  0.986503  0.777620  0.259447  1
  O  O60  1  0.924117  0.245044  0.153252  1
  O  O61  1  0.633962  0.089890  0.152977  1
  O  O62  1  0.243538  0.924484  0.342392  1
  O  O63  1  0.695765  0.205278  0.838741  1
  O  O64  1  0.461005  0.093360  0.660478  1
  O  O65  1  0.195410  0.985221  0.584060  1
  O  O66  1  0.217326  0.991873  0.934861  1
  O  O67  1  0.222380  0.013497  0.759447  1
  O  O68  1  0.317671  0.076836  0.150230  1
  O  O69  1  0.794722  0.304235  0.338741  1
  O  O70  1  0.910110  0.366038  0.652977  1
  O  O71  1  0.508522  0.203477  0.338166  1
  O  O72  1  0.664287  0.334452  0.981379  1
  O  O73  1  0.665548  0.335713  0.481379  1
  O  O74  1  0.509093  0.305287  0.835300  1
  O  O75  1  0.906640  0.538995  0.160478  1
  O  O76  1  0.796523  0.491478  0.838166  1
  O  O77  1  0.321499  0.244197  0.653525  1
  O  O78  1  0.207775  0.197418  0.426590  1
  O  O79  1  0.462122  0.364171  0.156209  1
  O  O80  1  0.694713  0.490907  0.335300  1
  O  O81  1  0.635829  0.537878  0.656209  1
  O  O82  1  0.923164  0.682329  0.650230  1
  O  O83  1  0.008127  0.782674  0.434861  1
  O  O84  1  0.755803  0.678501  0.153525  1
  O  O85  1  0.802582  0.792225  0.926590  1
