# generated using pymatgen
data_HfSO
_symmetry_space_group_name_H-M   'P 1'
_cell_length_a   5.69862036
_cell_length_b   5.69862036
_cell_length_c   5.69862036
_cell_angle_alpha   90.00000000
_cell_angle_beta   90.00000000
_cell_angle_gamma   90.00000000
_symmetry_Int_Tables_number   1
_chemical_formula_structural   HfSO
_chemical_formula_sum   'Hf4 S4 O4'
_cell_volume   185.05855903
_cell_formula_units_Z   4
loop_
 _symmetry_equiv_pos_site_id
 _symmetry_equiv_pos_as_xyz
  1  'x, y, z'
loop_
 _atom_site_type_symbol
 _atom_site_label
 _atom_site_symmetry_multiplicity
 _atom_site_fract_x
 _atom_site_fract_y
 _atom_site_fract_z
 _atom_site_occupancy
  Hf  Hf0  1  0.679688  0.820312  0.179688  1
  Hf  Hf1  1  0.820312  0.179688  0.679688  1
  Hf  Hf2  1  0.179688  0.679688  0.820312  1
  Hf  Hf3  1  0.320312  0.320312  0.320312  1
  S  S4  1  0.919025  0.419025  0.080975  1
  S  S5  1  0.080975  0.919025  0.419025  1
  S  S6  1  0.419025  0.080975  0.919025  1
  S  S7  1  0.580975  0.580975  0.580975  1
  O  O8  1  0.405089  0.594911  0.094911  1
  O  O9  1  0.594911  0.094911  0.405089  1
  O  O10  1  0.905089  0.905089  0.905089  1
  O  O11  1  0.094911  0.405089  0.594911  1
