# generated using pymatgen
data_Li2Bi3P9O28
_symmetry_space_group_name_H-M   'P 1'
_cell_length_a   7.12975571
_cell_length_b   9.84268548
_cell_length_c   9.89436441
_cell_angle_alpha   113.90733486
_cell_angle_beta   97.30670173
_cell_angle_gamma   107.39908560
_symmetry_Int_Tables_number   1
_chemical_formula_structural   Li2Bi3P9O28
_chemical_formula_sum   'Li2 Bi3 P9 O28'
_cell_volume   580.66208503
_cell_formula_units_Z   1
loop_
 _symmetry_equiv_pos_site_id
 _symmetry_equiv_pos_as_xyz
  1  'x, y, z'
loop_
 _atom_site_type_symbol
 _atom_site_label
 _atom_site_symmetry_multiplicity
 _atom_site_fract_x
 _atom_site_fract_y
 _atom_site_fract_z
 _atom_site_occupancy
  Li  Li0  1  0.672694  0.223157  0.949863  1
  Li  Li1  1  0.327306  0.776843  0.050137  1
  Bi  Bi2  1  0.000000  0.500000  0.500000  1
  Bi  Bi3  1  0.248343  0.264960  0.037633  1
  Bi  Bi4  1  0.751657  0.735040  0.962367  1
  P  P5  1  0.189068  0.034981  0.263313  1
  P  P6  1  0.725352  0.571280  0.229485  1
  P  P7  1  0.786897  0.064962  0.293446  1
  P  P8  1  0.375781  0.636760  0.332554  1
  P  P9  1  0.500000  0.000000  0.500000  1
  P  P10  1  0.213103  0.935038  0.706554  1
  P  P11  1  0.624219  0.363240  0.667446  1
  P  P12  1  0.810932  0.965019  0.736687  1
  P  P13  1  0.274648  0.428720  0.770515  1
  O  O14  1  0.128638  0.874801  0.116061  1
  O  O15  1  0.600609  0.391585  0.107076  1
  O  O16  1  0.243962  0.519644  0.166224  1
  O  O17  1  0.639705  0.927912  0.136596  1
  O  O18  1  0.753071  0.684634  0.159651  1
  O  O19  1  0.262955  0.182366  0.240397  1
  O  O20  1  0.853834  0.227787  0.296631  1
  O  O21  1  0.410746  0.810049  0.347424  1
  O  O22  1  0.921914  0.594147  0.329165  1
  O  O23  1  0.350302  0.051739  0.397445  1
  O  O24  1  0.990521  0.028337  0.328723  1
  O  O25  1  0.594456  0.621763  0.349686  1
  O  O26  1  0.309553  0.610040  0.460694  1
  O  O27  1  0.701040  0.062060  0.429937  1
  O  O28  1  0.690447  0.389960  0.539306  1
  O  O29  1  0.298960  0.937940  0.570063  1
  O  O30  1  0.009479  0.971663  0.671277  1
  O  O31  1  0.405544  0.378237  0.650314  1
  O  O32  1  0.078086  0.405853  0.670835  1
  O  O33  1  0.649698  0.948261  0.602555  1
  O  O34  1  0.146166  0.772213  0.703369  1
  O  O35  1  0.589254  0.189951  0.652576  1
  O  O36  1  0.246929  0.315366  0.840349  1
  O  O37  1  0.737045  0.817634  0.759603  1
  O  O38  1  0.756038  0.480356  0.833776  1
  O  O39  1  0.360295  0.072088  0.863404  1
  O  O40  1  0.871362  0.125199  0.883939  1
  O  O41  1  0.399391  0.608415  0.892924  1
