# generated using pymatgen
data_Li9Mn3(WO4)7
_symmetry_space_group_name_H-M   'P 1'
_cell_length_a   8.59095065
_cell_length_b   8.59095065
_cell_length_c   8.59095065
_cell_angle_alpha   89.95853429
_cell_angle_beta   89.95853429
_cell_angle_gamma   89.95853429
_symmetry_Int_Tables_number   1
_chemical_formula_structural   Li9Mn3(WO4)7
_chemical_formula_sum   'Li9 Mn3 W7 O28'
_cell_volume   634.04974536
_cell_formula_units_Z   1
loop_
 _symmetry_equiv_pos_site_id
 _symmetry_equiv_pos_as_xyz
  1  'x, y, z'
loop_
 _atom_site_type_symbol
 _atom_site_label
 _atom_site_symmetry_multiplicity
 _atom_site_fract_x
 _atom_site_fract_y
 _atom_site_fract_z
 _atom_site_occupancy
  Li  Li0  1  0.359772  0.643621  0.903878  1
  Li  Li1  1  0.643621  0.359772  0.903878  1
  Li  Li2  1  0.359772  0.903878  0.643621  1
  Li  Li3  1  0.903878  0.359772  0.643621  1
  Li  Li4  1  0.093145  0.354074  0.354074  1
  Li  Li5  1  0.354074  0.093145  0.354074  1
  Li  Li6  1  0.643621  0.903878  0.359772  1
  Li  Li7  1  0.903878  0.643621  0.359772  1
  Li  Li8  1  0.354074  0.354074  0.093145  1
  Mn  Mn9  1  0.094637  0.640456  0.640456  1
  Mn  Mn10  1  0.640456  0.094637  0.640456  1
  Mn  Mn11  1  0.640456  0.640456  0.094637  1
  W  W12  1  0.358521  0.358521  0.641143  1
  W  W13  1  0.641961  0.641961  0.641961  1
  W  W14  1  0.358521  0.641143  0.358521  1
  W  W15  1  0.641143  0.358521  0.358521  1
  W  W16  1  0.003289  0.496568  0.003289  1
  W  W17  1  0.496568  0.003289  0.003289  1
  W  W18  1  0.003289  0.003289  0.496568  1
  O  O19  1  0.382352  0.382352  0.849809  1
  O  O20  1  0.612026  0.612026  0.858433  1
  O  O21  1  0.127640  0.619476  0.881177  1
  O  O22  1  0.619476  0.127640  0.881177  1
  O  O23  1  0.379671  0.879882  0.879882  1
  O  O24  1  0.879882  0.379671  0.879882  1
  O  O25  1  0.127640  0.881177  0.619476  1
  O  O26  1  0.881177  0.127640  0.619476  1
  O  O27  1  0.385615  0.608223  0.608223  1
  O  O28  1  0.608223  0.385615  0.608223  1
  O  O29  1  0.146756  0.385231  0.615345  1
  O  O30  1  0.385231  0.146756  0.615345  1
  O  O31  1  0.612026  0.858433  0.612026  1
  O  O32  1  0.858433  0.612026  0.612026  1
  O  O33  1  0.146756  0.615345  0.385231  1
  O  O34  1  0.615345  0.146756  0.385231  1
  O  O35  1  0.382352  0.849809  0.382352  1
  O  O36  1  0.849809  0.382352  0.382352  1
  O  O37  1  0.392459  0.392459  0.392459  1
  O  O38  1  0.608223  0.608223  0.385615  1
  O  O39  1  0.123892  0.123892  0.375339  1
  O  O40  1  0.879882  0.879882  0.379671  1
  O  O41  1  0.123892  0.375339  0.123892  1
  O  O42  1  0.375339  0.123892  0.123892  1
  O  O43  1  0.619476  0.881177  0.127640  1
  O  O44  1  0.881177  0.619476  0.127640  1
  O  O45  1  0.385231  0.615345  0.146756  1
  O  O46  1  0.615345  0.385231  0.146756  1
