# generated using pymatgen
data_Na7Ti11O24
_symmetry_space_group_name_H-M   'P 1'
_cell_length_a   10.62288361
_cell_length_b   10.62288361
_cell_length_c   6.23157848
_cell_angle_alpha   73.91312812
_cell_angle_beta   106.08687188
_cell_angle_gamma   59.88417207
_symmetry_Int_Tables_number   1
_chemical_formula_structural   Na7Ti11O24
_chemical_formula_sum   'Na7 Ti11 O24'
_cell_volume   505.93473464
_cell_formula_units_Z   1
loop_
 _symmetry_equiv_pos_site_id
 _symmetry_equiv_pos_as_xyz
  1  'x, y, z'
loop_
 _atom_site_type_symbol
 _atom_site_label
 _atom_site_symmetry_multiplicity
 _atom_site_fract_x
 _atom_site_fract_y
 _atom_site_fract_z
 _atom_site_occupancy
  Na  Na0  1  0.210967  0.465504  0.108770  1
  Na  Na1  1  0.500000  0.500000  0.000000  1
  Na  Na2  1  0.789033  0.534496  0.891230  1
  Na  Na3  1  0.465504  0.210967  0.891230  1
  Na  Na4  1  0.883824  0.116176  0.147252  1
  Na  Na5  1  0.116176  0.883824  0.852748  1
  Na  Na6  1  0.534496  0.789033  0.108770  1
  Ti  Ti7  1  0.164783  0.669886  0.479636  1
  Ti  Ti8  1  1.000000  0.500000  0.500000  1
  Ti  Ti9  1  0.500000  0.500000  0.500000  1
  Ti  Ti10  1  0.835217  0.330114  0.520364  1
  Ti  Ti11  1  0.500000  0.000000  0.500000  1
  Ti  Ti12  1  0.669886  0.164783  0.520364  1
  Ti  Ti13  1  0.169983  0.169983  0.500000  1
  Ti  Ti14  1  0.830017  0.830017  0.500000  1
  Ti  Ti15  1  0.170868  0.170868  0.000000  1
  Ti  Ti16  1  0.829132  0.829132  0.000000  1
  Ti  Ti17  1  0.330114  0.835217  0.479636  1
  O  O18  1  0.736367  0.778804  0.723323  1
  O  O19  1  0.778804  0.736367  0.276677  1
  O  O20  1  0.055293  0.602914  0.253626  1
  O  O21  1  0.064961  0.608559  0.680133  1
  O  O22  1  0.222310  0.777690  0.638960  1
  O  O23  1  0.269905  0.730095  0.276113  1
  O  O24  1  0.535194  0.615600  0.679728  1
  O  O25  1  0.221196  0.263633  0.723323  1
  O  O26  1  0.384400  0.464806  0.679728  1
  O  O27  1  0.615600  0.535194  0.320272  1
  O  O28  1  0.464806  0.384400  0.320272  1
  O  O29  1  0.263633  0.221196  0.276677  1
  O  O30  1  0.777690  0.222310  0.361040  1
  O  O31  1  0.730095  0.269905  0.723887  1
  O  O32  1  0.944707  0.397086  0.746374  1
  O  O33  1  0.602914  0.055293  0.746374  1
  O  O34  1  0.935039  0.391441  0.319867  1
  O  O35  1  0.608559  0.064961  0.319867  1
  O  O36  1  0.091608  0.111469  0.749249  1
  O  O37  1  0.888531  0.908392  0.749249  1
  O  O38  1  0.111469  0.091608  0.250751  1
  O  O39  1  0.908392  0.888531  0.250751  1
  O  O40  1  0.397086  0.944707  0.253626  1
  O  O41  1  0.391441  0.935039  0.680133  1
