# generated using pymatgen
data_Li3Fe(Ni2O5)2
_symmetry_space_group_name_H-M   'P 1'
_cell_length_a   5.04770110
_cell_length_b   2.86157845
_cell_length_c   24.26773201
_cell_angle_alpha   90.00000000
_cell_angle_beta   93.78880064
_cell_angle_gamma   90.00000000
_symmetry_Int_Tables_number   1
_chemical_formula_structural   Li3Fe(Ni2O5)2
_chemical_formula_sum   'Li6 Fe2 Ni8 O20'
_cell_volume   349.76652789
_cell_formula_units_Z   2
loop_
 _symmetry_equiv_pos_site_id
 _symmetry_equiv_pos_as_xyz
  1  'x, y, z'
loop_
 _atom_site_type_symbol
 _atom_site_label
 _atom_site_symmetry_multiplicity
 _atom_site_fract_x
 _atom_site_fract_y
 _atom_site_fract_z
 _atom_site_occupancy
  Li  Li0  1  0.297131  0.500000  0.398449  1
  Li  Li1  1  0.099980  0.500000  0.800986  1
  Li  Li2  1  0.900020  0.500000  0.199014  1
  Li  Li3  1  0.500000  0.500000  0.000000  1
  Li  Li4  1  0.702869  0.500000  0.601551  1
  Li  Li5  1  0.000000  0.000000  0.000000  1
  Fe  Fe6  1  0.000000  0.500000  0.500000  1
  Fe  Fe7  1  0.500000  0.000000  0.500000  1
  Ni  Ni8  1  0.796107  0.500000  0.898419  1
  Ni  Ni9  1  0.599604  0.500000  0.299223  1
  Ni  Ni10  1  0.400396  0.500000  0.700777  1
  Ni  Ni11  1  0.203893  0.500000  0.101581  1
  Ni  Ni12  1  0.099515  0.000000  0.298995  1
  Ni  Ni13  1  0.900485  0.000000  0.701005  1
  Ni  Ni14  1  0.701609  0.000000  0.097508  1
  Ni  Ni15  1  0.298391  0.000000  0.902492  1
  O  O16  1  0.024852  0.500000  0.659136  1
  O  O17  1  0.975148  0.500000  0.340864  1
  O  O18  1  0.833864  0.500000  0.053844  1
  O  O19  1  0.775595  0.500000  0.742914  1
  O  O20  1  0.643815  0.500000  0.455645  1
  O  O21  1  0.580641  0.500000  0.139616  1
  O  O22  1  0.419359  0.500000  0.860384  1
  O  O23  1  0.356185  0.500000  0.544355  1
  O  O24  1  0.224405  0.500000  0.257086  1
  O  O25  1  0.166136  0.500000  0.946156  1
  O  O26  1  0.020966  0.000000  0.141035  1
  O  O27  1  0.979034  0.000000  0.858965  1
  O  O28  1  0.835153  0.000000  0.545504  1
  O  O29  1  0.768063  0.000000  0.259155  1
  O  O30  1  0.634617  0.000000  0.943907  1
  O  O31  1  0.569595  0.000000  0.660897  1
  O  O32  1  0.430405  0.000000  0.339103  1
  O  O33  1  0.365383  0.000000  0.056093  1
  O  O34  1  0.231937  0.000000  0.740845  1
  O  O35  1  0.164847  0.000000  0.454496  1
