# generated using pymatgen
data_Li4Ti2Fe3Sn3O16
_symmetry_space_group_name_H-M   'P 1'
_cell_length_a   6.13145561
_cell_length_b   6.14044105
_cell_length_c   9.70996446
_cell_angle_alpha   89.63674546
_cell_angle_beta   89.74025343
_cell_angle_gamma   60.12206683
_symmetry_Int_Tables_number   1
_chemical_formula_structural   Li4Ti2Fe3Sn3O16
_chemical_formula_sum   'Li4 Ti2 Fe3 Sn3 O16'
_cell_volume   316.98231496
_cell_formula_units_Z   1
loop_
 _symmetry_equiv_pos_site_id
 _symmetry_equiv_pos_as_xyz
  1  'x, y, z'
loop_
 _atom_site_type_symbol
 _atom_site_label
 _atom_site_symmetry_multiplicity
 _atom_site_fract_x
 _atom_site_fract_y
 _atom_site_fract_z
 _atom_site_occupancy
  Li  Li0  1  0.347610  0.323486  0.106029  1
  Li  Li1  1  0.978474  0.012345  0.012095  1
  Li  Li2  1  0.984221  0.005528  0.499113  1
  Li  Li3  1  0.664362  0.667030  0.601234  1
  Ti  Ti4  1  0.348594  0.331225  0.498679  1
  Ti  Ti5  1  0.699538  0.655609  0.022441  1
  Fe  Fe6  1  0.654823  0.173782  0.782447  1
  Fe  Fe7  1  0.832377  0.342189  0.284351  1
  Fe  Fe8  1  0.832379  0.828297  0.289941  1
  Sn  Sn9  1  0.166766  0.170674  0.787017  1
  Sn  Sn10  1  0.168257  0.662056  0.786502  1
  Sn  Sn11  1  0.344162  0.829600  0.286070  1
  O  O12  1  0.170943  0.170066  0.406651  1
  O  O13  1  0.030318  0.486626  0.659258  1
  O  O14  1  0.340715  0.329069  0.900657  1
  O  O15  1  0.986871  0.006619  0.685831  1
  O  O16  1  0.997219  0.007074  0.197631  1
  O  O17  1  0.184395  0.655673  0.412244  1
  O  O18  1  0.478671  0.044075  0.656580  1
  O  O19  1  0.479044  0.477476  0.656034  1
  O  O20  1  0.316587  0.839162  0.904794  1
  O  O21  1  0.650363  0.186626  0.409513  1
  O  O22  1  0.529164  0.514269  0.154564  1
  O  O23  1  0.517990  0.952383  0.143236  1
  O  O24  1  0.675884  0.655366  0.396401  1
  O  O25  1  0.825876  0.335713  0.903124  1
  O  O26  1  0.965215  0.504157  0.143482  1
  O  O27  1  0.829182  0.833527  0.906242  1
