# generated using pymatgen
data_Li6MnV3(PO4)6
_symmetry_space_group_name_H-M   'P 1'
_cell_length_a   9.03342448
_cell_length_b   9.03342448
_cell_length_c   9.03342448
_cell_angle_alpha   56.13875020
_cell_angle_beta   56.13875020
_cell_angle_gamma   56.13875020
_symmetry_Int_Tables_number   1
_chemical_formula_structural   Li6MnV3(PO4)6
_chemical_formula_sum   'Li6 Mn1 V3 P6 O24'
_cell_volume   474.64743222
_cell_formula_units_Z   1
loop_
 _symmetry_equiv_pos_site_id
 _symmetry_equiv_pos_as_xyz
  1  'x, y, z'
loop_
 _atom_site_type_symbol
 _atom_site_label
 _atom_site_symmetry_multiplicity
 _atom_site_fract_x
 _atom_site_fract_y
 _atom_site_fract_z
 _atom_site_occupancy
  Li  Li0  1  0.079595  0.731624  0.338369  1
  Li  Li1  1  0.338369  0.079595  0.731624  1
  Li  Li2  1  0.731624  0.338369  0.079595  1
  Li  Li3  1  0.266354  0.669407  0.917723  1
  Li  Li4  1  0.669407  0.917723  0.266354  1
  Li  Li5  1  0.917723  0.266354  0.669407  1
  Mn  Mn6  1  0.650800  0.650800  0.650800  1
  V  V7  1  0.349646  0.349646  0.349646  1
  V  V8  1  0.853333  0.853333  0.853333  1
  V  V9  1  0.147420  0.147420  0.147420  1
  P  P10  1  0.754115  0.042287  0.454659  1
  P  P11  1  0.042287  0.454659  0.754115  1
  P  P12  1  0.454659  0.754115  0.042287  1
  P  P13  1  0.537144  0.247374  0.964420  1
  P  P14  1  0.964420  0.537144  0.247374  1
  P  P15  1  0.247374  0.964420  0.537144  1
  O  O16  1  0.798240  0.854554  0.443324  1
  O  O17  1  0.538997  0.168233  0.489616  1
  O  O18  1  0.168233  0.489616  0.538997  1
  O  O19  1  0.854554  0.443324  0.798240  1
  O  O20  1  0.443324  0.798240  0.854554  1
  O  O21  1  0.804238  0.001110  0.612679  1
  O  O22  1  0.146981  0.253888  0.878241  1
  O  O23  1  0.001110  0.612679  0.804238  1
  O  O24  1  0.489616  0.538997  0.168233  1
  O  O25  1  0.253888  0.878241  0.146981  1
  O  O26  1  0.612679  0.804238  0.001110  1
  O  O27  1  0.878241  0.146981  0.253888  1
  O  O28  1  0.120065  0.869360  0.739954  1
  O  O29  1  0.388251  0.179745  0.009209  1
  O  O30  1  0.739954  0.120065  0.869360  1
  O  O31  1  0.495404  0.458375  0.840991  1
  O  O32  1  0.009209  0.388251  0.179745  1
  O  O33  1  0.869360  0.739954  0.120065  1
  O  O34  1  0.179745  0.009209  0.388251  1
  O  O35  1  0.538054  0.207875  0.158345  1
  O  O36  1  0.158345  0.538054  0.207875  1
  O  O37  1  0.840991  0.495404  0.458375  1
  O  O38  1  0.458375  0.840991  0.495404  1
  O  O39  1  0.207875  0.158345  0.538054  1
