# generated using pymatgen
data_Tl2(PbO3)3
_symmetry_space_group_name_H-M   'P 1'
_cell_length_a   14.18591031
_cell_length_b   14.18591031
_cell_length_c   14.18591031
_cell_angle_alpha   164.44846016
_cell_angle_beta   164.44846016
_cell_angle_gamma   22.06178719
_symmetry_Int_Tables_number   1
_chemical_formula_structural   Tl2(PbO3)3
_chemical_formula_sum   'Tl2 Pb3 O9'
_cell_volume   205.16640127
_cell_formula_units_Z   1
loop_
 _symmetry_equiv_pos_site_id
 _symmetry_equiv_pos_as_xyz
  1  'x, y, z'
loop_
 _atom_site_type_symbol
 _atom_site_label
 _atom_site_symmetry_multiplicity
 _atom_site_fract_x
 _atom_site_fract_y
 _atom_site_fract_z
 _atom_site_occupancy
  Tl  Tl0  1  0.696571  0.696571  0.000000  1
  Tl  Tl1  1  0.303429  0.303429  0.000000  1
  Pb  Pb2  1  0.900220  0.900220  0.000000  1
  Pb  Pb3  1  0.500000  0.500000  0.000000  1
  Pb  Pb4  1  0.099780  0.099780  0.000000  1
  O  O5  1  0.750000  0.250000  0.500000  1
  O  O6  1  0.860748  0.360748  0.500000  1
  O  O7  1  0.338714  0.838714  0.500000  1
  O  O8  1  0.960626  0.460626  0.500000  1
  O  O9  1  0.439576  0.939576  0.500000  1
  O  O10  1  0.060424  0.560424  0.500000  1
  O  O11  1  0.539374  0.039374  0.500000  1
  O  O12  1  0.161286  0.661286  0.500000  1
  O  O13  1  0.639252  0.139252  0.500000  1
