# generated using pymatgen
data_Bi2(SO4)3
_symmetry_space_group_name_H-M   'P 1'
_cell_length_a   9.20329875
_cell_length_b   9.35342879
_cell_length_c   25.75542051
_cell_angle_alpha   90.00000000
_cell_angle_beta   90.00000000
_cell_angle_gamma   90.00000000
_symmetry_Int_Tables_number   1
_chemical_formula_structural   Bi2(SO4)3
_chemical_formula_sum   'Bi16 S24 O96'
_cell_volume   2217.08839741
_cell_formula_units_Z   8
loop_
 _symmetry_equiv_pos_site_id
 _symmetry_equiv_pos_as_xyz
  1  'x, y, z'
loop_
 _atom_site_type_symbol
 _atom_site_label
 _atom_site_symmetry_multiplicity
 _atom_site_fract_x
 _atom_site_fract_y
 _atom_site_fract_z
 _atom_site_occupancy
  Bi  Bi0  1  0.999877  0.394546  0.065093  1
  Bi  Bi1  1  0.999877  0.105454  0.565093  1
  Bi  Bi2  1  0.994707  0.799949  0.180103  1
  Bi  Bi3  1  0.994707  0.700051  0.680103  1
  Bi  Bi4  1  0.505293  0.299949  0.180103  1
  Bi  Bi5  1  0.505293  0.200051  0.680103  1
  Bi  Bi6  1  0.500123  0.605454  0.565093  1
  Bi  Bi7  1  0.500123  0.894546  0.065093  1
  Bi  Bi8  1  0.499877  0.394546  0.434907  1
  Bi  Bi9  1  0.499877  0.105454  0.934907  1
  Bi  Bi10  1  0.494707  0.700051  0.819897  1
  Bi  Bi11  1  0.494707  0.799949  0.319897  1
  Bi  Bi12  1  0.005293  0.299949  0.319897  1
  Bi  Bi13  1  0.005293  0.200051  0.819897  1
  Bi  Bi14  1  0.000123  0.894546  0.434907  1
  Bi  Bi15  1  0.000123  0.605454  0.934907  1
  S  S16  1  0.145383  0.946633  0.297278  1
  S  S17  1  0.145383  0.553367  0.797278  1
  S  S18  1  0.148336  0.258857  0.449689  1
  S  S19  1  0.148336  0.241143  0.949689  1
  S  S20  1  0.193039  0.088807  0.115879  1
  S  S21  1  0.193039  0.411193  0.615879  1
  S  S22  1  0.306961  0.588807  0.115879  1
  S  S23  1  0.306961  0.911193  0.615879  1
  S  S24  1  0.351664  0.758857  0.449689  1
  S  S25  1  0.351664  0.741143  0.949689  1
  S  S26  1  0.354617  0.446633  0.297278  1
  S  S27  1  0.354617  0.053367  0.797278  1
  S  S28  1  0.645383  0.553367  0.702722  1
  S  S29  1  0.645383  0.946633  0.202722  1
  S  S30  1  0.648336  0.258857  0.050311  1
  S  S31  1  0.648336  0.241143  0.550311  1
  S  S32  1  0.693039  0.088807  0.384121  1
  S  S33  1  0.693039  0.411193  0.884121  1
  S  S34  1  0.806961  0.588807  0.384121  1
  S  S35  1  0.806961  0.911193  0.884121  1
  S  S36  1  0.851664  0.758857  0.050311  1
  S  S37  1  0.851664  0.741143  0.550311  1
  S  S38  1  0.854617  0.446633  0.202722  1
  S  S39  1  0.854617  0.053367  0.702722  1
  O  O40  1  0.066304  0.384338  0.463031  1
  O  O41  1  0.066304  0.115662  0.963031  1
  O  O42  1  0.085427  0.084207  0.277800  1
  O  O43  1  0.085427  0.415793  0.777800  1
  O  O44  1  0.084745  0.123739  0.477507  1
  O  O45  1  0.084745  0.376261  0.977507  1
  O  O46  1  0.092932  0.917768  0.350771  1
  O  O47  1  0.092932  0.582232  0.850771  1
  O  O48  1  0.096034  0.181196  0.083798  1
  O  O49  1  0.096034  0.318804  0.583798  1
  O  O50  1  0.099093  0.826338  0.263038  1
  O  O51  1  0.099093  0.673662  0.763038  1
  O  O52  1  0.101854  0.015443  0.155409  1
  O  O53  1  0.101854  0.484557  0.655409  1
  O  O54  1  0.144701  0.221676  0.392833  1
  O  O55  1  0.144701  0.278324  0.892833  1
  O  O56  1  0.192155  0.455738  0.297031  1
  O  O57  1  0.192155  0.044262  0.797031  1
  O  O58  1  0.195629  0.676453  0.142630  1
  O  O59  1  0.195629  0.823547  0.642630  1
  O  O60  1  0.195821  0.763821  0.466659  1
  O  O61  1  0.195821  0.736179  0.966659  1
  O  O62  1  0.237939  0.016893  0.580640  1
  O  O63  1  0.237939  0.483107  0.080640  1
  O  O64  1  0.262061  0.516893  0.580640  1
  O  O65  1  0.262061  0.983107  0.080640  1
  O  O66  1  0.304179  0.236179  0.966659  1
  O  O67  1  0.304179  0.263821  0.466659  1
  O  O68  1  0.304371  0.176453  0.142630  1
  O  O69  1  0.304371  0.323547  0.642630  1
  O  O70  1  0.307845  0.955738  0.297031  1
  O  O71  1  0.307845  0.544262  0.797031  1
  O  O72  1  0.355299  0.721676  0.392833  1
  O  O73  1  0.355299  0.778324  0.892833  1
  O  O74  1  0.398146  0.984557  0.655409  1
  O  O75  1  0.398146  0.515443  0.155409  1
  O  O76  1  0.400907  0.326338  0.263038  1
  O  O77  1  0.400907  0.173662  0.763038  1
  O  O78  1  0.403966  0.681196  0.083798  1
  O  O79  1  0.403966  0.818804  0.583798  1
  O  O80  1  0.407068  0.082232  0.850771  1
  O  O81  1  0.407068  0.417768  0.350771  1
  O  O82  1  0.415255  0.876261  0.977507  1
  O  O83  1  0.415255  0.623739  0.477507  1
  O  O84  1  0.414573  0.584207  0.277800  1
  O  O85  1  0.414573  0.915793  0.777800  1
  O  O86  1  0.433696  0.615662  0.963031  1
  O  O87  1  0.433696  0.884338  0.463031  1
  O  O88  1  0.566304  0.384338  0.036969  1
  O  O89  1  0.566304  0.115662  0.536969  1
  O  O90  1  0.585427  0.084207  0.222200  1
  O  O91  1  0.585427  0.415793  0.722200  1
  O  O92  1  0.584745  0.123739  0.022493  1
  O  O93  1  0.584745  0.376261  0.522493  1
  O  O94  1  0.592932  0.582232  0.649229  1
  O  O95  1  0.592932  0.917768  0.149229  1
  O  O96  1  0.596034  0.181196  0.416202  1
  O  O97  1  0.596034  0.318804  0.916202  1
  O  O98  1  0.599093  0.826338  0.236962  1
  O  O99  1  0.599093  0.673662  0.736962  1
  O  O100  1  0.601854  0.015443  0.344591  1
  O  O101  1  0.601854  0.484557  0.844591  1
  O  O102  1  0.644701  0.221676  0.107167  1
  O  O103  1  0.644701  0.278324  0.607167  1
  O  O104  1  0.692155  0.455738  0.202969  1
  O  O105  1  0.692155  0.044262  0.702969  1
  O  O106  1  0.695629  0.676453  0.357370  1
  O  O107  1  0.695629  0.823547  0.857370  1
  O  O108  1  0.695821  0.763821  0.033341  1
  O  O109  1  0.695821  0.736179  0.533341  1
  O  O110  1  0.737939  0.483107  0.419360  1
  O  O111  1  0.737939  0.016893  0.919360  1
  O  O112  1  0.762061  0.983107  0.419360  1
  O  O113  1  0.762061  0.516893  0.919360  1
  O  O114  1  0.804179  0.263821  0.033341  1
  O  O115  1  0.804179  0.236179  0.533341  1
  O  O116  1  0.804371  0.176453  0.357370  1
  O  O117  1  0.804371  0.323547  0.857370  1
  O  O118  1  0.807845  0.544262  0.702969  1
  O  O119  1  0.807845  0.955738  0.202969  1
  O  O120  1  0.855299  0.721676  0.107167  1
  O  O121  1  0.855299  0.778324  0.607167  1
  O  O122  1  0.898146  0.515443  0.344591  1
  O  O123  1  0.898146  0.984557  0.844591  1
  O  O124  1  0.900907  0.326338  0.236962  1
  O  O125  1  0.900907  0.173662  0.736962  1
  O  O126  1  0.903966  0.681196  0.416202  1
  O  O127  1  0.903966  0.818804  0.916202  1
  O  O128  1  0.907068  0.417768  0.149229  1
  O  O129  1  0.907068  0.082232  0.649229  1
  O  O130  1  0.915255  0.623739  0.022493  1
  O  O131  1  0.915255  0.876261  0.522493  1
  O  O132  1  0.914573  0.584207  0.222200  1
  O  O133  1  0.914573  0.915793  0.722200  1
  O  O134  1  0.933696  0.615662  0.536969  1
  O  O135  1  0.933696  0.884338  0.036969  1
