# generated using pymatgen
data_LiFeOF2
_symmetry_space_group_name_H-M   'P 1'
_cell_length_a   5.14642993
_cell_length_b   5.53072585
_cell_length_c   8.93491507
_cell_angle_alpha   106.33940871
_cell_angle_beta   88.54316591
_cell_angle_gamma   117.19116980
_symmetry_Int_Tables_number   1
_chemical_formula_structural   LiFeOF2
_chemical_formula_sum   'Li4 Fe4 O4 F8'
_cell_volume   215.48666167
_cell_formula_units_Z   4
loop_
 _symmetry_equiv_pos_site_id
 _symmetry_equiv_pos_as_xyz
  1  'x, y, z'
loop_
 _atom_site_type_symbol
 _atom_site_label
 _atom_site_symmetry_multiplicity
 _atom_site_fract_x
 _atom_site_fract_y
 _atom_site_fract_z
 _atom_site_occupancy
  Li  Li0  1  0.025407  0.413436  0.673998  1
  Li  Li1  1  0.974700  0.610789  0.325482  1
  Li  Li2  1  0.459058  0.138662  0.790341  1
  Li  Li3  1  0.309078  0.127311  0.428961  1
  Fe  Fe4  1  0.734619  0.874362  0.583493  1
  Fe  Fe5  1  0.230198  0.329932  0.096306  1
  Fe  Fe6  1  0.539150  0.894439  0.163657  1
  Fe  Fe7  1  0.768176  0.600967  0.929278  1
  O  O8  1  0.768006  0.551765  0.726047  1
  O  O9  1  0.287016  0.010069  0.219774  1
  O  O10  1  0.640180  0.632024  0.106312  1
  O  O11  1  0.807982  0.241375  0.043258  1
  F  F12  1  0.796087  0.858871  0.376430  1
  F  F13  1  0.731841  0.262902  0.481405  1
  F  F14  1  0.208450  0.802929  0.963704  1
  F  F15  1  0.303949  0.731201  0.536498  1
  F  F16  1  0.305614  0.368351  0.880764  1
  F  F17  1  0.164482  0.117227  0.612776  1
  F  F18  1  0.715422  0.964590  0.782282  1
  F  F19  1  0.230584  0.468794  0.279234  1
