# generated using pymatgen
data_Fe4O5F3
_symmetry_space_group_name_H-M   'P 1'
_cell_length_a   6.09290165
_cell_length_b   4.72375228
_cell_length_c   9.91615620
_cell_angle_alpha   90.00000000
_cell_angle_beta   107.84849176
_cell_angle_gamma   90.00000000
_symmetry_Int_Tables_number   1
_chemical_formula_structural   Fe4O5F3
_chemical_formula_sum   'Fe8 O10 F6'
_cell_volume   271.66421272
_cell_formula_units_Z   2
loop_
 _symmetry_equiv_pos_site_id
 _symmetry_equiv_pos_as_xyz
  1  'x, y, z'
loop_
 _atom_site_type_symbol
 _atom_site_label
 _atom_site_symmetry_multiplicity
 _atom_site_fract_x
 _atom_site_fract_y
 _atom_site_fract_z
 _atom_site_occupancy
  Fe  Fe0  1  0.821503  0.449100  0.885761  1
  Fe  Fe1  1  0.061864  0.525144  0.366454  1
  Fe  Fe2  1  0.559558  0.505536  0.377106  1
  Fe  Fe3  1  0.299966  0.517489  0.852544  1
  Fe  Fe4  1  0.700034  0.017489  0.147456  1
  Fe  Fe5  1  0.938136  0.025144  0.633546  1
  Fe  Fe6  1  0.178497  0.949100  0.114239  1
  Fe  Fe7  1  0.440442  0.005536  0.622894  1
  O  O8  1  0.231579  0.824513  0.711075  1
  O  O9  1  0.985734  0.803422  0.224095  1
  O  O10  1  0.484334  0.804131  0.222916  1
  O  O11  1  0.358947  0.698672  0.469079  1
  O  O12  1  0.108752  0.672199  0.964741  1
  O  O13  1  0.768421  0.324513  0.288925  1
  O  O14  1  0.014266  0.303422  0.775905  1
  O  O15  1  0.515666  0.304131  0.777084  1
  O  O16  1  0.641053  0.198672  0.530921  1
  O  O17  1  0.891248  0.172199  0.035259  1
  F  F18  1  0.737794  0.797506  0.726333  1
  F  F19  1  0.608083  0.689143  0.971844  1
  F  F20  1  0.865208  0.713145  0.480713  1
  F  F21  1  0.262206  0.297506  0.273667  1
  F  F22  1  0.134792  0.213145  0.519287  1
  F  F23  1  0.391917  0.189143  0.028156  1
