# generated using pymatgen
data_Li7Ni5O12
_symmetry_space_group_name_H-M   'P 1'
_cell_length_a   4.94852005
_cell_length_b   4.94852005
_cell_length_c   9.60148951
_cell_angle_alpha   85.03017025
_cell_angle_beta   94.96982975
_cell_angle_gamma   59.70884051
_symmetry_Int_Tables_number   1
_chemical_formula_structural   Li7Ni5O12
_chemical_formula_sum   'Li7 Ni5 O12'
_cell_volume   199.92176030
_cell_formula_units_Z   1
loop_
 _symmetry_equiv_pos_site_id
 _symmetry_equiv_pos_as_xyz
  1  'x, y, z'
loop_
 _atom_site_type_symbol
 _atom_site_label
 _atom_site_symmetry_multiplicity
 _atom_site_fract_x
 _atom_site_fract_y
 _atom_site_fract_z
 _atom_site_occupancy
  Li  Li0  1  0.008710  0.496861  0.245320  1
  Li  Li1  1  0.657450  0.170193  0.244981  1
  Li  Li2  1  0.841045  0.328743  0.753674  1
  Li  Li3  1  0.496861  0.008710  0.754680  1
  Li  Li4  1  0.170193  0.657450  0.755019  1
  Li  Li5  1  0.328743  0.841045  0.246326  1
  Li  Li6  1  0.252151  0.252151  0.000000  1
  Ni  Ni7  1  0.919001  0.919001  0.000000  1
  Ni  Ni8  1  0.748710  0.748710  0.500000  1
  Ni  Ni9  1  0.413188  0.413188  0.500000  1
  Ni  Ni10  1  0.585568  0.585568  0.000000  1
  Ni  Ni11  1  0.079274  0.079274  0.500000  1
  O  O12  1  0.769172  0.066040  0.614080  1
  O  O13  1  0.575395  0.289898  0.890929  1
  O  O14  1  0.855070  0.649017  0.889681  1
  O  O15  1  0.289898  0.575395  0.109071  1
  O  O16  1  0.066040  0.769172  0.385920  1
  O  O17  1  0.649017  0.855070  0.110319  1
  O  O18  1  0.368383  0.140882  0.383681  1
  O  O19  1  0.929192  0.214725  0.109966  1
  O  O20  1  0.710604  0.430728  0.390681  1
  O  O21  1  0.140882  0.368383  0.616319  1
  O  O22  1  0.430728  0.710604  0.609319  1
  O  O23  1  0.214725  0.929192  0.890034  1
