# generated using pymatgen
data_Na5LaO4
_symmetry_space_group_name_H-M   'P 1'
_cell_length_a   15.36469252
_cell_length_b   15.36469252
_cell_length_c   5.57121566
_cell_angle_alpha   90.00000000
_cell_angle_beta   90.00000000
_cell_angle_gamma   90.00000000
_symmetry_Int_Tables_number   1
_chemical_formula_structural   Na5LaO4
_chemical_formula_sum   'Na40 La8 O32'
_cell_volume   1315.21791907
_cell_formula_units_Z   8
loop_
 _symmetry_equiv_pos_site_id
 _symmetry_equiv_pos_as_xyz
  1  'x, y, z'
loop_
 _atom_site_type_symbol
 _atom_site_label
 _atom_site_symmetry_multiplicity
 _atom_site_fract_x
 _atom_site_fract_y
 _atom_site_fract_z
 _atom_site_occupancy
  Na  Na0  1  0.760943  0.239057  0.000000  1
  Na  Na1  1  0.739057  0.260943  0.500000  1
  Na  Na2  1  0.239057  0.239057  0.000000  1
  Na  Na3  1  0.260943  0.260943  0.500000  1
  Na  Na4  1  0.106594  0.354421  0.560373  1
  Na  Na5  1  0.893406  0.354421  0.560373  1
  Na  Na6  1  0.372681  0.372681  0.000000  1
  Na  Na7  1  0.627319  0.372681  0.000000  1
  Na  Na8  1  0.854421  0.393406  0.060373  1
  Na  Na9  1  0.145579  0.393406  0.060373  1
  Na  Na10  1  0.000000  0.500000  0.112798  1
  Na  Na11  1  0.500000  0.500000  0.500000  1
  Na  Na12  1  0.500000  0.500000  0.000000  1
  Na  Na13  1  0.000000  0.500000  0.612798  1
  Na  Na14  1  0.854421  0.606594  0.060373  1
  Na  Na15  1  0.145579  0.606594  0.060373  1
  Na  Na16  1  0.372681  0.627319  0.000000  1
  Na  Na17  1  0.627319  0.627319  0.000000  1
  Na  Na18  1  0.893406  0.645579  0.560373  1
  Na  Na19  1  0.106594  0.645579  0.560373  1
  Na  Na20  1  0.760943  0.760943  0.000000  1
  Na  Na21  1  0.739057  0.739057  0.500000  1
  Na  Na22  1  0.239057  0.760943  0.000000  1
  Na  Na23  1  0.260943  0.739057  0.500000  1
  Na  Na24  1  0.393406  0.854421  0.939627  1
  Na  Na25  1  0.606594  0.854421  0.939627  1
  Na  Na26  1  0.872681  0.872681  0.500000  1
  Na  Na27  1  0.127319  0.872681  0.500000  1
  Na  Na28  1  0.354421  0.893406  0.439627  1
  Na  Na29  1  0.645579  0.893406  0.439627  1
  Na  Na30  1  0.000000  0.000000  0.000000  1
  Na  Na31  1  0.000000  0.000000  0.500000  1
  Na  Na32  1  0.500000  0.000000  0.887202  1
  Na  Na33  1  0.500000  0.000000  0.387202  1
  Na  Na34  1  0.354421  0.106594  0.439627  1
  Na  Na35  1  0.645579  0.106594  0.439627  1
  Na  Na36  1  0.872681  0.127319  0.500000  1
  Na  Na37  1  0.127319  0.127319  0.500000  1
  Na  Na38  1  0.393406  0.145579  0.939627  1
  Na  Na39  1  0.606594  0.145579  0.939627  1
  La  La40  1  0.500000  0.269333  0.463373  1
  La  La41  1  0.269333  0.500000  0.536627  1
  La  La42  1  0.730667  0.500000  0.536627  1
  La  La43  1  0.500000  0.730667  0.463373  1
  La  La44  1  0.000000  0.769333  0.036627  1
  La  La45  1  0.769333  0.000000  0.963373  1
  La  La46  1  0.230667  0.000000  0.963373  1
  La  La47  1  0.000000  0.230667  0.036627  1
  O  O48  1  0.873986  0.256420  0.257641  1
  O  O49  1  0.126014  0.256420  0.257641  1
  O  O50  1  0.756420  0.373986  0.757641  1
  O  O51  1  0.243580  0.373986  0.757641  1
  O  O52  1  0.000000  0.373630  0.858693  1
  O  O53  1  0.500000  0.375487  0.749579  1
  O  O54  1  0.873630  0.500000  0.358693  1
  O  O55  1  0.375487  0.500000  0.250421  1
  O  O56  1  0.624513  0.500000  0.250421  1
  O  O57  1  0.126370  0.500000  0.358693  1
  O  O58  1  0.500000  0.624513  0.749579  1
  O  O59  1  0.000000  0.626370  0.858693  1
  O  O60  1  0.243580  0.626014  0.757641  1
  O  O61  1  0.756420  0.626014  0.757641  1
  O  O62  1  0.873986  0.743580  0.257641  1
  O  O63  1  0.126014  0.743580  0.257641  1
  O  O64  1  0.373986  0.756420  0.242359  1
  O  O65  1  0.626014  0.756420  0.242359  1
  O  O66  1  0.743580  0.873986  0.742359  1
  O  O67  1  0.256420  0.873986  0.742359  1
  O  O68  1  0.500000  0.873630  0.641307  1
  O  O69  1  0.000000  0.875487  0.750421  1
  O  O70  1  0.875487  0.000000  0.249579  1
  O  O71  1  0.124513  0.000000  0.249579  1
  O  O72  1  0.373630  0.000000  0.141307  1
  O  O73  1  0.626370  0.000000  0.141307  1
  O  O74  1  0.000000  0.124513  0.750421  1
  O  O75  1  0.500000  0.126370  0.641307  1
  O  O76  1  0.743580  0.126014  0.742359  1
  O  O77  1  0.256420  0.126014  0.742359  1
  O  O78  1  0.373986  0.243580  0.242359  1
  O  O79  1  0.626014  0.243580  0.242359  1
