# generated using pymatgen
data_Fe3OF5
_symmetry_space_group_name_H-M   'P 1'
_cell_length_a   4.84939540
_cell_length_b   5.82929668
_cell_length_c   7.93134854
_cell_angle_alpha   86.23401196
_cell_angle_beta   88.80117406
_cell_angle_gamma   88.96343778
_symmetry_Int_Tables_number   1
_chemical_formula_structural   Fe3OF5
_chemical_formula_sum   'Fe6 O2 F10'
_cell_volume   223.64331856
_cell_formula_units_Z   2
loop_
 _symmetry_equiv_pos_site_id
 _symmetry_equiv_pos_as_xyz
  1  'x, y, z'
loop_
 _atom_site_type_symbol
 _atom_site_label
 _atom_site_symmetry_multiplicity
 _atom_site_fract_x
 _atom_site_fract_y
 _atom_site_fract_z
 _atom_site_occupancy
  Fe  Fe0  1  0.524802  0.809515  0.666831  1
  Fe  Fe1  1  0.500000  0.500000  0.000000  1
  Fe  Fe2  1  0.475198  0.190485  0.333169  1
  Fe  Fe3  1  0.981131  0.345782  0.674652  1
  Fe  Fe4  1  0.018869  0.654218  0.325348  1
  Fe  Fe5  1  0.000000  0.000000  0.000000  1
  O  O6  1  0.683093  0.537057  0.781731  1
  O  O7  1  0.316907  0.462943  0.218269  1
  F  F8  1  0.798445  0.359334  0.431573  1
  F  F9  1  0.798863  0.028033  0.763885  1
  F  F10  1  0.790818  0.706374  0.099403  1
  F  F11  1  0.698599  0.201504  0.099653  1
  F  F12  1  0.697057  0.871083  0.432216  1
  F  F13  1  0.302943  0.128917  0.567784  1
  F  F14  1  0.301401  0.798496  0.900347  1
  F  F15  1  0.201137  0.971967  0.236115  1
  F  F16  1  0.201555  0.640666  0.568427  1
  F  F17  1  0.209182  0.293626  0.900597  1
