# generated using pymatgen
data_LiNiPO4
_symmetry_space_group_name_H-M   'P 1'
_cell_length_a   5.16458645
_cell_length_b   7.56295693
_cell_length_c   8.54150727
_cell_angle_alpha   97.03043264
_cell_angle_beta   90.47850700
_cell_angle_gamma   98.59519941
_symmetry_Int_Tables_number   1
_chemical_formula_structural   LiNiPO4
_chemical_formula_sum   'Li4 Ni4 P4 O16'
_cell_volume   327.27941304
_cell_formula_units_Z   4
loop_
 _symmetry_equiv_pos_site_id
 _symmetry_equiv_pos_as_xyz
  1  'x, y, z'
loop_
 _atom_site_type_symbol
 _atom_site_label
 _atom_site_symmetry_multiplicity
 _atom_site_fract_x
 _atom_site_fract_y
 _atom_site_fract_z
 _atom_site_occupancy
  Li  Li0  1  0.865348  0.970937  0.646513  1
  Li  Li1  1  0.778518  0.486850  0.809029  1
  Li  Li2  1  0.221482  0.513150  0.190971  1
  Li  Li3  1  0.134652  0.029063  0.353487  1
  Ni  Ni4  1  0.715653  0.194858  0.096059  1
  Ni  Ni5  1  0.696905  0.647278  0.420720  1
  Ni  Ni6  1  0.303095  0.352722  0.579280  1
  Ni  Ni7  1  0.284347  0.805142  0.903941  1
  P  P8  1  0.748926  0.284233  0.447686  1
  P  P9  1  0.791817  0.779358  0.090286  1
  P  P10  1  0.208183  0.220642  0.909714  1
  P  P11  1  0.251074  0.715767  0.552314  1
  O  O12  1  0.955210  0.185840  0.520791  1
  O  O13  1  0.943368  0.297602  0.932297  1
  O  O14  1  0.841272  0.354392  0.290602  1
  O  O15  1  0.716587  0.455000  0.568108  1
  O  O16  1  0.858166  0.982259  0.158819  1
  O  O17  1  0.613638  0.677103  0.204483  1
  O  O18  1  0.643134  0.749330  0.927281  1
  O  O19  1  0.474820  0.170143  0.427202  1
  O  O20  1  0.525180  0.829857  0.572798  1
  O  O21  1  0.356866  0.250670  0.072719  1
  O  O22  1  0.386362  0.322897  0.795517  1
  O  O23  1  0.141834  0.017741  0.841181  1
  O  O24  1  0.283413  0.545000  0.431892  1
  O  O25  1  0.158728  0.645608  0.709398  1
  O  O26  1  0.056632  0.702398  0.067703  1
  O  O27  1  0.044790  0.814160  0.479209  1
