# generated using pymatgen
data_LiCoBO3
_symmetry_space_group_name_H-M   'P 1'
_cell_length_a   3.16536707
_cell_length_b   14.26019608
_cell_length_c   14.26733633
_cell_angle_alpha   60.07404702
_cell_angle_beta   89.07989650
_cell_angle_gamma   88.92895254
_symmetry_Int_Tables_number   1
_chemical_formula_structural   LiCoBO3
_chemical_formula_sum   'Li9 Co9 B9 O27'
_cell_volume   558.03016742
_cell_formula_units_Z   9
loop_
 _symmetry_equiv_pos_site_id
 _symmetry_equiv_pos_as_xyz
  1  'x, y, z'
loop_
 _atom_site_type_symbol
 _atom_site_label
 _atom_site_symmetry_multiplicity
 _atom_site_fract_x
 _atom_site_fract_y
 _atom_site_fract_z
 _atom_site_occupancy
  Li  Li0  1  0.510775  0.877138  0.905612  1
  Li  Li1  1  0.481395  0.566047  0.882257  1
  Li  Li2  1  0.562326  0.881080  0.551272  1
  Li  Li3  1  0.507182  0.216668  0.878144  1
  Li  Li4  1  0.451266  0.552320  0.566645  1
  Li  Li5  1  0.502627  0.255340  0.546486  1
  Li  Li6  1  0.491109  0.905896  0.217083  1
  Li  Li7  1  0.488790  0.546604  0.198575  1
  Li  Li8  1  0.502077  0.198060  0.256034  1
  Co  Co9  1  0.055901  0.813099  0.749211  1
  Co  Co10  1  0.998547  0.436403  0.814809  1
  Co  Co11  1  0.012348  0.108345  0.774016  1
  Co  Co12  1  0.951990  0.750123  0.437835  1
  Co  Co13  1  0.971933  0.470755  0.423621  1
  Co  Co14  1  0.025408  0.105801  0.471213  1
  Co  Co15  1  0.986560  0.774024  0.118571  1
  Co  Co16  1  0.987426  0.422855  0.106933  1
  Co  Co17  1  0.008426  0.117764  0.108463  1
  B  B18  1  0.003286  0.661939  0.991377  1
  B  B19  1  0.000238  0.666968  0.666919  1
  B  B20  1  0.992608  0.346968  0.662798  1
  B  B21  1  0.007649  0.990962  0.347039  1
  B  B22  1  0.531048  0.015121  0.668379  1
  B  B23  1  0.466772  0.668188  0.317275  1
  B  B24  1  0.997326  0.333091  0.333991  1
  B  B25  1  0.004851  0.999651  0.000343  1
  B  B26  1  0.502495  0.316219  0.016293  1
  O  O27  1  0.002261  0.912328  0.982495  1
  O  O28  1  0.966254  0.569186  0.983278  1
  O  O29  1  0.096077  0.761091  0.900431  1
  O  O30  1  0.560599  0.913177  0.680396  1
  O  O31  1  0.500766  0.406152  0.914426  1
  O  O32  1  0.011552  0.587639  0.774180  1
  O  O33  1  0.084537  0.772619  0.638099  1
  O  O34  1  0.017047  0.104745  0.913200  1
  O  O35  1  0.056010  0.982457  0.447776  1
  O  O36  1  0.078060  0.337952  0.762467  1
  O  O37  1  0.905499  0.640780  0.588746  1
  O  O38  1  0.894545  0.901242  0.338958  1
  O  O39  1  0.948590  0.254204  0.655691  1
  O  O40  1  0.957736  0.448229  0.570263  1
  O  O41  1  0.515995  0.026257  0.759676  1
  O  O42  1  0.450853  0.680549  0.407129  1
  O  O43  1  0.470137  0.564275  0.331687  1
  O  O44  1  0.516748  0.104462  0.564650  1
  O  O45  1  0.994907  0.981872  0.105513  1
  O  O46  1  0.479745  0.759402  0.215073  1
  O  O47  1  0.002244  0.329813  0.432814  1
  O  O48  1  0.999811  0.237488  0.330635  1
  O  O49  1  0.989610  0.431861  0.238713  1
  O  O50  1  0.953692  0.655081  0.091342  1
  O  O51  1  0.064144  0.090079  0.254123  1
  O  O52  1  0.496267  0.330520  0.105794  1
  O  O53  1  0.509775  0.214022  0.026786  1
