# generated using pymatgen
data_Li2Si2NiO6
_symmetry_space_group_name_H-M   'P 1'
_cell_length_a   5.40131185
_cell_length_b   4.72675199
_cell_length_c   9.59919782
_cell_angle_alpha   90.00000000
_cell_angle_beta   92.10018656
_cell_angle_gamma   90.00000000
_symmetry_Int_Tables_number   1
_chemical_formula_structural   Li2Si2NiO6
_chemical_formula_sum   'Li4 Si4 Ni2 O12'
_cell_volume   244.90924813
_cell_formula_units_Z   2
loop_
 _symmetry_equiv_pos_site_id
 _symmetry_equiv_pos_as_xyz
  1  'x, y, z'
loop_
 _atom_site_type_symbol
 _atom_site_label
 _atom_site_symmetry_multiplicity
 _atom_site_fract_x
 _atom_site_fract_y
 _atom_site_fract_z
 _atom_site_occupancy
  Li  Li0  1  0.673903  0.186667  0.323431  1
  Li  Li1  1  0.840548  0.702240  0.476796  1
  Li  Li2  1  0.159452  0.202240  0.523204  1
  Li  Li3  1  0.326097  0.686667  0.676569  1
  Si  Si4  1  0.145336  0.224811  0.181413  1
  Si  Si5  1  0.313579  0.719848  0.345994  1
  Si  Si6  1  0.686421  0.219848  0.654006  1
  Si  Si7  1  0.854664  0.724811  0.818587  1
  Ni  Ni8  1  0.628223  0.609598  0.112651  1
  Ni  Ni9  1  0.371777  0.109598  0.887349  1
  O  O10  1  0.341075  0.312266  0.062361  1
  O  O11  1  0.861315  0.315409  0.165850  1
  O  O12  1  0.153602  0.880420  0.216839  1
  O  O13  1  0.275620  0.367986  0.327928  1
  O  O14  1  0.604281  0.777604  0.315812  1
  O  O15  1  0.203268  0.798851  0.494009  1
  O  O16  1  0.796732  0.298851  0.505991  1
  O  O17  1  0.395719  0.277604  0.684188  1
  O  O18  1  0.724380  0.867986  0.672072  1
  O  O19  1  0.846398  0.380420  0.783161  1
  O  O20  1  0.138685  0.815409  0.834150  1
  O  O21  1  0.658925  0.812266  0.937639  1
