# generated using pymatgen
data_K3NiPCO7
_symmetry_space_group_name_H-M   'P 1'
_cell_length_a   5.60524572
_cell_length_b   6.89321099
_cell_length_c   11.14934849
_cell_angle_alpha   90.00000000
_cell_angle_beta   120.26759817
_cell_angle_gamma   90.00000000
_symmetry_Int_Tables_number   1
_chemical_formula_structural   K3NiPCO7
_chemical_formula_sum   'K6 Ni2 P2 C2 O14'
_cell_volume   372.06511175
_cell_formula_units_Z   2
loop_
 _symmetry_equiv_pos_site_id
 _symmetry_equiv_pos_as_xyz
  1  'x, y, z'
loop_
 _atom_site_type_symbol
 _atom_site_label
 _atom_site_symmetry_multiplicity
 _atom_site_fract_x
 _atom_site_fract_y
 _atom_site_fract_z
 _atom_site_occupancy
  K  K0  1  0.687616  0.750000  0.928042  1
  K  K1  1  0.969082  0.985826  0.713437  1
  K  K2  1  0.969082  0.514174  0.713437  1
  K  K3  1  0.030918  0.485826  0.286563  1
  K  K4  1  0.030918  0.014174  0.286563  1
  K  K5  1  0.312384  0.250000  0.071958  1
  Ni  Ni6  1  0.409752  0.250000  0.646191  1
  Ni  Ni7  1  0.590248  0.750000  0.353809  1
  P  P8  1  0.305386  0.750000  0.575545  1
  P  P9  1  0.694614  0.250000  0.424455  1
  C  C10  1  0.650961  0.250000  0.909649  1
  C  C11  1  0.349039  0.750000  0.090351  1
  O  O12  1  0.218081  0.750000  0.956528  1
  O  O13  1  0.782129  0.250000  0.840492  1
  O  O14  1  0.381257  0.250000  0.836223  1
  O  O15  1  0.431467  0.932307  0.669985  1
  O  O16  1  0.431467  0.567693  0.669985  1
  O  O17  1  0.986232  0.750000  0.514080  1
  O  O18  1  0.628459  0.250000  0.543472  1
  O  O19  1  0.371541  0.750000  0.456528  1
  O  O20  1  0.013768  0.250000  0.485920  1
  O  O21  1  0.568533  0.432307  0.330015  1
  O  O22  1  0.568533  0.067693  0.330015  1
  O  O23  1  0.618743  0.750000  0.163777  1
  O  O24  1  0.217871  0.750000  0.159508  1
  O  O25  1  0.781919  0.250000  0.043472  1
