# generated using pymatgen
data_Tm2GeO5
_symmetry_space_group_name_H-M   'P 1'
_cell_length_a   3.66023700
_cell_length_b   10.23691308
_cell_length_c   11.03297934
_cell_angle_alpha   90.00000000
_cell_angle_beta   90.00000000
_cell_angle_gamma   90.00000000
_symmetry_Int_Tables_number   1
_chemical_formula_structural   Tm2GeO5
_chemical_formula_sum   'Tm8 Ge4 O20'
_cell_volume   413.40052854
_cell_formula_units_Z   4
loop_
 _symmetry_equiv_pos_site_id
 _symmetry_equiv_pos_as_xyz
  1  'x, y, z'
loop_
 _atom_site_type_symbol
 _atom_site_label
 _atom_site_symmetry_multiplicity
 _atom_site_fract_x
 _atom_site_fract_y
 _atom_site_fract_z
 _atom_site_occupancy
  Tm  Tm0  1  0.750000  0.890777  0.776195  1
  Tm  Tm1  1  0.750000  0.864851  0.440117  1
  Tm  Tm2  1  0.250000  0.635149  0.940117  1
  Tm  Tm3  1  0.250000  0.609223  0.276195  1
  Tm  Tm4  1  0.750000  0.390777  0.723805  1
  Tm  Tm5  1  0.750000  0.364851  0.059883  1
  Tm  Tm6  1  0.250000  0.135149  0.559883  1
  Tm  Tm7  1  0.250000  0.109223  0.223805  1
  Ge  Ge8  1  0.750000  0.823316  0.117066  1
  Ge  Ge9  1  0.250000  0.676684  0.617066  1
  Ge  Ge10  1  0.750000  0.323316  0.382934  1
  Ge  Ge11  1  0.250000  0.176684  0.882934  1
  O  O12  1  0.750000  0.009431  0.604016  1
  O  O13  1  0.750000  0.990040  0.157528  1
  O  O14  1  0.250000  0.761150  0.113601  1
  O  O15  1  0.250000  0.759706  0.766643  1
  O  O16  1  0.750000  0.778461  0.956808  1
  O  O17  1  0.250000  0.721539  0.456808  1
  O  O18  1  0.750000  0.740294  0.266643  1
  O  O19  1  0.750000  0.738850  0.613601  1
  O  O20  1  0.250000  0.509960  0.657528  1
  O  O21  1  0.250000  0.490569  0.104016  1
  O  O22  1  0.750000  0.509431  0.895984  1
  O  O23  1  0.750000  0.490040  0.342472  1
  O  O24  1  0.250000  0.261150  0.386399  1
  O  O25  1  0.250000  0.259706  0.733357  1
  O  O26  1  0.750000  0.278461  0.543192  1
  O  O27  1  0.250000  0.221539  0.043192  1
  O  O28  1  0.750000  0.240294  0.233357  1
  O  O29  1  0.750000  0.238850  0.886399  1
  O  O30  1  0.250000  0.009960  0.842472  1
  O  O31  1  0.250000  0.990569  0.395984  1
