# generated using pymatgen
data_Li12Mn3CrP4(CO7)4
_symmetry_space_group_name_H-M   'P 1'
_cell_length_a   8.58611677
_cell_length_b   6.56663713
_cell_length_c   10.00993270
_cell_angle_alpha   90.00000000
_cell_angle_beta   94.42422152
_cell_angle_gamma   90.00000000
_symmetry_Int_Tables_number   1
_chemical_formula_structural   Li12Mn3CrP4(CO7)4
_chemical_formula_sum   'Li12 Mn3 Cr1 P4 C4 O28'
_cell_volume   562.69743640
_cell_formula_units_Z   1
loop_
 _symmetry_equiv_pos_site_id
 _symmetry_equiv_pos_as_xyz
  1  'x, y, z'
loop_
 _atom_site_type_symbol
 _atom_site_label
 _atom_site_symmetry_multiplicity
 _atom_site_fract_x
 _atom_site_fract_y
 _atom_site_fract_z
 _atom_site_occupancy
  Li  Li0  1  0.907862  0.000000  0.379061  1
  Li  Li1  1  0.907594  0.000000  0.879880  1
  Li  Li2  1  0.726781  0.222066  0.122808  1
  Li  Li3  1  0.726781  0.777934  0.122808  1
  Li  Li4  1  0.726578  0.221292  0.623358  1
  Li  Li5  1  0.726578  0.778708  0.623358  1
  Li  Li6  1  0.273024  0.723784  0.376269  1
  Li  Li7  1  0.273024  0.276216  0.376269  1
  Li  Li8  1  0.273332  0.723495  0.877031  1
  Li  Li9  1  0.273332  0.276505  0.877031  1
  Li  Li10  1  0.091650  0.500000  0.120423  1
  Li  Li11  1  0.090104  0.500000  0.620916  1
  Mn  Mn12  1  0.659770  0.500000  0.388646  1
  Mn  Mn13  1  0.660256  0.500000  0.889843  1
  Mn  Mn14  1  0.340864  0.000000  0.110674  1
  Cr  Cr15  1  0.334997  0.000000  0.607799  1
  P  P16  1  0.590010  0.000000  0.360469  1
  P  P17  1  0.590066  0.000000  0.859573  1
  P  P18  1  0.410258  0.500000  0.139829  1
  P  P19  1  0.411586  0.500000  0.640920  1
  C  C20  1  0.967001  0.500000  0.352341  1
  C  C21  1  0.966965  0.500000  0.851985  1
  C  C22  1  0.033208  0.000000  0.147751  1
  C  C23  1  0.031998  0.000000  0.647002  1
  O  O24  1  0.930692  0.500000  0.474884  1
  O  O25  1  0.887966  0.000000  0.177920  1
  O  O26  1  0.930850  0.500000  0.974760  1
  O  O27  1  0.856114  0.500000  0.255367  1
  O  O28  1  0.887740  0.000000  0.679373  1
  O  O29  1  0.855956  0.500000  0.755213  1
  O  O30  1  0.689244  0.184547  0.414346  1
  O  O31  1  0.689244  0.815453  0.414346  1
  O  O32  1  0.689086  0.184649  0.914825  1
  O  O33  1  0.689086  0.815351  0.914825  1
  O  O34  1  0.578841  0.500000  0.094508  1
  O  O35  1  0.576851  0.000000  0.203661  1
  O  O36  1  0.579144  0.500000  0.594096  1
  O  O37  1  0.579536  0.000000  0.703500  1
  O  O38  1  0.423355  0.500000  0.296672  1
  O  O39  1  0.421516  0.000000  0.406157  1
  O  O40  1  0.423649  0.500000  0.797250  1
  O  O41  1  0.421715  0.000000  0.906051  1
  O  O42  1  0.310853  0.315569  0.085815  1
  O  O43  1  0.310853  0.684431  0.085815  1
  O  O44  1  0.312713  0.686332  0.587233  1
  O  O45  1  0.312713  0.313668  0.587233  1
  O  O46  1  0.144197  0.000000  0.244604  1
  O  O47  1  0.112336  0.500000  0.322421  1
  O  O48  1  0.145240  0.000000  0.742173  1
  O  O49  1  0.069270  0.000000  0.025039  1
  O  O50  1  0.112153  0.500000  0.821868  1
  O  O51  1  0.065470  0.000000  0.524004  1
