# generated using pymatgen
data_Mn3CrO8
_symmetry_space_group_name_H-M   'P 1'
_cell_length_a   5.76806443
_cell_length_b   5.76806443
_cell_length_c   8.89973758
_cell_angle_alpha   90.00000000
_cell_angle_beta   90.00000000
_cell_angle_gamma   120.00000000
_symmetry_Int_Tables_number   1
_chemical_formula_structural   Mn3CrO8
_chemical_formula_sum   'Mn6 Cr2 O16'
_cell_volume   256.42953112
_cell_formula_units_Z   2
loop_
 _symmetry_equiv_pos_site_id
 _symmetry_equiv_pos_as_xyz
  1  'x, y, z'
loop_
 _atom_site_type_symbol
 _atom_site_label
 _atom_site_symmetry_multiplicity
 _atom_site_fract_x
 _atom_site_fract_y
 _atom_site_fract_z
 _atom_site_occupancy
  Mn  Mn0  1  0.167912  0.832088  0.210896  1
  Mn  Mn1  1  0.167912  0.335823  0.210896  1
  Mn  Mn2  1  0.664177  0.832088  0.210896  1
  Mn  Mn3  1  0.335823  0.167912  0.710896  1
  Mn  Mn4  1  0.832088  0.664177  0.710896  1
  Mn  Mn5  1  0.832088  0.167912  0.710896  1
  Cr  Cr6  1  0.333333  0.666667  0.490508  1
  Cr  Cr7  1  0.666667  0.333333  0.990508  1
  O  O8  1  0.168237  0.831763  0.600679  1
  O  O9  1  0.041500  0.520750  0.338420  1
  O  O10  1  0.333333  0.666667  0.100302  1
  O  O11  1  0.000000  0.000000  0.317186  1
  O  O12  1  0.000000  0.000000  0.817186  1
  O  O13  1  0.168237  0.336474  0.600679  1
  O  O14  1  0.479250  0.958500  0.338420  1
  O  O15  1  0.479250  0.520750  0.338420  1
  O  O16  1  0.336474  0.168237  0.100679  1
  O  O17  1  0.663526  0.831763  0.600679  1
  O  O18  1  0.520750  0.479250  0.838420  1
  O  O19  1  0.520750  0.041500  0.838420  1
  O  O20  1  0.666667  0.333333  0.600302  1
  O  O21  1  0.831763  0.663526  0.100679  1
  O  O22  1  0.958500  0.479250  0.838420  1
  O  O23  1  0.831763  0.168237  0.100679  1
