# generated using pymatgen
data_BaLa3Mn4O12
_symmetry_space_group_name_H-M   'P 1'
_cell_length_a   7.93640470
_cell_length_b   7.93640470
_cell_length_c   7.93640470
_cell_angle_alpha   90.41006104
_cell_angle_beta   90.41006104
_cell_angle_gamma   90.41006104
_symmetry_Int_Tables_number   1
_chemical_formula_structural   BaLa3Mn4O12
_chemical_formula_sum   'Ba2 La6 Mn8 O24'
_cell_volume   499.84791844
_cell_formula_units_Z   2
loop_
 _symmetry_equiv_pos_site_id
 _symmetry_equiv_pos_as_xyz
  1  'x, y, z'
loop_
 _atom_site_type_symbol
 _atom_site_label
 _atom_site_symmetry_multiplicity
 _atom_site_fract_x
 _atom_site_fract_y
 _atom_site_fract_z
 _atom_site_occupancy
  Ba  Ba0  1  0.250000  0.250000  0.250000  1
  Ba  Ba1  1  0.750000  0.750000  0.750000  1
  La  La2  1  0.745848  0.754152  0.250000  1
  La  La3  1  0.754152  0.250000  0.745848  1
  La  La4  1  0.254152  0.245848  0.750000  1
  La  La5  1  0.250000  0.745848  0.754152  1
  La  La6  1  0.245848  0.750000  0.254152  1
  La  La7  1  0.750000  0.254152  0.245848  1
  Mn  Mn8  1  0.500000  0.500000  0.000000  1
  Mn  Mn9  1  0.500000  0.000000  0.500000  1
  Mn  Mn10  1  0.000000  0.000000  0.500000  1
  Mn  Mn11  1  0.000000  0.500000  0.500000  1
  Mn  Mn12  1  0.000000  0.500000  0.000000  1
  Mn  Mn13  1  0.000000  0.000000  0.000000  1
  Mn  Mn14  1  0.500000  0.000000  0.000000  1
  Mn  Mn15  1  0.500000  0.500000  0.500000  1
  O  O16  1  0.987093  0.750000  0.512907  1
  O  O17  1  0.978545  0.035311  0.750852  1
  O  O18  1  0.964689  0.249148  0.021455  1
  O  O19  1  0.972922  0.527078  0.250000  1
  O  O20  1  0.249148  0.021455  0.964689  1
  O  O21  1  0.250000  0.487093  0.012907  1
  O  O22  1  0.472922  0.750000  0.027078  1
  O  O23  1  0.250852  0.535311  0.478545  1
  O  O24  1  0.487093  0.012907  0.250000  1
  O  O25  1  0.250000  0.972922  0.527078  1
  O  O26  1  0.535311  0.478545  0.250852  1
  O  O27  1  0.521455  0.749148  0.464689  1
  O  O28  1  0.478545  0.250852  0.535311  1
  O  O29  1  0.464689  0.521455  0.749148  1
  O  O30  1  0.750000  0.027078  0.472922  1
  O  O31  1  0.512907  0.987093  0.750000  1
  O  O32  1  0.749148  0.464689  0.521455  1
  O  O33  1  0.527078  0.250000  0.972922  1
  O  O34  1  0.750000  0.512907  0.987093  1
  O  O35  1  0.750852  0.978545  0.035311  1
  O  O36  1  0.027078  0.472922  0.750000  1
  O  O37  1  0.035311  0.750852  0.978545  1
  O  O38  1  0.021455  0.964689  0.249148  1
  O  O39  1  0.012907  0.250000  0.487093  1
