# generated using pymatgen
data_Li2FePCO7
_symmetry_space_group_name_H-M   'P 1'
_cell_length_a   5.08550229
_cell_length_b   8.49206991
_cell_length_c   12.79722473
_cell_angle_alpha   96.39995012
_cell_angle_beta   93.65228547
_cell_angle_gamma   94.72934612
_symmetry_Int_Tables_number   1
_chemical_formula_structural   Li2FePCO7
_chemical_formula_sum   'Li8 Fe4 P4 C4 O28'
_cell_volume   545.86795668
_cell_formula_units_Z   4
loop_
 _symmetry_equiv_pos_site_id
 _symmetry_equiv_pos_as_xyz
  1  'x, y, z'
loop_
 _atom_site_type_symbol
 _atom_site_label
 _atom_site_symmetry_multiplicity
 _atom_site_fract_x
 _atom_site_fract_y
 _atom_site_fract_z
 _atom_site_occupancy
  Li  Li0  1  0.749800  0.204430  0.439214  1
  Li  Li1  1  0.595749  0.250600  0.206794  1
  Li  Li2  1  0.721435  0.271343  0.981867  1
  Li  Li3  1  0.757107  0.945875  0.783361  1
  Li  Li4  1  0.619256  0.298614  0.667077  1
  Li  Li5  1  0.349552  0.806649  0.198294  1
  Li  Li6  1  0.222224  0.780052  0.426350  1
  Li  Li7  1  0.258389  0.778265  0.930028  1
  Fe  Fe8  1  0.794305  0.680876  0.086575  1
  Fe  Fe9  1  0.767544  0.689687  0.588953  1
  Fe  Fe10  1  0.159203  0.373245  0.330323  1
  Fe  Fe11  1  0.169131  0.366549  0.829288  1
  P  P12  1  0.689852  0.604268  0.330985  1
  P  P13  1  0.703569  0.600614  0.831619  1
  P  P14  1  0.258775  0.449578  0.085543  1
  P  P15  1  0.232286  0.450997  0.585559  1
  C  C16  1  0.720581  0.969096  0.082194  1
  C  C17  1  0.653456  0.969514  0.573223  1
  C  C18  1  0.217182  0.079057  0.327321  1
  C  C19  1  0.291474  0.085223  0.843789  1
  O  O20  1  0.951239  0.918289  0.099428  1
  O  O21  1  0.799135  0.440874  0.295841  1
  O  O22  1  0.855830  0.687288  0.430197  1
  O  O23  1  0.870686  0.930708  0.622221  1
  O  O24  1  0.813544  0.440410  0.791854  1
  O  O25  1  0.872713  0.680077  0.931880  1
  O  O26  1  0.696220  0.708711  0.239378  1
  O  O27  1  0.676832  0.113836  0.082135  1
  O  O28  1  0.719707  0.716793  0.747378  1
  O  O29  1  0.617784  0.113046  0.561200  1
  O  O30  1  0.555406  0.474931  0.060518  1
  O  O31  1  0.417945  0.192237  0.337123  1
  O  O32  1  0.533808  0.485058  0.570156  1
  O  O33  1  0.460902  0.214254  0.852445  1
  O  O34  1  0.523549  0.852003  0.065484  1
  O  O35  1  0.394298  0.574647  0.357263  1
  O  O36  1  0.483693  0.847723  0.540698  1
  O  O37  1  0.409126  0.569245  0.857616  1
  O  O38  1  0.254914  0.933693  0.323163  1
  O  O39  1  0.243598  0.342390  0.175431  1
  O  O40  1  0.372602  0.948776  0.846378  1
  O  O41  1  0.223077  0.338663  0.674122  1
  O  O42  1  0.151549  0.612499  0.121425  1
  O  O43  1  0.985306  0.134267  0.321230  1
  O  O44  1  0.086832  0.362056  0.482800  1
  O  O45  1  0.107798  0.606583  0.616922  1
  O  O46  1  0.043956  0.114679  0.830442  1
  O  O47  1  0.090945  0.370505  0.985359  1
