# generated using pymatgen
data_Li4Sn(PO4)2
_symmetry_space_group_name_H-M   'P 1'
_cell_length_a   8.27830372
_cell_length_b   10.42902543
_cell_length_c   9.01881712
_cell_angle_alpha   90.00000000
_cell_angle_beta   100.07837228
_cell_angle_gamma   90.00000000
_symmetry_Int_Tables_number   1
_chemical_formula_structural   Li4Sn(PO4)2
_chemical_formula_sum   'Li16 Sn4 P8 O32'
_cell_volume   766.62143142
_cell_formula_units_Z   4
loop_
 _symmetry_equiv_pos_site_id
 _symmetry_equiv_pos_as_xyz
  1  'x, y, z'
loop_
 _atom_site_type_symbol
 _atom_site_label
 _atom_site_symmetry_multiplicity
 _atom_site_fract_x
 _atom_site_fract_y
 _atom_site_fract_z
 _atom_site_occupancy
  Li  Li0  1  0.104350  0.659202  0.598629  1
  Li  Li1  1  0.146531  0.163936  0.643695  1
  Li  Li2  1  0.158382  0.345673  0.171917  1
  Li  Li3  1  0.230664  0.422292  0.479014  1
  Li  Li4  1  0.269336  0.922292  0.520986  1
  Li  Li5  1  0.341618  0.845673  0.828083  1
  Li  Li6  1  0.353469  0.663936  0.356305  1
  Li  Li7  1  0.395650  0.159202  0.401371  1
  Li  Li8  1  0.604350  0.840798  0.598629  1
  Li  Li9  1  0.646531  0.336064  0.643695  1
  Li  Li10  1  0.658382  0.154327  0.171917  1
  Li  Li11  1  0.730664  0.077708  0.479014  1
  Li  Li12  1  0.769336  0.577708  0.520986  1
  Li  Li13  1  0.841618  0.654327  0.828083  1
  Li  Li14  1  0.853469  0.836064  0.356305  1
  Li  Li15  1  0.895650  0.340798  0.401371  1
  Sn  Sn16  1  0.094064  0.853241  0.086510  1
  Sn  Sn17  1  0.405936  0.353241  0.913490  1
  Sn  Sn18  1  0.594064  0.646759  0.086510  1
  Sn  Sn19  1  0.905936  0.146759  0.913490  1
  P  P20  1  0.014615  0.407138  0.751293  1
  P  P21  1  0.514615  0.092862  0.751293  1
  P  P22  1  0.485385  0.907138  0.248707  1
  P  P23  1  0.985385  0.592862  0.248707  1
  P  P24  1  0.046789  0.096564  0.320689  1
  P  P25  1  0.453211  0.596564  0.679311  1
  P  P26  1  0.546789  0.403436  0.320689  1
  P  P27  1  0.953211  0.903436  0.679311  1
  O  O28  1  0.991287  0.048753  0.724879  1
  O  O29  1  0.089712  0.348292  0.620617  1
  O  O30  1  0.140197  0.394765  0.905106  1
  O  O31  1  0.035654  0.452872  0.287168  1
  O  O32  1  0.113782  0.844535  0.640522  1
  O  O33  1  0.104738  0.170098  0.192157  1
  O  O34  1  0.139467  0.673385  0.223876  1
  O  O35  1  0.189287  0.095094  0.458735  1
  O  O36  1  0.310713  0.595094  0.541265  1
  O  O37  1  0.360533  0.173385  0.776124  1
  O  O38  1  0.395262  0.670098  0.807843  1
  O  O39  1  0.386218  0.344535  0.359478  1
  O  O40  1  0.464346  0.952872  0.712832  1
  O  O41  1  0.359803  0.894765  0.094894  1
  O  O42  1  0.491287  0.451247  0.724879  1
  O  O43  1  0.410288  0.848292  0.379383  1
  O  O44  1  0.589712  0.151708  0.620617  1
  O  O45  1  0.508713  0.548753  0.275121  1
  O  O46  1  0.640197  0.105235  0.905106  1
  O  O47  1  0.535654  0.047128  0.287168  1
  O  O48  1  0.613782  0.655465  0.640522  1
  O  O49  1  0.604738  0.329902  0.192157  1
  O  O50  1  0.639467  0.826615  0.223876  1
  O  O51  1  0.689287  0.404906  0.458735  1
  O  O52  1  0.810713  0.904906  0.541265  1
  O  O53  1  0.860533  0.326615  0.776124  1
  O  O54  1  0.895262  0.829902  0.807843  1
  O  O55  1  0.886218  0.155465  0.359478  1
  O  O56  1  0.964346  0.547128  0.712832  1
  O  O57  1  0.859803  0.605235  0.094894  1
  O  O58  1  0.910288  0.651708  0.379383  1
  O  O59  1  0.008713  0.951247  0.275121  1
