# generated using pymatgen
data_LiMn2OF3
_symmetry_space_group_name_H-M   'P 1'
_cell_length_a   6.29208192
_cell_length_b   6.29208192
_cell_length_c   9.01258323
_cell_angle_alpha   90.00000000
_cell_angle_beta   90.00000000
_cell_angle_gamma   90.00000000
_symmetry_Int_Tables_number   1
_chemical_formula_structural   LiMn2OF3
_chemical_formula_sum   'Li4 Mn8 O4 F12'
_cell_volume   356.81082778
_cell_formula_units_Z   4
loop_
 _symmetry_equiv_pos_site_id
 _symmetry_equiv_pos_as_xyz
  1  'x, y, z'
loop_
 _atom_site_type_symbol
 _atom_site_label
 _atom_site_symmetry_multiplicity
 _atom_site_fract_x
 _atom_site_fract_y
 _atom_site_fract_z
 _atom_site_occupancy
  Li  Li0  1  0.250913  0.511656  0.250750  1
  Li  Li1  1  0.488344  0.250913  0.000750  1
  Li  Li2  1  0.511656  0.749087  0.500750  1
  Li  Li3  1  0.749087  0.488344  0.750750  1
  Mn  Mn4  1  0.013611  0.252417  0.984534  1
  Mn  Mn5  1  0.986389  0.747583  0.484534  1
  Mn  Mn6  1  0.226079  0.256253  0.634870  1
  Mn  Mn7  1  0.256253  0.773921  0.884870  1
  Mn  Mn8  1  0.252417  0.986389  0.234534  1
  Mn  Mn9  1  0.747583  0.013611  0.734534  1
  Mn  Mn10  1  0.743747  0.226079  0.384870  1
  Mn  Mn11  1  0.773921  0.743747  0.134870  1
  O  O12  1  0.032489  0.744902  0.258770  1
  O  O13  1  0.255098  0.032489  0.008770  1
  O  O14  1  0.744902  0.967511  0.508770  1
  O  O15  1  0.967511  0.255098  0.758770  1
  F  F16  1  0.010179  0.261549  0.241771  1
  F  F17  1  0.261549  0.989821  0.491771  1
  F  F18  1  0.262480  0.498105  0.014446  1
  F  F19  1  0.254726  0.512976  0.489859  1
  F  F20  1  0.501895  0.262480  0.764446  1
  F  F21  1  0.512976  0.745274  0.739859  1
  F  F22  1  0.487024  0.254726  0.239859  1
  F  F23  1  0.498105  0.737520  0.264446  1
  F  F24  1  0.737520  0.501895  0.514446  1
  F  F25  1  0.745274  0.487024  0.989859  1
  F  F26  1  0.738451  0.010179  0.991771  1
  F  F27  1  0.989821  0.738451  0.741771  1
