# generated using pymatgen
data_Li4Nb2Fe3Ni3O16
_symmetry_space_group_name_H-M   'P 1'
_cell_length_a   5.94534207
_cell_length_b   5.94534207
_cell_length_c   9.69886599
_cell_angle_alpha   88.78518524
_cell_angle_beta   91.21481476
_cell_angle_gamma   120.80101756
_symmetry_Int_Tables_number   1
_chemical_formula_structural   Li4Nb2Fe3Ni3O16
_chemical_formula_sum   'Li4 Nb2 Fe3 Ni3 O16'
_cell_volume   294.38373071
_cell_formula_units_Z   1
loop_
 _symmetry_equiv_pos_site_id
 _symmetry_equiv_pos_as_xyz
  1  'x, y, z'
loop_
 _atom_site_type_symbol
 _atom_site_label
 _atom_site_symmetry_multiplicity
 _atom_site_fract_x
 _atom_site_fract_y
 _atom_site_fract_z
 _atom_site_occupancy
  Li  Li0  1  0.661462  0.338538  0.898324  1
  Li  Li1  1  0.997943  0.002057  0.989953  1
  Li  Li2  1  0.999394  0.000606  0.491639  1
  Li  Li3  1  0.336660  0.663340  0.405465  1
  Nb  Nb4  1  0.670475  0.329525  0.495998  1
  Nb  Nb5  1  0.327661  0.672339  0.992951  1
  Fe  Fe6  1  0.342339  0.167134  0.218774  1
  Fe  Fe7  1  0.832866  0.657661  0.218774  1
  Fe  Fe8  1  0.170706  0.829294  0.717887  1
  Ni  Ni9  1  0.830438  0.169562  0.212173  1
  Ni  Ni10  1  0.166505  0.339168  0.714253  1
  Ni  Ni11  1  0.660832  0.833495  0.714253  1
  O  O12  1  0.339189  0.158470  0.590245  1
  O  O13  1  0.519916  0.480084  0.344592  1
  O  O14  1  0.662408  0.337592  0.109449  1
  O  O15  1  0.000913  0.999087  0.303336  1
  O  O16  1  0.996817  0.003183  0.801169  1
  O  O17  1  0.841530  0.660811  0.590245  1
  O  O18  1  0.516208  0.032619  0.345678  1
  O  O19  1  0.967381  0.483792  0.345678  1
  O  O20  1  0.166397  0.833603  0.094404  1
  O  O21  1  0.841063  0.158937  0.596384  1
  O  O22  1  0.029766  0.522341  0.845183  1
  O  O23  1  0.477659  0.970234  0.845183  1
  O  O24  1  0.337905  0.662095  0.614386  1
  O  O25  1  0.170728  0.332622  0.087907  1
  O  O26  1  0.476378  0.523622  0.835650  1
  O  O27  1  0.667378  0.829272  0.087907  1
