# generated using pymatgen
data_Li4Fe3Co3(SbO8)2
_symmetry_space_group_name_H-M   'P 1'
_cell_length_a   5.88316062
_cell_length_b   5.88316062
_cell_length_c   9.59533746
_cell_angle_alpha   88.96520784
_cell_angle_beta   91.03479216
_cell_angle_gamma   119.96860576
_symmetry_Int_Tables_number   1
_chemical_formula_structural   Li4Fe3Co3(SbO8)2
_chemical_formula_sum   'Li4 Fe3 Co3 Sb2 O16'
_cell_volume   287.64386655
_cell_formula_units_Z   1
loop_
 _symmetry_equiv_pos_site_id
 _symmetry_equiv_pos_as_xyz
  1  'x, y, z'
loop_
 _atom_site_type_symbol
 _atom_site_label
 _atom_site_symmetry_multiplicity
 _atom_site_fract_x
 _atom_site_fract_y
 _atom_site_fract_z
 _atom_site_occupancy
  Li  Li0  1  0.338486  0.661514  0.094769  1
  Li  Li1  1  0.994267  0.005733  0.007663  1
  Li  Li2  1  0.992456  0.007544  0.509644  1
  Li  Li3  1  0.671012  0.328988  0.601225  1
  Fe  Fe4  1  0.168995  0.831005  0.785865  1
  Fe  Fe5  1  0.338571  0.170511  0.285768  1
  Fe  Fe6  1  0.829489  0.661429  0.285768  1
  Co  Co7  1  0.170002  0.342151  0.785891  1
  Co  Co8  1  0.657849  0.829998  0.785891  1
  Co  Co9  1  0.826550  0.173450  0.285054  1
  Sb  Sb10  1  0.334510  0.665490  0.514887  1
  Sb  Sb11  1  0.667710  0.332290  0.008484  1
  O  O12  1  0.162226  0.332788  0.402513  1
  O  O13  1  0.483080  0.516920  0.667909  1
  O  O14  1  0.338622  0.661378  0.888536  1
  O  O15  1  0.993637  0.006363  0.696362  1
  O  O16  1  0.991764  0.008236  0.195538  1
  O  O17  1  0.667212  0.837774  0.402513  1
  O  O18  1  0.036970  0.507422  0.658079  1
  O  O19  1  0.492578  0.963030  0.658079  1
  O  O20  1  0.835680  0.164320  0.897257  1
  O  O21  1  0.163896  0.836104  0.409456  1
  O  O22  1  0.527015  0.032743  0.156735  1
  O  O23  1  0.967257  0.472985  0.156735  1
  O  O24  1  0.669485  0.330515  0.393741  1
  O  O25  1  0.325764  0.165309  0.903926  1
  O  O26  1  0.520020  0.479980  0.149990  1
  O  O27  1  0.834691  0.674236  0.903926  1
