# generated using pymatgen
data_Li2CuCSO7
_symmetry_space_group_name_H-M   'P 1'
_cell_length_a   5.00279421
_cell_length_b   6.50404352
_cell_length_c   8.47538413
_cell_angle_alpha   90.00000000
_cell_angle_beta   92.97588821
_cell_angle_gamma   90.00000000
_symmetry_Int_Tables_number   1
_chemical_formula_structural   Li2CuCSO7
_chemical_formula_sum   'Li4 Cu2 C2 S2 O14'
_cell_volume   275.40347392
_cell_formula_units_Z   2
loop_
 _symmetry_equiv_pos_site_id
 _symmetry_equiv_pos_as_xyz
  1  'x, y, z'
loop_
 _atom_site_type_symbol
 _atom_site_label
 _atom_site_symmetry_multiplicity
 _atom_site_fract_x
 _atom_site_fract_y
 _atom_site_fract_z
 _atom_site_occupancy
  Li  Li0  1  0.775693  0.015305  0.211212  1
  Li  Li1  1  0.775693  0.484695  0.211212  1
  Li  Li2  1  0.224307  0.515305  0.788788  1
  Li  Li3  1  0.224307  0.984695  0.788788  1
  Cu  Cu4  1  0.231717  0.250000  0.354739  1
  Cu  Cu5  1  0.768283  0.750000  0.645261  1
  C  C6  1  0.278193  0.250000  0.059591  1
  C  C7  1  0.721807  0.750000  0.940409  1
  S  S8  1  0.284039  0.750000  0.418982  1
  S  S9  1  0.715961  0.250000  0.581018  1
  O  O10  1  0.727318  0.750000  0.090185  1
  O  O11  1  0.055276  0.250000  0.136719  1
  O  O12  1  0.496732  0.250000  0.148801  1
  O  O13  1  0.184000  0.932749  0.330240  1
  O  O14  1  0.184000  0.567251  0.330240  1
  O  O15  1  0.807221  0.250000  0.416585  1
  O  O16  1  0.587363  0.750000  0.429810  1
  O  O17  1  0.412637  0.250000  0.570190  1
  O  O18  1  0.192779  0.750000  0.583415  1
  O  O19  1  0.816000  0.432749  0.669760  1
  O  O20  1  0.816000  0.067251  0.669760  1
  O  O21  1  0.503268  0.750000  0.851199  1
  O  O22  1  0.944724  0.750000  0.863281  1
  O  O23  1  0.272682  0.250000  0.909815  1
