# generated using pymatgen
data_TiV2O7
_symmetry_space_group_name_H-M   'P 1'
_cell_length_a   8.73746258
_cell_length_b   8.73746258
_cell_length_c   8.73746258
_cell_angle_alpha   90.00000000
_cell_angle_beta   90.00000000
_cell_angle_gamma   90.00000000
_symmetry_Int_Tables_number   1
_chemical_formula_structural   TiV2O7
_chemical_formula_sum   'Ti4 V8 O28'
_cell_volume   667.04631053
_cell_formula_units_Z   4
loop_
 _symmetry_equiv_pos_site_id
 _symmetry_equiv_pos_as_xyz
  1  'x, y, z'
loop_
 _atom_site_type_symbol
 _atom_site_label
 _atom_site_symmetry_multiplicity
 _atom_site_fract_x
 _atom_site_fract_y
 _atom_site_fract_z
 _atom_site_occupancy
  Ti  Ti0  1  0.000000  0.000000  0.000000  1
  Ti  Ti1  1  0.000000  0.500000  0.500000  1
  Ti  Ti2  1  0.500000  0.000000  0.500000  1
  Ti  Ti3  1  0.500000  0.500000  0.000000  1
  V  V4  1  0.117917  0.882083  0.382083  1
  V  V5  1  0.117917  0.617917  0.882083  1
  V  V6  1  0.382083  0.382083  0.382083  1
  V  V7  1  0.382083  0.117917  0.882083  1
  V  V8  1  0.617917  0.617917  0.617917  1
  V  V9  1  0.617917  0.882083  0.117917  1
  V  V10  1  0.882083  0.117917  0.617917  1
  V  V11  1  0.882083  0.382083  0.117917  1
  O  O12  1  0.000000  0.000000  0.500000  1
  O  O13  1  0.000000  0.500000  0.000000  1
  O  O14  1  0.063206  0.694815  0.408645  1
  O  O15  1  0.063206  0.805185  0.908645  1
  O  O16  1  0.091355  0.563206  0.694815  1
  O  O17  1  0.091355  0.936794  0.194815  1
  O  O18  1  0.194815  0.091355  0.936794  1
  O  O19  1  0.194815  0.408645  0.436794  1
  O  O20  1  0.305185  0.591355  0.936794  1
  O  O21  1  0.305185  0.908645  0.436794  1
  O  O22  1  0.408645  0.063206  0.694815  1
  O  O23  1  0.408645  0.436794  0.194815  1
  O  O24  1  0.436794  0.305185  0.908645  1
  O  O25  1  0.436794  0.194815  0.408645  1
  O  O26  1  0.500000  0.500000  0.500000  1
  O  O27  1  0.500000  0.000000  0.000000  1
  O  O28  1  0.563206  0.694815  0.091355  1
  O  O29  1  0.563206  0.805185  0.591355  1
  O  O30  1  0.591355  0.563206  0.805185  1
  O  O31  1  0.591355  0.936794  0.305185  1
  O  O32  1  0.694815  0.091355  0.563206  1
  O  O33  1  0.694815  0.408645  0.063206  1
  O  O34  1  0.805185  0.591355  0.563206  1
  O  O35  1  0.805185  0.908645  0.063206  1
  O  O36  1  0.908645  0.063206  0.805185  1
  O  O37  1  0.908645  0.436794  0.305185  1
  O  O38  1  0.936794  0.194815  0.091355  1
  O  O39  1  0.936794  0.305185  0.591355  1
