# generated using pymatgen
data_Cs2ZnH12(SeO7)2
_symmetry_space_group_name_H-M   'P 1'
_cell_length_a   6.59355871
_cell_length_b   13.27662199
_cell_length_c   9.48745693
_cell_angle_alpha   90.00000000
_cell_angle_beta   105.40149815
_cell_angle_gamma   90.00000000
_symmetry_Int_Tables_number   1
_chemical_formula_structural   Cs2ZnH12(SeO7)2
_chemical_formula_sum   'Cs4 Zn2 H24 Se4 O28'
_cell_volume   800.70800420
_cell_formula_units_Z   2
loop_
 _symmetry_equiv_pos_site_id
 _symmetry_equiv_pos_as_xyz
  1  'x, y, z'
loop_
 _atom_site_type_symbol
 _atom_site_label
 _atom_site_symmetry_multiplicity
 _atom_site_fract_x
 _atom_site_fract_y
 _atom_site_fract_z
 _atom_site_occupancy
  Cs  Cs0  1  0.650443  0.353007  0.865996  1
  Cs  Cs1  1  0.349557  0.853007  0.634004  1
  Cs  Cs2  1  0.650443  0.146993  0.365996  1
  Cs  Cs3  1  0.349557  0.646993  0.134004  1
  Zn  Zn4  1  0.000000  0.000000  0.000000  1
  Zn  Zn5  1  0.000000  0.500000  0.500000  1
  H  H6  1  0.330538  0.062254  0.906266  1
  H  H7  1  0.691142  0.861755  0.970523  1
  H  H8  1  0.073450  0.403051  0.770631  1
  H  H9  1  0.095427  0.629321  0.731459  1
  H  H10  1  0.685849  0.093480  0.800819  1
  H  H11  1  0.000535  0.822367  0.855735  1
  H  H12  1  0.999465  0.322367  0.644265  1
  H  H13  1  0.314151  0.593480  0.699181  1
  H  H14  1  0.904573  0.129321  0.768541  1
  H  H15  1  0.926550  0.903051  0.729369  1
  H  H16  1  0.308858  0.361755  0.529477  1
  H  H17  1  0.669462  0.562254  0.593734  1
  H  H18  1  0.330538  0.437746  0.406266  1
  H  H19  1  0.691142  0.638245  0.470523  1
  H  H20  1  0.073450  0.096949  0.270631  1
  H  H21  1  0.095427  0.870679  0.231459  1
  H  H22  1  0.685849  0.406520  0.300819  1
  H  H23  1  0.000535  0.677633  0.355735  1
  H  H24  1  0.999465  0.177633  0.144265  1
  H  H25  1  0.314151  0.906520  0.199181  1
  H  H26  1  0.904573  0.370679  0.268541  1
  H  H27  1  0.926550  0.596949  0.229369  1
  H  H28  1  0.308858  0.138245  0.029477  1
  H  H29  1  0.669462  0.937746  0.093734  1
  Se  Se30  1  0.743667  0.645026  0.897036  1
  Se  Se31  1  0.256333  0.145026  0.602964  1
  Se  Se32  1  0.743667  0.854974  0.397036  1
  Se  Se33  1  0.256333  0.354974  0.102964  1
  O  O34  1  0.288816  0.065814  0.999555  1
  O  O35  1  0.203277  0.426503  0.952416  1
  O  O36  1  0.018281  0.893946  0.830396  1
  O  O37  1  0.600059  0.744832  0.919878  1
  O  O38  1  0.835948  0.110158  0.846171  1
  O  O39  1  0.966585  0.685325  0.859849  1
  O  O40  1  0.400826  0.075479  0.742473  1
  O  O41  1  0.599174  0.575479  0.757527  1
  O  O42  1  0.033415  0.185325  0.640151  1
  O  O43  1  0.164052  0.610158  0.653829  1
  O  O44  1  0.399941  0.244832  0.580122  1
  O  O45  1  0.981719  0.393946  0.669604  1
  O  O46  1  0.288816  0.434186  0.499555  1
  O  O47  1  0.203277  0.073497  0.452416  1
  O  O48  1  0.796723  0.926503  0.547584  1
  O  O49  1  0.711184  0.565814  0.500445  1
  O  O50  1  0.018281  0.606054  0.330396  1
  O  O51  1  0.600059  0.755168  0.419878  1
  O  O52  1  0.835948  0.389842  0.346171  1
  O  O53  1  0.966585  0.814675  0.359849  1
  O  O54  1  0.400826  0.424521  0.242473  1
  O  O55  1  0.599174  0.924521  0.257527  1
  O  O56  1  0.033415  0.314675  0.140151  1
  O  O57  1  0.164052  0.889842  0.153829  1
  O  O58  1  0.399941  0.255168  0.080122  1
  O  O59  1  0.981719  0.106054  0.169604  1
  O  O60  1  0.796723  0.573497  0.047584  1
  O  O61  1  0.711184  0.934186  0.000445  1
