# generated using pymatgen
data_Mn3CoO8
_symmetry_space_group_name_H-M   'P 1'
_cell_length_a   5.78163464
_cell_length_b   5.78163464
_cell_length_c   5.78163464
_cell_angle_alpha   60.22478014
_cell_angle_beta   60.22478014
_cell_angle_gamma   60.22478014
_symmetry_Int_Tables_number   1
_chemical_formula_structural   Mn3CoO8
_chemical_formula_sum   'Mn3 Co1 O8'
_cell_volume   137.35405244
_cell_formula_units_Z   1
loop_
 _symmetry_equiv_pos_site_id
 _symmetry_equiv_pos_as_xyz
  1  'x, y, z'
loop_
 _atom_site_type_symbol
 _atom_site_label
 _atom_site_symmetry_multiplicity
 _atom_site_fract_x
 _atom_site_fract_y
 _atom_site_fract_z
 _atom_site_occupancy
  Mn  Mn0  1  0.500000  0.000000  0.500000  1
  Mn  Mn1  1  0.000000  0.500000  0.500000  1
  Mn  Mn2  1  0.500000  0.500000  0.000000  1
  Co  Co3  1  0.000000  0.000000  0.000000  1
  O  O4  1  0.231526  0.738957  0.231526  1
  O  O5  1  0.734872  0.734872  0.734872  1
  O  O6  1  0.231526  0.231526  0.738957  1
  O  O7  1  0.738957  0.231526  0.231526  1
  O  O8  1  0.261043  0.768474  0.768474  1
  O  O9  1  0.768474  0.768474  0.261043  1
  O  O10  1  0.265128  0.265128  0.265128  1
  O  O11  1  0.768474  0.261043  0.768474  1
