# generated using pymatgen
data_Li10Cu(SiO5)2
_symmetry_space_group_name_H-M   'P 1'
_cell_length_a   15.39619177
_cell_length_b   15.39619177
_cell_length_c   5.19563680
_cell_angle_alpha   80.64262493
_cell_angle_beta   99.35737507
_cell_angle_gamma   157.00643629
_symmetry_Int_Tables_number   1
_chemical_formula_structural   Li10Cu(SiO5)2
_chemical_formula_sum   'Li20 Cu2 Si4 O20'
_cell_volume   474.42397014
_cell_formula_units_Z   2
loop_
 _symmetry_equiv_pos_site_id
 _symmetry_equiv_pos_as_xyz
  1  'x, y, z'
loop_
 _atom_site_type_symbol
 _atom_site_label
 _atom_site_symmetry_multiplicity
 _atom_site_fract_x
 _atom_site_fract_y
 _atom_site_fract_z
 _atom_site_occupancy
  Li  Li0  1  0.490041  0.509959  0.727913  1
  Li  Li1  1  0.227087  0.363801  0.098047  1
  Li  Li2  1  0.636199  0.772913  0.098047  1
  Li  Li3  1  0.867292  0.132708  0.221565  1
  Li  Li4  1  0.085801  0.350210  0.753347  1
  Li  Li5  1  0.649790  0.914199  0.753347  1
  Li  Li6  1  0.325000  0.675000  0.072109  1
  Li  Li7  1  0.047957  0.439296  0.396040  1
  Li  Li8  1  0.560704  0.952043  0.396040  1
  Li  Li9  1  0.269245  0.730755  0.677693  1
  Li  Li10  1  0.730755  0.269245  0.322307  1
  Li  Li11  1  0.952043  0.560704  0.603960  1
  Li  Li12  1  0.439296  0.047957  0.603960  1
  Li  Li13  1  0.675000  0.325000  0.927891  1
  Li  Li14  1  0.350210  0.085801  0.246653  1
  Li  Li15  1  0.914199  0.649790  0.246653  1
  Li  Li16  1  0.132708  0.867292  0.778435  1
  Li  Li17  1  0.772913  0.636199  0.901953  1
  Li  Li18  1  0.363801  0.227087  0.901953  1
  Li  Li19  1  0.509959  0.490041  0.272087  1
  Cu  Cu20  1  0.963158  0.036842  0.879423  1
  Cu  Cu21  1  0.036842  0.963158  0.120577  1
  Si  Si22  1  0.399525  0.600475  0.487501  1
  Si  Si23  1  0.780588  0.219412  0.868943  1
  Si  Si24  1  0.219412  0.780588  0.131057  1
  Si  Si25  1  0.600475  0.399525  0.512499  1
  O  O26  1  0.448876  0.551124  0.389628  1
  O  O27  1  0.905264  0.094736  0.947507  1
  O  O28  1  0.405061  0.594939  0.810945  1
  O  O29  1  0.157054  0.417132  0.373045  1
  O  O30  1  0.582868  0.842946  0.373045  1
  O  O31  1  0.028872  0.417274  0.779653  1
  O  O32  1  0.582726  0.971128  0.779653  1
  O  O33  1  0.785759  0.214241  0.189790  1
  O  O34  1  0.271038  0.728962  0.279364  1
  O  O35  1  0.728962  0.271038  0.720636  1
  O  O36  1  0.214241  0.785759  0.810210  1
  O  O37  1  0.417274  0.028872  0.220347  1
  O  O38  1  0.971128  0.582726  0.220347  1
  O  O39  1  0.417132  0.157054  0.626955  1
  O  O40  1  0.842946  0.582868  0.626955  1
  O  O41  1  0.594939  0.405061  0.189055  1
  O  O42  1  0.094736  0.905264  0.052493  1
  O  O43  1  0.551124  0.448876  0.610372  1
  O  O44  1  0.245806  0.245806  0.000000  1
  O  O45  1  0.754194  0.754194  0.000000  1
