# generated using pymatgen
data_LiVP2O7
_symmetry_space_group_name_H-M   'P 1'
_cell_length_a   7.09458006
_cell_length_b   10.23910252
_cell_length_c   8.09718572
_cell_angle_alpha   90.00000000
_cell_angle_beta   111.69082940
_cell_angle_gamma   90.00000000
_symmetry_Int_Tables_number   1
_chemical_formula_structural   LiVP2O7
_chemical_formula_sum   'Li4 V4 P8 O28'
_cell_volume   546.54764410
_cell_formula_units_Z   4
loop_
 _symmetry_equiv_pos_site_id
 _symmetry_equiv_pos_as_xyz
  1  'x, y, z'
loop_
 _atom_site_type_symbol
 _atom_site_label
 _atom_site_symmetry_multiplicity
 _atom_site_fract_x
 _atom_site_fract_y
 _atom_site_fract_z
 _atom_site_occupancy
  Li  Li0  1  0.370481  0.150136  0.939348  1
  Li  Li1  1  0.370481  0.349864  0.439348  1
  Li  Li2  1  0.629519  0.650136  0.560652  1
  Li  Li3  1  0.629519  0.849864  0.060652  1
  V  V4  1  0.269319  0.606404  0.743300  1
  V  V5  1  0.269319  0.893596  0.243300  1
  V  V6  1  0.730681  0.106404  0.756700  1
  V  V7  1  0.730681  0.393596  0.256700  1
  P  P8  1  0.028573  0.851014  0.793887  1
  P  P9  1  0.028573  0.648986  0.293887  1
  P  P10  1  0.361673  0.905768  0.686193  1
  P  P11  1  0.361673  0.594232  0.186193  1
  P  P12  1  0.638327  0.405768  0.813807  1
  P  P13  1  0.638327  0.094232  0.313807  1
  P  P14  1  0.971427  0.351014  0.706113  1
  P  P15  1  0.971427  0.148986  0.206113  1
  O  O16  1  0.998583  0.707435  0.735564  1
  O  O17  1  0.180375  0.872240  0.983348  1
  O  O18  1  0.171261  0.421685  0.739891  1
  O  O19  1  0.127853  0.923717  0.665668  1
  O  O20  1  0.998583  0.792565  0.235564  1
  O  O21  1  0.180375  0.627760  0.483348  1
  O  O22  1  0.372410  0.601659  0.004644  1
  O  O23  1  0.171261  0.078315  0.239891  1
  O  O24  1  0.127853  0.576283  0.165668  1
  O  O25  1  0.440807  0.779279  0.794075  1
  O  O26  1  0.372410  0.898341  0.504644  1
  O  O27  1  0.473538  0.025259  0.793660  1
  O  O28  1  0.526462  0.525259  0.706340  1
  O  O29  1  0.440807  0.720721  0.294075  1
  O  O30  1  0.559193  0.279279  0.705925  1
  O  O31  1  0.473538  0.474741  0.293660  1
  O  O32  1  0.526462  0.974741  0.206340  1
  O  O33  1  0.627590  0.101659  0.495356  1
  O  O34  1  0.559193  0.220721  0.205925  1
  O  O35  1  0.872147  0.423717  0.834332  1
  O  O36  1  0.828739  0.921685  0.760109  1
  O  O37  1  0.627590  0.398341  0.995356  1
  O  O38  1  0.819625  0.372240  0.516652  1
  O  O39  1  0.001417  0.207435  0.764436  1
  O  O40  1  0.872147  0.076283  0.334332  1
  O  O41  1  0.828739  0.578315  0.260109  1
  O  O42  1  0.819625  0.127760  0.016652  1
  O  O43  1  0.001417  0.292565  0.264436  1
