# generated using pymatgen
data_Fe2C2O7
_symmetry_space_group_name_H-M   'P 1'
_cell_length_a   9.13696768
_cell_length_b   6.72576978
_cell_length_c   9.67345219
_cell_angle_alpha   90.00000000
_cell_angle_beta   104.41991941
_cell_angle_gamma   90.00000000
_symmetry_Int_Tables_number   1
_chemical_formula_structural   Fe2C2O7
_chemical_formula_sum   'Fe8 C8 O28'
_cell_volume   575.73641054
_cell_formula_units_Z   4
loop_
 _symmetry_equiv_pos_site_id
 _symmetry_equiv_pos_as_xyz
  1  'x, y, z'
loop_
 _atom_site_type_symbol
 _atom_site_label
 _atom_site_symmetry_multiplicity
 _atom_site_fract_x
 _atom_site_fract_y
 _atom_site_fract_z
 _atom_site_occupancy
  Fe  Fe0  1  0.255551  0.939121  0.151731  1
  Fe  Fe1  1  0.027690  0.888180  0.747769  1
  Fe  Fe2  1  0.255551  0.560879  0.651731  1
  Fe  Fe3  1  0.027690  0.611820  0.247769  1
  Fe  Fe4  1  0.972310  0.388180  0.752231  1
  Fe  Fe5  1  0.744449  0.439121  0.348269  1
  Fe  Fe6  1  0.972310  0.111820  0.252231  1
  Fe  Fe7  1  0.744449  0.060879  0.848269  1
  C  C8  1  0.206374  0.308875  0.148499  1
  C  C9  1  0.324488  0.765364  0.940035  1
  C  C10  1  0.206374  0.191125  0.648499  1
  C  C11  1  0.675512  0.265364  0.559965  1
  C  C12  1  0.324488  0.734636  0.440035  1
  C  C13  1  0.793626  0.808875  0.351501  1
  C  C14  1  0.675512  0.234636  0.059965  1
  C  C15  1  0.793626  0.691125  0.851501  1
  O  O16  1  0.947577  0.125377  0.826321  1
  O  O17  1  0.152018  0.487037  0.128839  1
  O  O18  1  0.365077  0.822909  0.339596  1
  O  O19  1  0.182283  0.830879  0.927611  1
  O  O20  1  0.274658  0.220944  0.065980  1
  O  O21  1  0.947577  0.374623  0.326321  1
  O  O22  1  0.152018  0.012963  0.628839  1
  O  O23  1  0.188144  0.300770  0.757463  1
  O  O24  1  0.588176  0.303823  0.436586  1
  O  O25  1  0.411824  0.803823  0.063414  1
  O  O26  1  0.365077  0.677091  0.839596  1
  O  O27  1  0.811856  0.800770  0.742537  1
  O  O28  1  0.182283  0.669121  0.427611  1
  O  O29  1  0.725342  0.720944  0.434020  1
  O  O30  1  0.274658  0.279056  0.565980  1
  O  O31  1  0.817717  0.330879  0.572389  1
  O  O32  1  0.188144  0.199230  0.257463  1
  O  O33  1  0.634923  0.322909  0.160404  1
  O  O34  1  0.588176  0.196177  0.936586  1
  O  O35  1  0.411824  0.696177  0.563414  1
  O  O36  1  0.811856  0.699230  0.242537  1
  O  O37  1  0.847982  0.987037  0.371161  1
  O  O38  1  0.052423  0.625377  0.673679  1
  O  O39  1  0.725342  0.779056  0.934020  1
  O  O40  1  0.817717  0.169121  0.072389  1
  O  O41  1  0.634923  0.177091  0.660404  1
  O  O42  1  0.847982  0.512963  0.871161  1
  O  O43  1  0.052423  0.874623  0.173679  1
