# generated using pymatgen
data_Li2FeCO5
_symmetry_space_group_name_H-M   'P 1'
_cell_length_a   2.91453823
_cell_length_b   9.34087209
_cell_length_c   12.29231626
_cell_angle_alpha   90.00000000
_cell_angle_beta   90.00000000
_cell_angle_gamma   90.00000000
_symmetry_Int_Tables_number   1
_chemical_formula_structural   Li2FeCO5
_chemical_formula_sum   'Li8 Fe4 C4 O20'
_cell_volume   334.65005971
_cell_formula_units_Z   4
loop_
 _symmetry_equiv_pos_site_id
 _symmetry_equiv_pos_as_xyz
  1  'x, y, z'
loop_
 _atom_site_type_symbol
 _atom_site_label
 _atom_site_symmetry_multiplicity
 _atom_site_fract_x
 _atom_site_fract_y
 _atom_site_fract_z
 _atom_site_occupancy
  Li  Li0  1  0.000000  0.000000  0.500000  1
  Li  Li1  1  0.500000  0.000000  0.000000  1
  Li  Li2  1  0.000000  0.007595  0.779872  1
  Li  Li3  1  0.000000  0.492405  0.279872  1
  Li  Li4  1  0.000000  0.500000  0.000000  1
  Li  Li5  1  0.500000  0.500000  0.500000  1
  Li  Li6  1  0.000000  0.507595  0.720128  1
  Li  Li7  1  0.000000  0.992405  0.220128  1
  Fe  Fe8  1  0.500000  0.245512  0.613338  1
  Fe  Fe9  1  0.500000  0.254488  0.113338  1
  Fe  Fe10  1  0.500000  0.745512  0.886662  1
  Fe  Fe11  1  0.500000  0.754488  0.386662  1
  C  C12  1  0.500000  0.229012  0.361244  1
  C  C13  1  0.500000  0.270988  0.861244  1
  C  C14  1  0.500000  0.729012  0.138756  1
  C  C15  1  0.500000  0.770988  0.638756  1
  O  O16  1  0.000000  0.119919  0.642229  1
  O  O17  1  0.000000  0.125818  0.080468  1
  O  O18  1  0.500000  0.134410  0.861011  1
  O  O19  1  0.500000  0.155751  0.270313  1
  O  O20  1  0.500000  0.155068  0.451820  1
  O  O21  1  0.500000  0.344932  0.951820  1
  O  O22  1  0.500000  0.344249  0.770313  1
  O  O23  1  0.500000  0.365590  0.361011  1
  O  O24  1  0.000000  0.374182  0.580468  1
  O  O25  1  0.000000  0.380081  0.142229  1
  O  O26  1  0.000000  0.619919  0.857771  1
  O  O27  1  0.000000  0.625818  0.419532  1
  O  O28  1  0.500000  0.634410  0.638989  1
  O  O29  1  0.500000  0.655751  0.229687  1
  O  O30  1  0.500000  0.655068  0.048180  1
  O  O31  1  0.500000  0.844932  0.548180  1
  O  O32  1  0.500000  0.844249  0.729687  1
  O  O33  1  0.500000  0.865590  0.138989  1
  O  O34  1  0.000000  0.874182  0.919532  1
  O  O35  1  0.000000  0.880081  0.357771  1
