# generated using pymatgen
data_CeAlO3
_symmetry_space_group_name_H-M   'P 1'
_cell_length_a   5.35205375
_cell_length_b   5.35388730
_cell_length_c   7.64016546
_cell_angle_alpha   90.00000000
_cell_angle_beta   90.00000000
_cell_angle_gamma   90.00000000
_symmetry_Int_Tables_number   1
_chemical_formula_structural   CeAlO3
_chemical_formula_sum   'Ce4 Al4 O12'
_cell_volume   218.92353661
_cell_formula_units_Z   4
loop_
 _symmetry_equiv_pos_site_id
 _symmetry_equiv_pos_as_xyz
  1  'x, y, z'
loop_
 _atom_site_type_symbol
 _atom_site_label
 _atom_site_symmetry_multiplicity
 _atom_site_fract_x
 _atom_site_fract_y
 _atom_site_fract_z
 _atom_site_occupancy
  Ce  Ce0  1  0.983431  0.005560  0.750000  1
  Ce  Ce1  1  0.483431  0.494440  0.750000  1
  Ce  Ce2  1  0.516569  0.505560  0.250000  1
  Ce  Ce3  1  0.016569  0.994440  0.250000  1
  Al  Al4  1  0.500000  0.000000  0.000000  1
  Al  Al5  1  0.500000  0.000000  0.500000  1
  Al  Al6  1  0.000000  0.500000  0.000000  1
  Al  Al7  1  0.000000  0.500000  0.500000  1
  O  O8  1  0.496027  0.047956  0.250000  1
  O  O9  1  0.225477  0.226219  0.524524  1
  O  O10  1  0.225477  0.226219  0.975476  1
  O  O11  1  0.725477  0.273781  0.975476  1
  O  O12  1  0.725477  0.273781  0.524524  1
  O  O13  1  0.996027  0.452044  0.250000  1
  O  O14  1  0.003973  0.547956  0.750000  1
  O  O15  1  0.274523  0.726219  0.024524  1
  O  O16  1  0.274523  0.726219  0.475476  1
  O  O17  1  0.774523  0.773781  0.024524  1
  O  O18  1  0.774523  0.773781  0.475476  1
  O  O19  1  0.503973  0.952044  0.750000  1
