# generated using pymatgen
data_Li3NiPCO7
_symmetry_space_group_name_H-M   'P 1'
_cell_length_a   9.41734183
_cell_length_b   6.30363973
_cell_length_c   9.69346148
_cell_angle_alpha   90.00000000
_cell_angle_beta   114.73359563
_cell_angle_gamma   90.00000000
_symmetry_Int_Tables_number   1
_chemical_formula_structural   Li3NiPCO7
_chemical_formula_sum   'Li12 Ni4 P4 C4 O28'
_cell_volume   522.64912984
_cell_formula_units_Z   4
loop_
 _symmetry_equiv_pos_site_id
 _symmetry_equiv_pos_as_xyz
  1  'x, y, z'
loop_
 _atom_site_type_symbol
 _atom_site_label
 _atom_site_symmetry_multiplicity
 _atom_site_fract_x
 _atom_site_fract_y
 _atom_site_fract_z
 _atom_site_occupancy
  Li  Li0  1  0.108739  0.242804  0.944044  1
  Li  Li1  1  0.108739  0.257196  0.444044  1
  Li  Li2  1  0.281897  0.501294  0.763121  1
  Li  Li3  1  0.281897  0.998706  0.263121  1
  Li  Li4  1  0.357129  0.750031  0.566153  1
  Li  Li5  1  0.357129  0.749969  0.066153  1
  Li  Li6  1  0.642871  0.250031  0.933847  1
  Li  Li7  1  0.642871  0.249969  0.433847  1
  Li  Li8  1  0.718103  0.001294  0.736879  1
  Li  Li9  1  0.718103  0.498706  0.236879  1
  Li  Li10  1  0.891261  0.742804  0.555956  1
  Li  Li11  1  0.891261  0.757196  0.055956  1
  Ni  Ni12  1  0.267471  0.005052  0.760683  1
  Ni  Ni13  1  0.267471  0.494948  0.260683  1
  Ni  Ni14  1  0.732529  0.505052  0.739317  1
  Ni  Ni15  1  0.732529  0.994948  0.239317  1
  P  P16  1  0.407307  0.261146  0.565365  1
  P  P17  1  0.407307  0.238854  0.065365  1
  P  P18  1  0.592693  0.761146  0.934635  1
  P  P19  1  0.592693  0.738854  0.434635  1
  C  C20  1  0.040296  0.744621  0.869152  1
  C  C21  1  0.040296  0.755379  0.369152  1
  C  C22  1  0.959704  0.244621  0.630848  1
  C  C23  1  0.959704  0.255379  0.130848  1
  O  O24  1  0.064854  0.767338  0.508104  1
  O  O25  1  0.064854  0.732662  0.008104  1
  O  O26  1  0.103719  0.234097  0.738857  1
  O  O27  1  0.154003  0.765861  0.827970  1
  O  O28  1  0.103719  0.265903  0.238857  1
  O  O29  1  0.154003  0.734139  0.327970  1
  O  O30  1  0.317423  0.058944  0.575935  1
  O  O31  1  0.307067  0.447270  0.576031  1
  O  O32  1  0.307067  0.052730  0.076031  1
  O  O33  1  0.317423  0.441056  0.075935  1
  O  O34  1  0.423307  0.759820  0.810460  1
  O  O35  1  0.413545  0.234845  0.906586  1
  O  O36  1  0.423307  0.740180  0.310460  1
  O  O37  1  0.413545  0.265155  0.406586  1
  O  O38  1  0.586455  0.734845  0.593414  1
  O  O39  1  0.576693  0.259820  0.689540  1
  O  O40  1  0.586455  0.765155  0.093414  1
  O  O41  1  0.576693  0.240180  0.189540  1
  O  O42  1  0.692933  0.947270  0.923969  1
  O  O43  1  0.682577  0.558944  0.924065  1
  O  O44  1  0.682577  0.941056  0.424065  1
  O  O45  1  0.692933  0.552730  0.423969  1
  O  O46  1  0.845997  0.265861  0.672030  1
  O  O47  1  0.896281  0.734097  0.761143  1
  O  O48  1  0.845997  0.234139  0.172030  1
  O  O49  1  0.896281  0.765903  0.261143  1
  O  O50  1  0.935146  0.267338  0.991896  1
  O  O51  1  0.935146  0.232662  0.491896  1
