# generated using pymatgen
data_Co2O3F
_symmetry_space_group_name_H-M   'P 1'
_cell_length_a   4.36530755
_cell_length_b   4.36530755
_cell_length_c   5.91556274
_cell_angle_alpha   90.00000000
_cell_angle_beta   90.00000000
_cell_angle_gamma   92.43771271
_symmetry_Int_Tables_number   1
_chemical_formula_structural   Co2O3F
_chemical_formula_sum   'Co4 O6 F2'
_cell_volume   112.62441936
_cell_formula_units_Z   2
loop_
 _symmetry_equiv_pos_site_id
 _symmetry_equiv_pos_as_xyz
  1  'x, y, z'
loop_
 _atom_site_type_symbol
 _atom_site_label
 _atom_site_symmetry_multiplicity
 _atom_site_fract_x
 _atom_site_fract_y
 _atom_site_fract_z
 _atom_site_occupancy
  Co  Co0  1  0.000000  0.000000  0.000000  1
  Co  Co1  1  0.000000  0.000000  0.500000  1
  Co  Co2  1  0.475195  0.524805  0.750000  1
  Co  Co3  1  0.524805  0.475195  0.250000  1
  O  O4  1  0.808548  0.191452  0.250000  1
  O  O5  1  0.305636  0.305636  0.000000  1
  O  O6  1  0.305636  0.305636  0.500000  1
  O  O7  1  0.694364  0.694364  0.000000  1
  O  O8  1  0.694364  0.694364  0.500000  1
  O  O9  1  0.191452  0.808548  0.750000  1
  F  F10  1  0.780362  0.219638  0.750000  1
  F  F11  1  0.219638  0.780362  0.250000  1
