# generated using pymatgen
data_Na3FeSiCO7
_symmetry_space_group_name_H-M   'P 1'
_cell_length_a   5.25421168
_cell_length_b   6.61271626
_cell_length_c   9.01231143
_cell_angle_alpha   90.00000000
_cell_angle_beta   90.66956948
_cell_angle_gamma   90.00000000
_symmetry_Int_Tables_number   1
_chemical_formula_structural   Na3FeSiCO7
_chemical_formula_sum   'Na6 Fe2 Si2 C2 O14'
_cell_volume   313.10787344
_cell_formula_units_Z   2
loop_
 _symmetry_equiv_pos_site_id
 _symmetry_equiv_pos_as_xyz
  1  'x, y, z'
loop_
 _atom_site_type_symbol
 _atom_site_label
 _atom_site_symmetry_multiplicity
 _atom_site_fract_x
 _atom_site_fract_y
 _atom_site_fract_z
 _atom_site_occupancy
  Na  Na0  1  0.237810  0.750000  0.087837  1
  Na  Na1  1  0.743857  0.992163  0.265603  1
  Na  Na2  1  0.743857  0.507837  0.265603  1
  Na  Na3  1  0.256143  0.492163  0.734397  1
  Na  Na4  1  0.256143  0.007837  0.734397  1
  Na  Na5  1  0.762190  0.250000  0.912163  1
  Fe  Fe6  1  0.209943  0.250000  0.355502  1
  Fe  Fe7  1  0.790057  0.750000  0.644498  1
  Si  Si8  1  0.293080  0.750000  0.420071  1
  Si  Si9  1  0.706920  0.250000  0.579929  1
  C  C10  1  0.266525  0.250000  0.062386  1
  C  C11  1  0.733475  0.750000  0.937614  1
  O  O12  1  0.708067  0.750000  0.079958  1
  O  O13  1  0.041792  0.250000  0.122091  1
  O  O14  1  0.464815  0.250000  0.150817  1
  O  O15  1  0.225310  0.948890  0.316556  1
  O  O16  1  0.225310  0.551110  0.316556  1
  O  O17  1  0.603275  0.750000  0.456955  1
  O  O18  1  0.859169  0.250000  0.422299  1
  O  O19  1  0.140831  0.750000  0.577701  1
  O  O20  1  0.396725  0.250000  0.543045  1
  O  O21  1  0.774690  0.448890  0.683444  1
  O  O22  1  0.774690  0.051110  0.683444  1
  O  O23  1  0.535185  0.750000  0.849183  1
  O  O24  1  0.958208  0.750000  0.877909  1
  O  O25  1  0.291933  0.250000  0.920042  1
