# generated using pymatgen
data_LiCrPO4
_symmetry_space_group_name_H-M   'P 1'
_cell_length_a   9.41633869
_cell_length_b   9.41633869
_cell_length_c   6.58279814
_cell_angle_alpha   90.00000000
_cell_angle_beta   90.00000000
_cell_angle_gamma   120.00000000
_symmetry_Int_Tables_number   1
_chemical_formula_structural   LiCrPO4
_chemical_formula_sum   'Li6 Cr6 P6 O24'
_cell_volume   505.48155349
_cell_formula_units_Z   6
loop_
 _symmetry_equiv_pos_site_id
 _symmetry_equiv_pos_as_xyz
  1  'x, y, z'
loop_
 _atom_site_type_symbol
 _atom_site_label
 _atom_site_symmetry_multiplicity
 _atom_site_fract_x
 _atom_site_fract_y
 _atom_site_fract_z
 _atom_site_occupancy
  Li  Li0  1  0.333333  0.666667  0.218620  1
  Li  Li1  1  0.333333  0.666667  0.760320  1
  Li  Li2  1  0.000000  0.000000  0.113713  1
  Li  Li3  1  0.000000  0.000000  0.613713  1
  Li  Li4  1  0.666667  0.333333  0.718620  1
  Li  Li5  1  0.666667  0.333333  0.260320  1
  Cr  Cr6  1  0.108223  0.718367  0.490571  1
  Cr  Cr7  1  0.281633  0.389856  0.490571  1
  Cr  Cr8  1  0.610144  0.891777  0.490571  1
  Cr  Cr9  1  0.389856  0.108223  0.990571  1
  Cr  Cr10  1  0.718367  0.610144  0.990571  1
  Cr  Cr11  1  0.891777  0.281633  0.990571  1
  P  P12  1  0.053291  0.690769  0.991277  1
  P  P13  1  0.309231  0.362521  0.991277  1
  P  P14  1  0.637479  0.946709  0.991277  1
  P  P15  1  0.362521  0.053291  0.491277  1
  P  P16  1  0.690769  0.637479  0.491277  1
  P  P17  1  0.946709  0.309231  0.491277  1
  O  O18  1  0.170948  0.963316  0.492517  1
  O  O19  1  0.165833  0.732818  0.179815  1
  O  O20  1  0.164800  0.732430  0.802002  1
  O  O21  1  0.084150  0.492298  0.491130  1
  O  O22  1  0.408148  0.915850  0.491130  1
  O  O23  1  0.036684  0.207631  0.492517  1
  O  O24  1  0.267570  0.432370  0.802002  1
  O  O25  1  0.267182  0.433015  0.179815  1
  O  O26  1  0.207631  0.170948  0.992517  1
  O  O27  1  0.566985  0.834167  0.179815  1
  O  O28  1  0.567630  0.835200  0.802002  1
  O  O29  1  0.507702  0.591852  0.491130  1
  O  O30  1  0.492298  0.408148  0.991130  1
  O  O31  1  0.432370  0.164800  0.302002  1
  O  O32  1  0.433015  0.165833  0.679815  1
  O  O33  1  0.792369  0.829052  0.492517  1
  O  O34  1  0.732818  0.566985  0.679815  1
  O  O35  1  0.732430  0.567630  0.302002  1
  O  O36  1  0.963316  0.792369  0.992517  1
  O  O37  1  0.591852  0.084150  0.991130  1
  O  O38  1  0.915850  0.507702  0.991130  1
  O  O39  1  0.835200  0.267570  0.302002  1
  O  O40  1  0.834167  0.267182  0.679815  1
  O  O41  1  0.829052  0.036684  0.992517  1
