# generated using pymatgen
data_Li3Sb(PO4)2
_symmetry_space_group_name_H-M   'P 1'
_cell_length_a   5.08730917
_cell_length_b   18.94308826
_cell_length_c   8.18721898
_cell_angle_alpha   90.00000000
_cell_angle_beta   127.56929353
_cell_angle_gamma   90.00000000
_symmetry_Int_Tables_number   1
_chemical_formula_structural   Li3Sb(PO4)2
_chemical_formula_sum   'Li12 Sb4 P8 O32'
_cell_volume   625.37201516
_cell_formula_units_Z   4
loop_
 _symmetry_equiv_pos_site_id
 _symmetry_equiv_pos_as_xyz
  1  'x, y, z'
loop_
 _atom_site_type_symbol
 _atom_site_label
 _atom_site_symmetry_multiplicity
 _atom_site_fract_x
 _atom_site_fract_y
 _atom_site_fract_z
 _atom_site_occupancy
  Li  Li0  1  0.379058  0.700961  0.177740  1
  Li  Li1  1  0.736167  0.883874  0.503163  1
  Li  Li2  1  0.965481  0.045718  0.696619  1
  Li  Li3  1  0.263833  0.383874  0.996837  1
  Li  Li4  1  0.034519  0.545718  0.803381  1
  Li  Li5  1  0.620942  0.200961  0.322260  1
  Li  Li6  1  0.379058  0.799039  0.677740  1
  Li  Li7  1  0.965481  0.454282  0.196619  1
  Li  Li8  1  0.736167  0.616126  0.003163  1
  Li  Li9  1  0.034519  0.954282  0.303381  1
  Li  Li10  1  0.263833  0.116126  0.496837  1
  Li  Li11  1  0.620942  0.299039  0.822260  1
  Sb  Sb12  1  0.180460  0.875903  0.983722  1
  Sb  Sb13  1  0.819540  0.375903  0.516278  1
  Sb  Sb14  1  0.180460  0.624097  0.483722  1
  Sb  Sb15  1  0.819540  0.124097  0.016278  1
  P  P16  1  0.892022  0.715496  0.706953  1
  P  P17  1  0.466331  0.534675  0.256630  1
  P  P18  1  0.533669  0.034675  0.243370  1
  P  P19  1  0.107978  0.215496  0.793047  1
  P  P20  1  0.892022  0.784504  0.206953  1
  P  P21  1  0.466331  0.965325  0.756630  1
  P  P22  1  0.533669  0.465325  0.743370  1
  P  P23  1  0.107978  0.284504  0.293047  1
  O  O24  1  0.817920  0.203906  0.808660  1
  O  O25  1  0.559550  0.689299  0.501264  1
  O  O26  1  0.860939  0.444037  0.773696  1
  O  O27  1  0.960763  0.676670  0.892689  1
  O  O28  1  0.225866  0.055920  0.024350  1
  O  O29  1  0.536808  0.070247  0.412533  1
  O  O30  1  0.838546  0.797208  0.716272  1
  O  O31  1  0.450464  0.451755  0.235039  1
  O  O32  1  0.549536  0.951755  0.264961  1
  O  O33  1  0.161454  0.297208  0.783728  1
  O  O34  1  0.463192  0.570247  0.087467  1
  O  O35  1  0.774134  0.555920  0.475650  1
  O  O36  1  0.039237  0.176670  0.607311  1
  O  O37  1  0.139061  0.944037  0.726304  1
  O  O38  1  0.440450  0.189299  0.998736  1
  O  O39  1  0.182080  0.703906  0.691340  1
  O  O40  1  0.817920  0.296094  0.308660  1
  O  O41  1  0.559550  0.810701  0.001264  1
  O  O42  1  0.860939  0.055963  0.273696  1
  O  O43  1  0.960763  0.823330  0.392689  1
  O  O44  1  0.225866  0.444080  0.524350  1
  O  O45  1  0.536808  0.429753  0.912533  1
  O  O46  1  0.838546  0.702792  0.216272  1
  O  O47  1  0.450464  0.048245  0.735039  1
  O  O48  1  0.549536  0.548245  0.764961  1
  O  O49  1  0.161454  0.202792  0.283728  1
  O  O50  1  0.463192  0.929753  0.587467  1
  O  O51  1  0.774134  0.944080  0.975650  1
  O  O52  1  0.039237  0.323330  0.107311  1
  O  O53  1  0.139061  0.555963  0.226304  1
  O  O54  1  0.440450  0.310701  0.498736  1
  O  O55  1  0.182080  0.796094  0.191340  1
