# generated using pymatgen
data_Li2VBO4
_symmetry_space_group_name_H-M   'P 1'
_cell_length_a   4.90771160
_cell_length_b   6.21841887
_cell_length_c   10.24393955
_cell_angle_alpha   90.00000000
_cell_angle_beta   90.00000000
_cell_angle_gamma   90.00000000
_symmetry_Int_Tables_number   1
_chemical_formula_structural   Li2VBO4
_chemical_formula_sum   'Li8 V4 B4 O16'
_cell_volume   312.62666176
_cell_formula_units_Z   4
loop_
 _symmetry_equiv_pos_site_id
 _symmetry_equiv_pos_as_xyz
  1  'x, y, z'
loop_
 _atom_site_type_symbol
 _atom_site_label
 _atom_site_symmetry_multiplicity
 _atom_site_fract_x
 _atom_site_fract_y
 _atom_site_fract_z
 _atom_site_occupancy
  Li  Li0  1  0.695460  0.867389  0.077174  1
  Li  Li1  1  0.185830  0.116088  0.157251  1
  Li  Li2  1  0.685830  0.616088  0.342749  1
  Li  Li3  1  0.195460  0.367389  0.422826  1
  Li  Li4  1  0.804540  0.867389  0.577174  1
  Li  Li5  1  0.314170  0.116088  0.657251  1
  Li  Li6  1  0.814170  0.616088  0.842749  1
  Li  Li7  1  0.304540  0.367389  0.922826  1
  V  V8  1  0.181420  0.625858  0.164142  1
  V  V9  1  0.681420  0.125858  0.335858  1
  V  V10  1  0.318580  0.625858  0.664142  1
  V  V11  1  0.818580  0.125858  0.835858  1
  B  B12  1  0.676451  0.366215  0.091107  1
  B  B13  1  0.176451  0.866215  0.408893  1
  B  B14  1  0.823549  0.366215  0.591107  1
  B  B15  1  0.323549  0.866215  0.908893  1
  O  O16  1  0.267296  0.862822  0.052547  1
  O  O17  1  0.374270  0.371749  0.109539  1
  O  O18  1  0.793248  0.565794  0.152109  1
  O  O19  1  0.786988  0.166183  0.154482  1
  O  O20  1  0.286988  0.666183  0.345518  1
  O  O21  1  0.293248  0.065794  0.347891  1
  O  O22  1  0.874270  0.871749  0.390461  1
  O  O23  1  0.767296  0.362822  0.447453  1
  O  O24  1  0.232704  0.862822  0.552547  1
  O  O25  1  0.125730  0.371749  0.609539  1
  O  O26  1  0.706752  0.565794  0.652109  1
  O  O27  1  0.713012  0.166183  0.654482  1
  O  O28  1  0.213012  0.666183  0.845518  1
  O  O29  1  0.206752  0.065794  0.847891  1
  O  O30  1  0.625730  0.871749  0.890461  1
  O  O31  1  0.732704  0.362822  0.947453  1
