# generated using pymatgen
data_Li4VCr3O8
_symmetry_space_group_name_H-M   'P 1'
_cell_length_a   5.15105225
_cell_length_b   7.86814845
_cell_length_c   7.86954323
_cell_angle_alpha   94.18395540
_cell_angle_beta   96.35372595
_cell_angle_gamma   108.79106586
_symmetry_Int_Tables_number   1
_chemical_formula_structural   Li4VCr3O8
_chemical_formula_sum   'Li8 V2 Cr6 O16'
_cell_volume   298.08601223
_cell_formula_units_Z   2
loop_
 _symmetry_equiv_pos_site_id
 _symmetry_equiv_pos_as_xyz
  1  'x, y, z'
loop_
 _atom_site_type_symbol
 _atom_site_label
 _atom_site_symmetry_multiplicity
 _atom_site_fract_x
 _atom_site_fract_y
 _atom_site_fract_z
 _atom_site_occupancy
  Li  Li0  1  0.625739  0.623979  0.875129  1
  Li  Li1  1  0.874114  0.874668  0.623381  1
  Li  Li2  1  0.750551  0.748875  0.250193  1
  Li  Li3  1  0.249449  0.251125  0.749807  1
  Li  Li4  1  0.125886  0.125332  0.376619  1
  Li  Li5  1  0.000000  0.000000  0.000000  1
  Li  Li6  1  0.500000  0.500000  0.500000  1
  Li  Li7  1  0.374261  0.376021  0.124871  1
  V  V8  1  0.437895  0.937921  0.813593  1
  V  V9  1  0.562105  0.062079  0.186407  1
  Cr  Cr10  1  0.311916  0.812199  0.437588  1
  Cr  Cr11  1  0.185938  0.686229  0.063014  1
  Cr  Cr12  1  0.688084  0.187801  0.562412  1
  Cr  Cr13  1  0.062180  0.562672  0.687508  1
  Cr  Cr14  1  0.937820  0.437328  0.312492  1
  Cr  Cr15  1  0.814062  0.313771  0.936986  1
  O  O16  1  0.046937  0.774349  0.846050  1
  O  O17  1  0.448006  0.722970  0.655226  1
  O  O18  1  0.926957  0.651479  0.470021  1
  O  O19  1  0.828452  0.101297  0.780005  1
  O  O20  1  0.302043  0.027190  0.594109  1
  O  O21  1  0.171548  0.898703  0.219995  1
  O  O22  1  0.697957  0.972810  0.405891  1
  O  O23  1  0.677084  0.401631  0.718890  1
  O  O24  1  0.551994  0.277030  0.344774  1
  O  O25  1  0.574603  0.845423  0.030832  1
  O  O26  1  0.073043  0.348521  0.529979  1
  O  O27  1  0.425397  0.154577  0.969168  1
  O  O28  1  0.953063  0.225651  0.153950  1
  O  O29  1  0.801531  0.525970  0.095119  1
  O  O30  1  0.322916  0.598369  0.281110  1
  O  O31  1  0.198469  0.474030  0.904881  1
