# generated using pymatgen
data_Ti3MnSb2(PO4)6
_symmetry_space_group_name_H-M   'P 1'
_cell_length_a   8.89964951
_cell_length_b   8.89964951
_cell_length_c   8.89964951
_cell_angle_alpha   59.04862754
_cell_angle_beta   59.04862754
_cell_angle_gamma   59.04862754
_symmetry_Int_Tables_number   1
_chemical_formula_structural   Ti3MnSb2(PO4)6
_chemical_formula_sum   'Ti3 Mn1 Sb2 P6 O24'
_cell_volume   487.61600190
_cell_formula_units_Z   1
loop_
 _symmetry_equiv_pos_site_id
 _symmetry_equiv_pos_as_xyz
  1  'x, y, z'
loop_
 _atom_site_type_symbol
 _atom_site_label
 _atom_site_symmetry_multiplicity
 _atom_site_fract_x
 _atom_site_fract_y
 _atom_site_fract_z
 _atom_site_occupancy
  Ti  Ti0  1  0.853006  0.853006  0.853006  1
  Ti  Ti1  1  0.649734  0.649734  0.649734  1
  Ti  Ti2  1  0.350526  0.350526  0.350526  1
  Mn  Mn3  1  0.151505  0.151505  0.151505  1
  Sb  Sb4  1  0.005328  0.005328  0.005328  1
  Sb  Sb5  1  0.503217  0.503217  0.503217  1
  P  P6  1  0.249676  0.545704  0.953130  1
  P  P7  1  0.953130  0.249676  0.545704  1
  P  P8  1  0.460720  0.041845  0.745626  1
  P  P9  1  0.041845  0.745626  0.460720  1
  P  P10  1  0.745626  0.460720  0.041845  1
  P  P11  1  0.545704  0.953130  0.249676  1
  O  O12  1  0.682985  0.506201  0.886502  1
  O  O13  1  0.506201  0.886502  0.682985  1
  O  O14  1  0.087086  0.738123  0.933187  1
  O  O15  1  0.886502  0.682985  0.506201  1
  O  O16  1  0.201454  0.395881  0.973355  1
  O  O17  1  0.417704  0.573753  0.761710  1
  O  O18  1  0.933187  0.087086  0.738123  1
  O  O19  1  0.761710  0.417704  0.573753  1
  O  O20  1  0.615115  0.003458  0.805160  1
  O  O21  1  0.573753  0.761710  0.417704  1
  O  O22  1  0.268837  0.055917  0.906492  1
  O  O23  1  0.003458  0.805160  0.615115  1
  O  O24  1  0.973355  0.201454  0.395881  1
  O  O25  1  0.738123  0.933187  0.087086  1
  O  O26  1  0.442634  0.231886  0.580338  1
  O  O27  1  0.395881  0.973355  0.201454  1
  O  O28  1  0.231886  0.580338  0.442634  1
  O  O29  1  0.055917  0.906492  0.268837  1
  O  O30  1  0.580338  0.442634  0.231886  1
  O  O31  1  0.805160  0.615115  0.003458  1
  O  O32  1  0.114021  0.303005  0.505181  1
  O  O33  1  0.906492  0.268837  0.055917  1
  O  O34  1  0.505181  0.114021  0.303005  1
  O  O35  1  0.303005  0.505181  0.114021  1
