# generated using pymatgen
data_SbO2F
_symmetry_space_group_name_H-M   'P 1'
_cell_length_a   5.27166736
_cell_length_b   5.27166736
_cell_length_c   5.31640186
_cell_angle_alpha   63.00321634
_cell_angle_beta   116.99678366
_cell_angle_gamma   123.51764131
_symmetry_Int_Tables_number   1
_chemical_formula_structural   SbO2F
_chemical_formula_sum   'Sb2 O4 F2'
_cell_volume   105.56613248
_cell_formula_units_Z   2
loop_
 _symmetry_equiv_pos_site_id
 _symmetry_equiv_pos_as_xyz
  1  'x, y, z'
loop_
 _atom_site_type_symbol
 _atom_site_label
 _atom_site_symmetry_multiplicity
 _atom_site_fract_x
 _atom_site_fract_y
 _atom_site_fract_z
 _atom_site_occupancy
  Sb  Sb0  1  0.000000  0.500000  0.000000  1
  Sb  Sb1  1  0.500000  0.000000  0.500000  1
  O  O2  1  0.885147  0.258131  0.744791  1
  O  O3  1  0.258131  0.885147  0.755209  1
  O  O4  1  0.741869  0.114853  0.244791  1
  O  O5  1  0.114853  0.741869  0.255209  1
  F  F6  1  0.383788  0.383788  0.250000  1
  F  F7  1  0.616212  0.616212  0.750000  1
