# generated using pymatgen
data_La26B8O51
_symmetry_space_group_name_H-M   'P 1'
_cell_length_a   6.95586414
_cell_length_b   13.00753700
_cell_length_c   14.70877725
_cell_angle_alpha   90.06870364
_cell_angle_beta   99.36272064
_cell_angle_gamma   90.31220083
_symmetry_Int_Tables_number   1
_chemical_formula_structural   La26B8O51
_chemical_formula_sum   'La26 B8 O51'
_cell_volume   1313.07900057
_cell_formula_units_Z   1
loop_
 _symmetry_equiv_pos_site_id
 _symmetry_equiv_pos_as_xyz
  1  'x, y, z'
loop_
 _atom_site_type_symbol
 _atom_site_label
 _atom_site_symmetry_multiplicity
 _atom_site_fract_x
 _atom_site_fract_y
 _atom_site_fract_z
 _atom_site_occupancy
  La  La0  1  0.847972  0.308858  0.028889  1
  La  La1  1  0.934510  0.289537  0.297126  1
  La  La2  1  0.999995  0.502355  0.499191  1
  La  La3  1  0.855449  0.206236  0.537030  1
  La  La4  1  0.944920  0.212403  0.800751  1
  La  La5  1  0.676545  0.611574  0.058633  1
  La  La6  1  0.775511  0.989708  0.315847  1
  La  La7  1  0.000465  0.999378  0.998887  1
  La  La8  1  0.625245  0.697722  0.340449  1
  La  La9  1  0.683721  0.875182  0.568975  1
  La  La10  1  0.513279  0.888569  0.084735  1
  La  La11  1  0.768565  0.499722  0.832427  1
  La  La12  1  0.481753  0.388834  0.412422  1
  La  La13  1  0.626106  0.800987  0.844372  1
  La  La14  1  0.373336  0.200846  0.154514  1
  La  La15  1  0.514454  0.606442  0.586740  1
  La  La16  1  0.231729  0.500801  0.167675  1
  La  La17  1  0.484188  0.110219  0.913053  1
  La  La18  1  0.290618  0.117169  0.438108  1
  La  La19  1  0.376819  0.300754  0.663116  1
  La  La20  1  0.238496  0.000441  0.667939  1
  La  La21  1  0.322766  0.388363  0.940717  1
  La  La22  1  0.059396  0.784616  0.199567  1
  La  La23  1  0.156028  0.809283  0.470589  1
  La  La24  1  0.063373  0.711377  0.702440  1
  La  La25  1  0.151158  0.690993  0.970042  1
  B  B26  1  0.863252  0.098951  0.161277  1
  B  B27  1  0.862430  0.404660  0.662578  1
  B  B28  1  0.671065  0.449060  0.211120  1
  B  B29  1  0.669170  0.051326  0.707239  1
  B  B30  1  0.333979  0.948754  0.294580  1
  B  B31  1  0.328734  0.551189  0.789025  1
  B  B32  1  0.138198  0.597486  0.337869  1
  B  B33  1  0.137520  0.903342  0.836474  1
  O  O34  1  0.991315  0.651444  0.370075  1
  O  O35  1  0.937604  0.128121  0.400298  1
  O  O36  1  0.842858  0.991564  0.153673  1
  O  O37  1  0.842149  0.429875  0.175050  1
  O  O38  1  0.990483  0.850289  0.869275  1
  O  O39  1  0.838783  0.346239  0.431336  1
  O  O40  1  0.808049  0.855230  0.414158  1
  O  O41  1  0.728349  0.765482  0.182616  1
  O  O42  1  0.734637  0.151444  0.208084  1
  O  O43  1  0.970507  0.361934  0.892513  1
  O  O44  1  0.842724  0.510090  0.652796  1
  O  O45  1  0.832216  0.069274  0.664329  1
  O  O46  1  0.594972  0.547191  0.214418  1
  O  O47  1  0.836052  0.154480  0.931050  1
  O  O48  1  0.513654  0.250705  0.018656  1
  O  O49  1  0.657422  0.553142  0.450912  1
  O  O50  1  0.812143  0.655307  0.910283  1
  O  O51  1  0.729341  0.739312  0.674616  1
  O  O52  1  0.572017  0.367087  0.243581  1
  O  O53  1  0.733997  0.347627  0.706253  1
  O  O54  1  0.594661  0.952518  0.714360  1
  O  O55  1  0.427412  0.868853  0.258159  1
  O  O56  1  0.520177  0.238477  0.512972  1
  O  O57  1  0.336933  0.545432  0.033171  1
  O  O58  1  0.658205  0.945939  0.952560  1
  O  O59  1  0.342404  0.054272  0.048947  1
  O  O60  1  0.663238  0.454684  0.966875  1
  O  O61  1  0.484905  0.749227  0.483621  1
  O  O62  1  0.573369  0.132456  0.741138  1
  O  O63  1  0.426862  0.044777  0.303105  1
  O  O64  1  0.267993  0.651312  0.292407  1
  O  O65  1  0.427307  0.632964  0.756832  1
  O  O66  1  0.359892  0.961559  0.529344  1
  O  O67  1  0.259937  0.259854  0.324989  1
  O  O68  1  0.187843  0.344299  0.089720  1
  O  O69  1  0.344712  0.442343  0.547740  1
  O  O70  1  0.485833  0.748949  0.981355  1
  O  O71  1  0.163826  0.845130  0.068450  1
  O  O72  1  0.405509  0.452873  0.785241  1
  O  O73  1  0.154349  0.933236  0.324783  1
  O  O74  1  0.156254  0.491362  0.348080  1
  O  O75  1  0.028334  0.636846  0.106563  1
  O  O76  1  0.266083  0.849563  0.790755  1
  O  O77  1  0.273784  0.237841  0.819189  1
  O  O78  1  0.185849  0.157280  0.589083  1
  O  O79  1  0.164552  0.655387  0.569177  1
  O  O80  1  0.010672  0.150035  0.129823  1
  O  O81  1  0.157978  0.569366  0.825569  1
  O  O82  1  0.156999  0.009863  0.845916  1
  O  O83  1  0.038236  0.863320  0.605858  1
  O  O84  1  0.011094  0.352406  0.630023  1
