# generated using pymatgen
data_VO2
_symmetry_space_group_name_H-M   'P 1'
_cell_length_a   2.94320217
_cell_length_b   2.94320217
_cell_length_c   5.04802243
_cell_angle_alpha   74.77768187
_cell_angle_beta   105.22231813
_cell_angle_gamma   117.19269830
_symmetry_Int_Tables_number   1
_chemical_formula_structural   VO2
_chemical_formula_sum   'V1 O2'
_cell_volume   37.00897252
_cell_formula_units_Z   1
loop_
 _symmetry_equiv_pos_site_id
 _symmetry_equiv_pos_as_xyz
  1  'x, y, z'
loop_
 _atom_site_type_symbol
 _atom_site_label
 _atom_site_symmetry_multiplicity
 _atom_site_fract_x
 _atom_site_fract_y
 _atom_site_fract_z
 _atom_site_occupancy
  V  V0  1  0.000000  0.000000  0.500000  1
  O  O1  1  0.261671  0.738329  0.298920  1
  O  O2  1  0.738329  0.261671  0.701080  1
