# generated using pymatgen
data_Rb2UO4
_symmetry_space_group_name_H-M   'P 1'
_cell_length_a   7.74454951
_cell_length_b   7.74454951
_cell_length_c   7.74454951
_cell_angle_alpha   147.08485001
_cell_angle_beta   147.08485001
_cell_angle_gamma   47.23816433
_symmetry_Int_Tables_number   1
_chemical_formula_structural   Rb2UO4
_chemical_formula_sum   'Rb2 U1 O4'
_cell_volume   136.63503658
_cell_formula_units_Z   1
loop_
 _symmetry_equiv_pos_site_id
 _symmetry_equiv_pos_as_xyz
  1  'x, y, z'
loop_
 _atom_site_type_symbol
 _atom_site_label
 _atom_site_symmetry_multiplicity
 _atom_site_fract_x
 _atom_site_fract_y
 _atom_site_fract_z
 _atom_site_occupancy
  Rb  Rb0  1  0.346341  0.346341  0.000000  1
  Rb  Rb1  1  0.653659  0.653659  0.000000  1
  U  U2  1  0.000000  0.000000  0.000000  1
  O  O3  1  0.500000  1.000000  0.500000  1
  O  O4  1  0.000000  0.500000  0.500000  1
  O  O5  1  0.862343  0.862343  0.000000  1
  O  O6  1  0.137657  0.137657  0.000000  1
