# generated using pymatgen
data_Fe2CuAs2(HO5)2
_symmetry_space_group_name_H-M   'P 1'
_cell_length_a   5.27238392
_cell_length_b   5.38126843
_cell_length_c   8.09073184
_cell_angle_alpha   99.56614006
_cell_angle_beta   103.72614815
_cell_angle_gamma   110.83396084
_symmetry_Int_Tables_number   1
_chemical_formula_structural   Fe2CuAs2(HO5)2
_chemical_formula_sum   'Fe2 Cu1 As2 H2 O10'
_cell_volume   200.32011457
_cell_formula_units_Z   1
loop_
 _symmetry_equiv_pos_site_id
 _symmetry_equiv_pos_as_xyz
  1  'x, y, z'
loop_
 _atom_site_type_symbol
 _atom_site_label
 _atom_site_symmetry_multiplicity
 _atom_site_fract_x
 _atom_site_fract_y
 _atom_site_fract_z
 _atom_site_occupancy
  Fe  Fe0  1  0.975381  0.717514  0.312249  1
  Fe  Fe1  1  0.024619  0.282486  0.687751  1
  Cu  Cu2  1  0.000000  0.000000  0.000000  1
  As  As3  1  0.355073  0.948397  0.731552  1
  As  As4  1  0.644927  0.051603  0.268448  1
  H  H5  1  0.538597  0.276517  0.521207  1
  H  H6  1  0.461403  0.723483  0.478793  1
  O  O7  1  0.730767  0.075011  0.802876  1
  O  O8  1  0.745563  0.832861  0.120840  1
  O  O9  1  0.276035  0.674346  0.510427  1
  O  O10  1  0.270571  0.144083  0.580290  1
  O  O11  1  0.808568  0.331996  0.191420  1
  O  O12  1  0.191432  0.668004  0.808580  1
  O  O13  1  0.729429  0.855917  0.419710  1
  O  O14  1  0.723965  0.325654  0.489573  1
  O  O15  1  0.254437  0.167139  0.879160  1
  O  O16  1  0.269233  0.924989  0.197124  1
