# generated using pymatgen
data_LiVCrP2(HO5)2
_symmetry_space_group_name_H-M   'P 1'
_cell_length_a   5.19899056
_cell_length_b   7.36452715
_cell_length_c   10.19724647
_cell_angle_alpha   103.09396726
_cell_angle_beta   99.73817232
_cell_angle_gamma   105.49023404
_symmetry_Int_Tables_number   1
_chemical_formula_structural   LiVCrP2(HO5)2
_chemical_formula_sum   'Li2 V2 Cr2 P4 H4 O20'
_cell_volume   355.33035660
_cell_formula_units_Z   2
loop_
 _symmetry_equiv_pos_site_id
 _symmetry_equiv_pos_as_xyz
  1  'x, y, z'
loop_
 _atom_site_type_symbol
 _atom_site_label
 _atom_site_symmetry_multiplicity
 _atom_site_fract_x
 _atom_site_fract_y
 _atom_site_fract_z
 _atom_site_occupancy
  Li  Li0  1  0.351937  0.128903  0.279266  1
  Li  Li1  1  0.648063  0.871097  0.720734  1
  V  V2  1  0.744578  0.743201  0.248848  1
  V  V3  1  0.255422  0.256799  0.751152  1
  Cr  Cr4  1  0.000000  0.000000  0.000000  1
  Cr  Cr5  1  0.500000  0.500000  0.500000  1
  P  P6  1  0.613764  0.286047  0.063029  1
  P  P7  1  0.888858  0.207513  0.437384  1
  P  P8  1  0.111142  0.792487  0.562616  1
  P  P9  1  0.386236  0.713953  0.936971  1
  H  H10  1  0.148754  0.794992  0.142304  1
  H  H11  1  0.329991  0.682738  0.345508  1
  H  H12  1  0.670009  0.317262  0.654492  1
  H  H13  1  0.851246  0.205008  0.857696  1
  O  O14  1  0.790669  0.157429  0.088018  1
  O  O15  1  0.344771  0.219164  0.108408  1
  O  O16  1  0.439468  0.715962  0.093434  1
  O  O17  1  0.777369  0.502432  0.152984  1
  O  O18  1  0.709536  0.998939  0.342052  1
  O  O19  1  0.034842  0.881296  0.162520  1
  O  O20  1  0.163832  0.269306  0.396920  1
  O  O21  1  0.481010  0.625189  0.343777  1
  O  O22  1  0.711997  0.339547  0.411728  1
  O  O23  1  0.063052  0.789359  0.406143  1
  O  O24  1  0.936948  0.210641  0.593857  1
  O  O25  1  0.288003  0.660453  0.588272  1
  O  O26  1  0.518990  0.374811  0.656223  1
  O  O27  1  0.836168  0.730694  0.603080  1
  O  O28  1  0.965158  0.118704  0.837480  1
  O  O29  1  0.290464  0.001061  0.657948  1
  O  O30  1  0.222631  0.497568  0.847016  1
  O  O31  1  0.560532  0.284038  0.906566  1
  O  O32  1  0.655229  0.780836  0.891592  1
  O  O33  1  0.209331  0.842571  0.911982  1
