# generated using pymatgen
data_MnV3(PO4)4
_symmetry_space_group_name_H-M   'P 1'
_cell_length_a   4.92036074
_cell_length_b   5.91865591
_cell_length_c   10.10035571
_cell_angle_alpha   90.00000000
_cell_angle_beta   90.68985819
_cell_angle_gamma   90.00000000
_symmetry_Int_Tables_number   1
_chemical_formula_structural   MnV3(PO4)4
_chemical_formula_sum   'Mn1 V3 P4 O16'
_cell_volume   294.12045247
_cell_formula_units_Z   1
loop_
 _symmetry_equiv_pos_site_id
 _symmetry_equiv_pos_as_xyz
  1  'x, y, z'
loop_
 _atom_site_type_symbol
 _atom_site_label
 _atom_site_symmetry_multiplicity
 _atom_site_fract_x
 _atom_site_fract_y
 _atom_site_fract_z
 _atom_site_occupancy
  Mn  Mn0  1  0.035312  0.000000  0.723350  1
  V  V1  1  0.479799  0.000000  0.228474  1
  V  V2  1  0.542249  0.500000  0.779308  1
  V  V3  1  0.979546  0.500000  0.267958  1
  P  P4  1  0.104699  0.500000  0.599717  1
  P  P5  1  0.410544  0.500000  0.095153  1
  P  P6  1  0.560936  0.000000  0.907981  1
  P  P7  1  0.915575  0.000000  0.398687  1
  O  O8  1  0.140973  0.500000  0.450075  1
  O  O9  1  0.264423  0.302817  0.671598  1
  O  O10  1  0.264423  0.697183  0.671598  1
  O  O11  1  0.220045  0.000000  0.372319  1
  O  O12  1  0.256877  0.000000  0.894440  1
  O  O13  1  0.266509  0.298177  0.169313  1
  O  O14  1  0.266509  0.701823  0.169313  1
  O  O15  1  0.335555  0.500000  0.946424  1
  O  O16  1  0.653246  0.000000  0.052288  1
  O  O17  1  0.699052  0.791134  0.832414  1
  O  O18  1  0.699052  0.208866  0.832414  1
  O  O19  1  0.716944  0.500000  0.117295  1
  O  O20  1  0.799123  0.500000  0.631354  1
  O  O21  1  0.768650  0.796752  0.322623  1
  O  O22  1  0.768650  0.203248  0.322623  1
  O  O23  1  0.851311  0.000000  0.543284  1
