# generated using pymatgen
data_Mn3VCr2(PO4)6
_symmetry_space_group_name_H-M   'P 1'
_cell_length_a   8.48393478
_cell_length_b   8.48393478
_cell_length_c   8.48393478
_cell_angle_alpha   61.58363146
_cell_angle_beta   61.58363146
_cell_angle_gamma   61.58363146
_symmetry_Int_Tables_number   1
_chemical_formula_structural   Mn3VCr2(PO4)6
_chemical_formula_sum   'Mn3 V1 Cr2 P6 O24'
_cell_volume   447.13496767
_cell_formula_units_Z   1
loop_
 _symmetry_equiv_pos_site_id
 _symmetry_equiv_pos_as_xyz
  1  'x, y, z'
loop_
 _atom_site_type_symbol
 _atom_site_label
 _atom_site_symmetry_multiplicity
 _atom_site_fract_x
 _atom_site_fract_y
 _atom_site_fract_z
 _atom_site_occupancy
  Mn  Mn0  1  0.644858  0.644858  0.644858  1
  Mn  Mn1  1  0.854510  0.854510  0.854510  1
  Mn  Mn2  1  0.354923  0.354923  0.354923  1
  V  V3  1  0.145073  0.145073  0.145073  1
  Cr  Cr4  1  0.999977  0.999977  0.999977  1
  Cr  Cr5  1  0.498867  0.498867  0.498867  1
  P  P6  1  0.952598  0.250730  0.546741  1
  P  P7  1  0.546741  0.952598  0.250730  1
  P  P8  1  0.250730  0.546741  0.952598  1
  P  P9  1  0.749890  0.452159  0.049597  1
  P  P10  1  0.452159  0.049597  0.749890  1
  P  P11  1  0.049597  0.749890  0.452159  1
  O  O12  1  0.511310  0.101831  0.323138  1
  O  O13  1  0.323138  0.511310  0.101831  1
  O  O14  1  0.101831  0.323138  0.511310  1
  O  O15  1  0.935991  0.094758  0.748942  1
  O  O16  1  0.008371  0.171027  0.389499  1
  O  O17  1  0.752570  0.401412  0.551437  1
  O  O18  1  0.748942  0.935991  0.094758  1
  O  O19  1  0.551437  0.752570  0.401412  1
  O  O20  1  0.822434  0.604112  0.008299  1
  O  O21  1  0.401412  0.551437  0.752570  1
  O  O22  1  0.909772  0.246630  0.070627  1
  O  O23  1  0.604112  0.008299  0.822434  1
  O  O24  1  0.389499  0.008371  0.171027  1
  O  O25  1  0.094758  0.748942  0.935991  1
  O  O26  1  0.598888  0.433670  0.252842  1
  O  O27  1  0.171027  0.389499  0.008371  1
  O  O28  1  0.433670  0.252842  0.598888  1
  O  O29  1  0.246630  0.070627  0.909772  1
  O  O30  1  0.252842  0.598888  0.433670  1
  O  O31  1  0.008299  0.822434  0.604112  1
  O  O32  1  0.070627  0.909772  0.246630  1
  O  O33  1  0.898263  0.683916  0.480350  1
  O  O34  1  0.683916  0.480350  0.898263  1
  O  O35  1  0.480350  0.898263  0.683916  1
