# generated using pymatgen
data_Li5MgTi12O24
_symmetry_space_group_name_H-M   'P 1'
_cell_length_a   5.99481804
_cell_length_b   5.99481804
_cell_length_c   14.75757098
_cell_angle_alpha   90.00000000
_cell_angle_beta   90.00000000
_cell_angle_gamma   120.00000000
_symmetry_Int_Tables_number   1
_chemical_formula_structural   Li5MgTi12O24
_chemical_formula_sum   'Li5 Mg1 Ti12 O24'
_cell_volume   459.30114072
_cell_formula_units_Z   1
loop_
 _symmetry_equiv_pos_site_id
 _symmetry_equiv_pos_as_xyz
  1  'x, y, z'
loop_
 _atom_site_type_symbol
 _atom_site_label
 _atom_site_symmetry_multiplicity
 _atom_site_fract_x
 _atom_site_fract_y
 _atom_site_fract_z
 _atom_site_occupancy
  Li  Li0  1  0.666667  0.333333  0.042188  1
  Li  Li1  1  0.666667  0.333333  0.290119  1
  Li  Li2  1  0.333333  0.666667  0.375908  1
  Li  Li3  1  0.333333  0.666667  0.620263  1
  Li  Li4  1  0.000000  0.000000  0.961804  1
  Mg  Mg5  1  0.666667  0.333333  0.663723  1
  Ti  Ti6  1  0.166848  0.333696  0.166947  1
  Ti  Ti7  1  0.829231  0.170769  0.498790  1
  Ti  Ti8  1  0.166848  0.833152  0.166947  1
  Ti  Ti9  1  0.000000  0.000000  0.332886  1
  Ti  Ti10  1  0.333333  0.666667  0.001836  1
  Ti  Ti11  1  0.666304  0.833152  0.166947  1
  Ti  Ti12  1  0.341538  0.170769  0.498790  1
  Ti  Ti13  1  0.829231  0.658462  0.498790  1
  Ti  Ti14  1  0.008968  0.504484  0.838062  1
  Ti  Ti15  1  0.000000  0.000000  0.709768  1
  Ti  Ti16  1  0.495516  0.504484  0.838062  1
  Ti  Ti17  1  0.495516  0.991032  0.838062  1
  O  O18  1  0.033268  0.516634  0.088267  1
  O  O19  1  0.483366  0.516634  0.088267  1
  O  O20  1  0.000000  0.000000  0.096732  1
  O  O21  1  0.850645  0.149355  0.245861  1
  O  O22  1  0.850645  0.701289  0.245861  1
  O  O23  1  0.298711  0.149355  0.245861  1
  O  O24  1  0.971246  0.485623  0.574138  1
  O  O25  1  0.483366  0.966732  0.088267  1
  O  O26  1  0.147988  0.295976  0.420843  1
  O  O27  1  0.147988  0.852012  0.420843  1
  O  O28  1  0.333333  0.666667  0.237009  1
  O  O29  1  0.000000  0.000000  0.579251  1
  O  O30  1  0.666667  0.333333  0.426687  1
  O  O31  1  0.514377  0.485623  0.574138  1
  O  O32  1  0.514377  0.028754  0.574138  1
  O  O33  1  0.181881  0.363762  0.913162  1
  O  O34  1  0.704024  0.852012  0.420843  1
  O  O35  1  0.344560  0.172280  0.752959  1
  O  O36  1  0.827720  0.655440  0.752959  1
  O  O37  1  0.827720  0.172280  0.752959  1
  O  O38  1  0.666667  0.333333  0.901683  1
  O  O39  1  0.333333  0.666667  0.763056  1
  O  O40  1  0.181881  0.818119  0.913162  1
  O  O41  1  0.636238  0.818119  0.913162  1
