# generated using pymatgen
data_Li2MnVP2(O4F)2
_symmetry_space_group_name_H-M   'P 1'
_cell_length_a   6.95135526
_cell_length_b   7.44407315
_cell_length_c   7.96393488
_cell_angle_alpha   87.42150960
_cell_angle_beta   88.35157748
_cell_angle_gamma   63.11964175
_symmetry_Int_Tables_number   1
_chemical_formula_structural   Li2MnVP2(O4F)2
_chemical_formula_sum   'Li4 Mn2 V2 P4 O16 F4'
_cell_volume   367.18947996
_cell_formula_units_Z   2
loop_
 _symmetry_equiv_pos_site_id
 _symmetry_equiv_pos_as_xyz
  1  'x, y, z'
loop_
 _atom_site_type_symbol
 _atom_site_label
 _atom_site_symmetry_multiplicity
 _atom_site_fract_x
 _atom_site_fract_y
 _atom_site_fract_z
 _atom_site_occupancy
  Li  Li0  1  0.743818  0.813622  0.828652  1
  Li  Li1  1  0.246967  0.810159  0.324829  1
  Li  Li2  1  0.753033  0.189841  0.675171  1
  Li  Li3  1  0.256182  0.186378  0.171348  1
  Mn  Mn4  1  0.000000  0.000000  0.000000  1
  Mn  Mn5  1  0.000000  0.500000  0.500000  1
  V  V6  1  0.500000  0.500000  0.000000  1
  V  V7  1  0.500000  0.000000  0.500000  1
  P  P8  1  0.277525  0.238876  0.838437  1
  P  P9  1  0.786307  0.235339  0.338689  1
  P  P10  1  0.213693  0.764661  0.661311  1
  P  P11  1  0.722475  0.761124  0.161563  1
  O  O12  1  0.401629  0.615184  0.768651  1
  O  O13  1  0.276958  0.912297  0.559488  1
  O  O14  1  0.218112  0.083880  0.937644  1
  O  O15  1  0.327155  0.343608  0.982929  1
  O  O16  1  0.089220  0.388543  0.729351  1
  O  O17  1  0.841661  0.339937  0.482071  1
  O  O18  1  0.006683  0.888106  0.770469  1
  O  O19  1  0.514441  0.880299  0.267493  1
  O  O20  1  0.485559  0.119701  0.732507  1
  O  O21  1  0.993317  0.111894  0.229531  1
  O  O22  1  0.158339  0.660063  0.517929  1
  O  O23  1  0.910780  0.611457  0.270649  1
  O  O24  1  0.672845  0.656392  0.017071  1
  O  O25  1  0.781888  0.916120  0.062356  1
  O  O26  1  0.723042  0.087703  0.440512  1
  O  O27  1  0.598371  0.384816  0.231349  1
  F  F28  1  0.757304  0.272249  0.893965  1
  F  F29  1  0.720943  0.749438  0.603912  1
  F  F30  1  0.279057  0.250562  0.396088  1
  F  F31  1  0.242696  0.727751  0.106035  1
