# generated using pymatgen
data_Li4V3Ni3(SbO8)2
_symmetry_space_group_name_H-M   'P 1'
_cell_length_a   5.95716554
_cell_length_b   5.95716554
_cell_length_c   9.69085055
_cell_angle_alpha   89.51174635
_cell_angle_beta   90.48825365
_cell_angle_gamma   120.32282400
_symmetry_Int_Tables_number   1
_chemical_formula_structural   Li4V3Ni3(SbO8)2
_chemical_formula_sum   'Li4 V3 Ni3 Sb2 O16'
_cell_volume   296.84445546
_cell_formula_units_Z   1
loop_
 _symmetry_equiv_pos_site_id
 _symmetry_equiv_pos_as_xyz
  1  'x, y, z'
loop_
 _atom_site_type_symbol
 _atom_site_label
 _atom_site_symmetry_multiplicity
 _atom_site_fract_x
 _atom_site_fract_y
 _atom_site_fract_z
 _atom_site_occupancy
  Li  Li0  1  0.661596  0.338404  0.892192  1
  Li  Li1  1  0.997432  0.002568  0.984151  1
  Li  Li2  1  0.001158  0.998842  0.497314  1
  Li  Li3  1  0.331022  0.668978  0.406002  1
  V  V4  1  0.343289  0.167670  0.216764  1
  V  V5  1  0.832330  0.656711  0.216764  1
  V  V6  1  0.174480  0.825520  0.720486  1
  Ni  Ni7  1  0.829870  0.170130  0.210766  1
  Ni  Ni8  1  0.171453  0.342045  0.711979  1
  Ni  Ni9  1  0.657955  0.828547  0.711979  1
  Sb  Sb10  1  0.670783  0.329217  0.495488  1
  Sb  Sb11  1  0.340472  0.659528  0.983980  1
  O  O12  1  0.336341  0.165417  0.592819  1
  O  O13  1  0.518439  0.481561  0.339602  1
  O  O14  1  0.648708  0.351292  0.108266  1
  O  O15  1  0.009847  0.990153  0.304309  1
  O  O16  1  0.012483  0.987517  0.798070  1
  O  O17  1  0.834583  0.663659  0.592819  1
  O  O18  1  0.508997  0.040587  0.341725  1
  O  O19  1  0.959413  0.491003  0.341725  1
  O  O20  1  0.167354  0.832646  0.101908  1
  O  O21  1  0.838010  0.161990  0.588587  1
  O  O22  1  0.031963  0.527215  0.852155  1
  O  O23  1  0.472785  0.968037  0.852155  1
  O  O24  1  0.314695  0.685305  0.605822  1
  O  O25  1  0.169481  0.327154  0.096462  1
  O  O26  1  0.481843  0.518157  0.848216  1
  O  O27  1  0.672846  0.830519  0.096462  1
