# generated using pymatgen
data_LiTi3MnCr(PO4)6
_symmetry_space_group_name_H-M   'P 1'
_cell_length_a   8.62920604
_cell_length_b   8.62920604
_cell_length_c   8.62920604
_cell_angle_alpha   59.92283976
_cell_angle_beta   59.92283976
_cell_angle_gamma   59.92283976
_symmetry_Int_Tables_number   1
_chemical_formula_structural   LiTi3MnCr(PO4)6
_chemical_formula_sum   'Li1 Ti3 Mn1 Cr1 P6 O24'
_cell_volume   453.56206398
_cell_formula_units_Z   1
loop_
 _symmetry_equiv_pos_site_id
 _symmetry_equiv_pos_as_xyz
  1  'x, y, z'
loop_
 _atom_site_type_symbol
 _atom_site_label
 _atom_site_symmetry_multiplicity
 _atom_site_fract_x
 _atom_site_fract_y
 _atom_site_fract_z
 _atom_site_occupancy
  Li  Li0  1  0.000240  0.000240  0.000240  1
  Ti  Ti1  1  0.859280  0.859280  0.859280  1
  Ti  Ti2  1  0.644872  0.644872  0.644872  1
  Ti  Ti3  1  0.141855  0.141855  0.141855  1
  Mn  Mn4  1  0.499357  0.499357  0.499357  1
  Cr  Cr5  1  0.356937  0.356937  0.356937  1
  P  P6  1  0.249837  0.539994  0.960439  1
  P  P7  1  0.042715  0.750773  0.458467  1
  P  P8  1  0.458467  0.042715  0.750773  1
  P  P9  1  0.539994  0.960439  0.249837  1
  P  P10  1  0.960439  0.249837  0.539994  1
  P  P11  1  0.750773  0.458467  0.042715  1
  O  O12  1  0.084363  0.731529  0.938232  1
  O  O13  1  0.193754  0.375469  0.000130  1
  O  O14  1  0.267817  0.056564  0.915535  1
  O  O15  1  0.117233  0.306839  0.506443  1
  O  O16  1  0.415257  0.556460  0.764571  1
  O  O17  1  0.234610  0.585376  0.445099  1
  O  O18  1  0.056564  0.915535  0.267817  1
  O  O19  1  0.807166  0.623121  0.998243  1
  O  O20  1  0.501310  0.878121  0.691994  1
  O  O21  1  0.623121  0.998243  0.807166  1
  O  O22  1  0.691994  0.501310  0.878121  1
  O  O23  1  0.445099  0.234609  0.585376  1
  O  O24  1  0.556460  0.764571  0.415257  1
  O  O25  1  0.306839  0.506443  0.117233  1
  O  O26  1  0.375469  0.000130  0.193754  1
  O  O27  1  0.506443  0.117233  0.306839  1
  O  O28  1  0.938232  0.084363  0.731529  1
  O  O29  1  0.764571  0.415257  0.556460  1
  O  O30  1  0.585376  0.445099  0.234609  1
  O  O31  1  0.878121  0.691994  0.501310  1
  O  O32  1  0.998243  0.807166  0.623121  1
  O  O33  1  0.000130  0.193754  0.375469  1
  O  O34  1  0.731529  0.938232  0.084363  1
  O  O35  1  0.915535  0.267817  0.056564  1
