# generated using pymatgen
data_Hf2N2O
_symmetry_space_group_name_H-M   'P 1'
_cell_length_a   8.71234914
_cell_length_b   8.73039211
_cell_length_c   8.73534411
_cell_angle_alpha   109.34705415
_cell_angle_beta   109.54219952
_cell_angle_gamma   109.37040263
_symmetry_Int_Tables_number   1
_chemical_formula_structural   Hf2N2O
_chemical_formula_sum   'Hf16 N16 O8'
_cell_volume   512.44672045
_cell_formula_units_Z   8
loop_
 _symmetry_equiv_pos_site_id
 _symmetry_equiv_pos_as_xyz
  1  'x, y, z'
loop_
 _atom_site_type_symbol
 _atom_site_label
 _atom_site_symmetry_multiplicity
 _atom_site_fract_x
 _atom_site_fract_y
 _atom_site_fract_z
 _atom_site_occupancy
  Hf  Hf0  1  0.487385  0.499102  0.499695  1
  Hf  Hf1  1  0.787724  0.537065  0.251475  1
  Hf  Hf2  1  0.036540  0.752399  0.785693  1
  Hf  Hf3  1  0.523122  0.749876  0.281639  1
  Hf  Hf4  1  0.712549  0.969916  0.761034  1
  Hf  Hf5  1  0.996716  0.499668  0.987932  1
  Hf  Hf6  1  0.496997  0.999120  0.000853  1
  Hf  Hf7  1  0.017501  0.006325  0.507553  1
  Hf  Hf8  1  0.759390  0.213007  0.467336  1
  Hf  Hf9  1  0.241896  0.282225  0.030060  1
  Hf  Hf10  1  0.256397  0.796455  0.536860  1
  Hf  Hf11  1  0.749183  0.712868  0.965746  1
  Hf  Hf12  1  0.280434  0.029978  0.240129  1
  Hf  Hf13  1  0.969551  0.242012  0.210547  1
  Hf  Hf14  1  0.466504  0.253425  0.719149  1
  Hf  Hf15  1  0.213889  0.456726  0.748583  1
  N  N16  1  0.231827  0.265484  0.273962  1
  N  N17  1  0.452277  0.724337  0.484098  1
  N  N18  1  0.495821  0.961248  0.233517  1
  N  N19  1  0.987683  0.759640  0.532061  1
  N  N20  1  0.262241  0.033085  0.984145  1
  N  N21  1  0.963209  0.225972  0.950030  1
  N  N22  1  0.004385  0.232386  0.461142  1
  N  N23  1  0.239009  0.226524  0.770479  1
  N  N24  1  0.031119  0.772996  0.043733  1
  N  N25  1  0.739690  0.964308  0.014606  1
  N  N26  1  0.510490  0.043841  0.774790  1
  N  N27  1  0.274929  0.545593  0.035537  1
  N  N28  1  0.230083  0.989913  0.453719  1
  N  N29  1  0.951547  0.465236  0.724591  1
  N  N30  1  0.728018  0.456603  0.973747  1
  N  N31  1  0.465319  0.513988  0.734166  1
  O  O32  1  0.724323  0.276083  0.237932  1
  O  O33  1  0.772087  0.736653  0.726226  1
  O  O34  1  0.542619  0.489434  0.265862  1
  O  O35  1  0.754539  0.768890  0.227872  1
  O  O36  1  0.774750  0.011111  0.547320  1
  O  O37  1  0.550671  0.278874  0.512198  1
  O  O38  1  0.042366  0.528193  0.276810  1
  O  O39  1  0.275222  0.729439  0.767173  1
