# generated using pymatgen
data_LiMn2Cr2O8
_symmetry_space_group_name_H-M   'P 1'
_cell_length_a   5.78085223
_cell_length_b   5.82211272
_cell_length_c   5.87448783
_cell_angle_alpha   60.89424228
_cell_angle_beta   61.60942196
_cell_angle_gamma   60.79451293
_symmetry_Int_Tables_number   1
_chemical_formula_structural   LiMn2Cr2O8
_chemical_formula_sum   'Li1 Mn2 Cr2 O8'
_cell_volume   143.24955935
_cell_formula_units_Z   1
loop_
 _symmetry_equiv_pos_site_id
 _symmetry_equiv_pos_as_xyz
  1  'x, y, z'
loop_
 _atom_site_type_symbol
 _atom_site_label
 _atom_site_symmetry_multiplicity
 _atom_site_fract_x
 _atom_site_fract_y
 _atom_site_fract_z
 _atom_site_occupancy
  Li  Li0  1  0.500000  0.500000  0.500000  1
  Mn  Mn1  1  0.000000  0.000000  0.000000  1
  Mn  Mn2  1  0.500000  0.000000  0.000000  1
  Cr  Cr3  1  0.000000  0.000000  0.500000  1
  Cr  Cr4  1  0.000000  0.500000  0.000000  1
  O  O5  1  0.243025  0.792866  0.230709  1
  O  O6  1  0.760229  0.759344  0.779559  1
  O  O7  1  0.792679  0.242242  0.224094  1
  O  O8  1  0.761217  0.765949  0.209371  1
  O  O9  1  0.238783  0.234051  0.790629  1
  O  O10  1  0.207321  0.757758  0.775906  1
  O  O11  1  0.239771  0.240656  0.220441  1
  O  O12  1  0.756975  0.207134  0.769291  1
