# generated using pymatgen
data_Li5Fe5(PO4)6
_symmetry_space_group_name_H-M   'P 1'
_cell_length_a   8.46160110
_cell_length_b   8.58256597
_cell_length_c   8.58730798
_cell_angle_alpha   61.74094751
_cell_angle_beta   62.29440905
_cell_angle_gamma   62.20968902
_symmetry_Int_Tables_number   1
_chemical_formula_structural   Li5Fe5(PO4)6
_chemical_formula_sum   'Li5 Fe5 P6 O24'
_cell_volume   461.46976780
_cell_formula_units_Z   1
loop_
 _symmetry_equiv_pos_site_id
 _symmetry_equiv_pos_as_xyz
  1  'x, y, z'
loop_
 _atom_site_type_symbol
 _atom_site_label
 _atom_site_symmetry_multiplicity
 _atom_site_fract_x
 _atom_site_fract_y
 _atom_site_fract_z
 _atom_site_occupancy
  Li  Li0  1  0.845116  0.840013  0.843170  1
  Li  Li1  1  0.753254  0.139764  0.356894  1
  Li  Li2  1  0.193792  0.853235  0.670150  1
  Li  Li3  1  0.667877  0.190155  0.858891  1
  Li  Li4  1  0.857186  0.665026  0.191239  1
  Fe  Fe5  1  0.005572  0.999235  0.994750  1
  Fe  Fe6  1  0.354469  0.357712  0.354158  1
  Fe  Fe7  1  0.491276  0.503814  0.500110  1
  Fe  Fe8  1  0.145796  0.146445  0.141245  1
  Fe  Fe9  1  0.647079  0.650883  0.654982  1
  P  P10  1  0.054003  0.750606  0.452711  1
  P  P11  1  0.449623  0.052099  0.756297  1
  P  P12  1  0.752825  0.452196  0.052750  1
  P  P13  1  0.254933  0.540753  0.958227  1
  P  P14  1  0.549313  0.961525  0.256737  1
  P  P15  1  0.949664  0.252946  0.537562  1
  O  O16  1  0.488885  0.890015  0.695929  1
  O  O17  1  0.691240  0.491328  0.891344  1
  O  O18  1  0.889906  0.686298  0.497076  1
  O  O19  1  0.050111  0.914537  0.261698  1
  O  O20  1  0.032231  0.810822  0.603205  1
  O  O21  1  0.249496  0.593976  0.423338  1
  O  O22  1  0.251431  0.066726  0.909213  1
  O  O23  1  0.437337  0.242089  0.589177  1
  O  O24  1  0.186734  0.386211  0.995499  1
  O  O25  1  0.598516  0.420625  0.251718  1
  O  O26  1  0.095474  0.732014  0.955512  1
  O  O27  1  0.378803  0.015129  0.201473  1
  O  O28  1  0.602874  0.025326  0.819788  1
  O  O29  1  0.901958  0.250379  0.073233  1
  O  O30  1  0.401179  0.575564  0.754391  1
  O  O31  1  0.815755  0.602886  0.027277  1
  O  O32  1  0.571491  0.759330  0.405541  1
  O  O33  1  0.739373  0.949348  0.092949  1
  O  O34  1  0.747820  0.402927  0.577735  1
  O  O35  1  0.961700  0.192549  0.388093  1
  O  O36  1  0.956802  0.093532  0.727985  1
  O  O37  1  0.109597  0.329230  0.466949  1
  O  O38  1  0.342982  0.484486  0.103797  1
  O  O39  1  0.526525  0.105266  0.330206  1
