# generated using pymatgen
data_LiMn2P2H5O11
_symmetry_space_group_name_H-M   'P 1'
_cell_length_a   9.13933316
_cell_length_b   9.80316568
_cell_length_c   11.83845352
_cell_angle_alpha   90.00000000
_cell_angle_beta   126.02244382
_cell_angle_gamma   90.00000000
_symmetry_Int_Tables_number   1
_chemical_formula_structural   LiMn2P2H5O11
_chemical_formula_sum   'Li4 Mn8 P8 H20 O44'
_cell_volume   857.84696299
_cell_formula_units_Z   4
loop_
 _symmetry_equiv_pos_site_id
 _symmetry_equiv_pos_as_xyz
  1  'x, y, z'
loop_
 _atom_site_type_symbol
 _atom_site_label
 _atom_site_symmetry_multiplicity
 _atom_site_fract_x
 _atom_site_fract_y
 _atom_site_fract_z
 _atom_site_occupancy
  Li  Li0  1  0.442484  0.696571  0.986434  1
  Li  Li1  1  0.442484  0.803429  0.486434  1
  Li  Li2  1  0.557516  0.196571  0.513566  1
  Li  Li3  1  0.557516  0.303429  0.013566  1
  Mn  Mn4  1  0.709171  0.720582  0.912354  1
  Mn  Mn5  1  0.038999  0.920924  0.905952  1
  Mn  Mn6  1  0.290829  0.220582  0.587646  1
  Mn  Mn7  1  0.961001  0.420924  0.594048  1
  Mn  Mn8  1  0.038999  0.579076  0.405952  1
  Mn  Mn9  1  0.709171  0.779418  0.412354  1
  Mn  Mn10  1  0.961001  0.079076  0.094048  1
  Mn  Mn11  1  0.290829  0.279418  0.087646  1
  P  P12  1  0.645428  0.024871  0.780908  1
  P  P13  1  0.178607  0.157836  0.795906  1
  P  P14  1  0.354572  0.524871  0.719092  1
  P  P15  1  0.821393  0.657836  0.704094  1
  P  P16  1  0.178607  0.342164  0.295906  1
  P  P17  1  0.645428  0.475129  0.280908  1
  P  P18  1  0.821393  0.842164  0.204094  1
  P  P19  1  0.354572  0.975129  0.219092  1
  H  H20  1  0.842202  0.454035  0.962552  1
  H  H21  1  0.669646  0.346071  0.791295  1
  H  H22  1  0.954211  0.223625  0.923821  1
  H  H23  1  0.083157  0.497818  0.881896  1
  H  H24  1  0.330354  0.846071  0.708705  1
  H  H25  1  0.181219  0.894690  0.728538  1
  H  H26  1  0.818781  0.394690  0.771462  1
  H  H27  1  0.916843  0.997818  0.618104  1
  H  H28  1  0.045789  0.723625  0.576179  1
  H  H29  1  0.157798  0.954035  0.537448  1
  H  H30  1  0.842202  0.045965  0.462552  1
  H  H31  1  0.954211  0.276375  0.423821  1
  H  H32  1  0.083157  0.002182  0.381896  1
  H  H33  1  0.181219  0.605310  0.228538  1
  H  H34  1  0.818781  0.105310  0.271462  1
  H  H35  1  0.669646  0.153929  0.291295  1
  H  H36  1  0.916843  0.502182  0.118104  1
  H  H37  1  0.045789  0.776375  0.076179  1
  H  H38  1  0.330354  0.653929  0.208705  1
  H  H39  1  0.157798  0.545965  0.037448  1
  O  O40  1  0.716640  0.098361  0.921902  1
  O  O41  1  0.173974  0.479977  0.981522  1
  O  O42  1  0.800969  0.341476  0.833600  1
  O  O43  1  0.319881  0.220030  0.943889  1
  O  O44  1  0.060027  0.166364  0.000043  1
  O  O45  1  0.717266  0.641273  0.769244  1
  O  O46  1  0.475451  0.625161  0.843022  1
  O  O47  1  0.547339  0.891166  0.766050  1
  O  O48  1  0.452661  0.391166  0.733950  1
  O  O49  1  0.524549  0.125161  0.656978  1
  O  O50  1  0.132436  0.008063  0.810962  1
  O  O51  1  0.282734  0.141273  0.730756  1
  O  O52  1  0.995135  0.740900  0.792115  1
  O  O53  1  0.197760  0.493653  0.732101  1
  O  O54  1  0.199031  0.841476  0.666400  1
  O  O55  1  0.802240  0.993653  0.767899  1
  O  O56  1  0.004865  0.240900  0.707885  1
  O  O57  1  0.867564  0.508063  0.689038  1
  O  O58  1  0.283360  0.598361  0.578098  1
  O  O59  1  0.173974  0.020023  0.481522  1
  O  O60  1  0.319881  0.279970  0.443889  1
  O  O61  1  0.060027  0.333636  0.500043  1
  O  O62  1  0.939973  0.666364  0.499957  1
  O  O63  1  0.680119  0.720030  0.556111  1
  O  O64  1  0.826026  0.979977  0.518478  1
  O  O65  1  0.716640  0.401639  0.421902  1
  O  O66  1  0.132436  0.491937  0.310962  1
  O  O67  1  0.995135  0.759100  0.292115  1
  O  O68  1  0.197760  0.006347  0.232101  1
  O  O69  1  0.800969  0.158524  0.333600  1
  O  O70  1  0.802240  0.506347  0.267899  1
  O  O71  1  0.004865  0.259100  0.207885  1
  O  O72  1  0.717266  0.858727  0.269244  1
  O  O73  1  0.867564  0.991937  0.189038  1
  O  O74  1  0.475451  0.874839  0.343022  1
  O  O75  1  0.547339  0.608834  0.266050  1
  O  O76  1  0.452661  0.108834  0.233950  1
  O  O77  1  0.524549  0.374839  0.156978  1
  O  O78  1  0.282734  0.358727  0.230756  1
  O  O79  1  0.939973  0.833636  0.999957  1
  O  O80  1  0.680119  0.779970  0.056111  1
  O  O81  1  0.199031  0.658524  0.166400  1
  O  O82  1  0.826026  0.520023  0.018478  1
  O  O83  1  0.283360  0.901639  0.078098  1
