# generated using pymatgen
data_Li3Sn(BO2)5
_symmetry_space_group_name_H-M   'P 1'
_cell_length_a   6.84287062
_cell_length_b   7.23776584
_cell_length_c   9.62864768
_cell_angle_alpha   84.08012595
_cell_angle_beta   76.43602696
_cell_angle_gamma   72.18680537
_symmetry_Int_Tables_number   1
_chemical_formula_structural   Li3Sn(BO2)5
_chemical_formula_sum   'Li6 Sn2 B10 O20'
_cell_volume   441.09980025
_cell_formula_units_Z   2
loop_
 _symmetry_equiv_pos_site_id
 _symmetry_equiv_pos_as_xyz
  1  'x, y, z'
loop_
 _atom_site_type_symbol
 _atom_site_label
 _atom_site_symmetry_multiplicity
 _atom_site_fract_x
 _atom_site_fract_y
 _atom_site_fract_z
 _atom_site_occupancy
  Li  Li0  1  0.150112  0.572318  0.269213  1
  Li  Li1  1  0.739332  0.018085  0.168845  1
  Li  Li2  1  0.043851  0.172207  0.473008  1
  Li  Li3  1  0.956149  0.827793  0.526992  1
  Li  Li4  1  0.260668  0.981915  0.831155  1
  Li  Li5  1  0.849888  0.427682  0.730787  1
  Sn  Sn6  1  0.229625  0.535054  0.863693  1
  Sn  Sn7  1  0.770375  0.464946  0.136307  1
  B  B8  1  0.255162  0.853950  0.095056  1
  B  B9  1  0.348092  0.905956  0.321035  1
  B  B10  1  0.347999  0.779581  0.575358  1
  B  B11  1  0.203819  0.185312  0.158054  1
  B  B12  1  0.686268  0.745471  0.408367  1
  B  B13  1  0.313732  0.254529  0.591633  1
  B  B14  1  0.796181  0.814688  0.841946  1
  B  B15  1  0.652001  0.220419  0.424642  1
  B  B16  1  0.651908  0.094044  0.678965  1
  B  B17  1  0.744838  0.146050  0.904944  1
  O  O18  1  0.214967  0.749557  0.003396  1
  O  O19  1  0.238253  0.875076  0.470123  1
  O  O20  1  0.300489  0.782481  0.225830  1
  O  O21  1  0.236269  0.783614  0.712261  1
  O  O22  1  0.116070  0.380138  0.135130  1
  O  O23  1  0.575473  0.864553  0.308983  1
  O  O24  1  0.106070  0.301510  0.613000  1
  O  O25  1  0.743699  0.885043  0.713524  1
  O  O26  1  0.562301  0.687702  0.535718  1
  O  O27  1  0.759957  0.949213  0.947915  1
  O  O28  1  0.240043  0.050787  0.052085  1
  O  O29  1  0.437699  0.312298  0.464282  1
  O  O30  1  0.256301  0.114957  0.286476  1
  O  O31  1  0.893930  0.698490  0.387000  1
  O  O32  1  0.424527  0.135447  0.691017  1
  O  O33  1  0.883930  0.619862  0.864870  1
  O  O34  1  0.763731  0.216386  0.287739  1
  O  O35  1  0.699511  0.217519  0.774170  1
  O  O36  1  0.761747  0.124924  0.529877  1
  O  O37  1  0.785033  0.250443  0.996604  1
