# generated using pymatgen
data_NbAsO4
_symmetry_space_group_name_H-M   'P 1'
_cell_length_a   5.06308567
_cell_length_b   5.57787211
_cell_length_c   12.05635486
_cell_angle_alpha   90.00000000
_cell_angle_beta   90.00000000
_cell_angle_gamma   90.00000000
_symmetry_Int_Tables_number   1
_chemical_formula_structural   NbAsO4
_chemical_formula_sum   'Nb4 As4 O16'
_cell_volume   340.48646356
_cell_formula_units_Z   4
loop_
 _symmetry_equiv_pos_site_id
 _symmetry_equiv_pos_as_xyz
  1  'x, y, z'
loop_
 _atom_site_type_symbol
 _atom_site_label
 _atom_site_symmetry_multiplicity
 _atom_site_fract_x
 _atom_site_fract_y
 _atom_site_fract_z
 _atom_site_occupancy
  Nb  Nb0  1  0.016129  0.887997  0.996225  1
  Nb  Nb1  1  0.516129  0.612003  0.496225  1
  Nb  Nb2  1  0.483871  0.387997  0.996225  1
  Nb  Nb3  1  0.983871  0.112003  0.496225  1
  As  As4  1  0.401948  0.939998  0.744670  1
  As  As5  1  0.901948  0.560002  0.244670  1
  As  As6  1  0.098052  0.439998  0.744670  1
  As  As7  1  0.598052  0.060002  0.244670  1
  O  O8  1  0.712836  0.919927  0.557337  1
  O  O9  1  0.228386  0.873426  0.462727  1
  O  O10  1  0.832715  0.850127  0.166031  1
  O  O11  1  0.160524  0.839957  0.845122  1
  O  O12  1  0.660524  0.660043  0.345122  1
  O  O13  1  0.332715  0.649873  0.666031  1
  O  O14  1  0.728386  0.626574  0.962727  1
  O  O15  1  0.212836  0.580073  0.057337  1
  O  O16  1  0.787164  0.419927  0.557337  1
  O  O17  1  0.271614  0.373426  0.462727  1
  O  O18  1  0.667285  0.350127  0.166031  1
  O  O19  1  0.339476  0.339957  0.845122  1
  O  O20  1  0.839476  0.160043  0.345122  1
  O  O21  1  0.167285  0.149873  0.666031  1
  O  O22  1  0.771614  0.126574  0.962727  1
  O  O23  1  0.287164  0.080073  0.057337  1
