# generated using pymatgen
data_Li3Cr2NiO6
_symmetry_space_group_name_H-M   'P 1'
_cell_length_a   6.61118759
_cell_length_b   6.61118759
_cell_length_c   5.89687388
_cell_angle_alpha   77.09764545
_cell_angle_beta   102.90235455
_cell_angle_gamma   154.26260087
_symmetry_Int_Tables_number   1
_chemical_formula_structural   Li3Cr2NiO6
_chemical_formula_sum   'Li3 Cr2 Ni1 O6'
_cell_volume   108.94728159
_cell_formula_units_Z   1
loop_
 _symmetry_equiv_pos_site_id
 _symmetry_equiv_pos_as_xyz
  1  'x, y, z'
loop_
 _atom_site_type_symbol
 _atom_site_label
 _atom_site_symmetry_multiplicity
 _atom_site_fract_x
 _atom_site_fract_y
 _atom_site_fract_z
 _atom_site_occupancy
  Li  Li0  1  0.000000  0.000000  0.000000  1
  Li  Li1  1  0.335977  0.664023  0.664574  1
  Li  Li2  1  0.664023  0.335977  0.335426  1
  Cr  Cr3  1  0.334257  0.665743  0.172798  1
  Cr  Cr4  1  0.665743  0.334257  0.827202  1
  Ni  Ni5  1  0.000000  0.000000  0.500000  1
  O  O6  1  0.833108  0.166892  0.400066  1
  O  O7  1  0.173100  0.826900  0.065211  1
  O  O8  1  0.166892  0.833108  0.599934  1
  O  O9  1  0.508255  0.491745  0.744141  1
  O  O10  1  0.491745  0.508255  0.255859  1
  O  O11  1  0.826900  0.173100  0.934789  1
