# generated using pymatgen
data_YScS3
_symmetry_space_group_name_H-M   'P 1'
_cell_length_a   6.39816041
_cell_length_b   7.02682094
_cell_length_c   9.55025719
_cell_angle_alpha   90.00000000
_cell_angle_beta   90.00000000
_cell_angle_gamma   90.00000000
_symmetry_Int_Tables_number   1
_chemical_formula_structural   YScS3
_chemical_formula_sum   'Y4 Sc4 S12'
_cell_volume   429.36741100
_cell_formula_units_Z   4
loop_
 _symmetry_equiv_pos_site_id
 _symmetry_equiv_pos_as_xyz
  1  'x, y, z'
loop_
 _atom_site_type_symbol
 _atom_site_label
 _atom_site_symmetry_multiplicity
 _atom_site_fract_x
 _atom_site_fract_y
 _atom_site_fract_z
 _atom_site_occupancy
  Y  Y0  1  0.458949  0.101063  0.250000  1
  Y  Y1  1  0.541051  0.898937  0.750000  1
  Y  Y2  1  0.041051  0.601063  0.250000  1
  Y  Y3  1  0.958949  0.398937  0.750000  1
  Sc  Sc4  1  0.000000  0.000000  0.500000  1
  Sc  Sc5  1  0.000000  0.000000  0.000000  1
  Sc  Sc6  1  0.500000  0.500000  0.500000  1
  Sc  Sc7  1  0.500000  0.500000  0.000000  1
  S  S8  1  0.143814  0.047418  0.750000  1
  S  S9  1  0.856186  0.952582  0.250000  1
  S  S10  1  0.356186  0.547418  0.750000  1
  S  S11  1  0.643814  0.452582  0.250000  1
  S  S12  1  0.176330  0.315317  0.428967  1
  S  S13  1  0.823670  0.684683  0.928967  1
  S  S14  1  0.323670  0.815317  0.428967  1
  S  S15  1  0.676330  0.184683  0.928967  1
  S  S16  1  0.676330  0.184683  0.571033  1
  S  S17  1  0.323670  0.815317  0.071033  1
  S  S18  1  0.823670  0.684683  0.571033  1
  S  S19  1  0.176330  0.315317  0.071033  1
