# generated using pymatgen
data_FeOF
_symmetry_space_group_name_H-M   'P 1'
_cell_length_a   4.76317349
_cell_length_b   4.76624695
_cell_length_c   10.39102156
_cell_angle_alpha   90.00000000
_cell_angle_beta   117.33144354
_cell_angle_gamma   90.00000000
_symmetry_Int_Tables_number   1
_chemical_formula_structural   FeOF
_chemical_formula_sum   'Fe6 O6 F6'
_cell_volume   209.56696312
_cell_formula_units_Z   6
loop_
 _symmetry_equiv_pos_site_id
 _symmetry_equiv_pos_as_xyz
  1  'x, y, z'
loop_
 _atom_site_type_symbol
 _atom_site_label
 _atom_site_symmetry_multiplicity
 _atom_site_fract_x
 _atom_site_fract_y
 _atom_site_fract_z
 _atom_site_occupancy
  Fe  Fe0  1  0.203818  0.962343  0.416613  1
  Fe  Fe1  1  0.470368  0.026615  0.749337  1
  Fe  Fe2  1  0.786796  0.006600  0.084161  1
  Fe  Fe3  1  0.529632  0.526615  0.250663  1
  Fe  Fe4  1  0.796182  0.462343  0.583387  1
  Fe  Fe5  1  0.213204  0.506600  0.915839  1
  O  O6  1  0.468661  0.822912  0.913416  1
  O  O7  1  0.822072  0.811786  0.253916  1
  O  O8  1  0.531339  0.322912  0.086584  1
  O  O9  1  0.177928  0.311786  0.746084  1
  O  O10  1  0.487908  0.673560  0.417298  1
  O  O11  1  0.512092  0.173560  0.582702  1
  F  F12  1  0.132876  0.789457  0.582999  1
  F  F13  1  0.867124  0.289457  0.417001  1
  F  F14  1  0.138516  0.711619  0.081357  1
  F  F15  1  0.794576  0.695110  0.751346  1
  F  F16  1  0.205424  0.195110  0.248654  1
  F  F17  1  0.861484  0.211619  0.918643  1
