# generated using pymatgen
data_MnOF
_symmetry_space_group_name_H-M   'P 1'
_cell_length_a   4.64809308
_cell_length_b   4.64809308
_cell_length_c   6.26816715
_cell_angle_alpha   90.00000000
_cell_angle_beta   90.00000000
_cell_angle_gamma   90.00000000
_symmetry_Int_Tables_number   1
_chemical_formula_structural   MnOF
_chemical_formula_sum   'Mn4 O4 F4'
_cell_volume   135.42230509
_cell_formula_units_Z   4
loop_
 _symmetry_equiv_pos_site_id
 _symmetry_equiv_pos_as_xyz
  1  'x, y, z'
loop_
 _atom_site_type_symbol
 _atom_site_label
 _atom_site_symmetry_multiplicity
 _atom_site_fract_x
 _atom_site_fract_y
 _atom_site_fract_z
 _atom_site_occupancy
  Mn  Mn0  1  0.971233  0.971233  0.000000  1
  Mn  Mn1  1  0.028767  0.028767  0.500000  1
  Mn  Mn2  1  0.528767  0.471233  0.250000  1
  Mn  Mn3  1  0.471233  0.528767  0.750000  1
  O  O4  1  0.176155  0.823845  0.750000  1
  O  O5  1  0.323845  0.323845  0.500000  1
  O  O6  1  0.676155  0.676155  0.000000  1
  O  O7  1  0.823845  0.176155  0.250000  1
  F  F8  1  0.224380  0.775620  0.250000  1
  F  F9  1  0.275620  0.275620  0.000000  1
  F  F10  1  0.724380  0.724380  0.500000  1
  F  F11  1  0.775620  0.224380  0.750000  1
