# generated using pymatgen
data_Er4(B2O5)3
_symmetry_space_group_name_H-M   'P 1'
_cell_length_a   6.22025760
_cell_length_b   6.22025760
_cell_length_c   18.84042221
_cell_angle_alpha   83.95511952
_cell_angle_beta   96.04488048
_cell_angle_gamma   138.76275036
_symmetry_Int_Tables_number   1
_chemical_formula_structural   Er4(B2O5)3
_chemical_formula_sum   'Er8 B12 O30'
_cell_volume   477.46755714
_cell_formula_units_Z   2
loop_
 _symmetry_equiv_pos_site_id
 _symmetry_equiv_pos_as_xyz
  1  'x, y, z'
loop_
 _atom_site_type_symbol
 _atom_site_label
 _atom_site_symmetry_multiplicity
 _atom_site_fract_x
 _atom_site_fract_y
 _atom_site_fract_z
 _atom_site_occupancy
  Er  Er0  1  0.927810  0.652858  0.802474  1
  Er  Er1  1  0.931908  0.666505  0.598943  1
  Er  Er2  1  0.666505  0.931908  0.901057  1
  Er  Er3  1  0.652858  0.927810  0.697526  1
  Er  Er4  1  0.347142  0.072190  0.302474  1
  Er  Er5  1  0.333495  0.068092  0.098943  1
  Er  Er6  1  0.068092  0.333495  0.401057  1
  Er  Er7  1  0.072190  0.347142  0.197526  1
  B  B8  1  0.978552  0.640216  0.974417  1
  B  B9  1  0.391352  0.196708  0.912782  1
  B  B10  1  0.339688  0.204447  0.694285  1
  B  B11  1  0.803292  0.608648  0.412782  1
  B  B12  1  0.795553  0.660312  0.194285  1
  B  B13  1  0.640216  0.978552  0.525583  1
  B  B14  1  0.359784  0.021448  0.474417  1
  B  B15  1  0.204447  0.339688  0.805715  1
  B  B16  1  0.196708  0.391352  0.587218  1
  B  B17  1  0.660312  0.795553  0.305715  1
  B  B18  1  0.608648  0.803292  0.087218  1
  B  B19  1  0.021448  0.359784  0.025583  1
  O  O20  1  0.248632  0.993828  0.979463  1
  O  O21  1  0.711234  0.542550  0.929801  1
  O  O22  1  0.663767  0.534523  0.696663  1
  O  O23  1  0.187837  0.159922  0.621498  1
  O  O24  1  0.840078  0.812163  0.121498  1
  O  O25  1  0.315231  0.951354  0.703730  1
  O  O26  1  0.006172  0.751368  0.479463  1
  O  O27  1  0.457450  0.288766  0.429801  1
  O  O28  1  0.465477  0.336233  0.196663  1
  O  O29  1  0.439837  0.076618  0.861667  1
  O  O30  1  0.087883  0.504882  0.950544  1
  O  O31  1  0.923382  0.560163  0.361667  1
  O  O32  1  0.048646  0.684769  0.203730  1
  O  O33  1  0.495118  0.912117  0.450544  1
  O  O34  1  0.504882  0.087883  0.549456  1
  O  O35  1  0.951354  0.315231  0.796270  1
  O  O36  1  0.076618  0.439837  0.638333  1
  O  O37  1  0.912117  0.495118  0.049456  1
  O  O38  1  0.560163  0.923382  0.138333  1
  O  O39  1  0.534523  0.663767  0.803337  1
  O  O40  1  0.542550  0.711234  0.570199  1
  O  O41  1  0.993828  0.248632  0.520537  1
  O  O42  1  0.684769  0.048646  0.296270  1
  O  O43  1  0.159922  0.187837  0.878502  1
  O  O44  1  0.812163  0.840078  0.378502  1
  O  O45  1  0.336233  0.465477  0.303337  1
  O  O46  1  0.868567  0.868567  0.250000  1
  O  O47  1  0.131433  0.131433  0.750000  1
  O  O48  1  0.288766  0.457450  0.070199  1
  O  O49  1  0.751368  0.006172  0.020537  1
