# generated using pymatgen
data_Li3NiPCO7
_symmetry_space_group_name_H-M   'P 1'
_cell_length_a   5.10404428
_cell_length_b   6.42168444
_cell_length_c   8.24265532
_cell_angle_alpha   90.00000000
_cell_angle_beta   91.78638801
_cell_angle_gamma   90.00000000
_symmetry_Int_Tables_number   1
_chemical_formula_structural   Li3NiPCO7
_chemical_formula_sum   'Li6 Ni2 P2 C2 O14'
_cell_volume   270.03459884
_cell_formula_units_Z   2
loop_
 _symmetry_equiv_pos_site_id
 _symmetry_equiv_pos_as_xyz
  1  'x, y, z'
loop_
 _atom_site_type_symbol
 _atom_site_label
 _atom_site_symmetry_multiplicity
 _atom_site_fract_x
 _atom_site_fract_y
 _atom_site_fract_z
 _atom_site_occupancy
  Li  Li0  1  0.009729  0.498016  0.000409  1
  Li  Li1  1  0.452351  0.191664  0.827636  1
  Li  Li2  1  0.450532  0.432761  0.494113  1
  Li  Li3  1  0.549468  0.932761  0.505887  1
  Li  Li4  1  0.547649  0.691664  0.172364  1
  Li  Li5  1  0.990271  0.998016  0.999591  1
  Ni  Ni6  1  0.034025  0.750361  0.727064  1
  Ni  Ni7  1  0.965975  0.250361  0.272936  1
  P  P8  1  0.963775  0.246523  0.663335  1
  P  P9  1  0.036225  0.746523  0.336665  1
  C  C10  1  0.498384  0.741480  0.857609  1
  C  C11  1  0.501616  0.241480  0.142391  1
  O  O12  1  0.317038  0.732245  0.965800  1
  O  O13  1  0.740723  0.765417  0.906246  1
  O  O14  1  0.092373  0.065019  0.765791  1
  O  O15  1  0.014386  0.442415  0.768370  1
  O  O16  1  0.434885  0.731345  0.705684  1
  O  O17  1  0.666949  0.206586  0.634292  1
  O  O18  1  0.107755  0.270769  0.502318  1
  O  O19  1  0.892245  0.770769  0.497682  1
  O  O20  1  0.333051  0.706586  0.365708  1
  O  O21  1  0.565115  0.231345  0.294316  1
  O  O22  1  0.985614  0.942415  0.231630  1
  O  O23  1  0.907627  0.565019  0.234209  1
  O  O24  1  0.259277  0.265417  0.093754  1
  O  O25  1  0.682962  0.232245  0.034200  1
