# generated using pymatgen
data_Li2Mn3(P2O7)2
_symmetry_space_group_name_H-M   'P 1'
_cell_length_a   6.45726134
_cell_length_b   7.38751740
_cell_length_c   13.90634684
_cell_angle_alpha   90.00000000
_cell_angle_beta   93.86914233
_cell_angle_gamma   90.00000000
_symmetry_Int_Tables_number   1
_chemical_formula_structural   Li2Mn3(P2O7)2
_chemical_formula_sum   'Li4 Mn6 P8 O28'
_cell_volume   661.86428808
_cell_formula_units_Z   2
loop_
 _symmetry_equiv_pos_site_id
 _symmetry_equiv_pos_as_xyz
  1  'x, y, z'
loop_
 _atom_site_type_symbol
 _atom_site_label
 _atom_site_symmetry_multiplicity
 _atom_site_fract_x
 _atom_site_fract_y
 _atom_site_fract_z
 _atom_site_occupancy
  Li  Li0  1  0.567877  0.690568  0.049345  1
  Li  Li1  1  0.013728  0.823452  0.433279  1
  Li  Li2  1  0.986272  0.323452  0.566721  1
  Li  Li3  1  0.432123  0.190568  0.950655  1
  Mn  Mn4  1  0.830498  0.017418  0.099320  1
  Mn  Mn5  1  0.269965  0.378967  0.275029  1
  Mn  Mn6  1  0.546506  0.855737  0.388451  1
  Mn  Mn7  1  0.453494  0.355737  0.611549  1
  Mn  Mn8  1  0.730035  0.878967  0.724971  1
  Mn  Mn9  1  0.169502  0.517418  0.900680  1
  P  P10  1  0.102616  0.693545  0.109355  1
  P  P11  1  0.361812  0.012572  0.173155  1
  P  P12  1  0.875296  0.192138  0.324823  1
  P  P13  1  0.649533  0.484019  0.416890  1
  P  P14  1  0.350467  0.984019  0.583110  1
  P  P15  1  0.124704  0.692138  0.675177  1
  P  P16  1  0.638188  0.512572  0.826845  1
  P  P17  1  0.897384  0.193545  0.890645  1
  O  O18  1  0.251910  0.631064  0.033603  1
  O  O19  1  0.874628  0.707486  0.072837  1
  O  O20  1  0.150283  0.915294  0.123537  1
  O  O21  1  0.532348  0.921053  0.118087  1
  O  O22  1  0.339563  0.214761  0.153503  1
  O  O23  1  0.149136  0.605141  0.206276  1
  O  O24  1  0.887573  0.176353  0.216416  1
  O  O25  1  0.367635  0.969421  0.279979  1
  O  O26  1  0.679595  0.333015  0.333882  1
  O  O27  1  0.422925  0.540462  0.391136  1
  O  O28  1  0.065216  0.285526  0.373881  1
  O  O29  1  0.789248  0.649140  0.405063  1
  O  O30  1  0.818711  0.016475  0.375932  1
  O  O31  1  0.689735  0.389950  0.514872  1
  O  O32  1  0.310265  0.889950  0.485128  1
  O  O33  1  0.181289  0.516475  0.624068  1
  O  O34  1  0.210752  0.149140  0.594937  1
  O  O35  1  0.934784  0.785526  0.626119  1
  O  O36  1  0.577075  0.040462  0.608864  1
  O  O37  1  0.320405  0.833015  0.666118  1
  O  O38  1  0.632365  0.469421  0.720021  1
  O  O39  1  0.112427  0.676353  0.783584  1
  O  O40  1  0.850864  0.105141  0.793724  1
  O  O41  1  0.660437  0.714761  0.846497  1
  O  O42  1  0.467652  0.421053  0.881913  1
  O  O43  1  0.849717  0.415294  0.876463  1
  O  O44  1  0.125372  0.207486  0.927163  1
  O  O45  1  0.748090  0.131064  0.966397  1
