# generated using pymatgen
data_BaCa2I6
_symmetry_space_group_name_H-M   'P 1'
_cell_length_a   14.06496386
_cell_length_b   14.06496386
_cell_length_c   7.27258271
_cell_angle_alpha   90.00000000
_cell_angle_beta   90.00000000
_cell_angle_gamma   120.00000000
_symmetry_Int_Tables_number   1
_chemical_formula_structural   BaCa2I6
_chemical_formula_sum   'Ba3 Ca6 I18'
_cell_volume   1245.93831680
_cell_formula_units_Z   3
loop_
 _symmetry_equiv_pos_site_id
 _symmetry_equiv_pos_as_xyz
  1  'x, y, z'
loop_
 _atom_site_type_symbol
 _atom_site_label
 _atom_site_symmetry_multiplicity
 _atom_site_fract_x
 _atom_site_fract_y
 _atom_site_fract_z
 _atom_site_occupancy
  Ba  Ba0  1  0.333333  0.666667  0.504040  1
  Ba  Ba1  1  0.000000  0.000000  0.000000  1
  Ba  Ba2  1  0.666667  0.333333  0.495960  1
  Ca  Ca3  1  0.349970  0.000000  0.000000  1
  Ca  Ca4  1  0.683992  0.000000  0.500000  1
  Ca  Ca5  1  0.650030  0.650030  0.000000  1
  Ca  Ca6  1  0.000000  0.683992  0.500000  1
  Ca  Ca7  1  0.316008  0.316008  0.500000  1
  Ca  Ca8  1  0.000000  0.349970  0.000000  1
  I  I9  1  0.136305  0.898279  0.257097  1
  I  I10  1  0.210287  0.782252  0.760873  1
  I  I11  1  0.470009  0.903295  0.245162  1
  I  I12  1  0.096705  0.566714  0.245162  1
  I  I13  1  0.571965  0.789713  0.760873  1
  I  I14  1  0.761974  0.863695  0.257097  1
  I  I15  1  0.217748  0.428035  0.760873  1
  I  I16  1  0.863695  0.761974  0.742903  1
  I  I17  1  0.433286  0.529991  0.245162  1
  I  I18  1  0.101721  0.238026  0.257097  1
  I  I19  1  0.789713  0.571965  0.239127  1
  I  I20  1  0.529991  0.433286  0.754838  1
  I  I21  1  0.903295  0.470009  0.754838  1
  I  I22  1  0.428035  0.217748  0.239127  1
  I  I23  1  0.238026  0.101721  0.742903  1
  I  I24  1  0.782252  0.210287  0.239127  1
  I  I25  1  0.566714  0.096705  0.754838  1
  I  I26  1  0.898279  0.136305  0.742903  1
