# generated using pymatgen
data_Na8Fe7(PO4)8
_symmetry_space_group_name_H-M   'P 1'
_cell_length_a   8.09152671
_cell_length_b   8.09152671
_cell_length_c   11.52262007
_cell_angle_alpha   74.44077227
_cell_angle_beta   105.55922773
_cell_angle_gamma   77.14114863
_symmetry_Int_Tables_number   1
_chemical_formula_structural   Na8Fe7(PO4)8
_chemical_formula_sum   'Na8 Fe7 P8 O32'
_cell_volume   663.95122165
_cell_formula_units_Z   1
loop_
 _symmetry_equiv_pos_site_id
 _symmetry_equiv_pos_as_xyz
  1  'x, y, z'
loop_
 _atom_site_type_symbol
 _atom_site_label
 _atom_site_symmetry_multiplicity
 _atom_site_fract_x
 _atom_site_fract_y
 _atom_site_fract_z
 _atom_site_occupancy
  Na  Na0  1  0.757409  0.488706  0.515553  1
  Na  Na1  1  0.511294  0.242591  0.515553  1
  Na  Na2  1  0.248565  0.003263  0.497328  1
  Na  Na3  1  0.996737  0.751435  0.497328  1
  Na  Na4  1  0.237770  0.004581  0.997440  1
  Na  Na5  1  0.995419  0.762230  0.997440  1
  Na  Na6  1  0.509577  0.251122  0.994386  1
  Na  Na7  1  0.748878  0.490423  0.994386  1
  Fe  Fe8  1  0.264455  0.735545  0.783093  1
  Fe  Fe9  1  0.226816  0.273319  0.713602  1
  Fe  Fe10  1  0.726681  0.773184  0.713602  1
  Fe  Fe11  1  0.275534  0.724466  0.286874  1
  Fe  Fe12  1  0.775941  0.224059  0.287461  1
  Fe  Fe13  1  0.243796  0.256017  0.216298  1
  Fe  Fe14  1  0.743983  0.756204  0.216298  1
  P  P15  1  0.526250  0.961005  0.887983  1
  P  P16  1  0.038995  0.473750  0.887983  1
  P  P17  1  0.907623  0.092377  0.608638  1
  P  P18  1  0.393836  0.606164  0.600225  1
  P  P19  1  0.104548  0.398308  0.394455  1
  P  P20  1  0.601692  0.895452  0.394455  1
  P  P21  1  0.962945  0.037055  0.113463  1
  P  P22  1  0.461456  0.538544  0.108669  1
  O  O23  1  0.442685  0.557315  0.967069  1
  O  O24  1  0.939872  0.060128  0.974652  1
  O  O25  1  0.678126  0.822777  0.871870  1
  O  O26  1  0.177223  0.321874  0.871870  1
  O  O27  1  0.492941  0.164290  0.810737  1
  O  O28  1  0.333052  0.948528  0.827230  1
  O  O29  1  0.835710  0.507059  0.810737  1
  O  O30  1  0.051472  0.666948  0.827230  1
  O  O31  1  0.267932  0.532110  0.673948  1
  O  O32  1  0.467890  0.732068  0.673948  1
  O  O33  1  0.988347  0.218022  0.673540  1
  O  O34  1  0.781978  0.011653  0.673540  1
  O  O35  1  0.540369  0.459631  0.597309  1
  O  O36  1  0.061084  0.938916  0.609788  1
  O  O37  1  0.720289  0.774912  0.539469  1
  O  O38  1  0.225088  0.279711  0.539469  1
  O  O39  1  0.262823  0.737177  0.463868  1
  O  O40  1  0.782809  0.217191  0.468345  1
  O  O41  1  0.451349  0.051843  0.391697  1
  O  O42  1  0.948157  0.548651  0.391697  1
  O  O43  1  0.535657  0.765978  0.327821  1
  O  O44  1  0.042920  0.267332  0.327821  1
  O  O45  1  0.234022  0.464343  0.327821  1
  O  O46  1  0.732668  0.957080  0.327821  1
  O  O47  1  0.963786  0.839756  0.185717  1
  O  O48  1  0.160244  0.036214  0.185717  1
  O  O49  1  0.658091  0.538802  0.176581  1
  O  O50  1  0.461198  0.341909  0.176581  1
  O  O51  1  0.312442  0.687558  0.115358  1
  O  O52  1  0.814427  0.185573  0.124446  1
  O  O53  1  0.562310  0.937180  0.030741  1
  O  O54  1  0.062820  0.437690  0.030741  1
