# generated using pymatgen
data_Li3Ni4SnO8
_symmetry_space_group_name_H-M   'P 1'
_cell_length_a   5.98198426
_cell_length_b   5.98198426
_cell_length_c   6.00486737
_cell_angle_alpha   60.17774042
_cell_angle_beta   119.82225958
_cell_angle_gamma   120.07068197
_symmetry_Int_Tables_number   1
_chemical_formula_structural   Li3Ni4SnO8
_chemical_formula_sum   'Li3 Ni4 Sn1 O8'
_cell_volume   152.26732985
_cell_formula_units_Z   1
loop_
 _symmetry_equiv_pos_site_id
 _symmetry_equiv_pos_as_xyz
  1  'x, y, z'
loop_
 _atom_site_type_symbol
 _atom_site_label
 _atom_site_symmetry_multiplicity
 _atom_site_fract_x
 _atom_site_fract_y
 _atom_site_fract_z
 _atom_site_occupancy
  Li  Li0  1  0.500000  0.000000  0.000000  1
  Li  Li1  1  0.000000  0.000000  0.500000  1
  Li  Li2  1  0.000000  0.500000  0.000000  1
  Ni  Ni3  1  0.500000  0.500000  0.500000  1
  Ni  Ni4  1  0.000000  0.000000  0.000000  1
  Ni  Ni5  1  0.500000  0.000000  0.500000  1
  Ni  Ni6  1  0.000000  0.500000  0.500000  1
  Sn  Sn7  1  0.500000  0.500000  0.000000  1
  O  O8  1  0.745618  0.254382  0.259998  1
  O  O9  1  0.254239  0.253320  0.754921  1
  O  O10  1  0.746680  0.745761  0.754921  1
  O  O11  1  0.250746  0.749254  0.273702  1
  O  O12  1  0.749254  0.250746  0.726298  1
  O  O13  1  0.253320  0.254239  0.245079  1
  O  O14  1  0.745761  0.746680  0.245079  1
  O  O15  1  0.254382  0.745618  0.740002  1
