# generated using pymatgen
data_YTmO3
_symmetry_space_group_name_H-M   'P 1'
_cell_length_a   5.66425099
_cell_length_b   5.92267568
_cell_length_c   8.30527069
_cell_angle_alpha   90.00000000
_cell_angle_beta   90.00000000
_cell_angle_gamma   90.00000000
_symmetry_Int_Tables_number   1
_chemical_formula_structural   YTmO3
_chemical_formula_sum   'Y4 Tm4 O12'
_cell_volume   278.62124773
_cell_formula_units_Z   4
loop_
 _symmetry_equiv_pos_site_id
 _symmetry_equiv_pos_as_xyz
  1  'x, y, z'
loop_
 _atom_site_type_symbol
 _atom_site_label
 _atom_site_symmetry_multiplicity
 _atom_site_fract_x
 _atom_site_fract_y
 _atom_site_fract_z
 _atom_site_occupancy
  Y  Y0  1  0.015379  0.947000  0.750000  1
  Y  Y1  1  0.484621  0.447000  0.750000  1
  Y  Y2  1  0.515379  0.553000  0.250000  1
  Y  Y3  1  0.984621  0.053000  0.250000  1
  Tm  Tm4  1  0.000000  0.500000  0.000000  1
  Tm  Tm5  1  0.000000  0.500000  0.500000  1
  Tm  Tm6  1  0.500000  0.000000  0.000000  1
  Tm  Tm7  1  0.500000  0.000000  0.500000  1
  O  O8  1  0.144907  0.422350  0.250000  1
  O  O9  1  0.182790  0.186148  0.575148  1
  O  O10  1  0.182790  0.186148  0.924852  1
  O  O11  1  0.317210  0.686148  0.924852  1
  O  O12  1  0.317210  0.686148  0.575148  1
  O  O13  1  0.355093  0.922350  0.250000  1
  O  O14  1  0.644907  0.077650  0.750000  1
  O  O15  1  0.682790  0.313852  0.424852  1
  O  O16  1  0.682790  0.313852  0.075148  1
  O  O17  1  0.817210  0.813852  0.075148  1
  O  O18  1  0.817210  0.813852  0.424852  1
  O  O19  1  0.855093  0.577650  0.750000  1
