# generated using pymatgen
data_Li4MnV3O8
_symmetry_space_group_name_H-M   'P 1'
_cell_length_a   5.09919937
_cell_length_b   5.72403503
_cell_length_c   6.58227726
_cell_angle_alpha   90.83588548
_cell_angle_beta   90.07466635
_cell_angle_gamma   90.00050768
_symmetry_Int_Tables_number   1
_chemical_formula_structural   Li4MnV3O8
_chemical_formula_sum   'Li4 Mn1 V3 O8'
_cell_volume   192.10287257
_cell_formula_units_Z   1
loop_
 _symmetry_equiv_pos_site_id
 _symmetry_equiv_pos_as_xyz
  1  'x, y, z'
loop_
 _atom_site_type_symbol
 _atom_site_label
 _atom_site_symmetry_multiplicity
 _atom_site_fract_x
 _atom_site_fract_y
 _atom_site_fract_z
 _atom_site_occupancy
  Li  Li0  1  0.008837  0.079737  0.376244  1
  Li  Li1  1  0.506019  0.409418  0.873048  1
  Li  Li2  1  0.010314  0.584717  0.121372  1
  Li  Li3  1  0.503409  0.922739  0.627432  1
  Mn  Mn4  1  0.502689  0.914439  0.125703  1
  V  V5  1  0.998346  0.084232  0.875947  1
  V  V6  1  0.510109  0.409936  0.368858  1
  V  V7  1  0.008902  0.587700  0.628563  1
  O  O8  1  0.623568  0.082327  0.873008  1
  O  O9  1  0.607252  0.110749  0.385938  1
  O  O10  1  0.110092  0.413224  0.861490  1
  O  O11  1  0.142084  0.427596  0.383792  1
  O  O12  1  0.623403  0.573207  0.603380  1
  O  O13  1  0.608712  0.566722  0.146340  1
  O  O14  1  0.110445  0.908869  0.631880  1
  O  O15  1  0.099417  0.924387  0.117005  1
