# generated using pymatgen
data_Fe14O15
_symmetry_space_group_name_H-M   'P 1'
_cell_length_a   8.10614163
_cell_length_b   8.10614163
_cell_length_c   8.10614163
_cell_angle_alpha   129.82779920
_cell_angle_beta   129.82779920
_cell_angle_gamma   73.68220629
_symmetry_Int_Tables_number   1
_chemical_formula_structural   Fe14O15
_chemical_formula_sum   'Fe14 O15'
_cell_volume   306.51118404
_cell_formula_units_Z   1
loop_
 _symmetry_equiv_pos_site_id
 _symmetry_equiv_pos_as_xyz
  1  'x, y, z'
loop_
 _atom_site_type_symbol
 _atom_site_label
 _atom_site_symmetry_multiplicity
 _atom_site_fract_x
 _atom_site_fract_y
 _atom_site_fract_z
 _atom_site_occupancy
  Fe  Fe0  1  0.801214  0.385252  0.186466  1
  Fe  Fe1  1  0.614748  0.801214  0.415962  1
  Fe  Fe2  1  0.198786  0.614748  0.813534  1
  Fe  Fe3  1  0.385252  0.198786  0.584038  1
  Fe  Fe4  1  0.541376  0.929646  0.802500  1
  Fe  Fe5  1  0.337538  0.337538  0.000000  1
  Fe  Fe6  1  0.929646  0.127146  0.388269  1
  Fe  Fe7  1  0.738876  0.541376  0.611731  1
  Fe  Fe8  1  0.127146  0.738876  0.197500  1
  Fe  Fe9  1  0.070354  0.872854  0.611731  1
  Fe  Fe10  1  0.662462  0.662462  0.000000  1
  Fe  Fe11  1  0.261124  0.458624  0.388269  1
  Fe  Fe12  1  0.872854  0.261124  0.802500  1
  Fe  Fe13  1  0.458624  0.070354  0.197500  1
  O  O14  1  0.500000  0.500000  0.000000  1
  O  O15  1  0.676387  0.111701  0.788088  1
  O  O16  1  0.888299  0.676387  0.564687  1
  O  O17  1  0.111701  0.323613  0.435313  1
  O  O18  1  0.323613  0.888299  0.211912  1
  O  O19  1  0.818312  0.818312  0.000000  1
  O  O20  1  0.632192  0.240870  0.202027  1
  O  O21  1  0.240870  0.038843  0.608678  1
  O  O22  1  0.430165  0.632192  0.391322  1
  O  O23  1  0.038843  0.430165  0.797973  1
  O  O24  1  0.569835  0.367808  0.608678  1
  O  O25  1  0.759130  0.961157  0.391322  1
  O  O26  1  0.367808  0.759130  0.797973  1
  O  O27  1  0.181688  0.181688  0.000000  1
  O  O28  1  0.961157  0.569835  0.202027  1
