# generated using pymatgen
data_Li3Fe4P3H12O19
_symmetry_space_group_name_H-M   'P 1'
_cell_length_a   10.69050160
_cell_length_b   10.69050160
_cell_length_c   10.69050160
_cell_angle_alpha   60.90346317
_cell_angle_beta   60.90346317
_cell_angle_gamma   60.90346317
_symmetry_Int_Tables_number   1
_chemical_formula_structural   Li3Fe4P3H12O19
_chemical_formula_sum   'Li6 Fe8 P6 H24 O38'
_cell_volume   881.52417947
_cell_formula_units_Z   2
loop_
 _symmetry_equiv_pos_site_id
 _symmetry_equiv_pos_as_xyz
  1  'x, y, z'
loop_
 _atom_site_type_symbol
 _atom_site_label
 _atom_site_symmetry_multiplicity
 _atom_site_fract_x
 _atom_site_fract_y
 _atom_site_fract_z
 _atom_site_occupancy
  Li  Li0  1  0.936080  0.322227  0.059172  1
  Li  Li1  1  0.822227  0.436080  0.559172  1
  Li  Li2  1  0.322227  0.059172  0.936080  1
  Li  Li3  1  0.436080  0.559172  0.822227  1
  Li  Li4  1  0.559172  0.822227  0.436080  1
  Li  Li5  1  0.059172  0.936080  0.322227  1
  Fe  Fe6  1  0.992242  0.022000  0.694008  1
  Fe  Fe7  1  0.492242  0.194008  0.522000  1
  Fe  Fe8  1  0.522000  0.492242  0.194008  1
  Fe  Fe9  1  0.997143  0.997143  0.997143  1
  Fe  Fe10  1  0.497143  0.497143  0.497143  1
  Fe  Fe11  1  0.694008  0.992242  0.022000  1
  Fe  Fe12  1  0.194008  0.522000  0.492242  1
  Fe  Fe13  1  0.022000  0.694008  0.992242  1
  P  P14  1  0.698334  0.161981  0.193386  1
  P  P15  1  0.661981  0.198334  0.693386  1
  P  P16  1  0.693386  0.661981  0.198334  1
  P  P17  1  0.161981  0.193386  0.698334  1
  P  P18  1  0.193386  0.698334  0.161981  1
  P  P19  1  0.198334  0.693386  0.661981  1
  H  H20  1  0.997926  0.242550  0.309219  1
  H  H21  1  0.859136  0.192227  0.370940  1
  H  H22  1  0.967804  0.543662  0.779823  1
  H  H23  1  0.692227  0.359136  0.870940  1
  H  H24  1  0.279823  0.043662  0.467804  1
  H  H25  1  0.742550  0.497926  0.809219  1
  H  H26  1  0.870940  0.692227  0.359136  1
  H  H27  1  0.403773  0.103534  0.324988  1
  H  H28  1  0.824988  0.603534  0.903773  1
  H  H29  1  0.467804  0.279823  0.043662  1
  H  H30  1  0.809219  0.742550  0.497926  1
  H  H31  1  0.903773  0.824988  0.603534  1
  H  H32  1  0.324988  0.403773  0.103534  1
  H  H33  1  0.242550  0.309219  0.997926  1
  H  H34  1  0.779823  0.967804  0.543662  1
  H  H35  1  0.103534  0.324988  0.403773  1
  H  H36  1  0.603534  0.903773  0.824988  1
  H  H37  1  0.192227  0.370940  0.859136  1
  H  H38  1  0.543662  0.779823  0.967804  1
  H  H39  1  0.497926  0.809219  0.742550  1
  H  H40  1  0.043662  0.467804  0.279823  1
  H  H41  1  0.370940  0.859136  0.192227  1
  H  H42  1  0.359136  0.870940  0.692227  1
  H  H43  1  0.309219  0.997926  0.242550  1
  O  O44  1  0.854987  0.039671  0.192493  1
  O  O45  1  0.960593  0.183735  0.293923  1
  O  O46  1  0.817102  0.211625  0.654674  1
  O  O47  1  0.618368  0.076606  0.849173  1
  O  O48  1  0.678058  0.146225  0.570234  1
  O  O49  1  0.646225  0.178058  0.070234  1
  O  O50  1  0.576606  0.118368  0.349173  1
  O  O51  1  0.711625  0.317102  0.154674  1
  O  O52  1  0.868663  0.529645  0.851690  1
  O  O53  1  0.351690  0.029645  0.368663  1
  O  O54  1  0.849173  0.618368  0.076606  1
  O  O55  1  0.683735  0.460593  0.793923  1
  O  O56  1  0.317102  0.154674  0.711625  1
  O  O57  1  0.539671  0.354987  0.692493  1
  O  O58  1  0.692493  0.539671  0.354987  1
  O  O59  1  0.178058  0.070234  0.646225  1
  O  O60  1  0.793923  0.683735  0.460593  1
  O  O61  1  0.368663  0.351690  0.029645  1
  O  O62  1  0.920524  0.920524  0.920524  1
  O  O63  1  0.420524  0.420524  0.420524  1
  O  O64  1  0.851690  0.868663  0.529645  1
  O  O65  1  0.183735  0.293923  0.960593  1
  O  O66  1  0.570234  0.678058  0.146225  1
  O  O67  1  0.039671  0.192493  0.854987  1
  O  O68  1  0.654674  0.817102  0.211625  1
  O  O69  1  0.349173  0.576606  0.118368  1
  O  O70  1  0.118368  0.349173  0.576606  1
  O  O71  1  0.529645  0.851690  0.868663  1
  O  O72  1  0.029645  0.368663  0.351690  1
  O  O73  1  0.354987  0.692493  0.539671  1
  O  O74  1  0.460593  0.793923  0.683735  1
  O  O75  1  0.146225  0.570234  0.678058  1
  O  O76  1  0.211625  0.654674  0.817102  1
  O  O77  1  0.154674  0.711625  0.317102  1
  O  O78  1  0.070234  0.646225  0.178058  1
  O  O79  1  0.293923  0.960593  0.183735  1
  O  O80  1  0.192493  0.854987  0.039671  1
  O  O81  1  0.076606  0.849173  0.618368  1
