# generated using pymatgen
data_LaErO3
_symmetry_space_group_name_H-M   'P 1'
_cell_length_a   5.87708730
_cell_length_b   6.07692434
_cell_length_c   8.51415306
_cell_angle_alpha   90.00000000
_cell_angle_beta   90.00000000
_cell_angle_gamma   90.00000000
_symmetry_Int_Tables_number   1
_chemical_formula_structural   LaErO3
_chemical_formula_sum   'La4 Er4 O12'
_cell_volume   304.07969741
_cell_formula_units_Z   4
loop_
 _symmetry_equiv_pos_site_id
 _symmetry_equiv_pos_as_xyz
  1  'x, y, z'
loop_
 _atom_site_type_symbol
 _atom_site_label
 _atom_site_symmetry_multiplicity
 _atom_site_fract_x
 _atom_site_fract_y
 _atom_site_fract_z
 _atom_site_occupancy
  La  La0  1  0.484770  0.952054  0.250000  1
  La  La1  1  0.984770  0.547946  0.750000  1
  La  La2  1  0.015230  0.452054  0.250000  1
  La  La3  1  0.515230  0.047946  0.750000  1
  Er  Er4  1  0.000000  0.000000  0.000000  1
  Er  Er5  1  0.500000  0.500000  0.000000  1
  Er  Er6  1  0.500000  0.500000  0.500000  1
  Er  Er7  1  0.000000  0.000000  0.500000  1
  O  O8  1  0.192546  0.694347  0.067828  1
  O  O9  1  0.692546  0.805653  0.932172  1
  O  O10  1  0.307454  0.194347  0.432172  1
  O  O11  1  0.807454  0.305653  0.567828  1
  O  O12  1  0.807454  0.305653  0.932172  1
  O  O13  1  0.307454  0.194347  0.067828  1
  O  O14  1  0.692546  0.805653  0.567828  1
  O  O15  1  0.192546  0.694347  0.432172  1
  O  O16  1  0.872871  0.057149  0.250000  1
  O  O17  1  0.372871  0.442851  0.750000  1
  O  O18  1  0.627129  0.557149  0.250000  1
  O  O19  1  0.127129  0.942851  0.750000  1
