# generated using pymatgen
data_KSnO2
_symmetry_space_group_name_H-M   'P 1'
_cell_length_a   6.74056097
_cell_length_b   6.74484011
_cell_length_c   7.54040476
_cell_angle_alpha   95.94524924
_cell_angle_beta   116.12453400
_cell_angle_gamma   102.76737757
_symmetry_Int_Tables_number   1
_chemical_formula_structural   KSnO2
_chemical_formula_sum   'K4 Sn4 O8'
_cell_volume   292.17796499
_cell_formula_units_Z   4
loop_
 _symmetry_equiv_pos_site_id
 _symmetry_equiv_pos_as_xyz
  1  'x, y, z'
loop_
 _atom_site_type_symbol
 _atom_site_label
 _atom_site_symmetry_multiplicity
 _atom_site_fract_x
 _atom_site_fract_y
 _atom_site_fract_z
 _atom_site_occupancy
  K  K0  1  0.261500  0.983379  0.262807  1
  K  K1  1  0.752507  0.543252  0.006282  1
  K  K2  1  0.247493  0.456748  0.993718  1
  K  K3  1  0.738500  0.016621  0.737193  1
  Sn  Sn4  1  0.215293  0.894564  0.737857  1
  Sn  Sn5  1  0.737939  0.511299  0.500568  1
  Sn  Sn6  1  0.262061  0.488701  0.499432  1
  Sn  Sn7  1  0.784707  0.105436  0.262143  1
  O  O8  1  0.021274  0.695075  0.439288  1
  O  O9  1  0.418574  0.694678  0.782718  1
  O  O10  1  0.960360  0.711123  0.789906  1
  O  O11  1  0.485958  0.673177  0.408472  1
  O  O12  1  0.581426  0.305322  0.217282  1
  O  O13  1  0.978726  0.304925  0.560712  1
  O  O14  1  0.514042  0.326823  0.591528  1
  O  O15  1  0.039640  0.288877  0.210094  1
