# generated using pymatgen
data_Fe3(O2F)2
_symmetry_space_group_name_H-M   'P 1'
_cell_length_a   5.61211013
_cell_length_b   5.61977935
_cell_length_c   7.40541357
_cell_angle_alpha   70.74297937
_cell_angle_beta   70.63184754
_cell_angle_gamma   70.68391427
_symmetry_Int_Tables_number   1
_chemical_formula_structural   Fe3(O2F)2
_chemical_formula_sum   'Fe6 O8 F4'
_cell_volume   201.48198652
_cell_formula_units_Z   2
loop_
 _symmetry_equiv_pos_site_id
 _symmetry_equiv_pos_as_xyz
  1  'x, y, z'
loop_
 _atom_site_type_symbol
 _atom_site_label
 _atom_site_symmetry_multiplicity
 _atom_site_fract_x
 _atom_site_fract_y
 _atom_site_fract_z
 _atom_site_occupancy
  Fe  Fe0  1  0.306903  0.321009  0.156516  1
  Fe  Fe1  1  0.655483  0.665199  0.331973  1
  Fe  Fe2  1  0.346082  0.357715  0.684069  1
  Fe  Fe3  1  0.668958  0.687811  0.829783  1
  Fe  Fe4  1  0.997567  0.005207  0.504344  1
  Fe  Fe5  1  0.021281  0.969795  0.996575  1
  O  O6  1  0.348079  0.966704  0.334373  1
  O  O7  1  0.034929  0.655084  0.667148  1
  O  O8  1  0.768855  0.761984  0.046041  1
  O  O9  1  0.228603  0.216140  0.962363  1
  O  O10  1  0.572687  0.583685  0.619675  1
  O  O11  1  0.648221  0.048724  0.663995  1
  O  O12  1  0.957108  0.355830  0.337938  1
  O  O13  1  0.316335  0.675064  0.996907  1
  F  F14  1  0.108516  0.113559  0.699505  1
  F  F15  1  0.424322  0.428216  0.371038  1
  F  F16  1  0.893006  0.899206  0.298306  1
  F  F17  1  0.703066  0.289069  0.999450  1
