# generated using pymatgen
data_Na2Li4Mn2C4SO16
_symmetry_space_group_name_H-M   'P 1'
_cell_length_a   9.90473306
_cell_length_b   9.72659292
_cell_length_c   9.72349362
_cell_angle_alpha   61.22623852
_cell_angle_beta   59.40231041
_cell_angle_gamma   59.37145107
_symmetry_Int_Tables_number   1
_chemical_formula_structural   Na2Li4Mn2C4SO16
_chemical_formula_sum   'Na4 Li8 Mn4 C8 S2 O32'
_cell_volume   661.92462898
_cell_formula_units_Z   2
loop_
 _symmetry_equiv_pos_site_id
 _symmetry_equiv_pos_as_xyz
  1  'x, y, z'
loop_
 _atom_site_type_symbol
 _atom_site_label
 _atom_site_symmetry_multiplicity
 _atom_site_fract_x
 _atom_site_fract_y
 _atom_site_fract_z
 _atom_site_occupancy
  Na  Na0  1  0.220109  0.779891  0.220109  1
  Na  Na1  1  0.470109  0.029891  0.470109  1
  Na  Na2  1  0.779891  0.220109  0.779891  1
  Na  Na3  1  0.029891  0.470109  0.029891  1
  Li  Li4  1  0.947937  0.149485  0.287378  1
  Li  Li5  1  0.287378  0.615200  0.947937  1
  Li  Li6  1  0.100515  0.302063  0.634800  1
  Li  Li7  1  0.615200  0.287378  0.149485  1
  Li  Li8  1  0.634800  0.962622  0.100515  1
  Li  Li9  1  0.149485  0.947937  0.615200  1
  Li  Li10  1  0.962622  0.634800  0.302063  1
  Li  Li11  1  0.302063  0.100515  0.962622  1
  Mn  Mn12  1  0.625000  0.625000  0.625000  1
  Mn  Mn13  1  0.125000  0.625000  0.625000  1
  Mn  Mn14  1  0.625000  0.625000  0.125000  1
  Mn  Mn15  1  0.625000  0.125000  0.625000  1
  C  C16  1  0.452595  0.850777  0.852005  1
  C  C17  1  0.852005  0.844623  0.452595  1
  C  C18  1  0.405377  0.397995  0.399223  1
  C  C19  1  0.850777  0.452595  0.844623  1
  C  C20  1  0.399223  0.797405  0.405377  1
  C  C21  1  0.844623  0.852005  0.850777  1
  C  C22  1  0.397995  0.405377  0.797405  1
  C  C23  1  0.797405  0.399223  0.397995  1
  S  S24  1  0.250000  0.250000  0.250000  1
  S  S25  1  1.000000  0.000000  1.000000  1
  O  O26  1  0.836323  0.984425  0.454136  1
  O  O27  1  0.438876  0.845272  0.995143  1
  O  O28  1  0.995143  0.720709  0.438876  1
  O  O29  1  0.425126  0.522072  0.263606  1
  O  O30  1  0.986394  0.460804  0.824874  1
  O  O31  1  0.454136  0.725116  0.836323  1
  O  O32  1  0.265575  0.413677  0.524884  1
  O  O33  1  0.725116  0.454136  0.984425  1
  O  O34  1  0.529291  0.254857  0.404728  1
  O  O35  1  0.845272  0.438876  0.720709  1
  O  O36  1  0.185513  0.438069  0.189490  1
  O  O37  1  0.060510  0.063073  0.064487  1
  O  O38  1  0.460804  0.986394  0.727928  1
  O  O39  1  0.522072  0.425126  0.789196  1
  O  O40  1  0.186927  0.189490  0.438069  1
  O  O41  1  0.438069  0.185513  0.186927  1
  O  O42  1  0.811931  0.064487  0.063073  1
  O  O43  1  0.063073  0.060510  0.811931  1
  O  O44  1  0.727928  0.824874  0.460804  1
  O  O45  1  0.789196  0.263606  0.522072  1
  O  O46  1  0.189490  0.186927  0.185513  1
  O  O47  1  0.064487  0.811931  0.060510  1
  O  O48  1  0.404728  0.811124  0.529291  1
  O  O49  1  0.720709  0.995143  0.845272  1
  O  O50  1  0.524884  0.795864  0.265575  1
  O  O51  1  0.984425  0.836323  0.725116  1
  O  O52  1  0.795864  0.524884  0.413677  1
  O  O53  1  0.263606  0.789196  0.425126  1
  O  O54  1  0.824874  0.727928  0.986394  1
  O  O55  1  0.254857  0.529291  0.811124  1
  O  O56  1  0.811124  0.404728  0.254857  1
  O  O57  1  0.413677  0.265575  0.795864  1
