# generated using pymatgen
data_Li(CoO2)2
_symmetry_space_group_name_H-M   'P 1'
_cell_length_a   4.84895486
_cell_length_b   5.65150728
_cell_length_c   10.13498802
_cell_angle_alpha   90.00000000
_cell_angle_beta   90.00000000
_cell_angle_gamma   90.00000000
_symmetry_Int_Tables_number   1
_chemical_formula_structural   Li(CoO2)2
_chemical_formula_sum   'Li4 Co8 O16'
_cell_volume   277.73823563
_cell_formula_units_Z   4
loop_
 _symmetry_equiv_pos_site_id
 _symmetry_equiv_pos_as_xyz
  1  'x, y, z'
loop_
 _atom_site_type_symbol
 _atom_site_label
 _atom_site_symmetry_multiplicity
 _atom_site_fract_x
 _atom_site_fract_y
 _atom_site_fract_z
 _atom_site_occupancy
  Li  Li0  1  0.856529  0.500000  0.750000  1
  Li  Li1  1  0.143471  0.500000  0.250000  1
  Li  Li2  1  0.356529  0.000000  0.750000  1
  Li  Li3  1  0.643471  0.000000  0.250000  1
  Co  Co4  1  0.754434  0.873768  0.505460  1
  Co  Co5  1  0.245566  0.873768  0.005460  1
  Co  Co6  1  0.254434  0.626232  0.505460  1
  Co  Co7  1  0.745566  0.626232  0.005460  1
  Co  Co8  1  0.745566  0.373768  0.494540  1
  Co  Co9  1  0.254434  0.373768  0.994540  1
  Co  Co10  1  0.754434  0.126232  0.994540  1
  Co  Co11  1  0.245566  0.126232  0.494540  1
  O  O12  1  0.575036  0.873109  0.905769  1
  O  O13  1  0.090068  0.879506  0.600599  1
  O  O14  1  0.424964  0.873109  0.405769  1
  O  O15  1  0.909932  0.879506  0.100599  1
  O  O16  1  0.590068  0.620494  0.600599  1
  O  O17  1  0.075036  0.626891  0.905769  1
  O  O18  1  0.924964  0.626891  0.405769  1
  O  O19  1  0.409932  0.620494  0.100599  1
  O  O20  1  0.409932  0.379506  0.399401  1
  O  O21  1  0.924964  0.373109  0.094231  1
  O  O22  1  0.590068  0.379506  0.899401  1
  O  O23  1  0.075036  0.373109  0.594231  1
  O  O24  1  0.424964  0.126891  0.094231  1
  O  O25  1  0.090068  0.120494  0.899401  1
  O  O26  1  0.575036  0.126891  0.594231  1
  O  O27  1  0.909932  0.120494  0.399401  1
