# generated using pymatgen
data_LiFeP2O7
_symmetry_space_group_name_H-M   'P 1'
_cell_length_a   5.15328251
_cell_length_b   8.59470297
_cell_length_c   6.81848794
_cell_angle_alpha   90.00000000
_cell_angle_beta   109.06731670
_cell_angle_gamma   90.00000000
_symmetry_Int_Tables_number   1
_chemical_formula_structural   LiFeP2O7
_chemical_formula_sum   'Li2 Fe2 P4 O14'
_cell_volume   285.42823853
_cell_formula_units_Z   2
loop_
 _symmetry_equiv_pos_site_id
 _symmetry_equiv_pos_as_xyz
  1  'x, y, z'
loop_
 _atom_site_type_symbol
 _atom_site_label
 _atom_site_symmetry_multiplicity
 _atom_site_fract_x
 _atom_site_fract_y
 _atom_site_fract_z
 _atom_site_occupancy
  Li  Li0  1  0.261921  0.516982  0.802372  1
  Li  Li1  1  0.738079  0.016982  0.197628  1
  Fe  Fe2  1  0.194184  0.155328  0.671402  1
  Fe  Fe3  1  0.805816  0.655328  0.328598  1
  P  P4  1  0.391280  0.812663  0.541851  1
  P  P5  1  0.180819  0.209121  0.050305  1
  P  P6  1  0.819181  0.709121  0.949695  1
  P  P7  1  0.608720  0.312663  0.458149  1
  O  O8  1  0.035303  0.669238  0.859683  1
  O  O9  1  0.103771  0.320840  0.860584  1
  O  O10  1  0.251348  0.971016  0.526120  1
  O  O11  1  0.194317  0.672122  0.501023  1
  O  O12  1  0.423876  0.307494  0.595862  1
  O  O13  1  0.682584  0.571292  0.033383  1
  O  O14  1  0.572278  0.801113  0.780018  1
  O  O15  1  0.427722  0.301113  0.219982  1
  O  O16  1  0.317416  0.071292  0.966617  1
  O  O17  1  0.576124  0.807494  0.404138  1
  O  O18  1  0.805683  0.172122  0.498977  1
  O  O19  1  0.748652  0.471016  0.473880  1
  O  O20  1  0.896229  0.820840  0.139416  1
  O  O21  1  0.964697  0.169238  0.140317  1
