# generated using pymatgen
data_KVPHO6
_symmetry_space_group_name_H-M   'P 1'
_cell_length_a   6.81190809
_cell_length_b   9.26802211
_cell_length_c   17.33849930
_cell_angle_alpha   90.00000000
_cell_angle_beta   90.00000000
_cell_angle_gamma   90.00000000
_symmetry_Int_Tables_number   1
_chemical_formula_structural   KVPHO6
_chemical_formula_sum   'K8 V8 P8 H8 O48'
_cell_volume   1094.62999888
_cell_formula_units_Z   8
loop_
 _symmetry_equiv_pos_site_id
 _symmetry_equiv_pos_as_xyz
  1  'x, y, z'
loop_
 _atom_site_type_symbol
 _atom_site_label
 _atom_site_symmetry_multiplicity
 _atom_site_fract_x
 _atom_site_fract_y
 _atom_site_fract_z
 _atom_site_occupancy
  K  K0  1  0.773990  0.813906  0.397260  1
  K  K1  1  0.273990  0.686094  0.602740  1
  K  K2  1  0.226010  0.313906  0.102740  1
  K  K3  1  0.726010  0.186094  0.897260  1
  K  K4  1  0.226010  0.186094  0.602740  1
  K  K5  1  0.726010  0.313906  0.397260  1
  K  K6  1  0.773990  0.686094  0.897260  1
  K  K7  1  0.273990  0.813906  0.102740  1
  V  V8  1  0.522888  0.947129  0.740488  1
  V  V9  1  0.022888  0.552871  0.259512  1
  V  V10  1  0.477112  0.447129  0.759512  1
  V  V11  1  0.977112  0.052871  0.240488  1
  V  V12  1  0.477112  0.052871  0.259512  1
  V  V13  1  0.977112  0.447129  0.740488  1
  V  V14  1  0.522888  0.552871  0.240488  1
  V  V15  1  0.022888  0.947129  0.759512  1
  P  P16  1  0.304438  0.890048  0.904874  1
  P  P17  1  0.804438  0.609952  0.095126  1
  P  P18  1  0.695562  0.390048  0.595126  1
  P  P19  1  0.195562  0.109952  0.404874  1
  P  P20  1  0.695562  0.109952  0.095126  1
  P  P21  1  0.195562  0.390048  0.904874  1
  P  P22  1  0.304438  0.609952  0.404874  1
  P  P23  1  0.804438  0.890048  0.595126  1
  H  H24  1  0.209903  0.106851  0.953668  1
  H  H25  1  0.709903  0.393149  0.046332  1
  H  H26  1  0.790097  0.606851  0.546332  1
  H  H27  1  0.290097  0.893149  0.453668  1
  H  H28  1  0.790097  0.893149  0.046332  1
  H  H29  1  0.290097  0.606851  0.953668  1
  H  H30  1  0.209903  0.393149  0.453668  1
  H  H31  1  0.709903  0.106851  0.546332  1
  O  O32  1  0.373565  0.755569  0.946736  1
  O  O33  1  0.873565  0.744431  0.053264  1
  O  O34  1  0.626435  0.255569  0.553264  1
  O  O35  1  0.126435  0.244431  0.446736  1
  O  O36  1  0.626435  0.244431  0.053264  1
  O  O37  1  0.126435  0.255569  0.946736  1
  O  O38  1  0.373565  0.744431  0.446736  1
  O  O39  1  0.873565  0.755569  0.553264  1
  O  O40  1  0.260841  0.005657  0.969488  1
  O  O41  1  0.760841  0.494343  0.030512  1
  O  O42  1  0.739159  0.505657  0.530512  1
  O  O43  1  0.239159  0.994343  0.469488  1
  O  O44  1  0.739159  0.994343  0.030512  1
  O  O45  1  0.239159  0.505657  0.969488  1
  O  O46  1  0.260841  0.494343  0.469488  1
  O  O47  1  0.760841  0.005657  0.530512  1
  O  O48  1  0.612350  0.864282  0.642763  1
  O  O49  1  0.112350  0.635718  0.357237  1
  O  O50  1  0.387650  0.364282  0.857237  1
  O  O51  1  0.887650  0.135718  0.142763  1
  O  O52  1  0.387650  0.135718  0.357237  1
  O  O53  1  0.887650  0.364282  0.642763  1
  O  O54  1  0.612350  0.635718  0.142763  1
  O  O55  1  0.112350  0.864282  0.857237  1
  O  O56  1  0.966416  0.954016  0.648432  1
  O  O57  1  0.466416  0.545984  0.351568  1
  O  O58  1  0.033584  0.454016  0.851568  1
  O  O59  1  0.533584  0.045984  0.148432  1
  O  O60  1  0.033584  0.045984  0.351568  1
  O  O61  1  0.533584  0.454016  0.648432  1
  O  O62  1  0.966416  0.545984  0.148432  1
  O  O63  1  0.466416  0.954016  0.851568  1
  O  O64  1  0.471629  0.879922  0.277274  1
  O  O65  1  0.971629  0.620078  0.722726  1
  O  O66  1  0.528371  0.379922  0.222726  1
  O  O67  1  0.028371  0.120078  0.777274  1
  O  O68  1  0.528371  0.120078  0.722726  1
  O  O69  1  0.028371  0.379922  0.277274  1
  O  O70  1  0.471629  0.620078  0.777274  1
  O  O71  1  0.971629  0.879922  0.222726  1
  O  O72  1  0.721996  0.108660  0.277394  1
  O  O73  1  0.221996  0.391340  0.722606  1
  O  O74  1  0.278004  0.608660  0.222606  1
  O  O75  1  0.778004  0.891340  0.777394  1
  O  O76  1  0.278004  0.891340  0.722606  1
  O  O77  1  0.778004  0.608660  0.277394  1
  O  O78  1  0.721996  0.391340  0.777394  1
  O  O79  1  0.221996  0.108660  0.222606  1
