# generated using pymatgen
data_Na3Ni2P2(CO7)2
_symmetry_space_group_name_H-M   'P 1'
_cell_length_a   8.80231927
_cell_length_b   6.49951614
_cell_length_c   10.27206499
_cell_angle_alpha   90.00000000
_cell_angle_beta   91.62891473
_cell_angle_gamma   90.00000000
_symmetry_Int_Tables_number   1
_chemical_formula_structural   Na3Ni2P2(CO7)2
_chemical_formula_sum   'Na6 Ni4 P4 C4 O28'
_cell_volume   587.43574114
_cell_formula_units_Z   2
loop_
 _symmetry_equiv_pos_site_id
 _symmetry_equiv_pos_as_xyz
  1  'x, y, z'
loop_
 _atom_site_type_symbol
 _atom_site_label
 _atom_site_symmetry_multiplicity
 _atom_site_fract_x
 _atom_site_fract_y
 _atom_site_fract_z
 _atom_site_occupancy
  Na  Na0  1  0.743558  0.985331  0.127029  1
  Na  Na1  1  0.744368  0.512468  0.124255  1
  Na  Na2  1  0.743575  0.528223  0.622199  1
  Na  Na3  1  0.256425  0.028223  0.377801  1
  Na  Na4  1  0.256442  0.485331  0.872971  1
  Na  Na5  1  0.255632  0.012468  0.875745  1
  Ni  Ni6  1  0.657473  0.245398  0.393267  1
  Ni  Ni7  1  0.656660  0.245456  0.888029  1
  Ni  Ni8  1  0.343340  0.745456  0.111971  1
  Ni  Ni9  1  0.342527  0.745398  0.606733  1
  P  P10  1  0.574935  0.749273  0.360097  1
  P  P11  1  0.576519  0.748247  0.859662  1
  P  P12  1  0.423481  0.248247  0.140338  1
  P  P13  1  0.425065  0.249273  0.639903  1
  C  C14  1  0.929685  0.253650  0.357067  1
  C  C15  1  0.928238  0.249103  0.855991  1
  C  C16  1  0.071762  0.749103  0.144009  1
  C  C17  1  0.070315  0.753650  0.642933  1
  O  O18  1  0.931481  0.749519  0.160099  1
  O  O19  1  0.931950  0.752993  0.664312  1
  O  O20  1  0.872781  0.255487  0.471231  1
  O  O21  1  0.867467  0.246505  0.970206  1
  O  O22  1  0.826115  0.251135  0.262684  1
  O  O23  1  0.827271  0.251304  0.761702  1
  O  O24  1  0.680228  0.935235  0.386784  1
  O  O25  1  0.675926  0.562108  0.395283  1
  O  O26  1  0.675640  0.934616  0.898920  1
  O  O27  1  0.677800  0.561278  0.896050  1
  O  O28  1  0.574878  0.247651  0.066417  1
  O  O29  1  0.574115  0.256989  0.567404  1
  O  O30  1  0.536813  0.745753  0.209629  1
  O  O31  1  0.533701  0.742124  0.712439  1
  O  O32  1  0.466299  0.242124  0.287561  1
  O  O33  1  0.463187  0.245753  0.790371  1
  O  O34  1  0.425885  0.756989  0.432596  1
  O  O35  1  0.425122  0.747651  0.933583  1
  O  O36  1  0.324360  0.434616  0.101080  1
  O  O37  1  0.322200  0.061278  0.103950  1
  O  O38  1  0.319772  0.435235  0.613216  1
  O  O39  1  0.324074  0.062108  0.604717  1
  O  O40  1  0.172729  0.751304  0.238298  1
  O  O41  1  0.173885  0.751135  0.737316  1
  O  O42  1  0.132533  0.746505  0.029794  1
  O  O43  1  0.127219  0.755487  0.528769  1
  O  O44  1  0.068050  0.252993  0.335688  1
  O  O45  1  0.068519  0.249519  0.839901  1
