# generated using pymatgen
data_Li2Cr4O13
_symmetry_space_group_name_H-M   'P 1'
_cell_length_a   7.76145538
_cell_length_b   8.24202243
_cell_length_c   12.24301432
_cell_angle_alpha   95.19895393
_cell_angle_beta   107.73046675
_cell_angle_gamma   94.00735666
_symmetry_Int_Tables_number   1
_chemical_formula_structural   Li2Cr4O13
_chemical_formula_sum   'Li6 Cr12 O39'
_cell_volume   738.98296499
_cell_formula_units_Z   3
loop_
 _symmetry_equiv_pos_site_id
 _symmetry_equiv_pos_as_xyz
  1  'x, y, z'
loop_
 _atom_site_type_symbol
 _atom_site_label
 _atom_site_symmetry_multiplicity
 _atom_site_fract_x
 _atom_site_fract_y
 _atom_site_fract_z
 _atom_site_occupancy
  Li  Li0  1  0.772170  0.114822  0.623631  1
  Li  Li1  1  0.190133  0.087127  0.632505  1
  Li  Li2  1  0.295776  0.512116  0.006704  1
  Li  Li3  1  0.704224  0.487884  0.993296  1
  Li  Li4  1  0.809867  0.912873  0.367495  1
  Li  Li5  1  0.227830  0.885178  0.376369  1
  Cr  Cr6  1  0.957450  0.163039  0.955282  1
  Cr  Cr7  1  0.352911  0.155679  0.958590  1
  Cr  Cr8  1  0.524919  0.217218  0.353381  1
  Cr  Cr9  1  0.134820  0.235180  0.360298  1
  Cr  Cr10  1  0.512548  0.429186  0.652001  1
  Cr  Cr11  1  0.115648  0.440453  0.643758  1
  Cr  Cr12  1  0.884352  0.559547  0.356242  1
  Cr  Cr13  1  0.487452  0.570814  0.347999  1
  Cr  Cr14  1  0.865180  0.764820  0.639702  1
  Cr  Cr15  1  0.475081  0.782782  0.646619  1
  Cr  Cr16  1  0.647089  0.844321  0.041410  1
  Cr  Cr17  1  0.042550  0.836961  0.044718  1
  O  O18  1  0.148459  0.006218  0.994241  1
  O  O19  1  0.882231  0.138236  0.816153  1
  O  O20  1  0.500000  0.000000  0.000000  1
  O  O21  1  0.671783  0.090022  0.408105  1
  O  O22  1  0.284251  0.123289  0.819688  1
  O  O23  1  0.334007  0.115001  0.389295  1
  O  O24  1  0.024096  0.084862  0.398412  1
  O  O25  1  0.972672  0.276373  0.617046  1
  O  O26  1  0.463047  0.181658  0.215748  1
  O  O27  1  0.605711  0.285094  0.598134  1
  O  O28  1  0.286033  0.310185  0.611419  1
  O  O29  1  0.059684  0.226289  0.223762  1
  O  O30  1  0.865709  0.314418  0.001151  1
  O  O31  1  0.584836  0.440205  0.790447  1
  O  O32  1  0.181496  0.283106  0.989133  1
  O  O33  1  0.499746  0.318031  0.996139  1
  O  O34  1  0.671127  0.411123  0.386664  1
  O  O35  1  0.371898  0.392352  0.385099  1
  O  O36  1  0.034918  0.408134  0.411333  1
  O  O37  1  0.184327  0.486444  0.780599  1
  O  O38  1  0.815673  0.513556  0.219401  1
  O  O39  1  0.965082  0.591866  0.588667  1
  O  O40  1  0.628102  0.607648  0.614901  1
  O  O41  1  0.328873  0.588877  0.613336  1
  O  O42  1  0.500254  0.681969  0.003861  1
  O  O43  1  0.818504  0.716894  0.010867  1
  O  O44  1  0.415164  0.559795  0.209553  1
  O  O45  1  0.134291  0.685582  0.998849  1
  O  O46  1  0.940316  0.773711  0.776238  1
  O  O47  1  0.713967  0.689815  0.388581  1
  O  O48  1  0.394289  0.714906  0.401866  1
  O  O49  1  0.536953  0.818342  0.784252  1
  O  O50  1  0.027328  0.723627  0.382954  1
  O  O51  1  0.975904  0.915138  0.601588  1
  O  O52  1  0.665993  0.884999  0.610705  1
  O  O53  1  0.715749  0.876711  0.180312  1
  O  O54  1  0.328217  0.909978  0.591895  1
  O  O55  1  0.117769  0.861764  0.183847  1
  O  O56  1  0.851541  0.993782  0.005759  1
