# generated using pymatgen
data_Li3V4(OF3)3
_symmetry_space_group_name_H-M   'P 1'
_cell_length_a   5.95624873
_cell_length_b   5.97361406
_cell_length_c   6.08676357
_cell_angle_alpha   99.09553631
_cell_angle_beta   99.68698133
_cell_angle_gamma   99.65221121
_symmetry_Int_Tables_number   1
_chemical_formula_structural   Li3V4(OF3)3
_chemical_formula_sum   'Li3 V4 O3 F9'
_cell_volume   206.55569705
_cell_formula_units_Z   1
loop_
 _symmetry_equiv_pos_site_id
 _symmetry_equiv_pos_as_xyz
  1  'x, y, z'
loop_
 _atom_site_type_symbol
 _atom_site_label
 _atom_site_symmetry_multiplicity
 _atom_site_fract_x
 _atom_site_fract_y
 _atom_site_fract_z
 _atom_site_occupancy
  Li  Li0  1  0.015798  0.991904  0.007420  1
  Li  Li1  1  0.863853  0.670550  0.391236  1
  Li  Li2  1  0.290460  0.592785  0.114202  1
  V  V3  1  0.670908  0.404838  0.842281  1
  V  V4  1  0.140159  0.326623  0.610972  1
  V  V5  1  0.607069  0.149093  0.336177  1
  V  V6  1  0.396475  0.853811  0.675025  1
  O  O7  1  0.412961  0.170843  0.572192  1
  O  O8  1  0.412372  0.575961  0.798667  1
  O  O9  1  0.819223  0.406738  0.581420  1
  F  F10  1  0.664613  0.074363  0.914623  1
  F  F11  1  0.086553  0.311712  0.926842  1
  F  F12  1  0.943428  0.112818  0.313329  1
  F  F13  1  0.186330  0.583264  0.411783  1
  F  F14  1  0.083030  0.907552  0.692547  1
  F  F15  1  0.558982  0.409815  0.172816  1
  F  F16  1  0.624170  0.844401  0.466407  1
  F  F17  1  0.886539  0.676302  0.048354  1
  F  F18  1  0.337077  0.936628  0.123708  1
