# generated using pymatgen
data_SiO2
_symmetry_space_group_name_H-M   'P 1'
_cell_length_a   5.22988766
_cell_length_b   5.22988766
_cell_length_c   8.33443500
_cell_angle_alpha   90.00000000
_cell_angle_beta   90.00000000
_cell_angle_gamma   121.78019904
_symmetry_Int_Tables_number   1
_chemical_formula_structural   SiO2
_chemical_formula_sum   'Si4 O8'
_cell_volume   193.78403892
_cell_formula_units_Z   4
loop_
 _symmetry_equiv_pos_site_id
 _symmetry_equiv_pos_as_xyz
  1  'x, y, z'
loop_
 _atom_site_type_symbol
 _atom_site_label
 _atom_site_symmetry_multiplicity
 _atom_site_fract_x
 _atom_site_fract_y
 _atom_site_fract_z
 _atom_site_occupancy
  Si  Si0  1  0.413435  0.747690  0.562524  1
  Si  Si1  1  0.747690  0.413435  0.437476  1
  Si  Si2  1  0.586565  0.252310  0.062524  1
  Si  Si3  1  0.252310  0.586565  0.937476  1
  O  O4  1  0.110402  0.624641  0.456125  1
  O  O5  1  0.624641  0.110402  0.543875  1
  O  O6  1  0.889598  0.375359  0.956125  1
  O  O7  1  0.375359  0.889598  0.043875  1
  O  O8  1  0.669790  0.330211  0.250000  1
  O  O9  1  0.330210  0.669790  0.750000  1
  O  O10  1  0.403636  0.403636  0.000000  1
  O  O11  1  0.596364  0.596364  0.500000  1
