# generated using pymatgen
data_Li2FeF5
_symmetry_space_group_name_H-M   'P 1'
_cell_length_a   5.27195793
_cell_length_b   5.71172907
_cell_length_c   7.01451452
_cell_angle_alpha   106.65678389
_cell_angle_beta   93.29301397
_cell_angle_gamma   114.36611857
_symmetry_Int_Tables_number   1
_chemical_formula_structural   Li2FeF5
_chemical_formula_sum   'Li4 Fe2 F10'
_cell_volume   180.55908976
_cell_formula_units_Z   2
loop_
 _symmetry_equiv_pos_site_id
 _symmetry_equiv_pos_as_xyz
  1  'x, y, z'
loop_
 _atom_site_type_symbol
 _atom_site_label
 _atom_site_symmetry_multiplicity
 _atom_site_fract_x
 _atom_site_fract_y
 _atom_site_fract_z
 _atom_site_occupancy
  Li  Li0  1  0.500000  0.000000  0.500000  1
  Li  Li1  1  0.190555  0.330178  0.228343  1
  Li  Li2  1  0.809445  0.669822  0.771657  1
  Li  Li3  1  0.489119  0.992482  0.000295  1
  Fe  Fe4  1  0.877082  0.749107  0.275061  1
  Fe  Fe5  1  0.122918  0.250893  0.724939  1
  F  F6  1  0.566820  0.390588  0.182739  1
  F  F7  1  0.843636  0.349915  0.632438  1
  F  F8  1  0.199860  0.151666  0.431712  1
  F  F9  1  0.156364  0.650085  0.367562  1
  F  F10  1  0.348605  0.067338  0.764519  1
  F  F11  1  0.800140  0.848334  0.568288  1
  F  F12  1  0.968238  0.210768  0.961227  1
  F  F13  1  0.031762  0.789232  0.038773  1
  F  F14  1  0.433180  0.609412  0.817261  1
  F  F15  1  0.651395  0.932662  0.235481  1
