# generated using pymatgen
data_Li13Mn3(SbO8)2
_symmetry_space_group_name_H-M   'P 1'
_cell_length_a   6.01904185
_cell_length_b   6.01904185
_cell_length_c   10.01915791
_cell_angle_alpha   88.95272940
_cell_angle_beta   91.04727060
_cell_angle_gamma   119.22380732
_symmetry_Int_Tables_number   1
_chemical_formula_structural   Li13Mn3(SbO8)2
_chemical_formula_sum   'Li13 Mn3 Sb2 O16'
_cell_volume   316.71090265
_cell_formula_units_Z   1
loop_
 _symmetry_equiv_pos_site_id
 _symmetry_equiv_pos_as_xyz
  1  'x, y, z'
loop_
 _atom_site_type_symbol
 _atom_site_label
 _atom_site_symmetry_multiplicity
 _atom_site_fract_x
 _atom_site_fract_y
 _atom_site_fract_z
 _atom_site_occupancy
  Li  Li0  1  0.657326  0.737463  0.224522  1
  Li  Li1  1  0.586471  0.819586  0.984144  1
  Li  Li2  1  0.262537  0.342674  0.224522  1
  Li  Li3  1  0.886700  0.113300  0.492396  1
  Li  Li4  1  0.180414  0.413529  0.984144  1
  Li  Li5  1  0.995445  0.004555  0.010590  1
  Li  Li6  1  0.332338  0.667662  0.753663  1
  Li  Li7  1  0.827843  0.172157  0.256680  1
  Li  Li8  1  0.830617  0.169383  0.735398  1
  Li  Li9  1  0.182751  0.817249  0.947564  1
  Li  Li10  1  0.677043  0.322957  0.431626  1
  Li  Li11  1  0.881223  0.718303  0.448303  1
  Li  Li12  1  0.281697  0.118777  0.448303  1
  Mn  Mn13  1  0.832731  0.662342  0.717432  1
  Mn  Mn14  1  0.337658  0.167269  0.717432  1
  Mn  Mn15  1  0.176806  0.823194  0.216079  1
  Sb  Sb16  1  0.350129  0.649871  0.480794  1
  Sb  Sb17  1  0.659671  0.340329  0.982230  1
  O  O18  1  0.671009  0.815652  0.598362  1
  O  O19  1  0.505825  0.494175  0.370680  1
  O  O20  1  0.184348  0.328991  0.598362  1
  O  O21  1  0.503293  0.973245  0.365338  1
  O  O22  1  0.326306  0.673694  0.114897  1
  O  O23  1  0.830043  0.169957  0.069539  1
  O  O24  1  0.026755  0.496707  0.365338  1
  O  O25  1  0.186300  0.813700  0.588963  1
  O  O26  1  0.966693  0.500653  0.850740  1
  O  O27  1  0.014257  0.985743  0.316507  1
  O  O28  1  0.838993  0.666703  0.085166  1
  O  O29  1  0.017553  0.982447  0.813994  1
  O  O30  1  0.658475  0.341525  0.623890  1
  O  O31  1  0.499347  0.033307  0.850740  1
  O  O32  1  0.333297  0.161007  0.085166  1
  O  O33  1  0.496112  0.503888  0.867404  1
