# generated using pymatgen
data_Hf3Zn3C
_symmetry_space_group_name_H-M   'P 1'
_cell_length_a   8.56770402
_cell_length_b   8.56770402
_cell_length_c   8.56770402
_cell_angle_alpha   60.00000000
_cell_angle_beta   60.00000000
_cell_angle_gamma   60.00000000
_symmetry_Int_Tables_number   1
_chemical_formula_structural   Hf3Zn3C
_chemical_formula_sum   'Hf12 Zn12 C4'
_cell_volume   444.71150655
_cell_formula_units_Z   4
loop_
 _symmetry_equiv_pos_site_id
 _symmetry_equiv_pos_as_xyz
  1  'x, y, z'
loop_
 _atom_site_type_symbol
 _atom_site_label
 _atom_site_symmetry_multiplicity
 _atom_site_fract_x
 _atom_site_fract_y
 _atom_site_fract_z
 _atom_site_occupancy
  Hf  Hf0  1  0.811979  0.188021  0.188021  1
  Hf  Hf1  1  0.188021  0.811979  0.188021  1
  Hf  Hf2  1  0.811979  0.811979  0.188021  1
  Hf  Hf3  1  0.188021  0.811979  0.811979  1
  Hf  Hf4  1  0.811979  0.188021  0.811979  1
  Hf  Hf5  1  0.188021  0.188021  0.811979  1
  Hf  Hf6  1  0.438021  0.061979  0.061979  1
  Hf  Hf7  1  0.061979  0.438021  0.061979  1
  Hf  Hf8  1  0.438021  0.438021  0.061979  1
  Hf  Hf9  1  0.061979  0.438021  0.438021  1
  Hf  Hf10  1  0.438021  0.061979  0.438021  1
  Hf  Hf11  1  0.061979  0.061979  0.438021  1
  Zn  Zn12  1  0.418291  0.418291  0.745128  1
  Zn  Zn13  1  0.418291  0.418291  0.418291  1
  Zn  Zn14  1  0.745128  0.418291  0.418291  1
  Zn  Zn15  1  0.418291  0.745128  0.418291  1
  Zn  Zn16  1  0.831709  0.831709  0.504872  1
  Zn  Zn17  1  0.831709  0.831709  0.831709  1
  Zn  Zn18  1  0.504872  0.831709  0.831709  1
  Zn  Zn19  1  0.831709  0.504872  0.831709  1
  Zn  Zn20  1  0.625000  0.625000  0.125000  1
  Zn  Zn21  1  0.625000  0.625000  0.625000  1
  Zn  Zn22  1  0.125000  0.625000  0.625000  1
  Zn  Zn23  1  0.625000  0.125000  0.625000  1
  C  C24  1  0.125000  0.125000  0.625000  1
  C  C25  1  0.125000  0.125000  0.125000  1
  C  C26  1  0.625000  0.125000  0.125000  1
  C  C27  1  0.125000  0.625000  0.125000  1
