# generated using pymatgen
data_Li2VO2F
_symmetry_space_group_name_H-M   'P 1'
_cell_length_a   5.15687323
_cell_length_b   5.15687323
_cell_length_c   5.87411117
_cell_angle_alpha   72.28201979
_cell_angle_beta   107.71798021
_cell_angle_gamma   131.77957645
_symmetry_Int_Tables_number   1
_chemical_formula_structural   Li2VO2F
_chemical_formula_sum   'Li4 V2 O4 F2'
_cell_volume   109.82390558
_cell_formula_units_Z   2
loop_
 _symmetry_equiv_pos_site_id
 _symmetry_equiv_pos_as_xyz
  1  'x, y, z'
loop_
 _atom_site_type_symbol
 _atom_site_label
 _atom_site_symmetry_multiplicity
 _atom_site_fract_x
 _atom_site_fract_y
 _atom_site_fract_z
 _atom_site_occupancy
  Li  Li0  1  0.166319  0.833681  0.831722  1
  Li  Li1  1  0.833681  0.166319  0.168278  1
  Li  Li2  1  0.500000  0.500000  0.500000  1
  Li  Li3  1  0.500000  0.500000  0.000000  1
  V  V4  1  0.848002  0.151998  0.664803  1
  V  V5  1  0.151998  0.848002  0.335197  1
  O  O6  1  0.000000  0.000000  0.500000  1
  O  O7  1  0.000000  0.000000  0.000000  1
  O  O8  1  0.326119  0.673881  0.648214  1
  O  O9  1  0.673881  0.326119  0.351786  1
  F  F10  1  0.679622  0.320378  0.834681  1
  F  F11  1  0.320378  0.679622  0.165319  1
