# generated using pymatgen
data_ErTiO3
_symmetry_space_group_name_H-M   'P 1'
_cell_length_a   5.30388272
_cell_length_b   5.68893648
_cell_length_c   7.66029379
_cell_angle_alpha   90.00000000
_cell_angle_beta   90.00000000
_cell_angle_gamma   90.00000000
_symmetry_Int_Tables_number   1
_chemical_formula_structural   ErTiO3
_chemical_formula_sum   'Er4 Ti4 O12'
_cell_volume   231.13750632
_cell_formula_units_Z   4
loop_
 _symmetry_equiv_pos_site_id
 _symmetry_equiv_pos_as_xyz
  1  'x, y, z'
loop_
 _atom_site_type_symbol
 _atom_site_label
 _atom_site_symmetry_multiplicity
 _atom_site_fract_x
 _atom_site_fract_y
 _atom_site_fract_z
 _atom_site_occupancy
  Er  Er0  1  0.023066  0.926055  0.250000  1
  Er  Er1  1  0.476934  0.426055  0.250000  1
  Er  Er2  1  0.523066  0.573945  0.750000  1
  Er  Er3  1  0.976934  0.073945  0.750000  1
  Ti  Ti4  1  0.000000  0.500000  0.500000  1
  Ti  Ti5  1  0.000000  0.500000  0.000000  1
  Ti  Ti6  1  0.500000  0.000000  0.500000  1
  Ti  Ti7  1  0.500000  0.000000  0.000000  1
  O  O8  1  0.127044  0.451039  0.750000  1
  O  O9  1  0.187413  0.194928  0.060648  1
  O  O10  1  0.187413  0.194928  0.439352  1
  O  O11  1  0.312587  0.694928  0.060648  1
  O  O12  1  0.312587  0.694928  0.439352  1
  O  O13  1  0.372956  0.951039  0.750000  1
  O  O14  1  0.627044  0.048961  0.250000  1
  O  O15  1  0.687413  0.305072  0.560648  1
  O  O16  1  0.687413  0.305072  0.939352  1
  O  O17  1  0.812587  0.805072  0.560648  1
  O  O18  1  0.812587  0.805072  0.939352  1
  O  O19  1  0.872956  0.548961  0.250000  1
