# generated using pymatgen
data_Tl16O15F17
_symmetry_space_group_name_H-M   'P 1'
_cell_length_a   9.66335249
_cell_length_b   9.66335249
_cell_length_c   9.67471957
_cell_angle_alpha   70.37399826
_cell_angle_beta   109.62600174
_cell_angle_gamma   70.97909230
_symmetry_Int_Tables_number   1
_chemical_formula_structural   Tl16O15F17
_chemical_formula_sum   'Tl16 O15 F17'
_cell_volume   696.64599837
_cell_formula_units_Z   1
loop_
 _symmetry_equiv_pos_site_id
 _symmetry_equiv_pos_as_xyz
  1  'x, y, z'
loop_
 _atom_site_type_symbol
 _atom_site_label
 _atom_site_symmetry_multiplicity
 _atom_site_fract_x
 _atom_site_fract_y
 _atom_site_fract_z
 _atom_site_occupancy
  Tl  Tl0  1  0.247764  0.999139  0.728699  1
  Tl  Tl1  1  0.000861  0.752236  0.728699  1
  Tl  Tl2  1  0.978402  0.021598  0.000851  1
  Tl  Tl3  1  0.030913  0.469366  0.512775  1
  Tl  Tl4  1  0.530634  0.969087  0.512775  1
  Tl  Tl5  1  0.237869  0.762131  0.502195  1
  Tl  Tl6  1  0.761699  0.987574  0.265358  1
  Tl  Tl7  1  0.485531  0.229272  0.733874  1
  Tl  Tl8  1  0.770728  0.514469  0.733874  1
  Tl  Tl9  1  0.012426  0.238301  0.265358  1
  Tl  Tl10  1  0.235578  0.496124  0.259902  1
  Tl  Tl11  1  0.503876  0.764422  0.259902  1
  Tl  Tl12  1  0.760175  0.737231  0.986640  1
  Tl  Tl13  1  0.262769  0.239825  0.986640  1
  Tl  Tl14  1  0.473509  0.526491  0.987635  1
  Tl  Tl15  1  0.785649  0.214351  0.524666  1
  O  O16  1  0.988321  0.011679  0.784283  1
  O  O17  1  0.245080  0.754920  0.777075  1
  O  O18  1  0.950753  0.049247  0.206703  1
  O  O19  1  0.256019  0.986411  0.492944  1
  O  O20  1  0.013589  0.743981  0.492944  1
  O  O21  1  0.533195  0.971568  0.747266  1
  O  O22  1  0.028432  0.466805  0.747266  1
  O  O23  1  0.262565  0.468997  0.502091  1
  O  O24  1  0.531003  0.737435  0.502091  1
  O  O25  1  0.755900  0.001923  0.494574  1
  O  O26  1  0.998077  0.244100  0.494574  1
  O  O27  1  0.280718  0.195389  0.774081  1
  O  O28  1  0.505235  0.016654  0.216302  1
  O  O29  1  0.804611  0.719282  0.774081  1
  O  O30  1  0.983346  0.494765  0.216302  1
  F  F31  1  0.242516  0.991203  0.035680  1
  F  F32  1  0.008797  0.757484  0.035680  1
  F  F33  1  0.237325  0.762675  0.268668  1
  F  F34  1  0.470616  0.529384  0.727730  1
  F  F35  1  0.445744  0.554256  0.223048  1
  F  F36  1  0.720311  0.001557  0.999452  1
  F  F37  1  0.238728  0.492193  0.022781  1
  F  F38  1  0.998443  0.279689  0.999452  1
  F  F39  1  0.507807  0.761272  0.022781  1
  F  F40  1  0.719505  0.280495  0.762852  1
  F  F41  1  0.741492  0.474670  0.492045  1
  F  F42  1  0.525330  0.258508  0.492045  1
  F  F43  1  0.769049  0.721211  0.271975  1
  F  F44  1  0.278789  0.230951  0.271975  1
  F  F45  1  0.692748  0.307252  0.227670  1
  F  F46  1  0.705761  0.518186  0.966872  1
  F  F47  1  0.481814  0.294239  0.966872  1
