# generated using pymatgen
data_Sc16O15
_symmetry_space_group_name_H-M   'P 1'
_cell_length_a   11.00268072
_cell_length_b   11.00268072
_cell_length_c   11.00268072
_cell_angle_alpha   33.48518059
_cell_angle_beta   33.48518059
_cell_angle_gamma   33.48518059
_symmetry_Int_Tables_number   1
_chemical_formula_structural   Sc16O15
_chemical_formula_sum   'Sc16 O15'
_cell_volume   361.09915863
_cell_formula_units_Z   1
loop_
 _symmetry_equiv_pos_site_id
 _symmetry_equiv_pos_as_xyz
  1  'x, y, z'
loop_
 _atom_site_type_symbol
 _atom_site_label
 _atom_site_symmetry_multiplicity
 _atom_site_fract_x
 _atom_site_fract_y
 _atom_site_fract_z
 _atom_site_occupancy
  Sc  Sc0  1  0.126291  0.621546  0.126291  1
  Sc  Sc1  1  0.621546  0.126291  0.126291  1
  Sc  Sc2  1  0.873709  0.873709  0.378454  1
  Sc  Sc3  1  0.374801  0.374801  0.374801  1
  Sc  Sc4  1  0.625199  0.625199  0.625199  1
  Sc  Sc5  1  0.126291  0.126291  0.621546  1
  Sc  Sc6  1  0.125258  0.624397  0.624397  1
  Sc  Sc7  1  0.624397  0.125258  0.624397  1
  Sc  Sc8  1  0.873709  0.378454  0.873709  1
  Sc  Sc9  1  0.378454  0.873709  0.873709  1
  Sc  Sc10  1  0.875367  0.875367  0.875367  1
  Sc  Sc11  1  0.624397  0.624397  0.125258  1
  Sc  Sc12  1  0.375603  0.375603  0.874742  1
  Sc  Sc13  1  0.124633  0.124633  0.124633  1
  Sc  Sc14  1  0.874742  0.375603  0.375603  1
  Sc  Sc15  1  0.375603  0.874742  0.375603  1
  O  O16  1  0.500000  0.500000  1.000000  1
  O  O17  1  0.000000  0.500000  0.500000  1
  O  O18  1  0.749023  0.251001  0.251001  1
  O  O19  1  0.251001  0.749023  0.251001  1
  O  O20  1  0.500000  0.000000  0.500000  1
  O  O21  1  0.000000  0.000000  0.500000  1
  O  O22  1  0.750420  0.750420  0.750420  1
  O  O23  1  0.251001  0.251001  0.749023  1
  O  O24  1  0.500000  0.500000  0.500000  1
  O  O25  1  0.748999  0.250977  0.748999  1
  O  O26  1  0.000000  0.500000  1.000000  1
  O  O27  1  0.250977  0.748999  0.748999  1
  O  O28  1  0.500000  0.000000  1.000000  1
  O  O29  1  0.249580  0.249580  0.249580  1
  O  O30  1  0.748999  0.748999  0.250977  1
