# generated using pymatgen
data_Li8CoO5F
_symmetry_space_group_name_H-M   'P 1'
_cell_length_a   5.54506093
_cell_length_b   10.93619589
_cell_length_c   5.56834655
_cell_angle_alpha   90.00000000
_cell_angle_beta   119.52824277
_cell_angle_gamma   90.00000000
_symmetry_Int_Tables_number   1
_chemical_formula_structural   Li8CoO5F
_chemical_formula_sum   'Li16 Co2 O10 F2'
_cell_volume   293.81532674
_cell_formula_units_Z   2
loop_
 _symmetry_equiv_pos_site_id
 _symmetry_equiv_pos_as_xyz
  1  'x, y, z'
loop_
 _atom_site_type_symbol
 _atom_site_label
 _atom_site_symmetry_multiplicity
 _atom_site_fract_x
 _atom_site_fract_y
 _atom_site_fract_z
 _atom_site_occupancy
  Li  Li0  1  0.813575  0.227406  0.027629  1
  Li  Li1  1  0.858774  0.879441  0.982660  1
  Li  Li2  1  0.141226  0.379441  0.017340  1
  Li  Li3  1  0.186425  0.727406  0.972371  1
  Li  Li4  1  0.834809  0.586353  0.674457  1
  Li  Li5  1  0.829595  0.075127  0.671501  1
  Li  Li6  1  0.209422  0.227527  0.692566  1
  Li  Li7  1  0.114117  0.877697  0.637139  1
  Li  Li8  1  0.885883  0.377697  0.362861  1
  Li  Li9  1  0.519603  0.728102  0.712105  1
  Li  Li10  1  0.790578  0.727527  0.307434  1
  Li  Li11  1  0.480233  0.377974  0.619631  1
  Li  Li12  1  0.165191  0.086353  0.325543  1
  Li  Li13  1  0.170405  0.575127  0.328499  1
  Li  Li14  1  0.519767  0.877974  0.380369  1
  Li  Li15  1  0.480397  0.228102  0.287895  1
  Co  Co16  1  0.493556  0.012193  0.997424  1
  Co  Co17  1  0.506444  0.512193  0.002576  1
  O  O18  1  0.823986  0.052526  0.007952  1
  O  O19  1  0.176014  0.552526  0.992048  1
  O  O20  1  0.830414  0.786780  0.668441  1
  O  O21  1  0.500073  0.328542  0.001479  1
  O  O22  1  0.499927  0.828542  0.998521  1
  O  O23  1  0.176595  0.051113  0.683111  1
  O  O24  1  0.491361  0.552018  0.677627  1
  O  O25  1  0.823405  0.551113  0.316889  1
  O  O26  1  0.169586  0.286780  0.331559  1
  O  O27  1  0.508639  0.052018  0.322373  1
  F  F28  1  0.833701  0.289981  0.669936  1
  F  F29  1  0.166299  0.789981  0.330064  1
