# generated using pymatgen
data_BaCaI4
_symmetry_space_group_name_H-M   'P 1'
_cell_length_a   10.83946421
_cell_length_b   10.86842191
_cell_length_c   20.81730195
_cell_angle_alpha   90.00000000
_cell_angle_beta   116.38839209
_cell_angle_gamma   90.00000000
_symmetry_Int_Tables_number   1
_chemical_formula_structural   BaCaI4
_chemical_formula_sum   'Ba8 Ca8 I32'
_cell_volume   2196.90202253
_cell_formula_units_Z   8
loop_
 _symmetry_equiv_pos_site_id
 _symmetry_equiv_pos_as_xyz
  1  'x, y, z'
loop_
 _atom_site_type_symbol
 _atom_site_label
 _atom_site_symmetry_multiplicity
 _atom_site_fract_x
 _atom_site_fract_y
 _atom_site_fract_z
 _atom_site_occupancy
  Ba  Ba0  1  0.242310  0.971743  0.848527  1
  Ba  Ba1  1  0.685863  0.706875  0.857061  1
  Ba  Ba2  1  0.757690  0.471743  0.651473  1
  Ba  Ba3  1  0.314137  0.206875  0.642939  1
  Ba  Ba4  1  0.685863  0.793125  0.357061  1
  Ba  Ba5  1  0.242310  0.528257  0.348527  1
  Ba  Ba6  1  0.314137  0.293125  0.142939  1
  Ba  Ba7  1  0.757690  0.028257  0.151473  1
  Ca  Ca8  1  0.275941  0.451909  0.917249  1
  Ca  Ca9  1  0.843381  0.166294  0.919255  1
  Ca  Ca10  1  0.724059  0.951909  0.582751  1
  Ca  Ca11  1  0.156619  0.666294  0.580745  1
  Ca  Ca12  1  0.843381  0.333706  0.419255  1
  Ca  Ca13  1  0.275941  0.048091  0.417249  1
  Ca  Ca14  1  0.156619  0.833706  0.080745  1
  Ca  Ca15  1  0.724059  0.548091  0.082751  1
  I  I16  1  0.779264  0.431044  0.956132  1
  I  I17  1  0.138954  0.224341  0.943574  1
  I  I18  1  0.465311  0.678781  0.946888  1
  I  I19  1  0.987909  0.895639  0.909326  1
  I  I20  1  0.597708  0.999683  0.897657  1
  I  I21  1  0.001945  0.567075  0.811753  1
  I  I22  1  0.327347  0.280524  0.810788  1
  I  I23  1  0.685156  0.257679  0.761177  1
  I  I24  1  0.314844  0.757679  0.738823  1
  I  I25  1  0.672653  0.780524  0.689212  1
  I  I26  1  0.998055  0.067075  0.688247  1
  I  I27  1  0.402292  0.499683  0.602343  1
  I  I28  1  0.012091  0.395639  0.590674  1
  I  I29  1  0.861046  0.724341  0.556426  1
  I  I30  1  0.534689  0.178781  0.553112  1
  I  I31  1  0.220736  0.931044  0.543868  1
  I  I32  1  0.779264  0.068956  0.456132  1
  I  I33  1  0.465311  0.821219  0.446888  1
  I  I34  1  0.138954  0.275659  0.443574  1
  I  I35  1  0.987909  0.604361  0.409326  1
  I  I36  1  0.597708  0.500317  0.397657  1
  I  I37  1  0.001945  0.932925  0.311753  1
  I  I38  1  0.327347  0.219476  0.310788  1
  I  I39  1  0.685156  0.242321  0.261177  1
  I  I40  1  0.314844  0.742321  0.238823  1
  I  I41  1  0.672653  0.719476  0.189212  1
  I  I42  1  0.998055  0.432925  0.188247  1
  I  I43  1  0.402292  0.000317  0.102343  1
  I  I44  1  0.012091  0.104361  0.090674  1
  I  I45  1  0.534689  0.321219  0.053112  1
  I  I46  1  0.861046  0.775659  0.056426  1
  I  I47  1  0.220736  0.568956  0.043868  1
