# generated using pymatgen
data_Na2TbO3
_symmetry_space_group_name_H-M   'P 1'
_cell_length_a   5.85204135
_cell_length_b   5.91818876
_cell_length_c   8.89292053
_cell_angle_alpha   70.91194575
_cell_angle_beta   72.38773630
_cell_angle_gamma   61.21145279
_symmetry_Int_Tables_number   1
_chemical_formula_structural   Na2TbO3
_chemical_formula_sum   'Na6 Tb3 O9'
_cell_volume   251.13996383
_cell_formula_units_Z   3
loop_
 _symmetry_equiv_pos_site_id
 _symmetry_equiv_pos_as_xyz
  1  'x, y, z'
loop_
 _atom_site_type_symbol
 _atom_site_label
 _atom_site_symmetry_multiplicity
 _atom_site_fract_x
 _atom_site_fract_y
 _atom_site_fract_z
 _atom_site_occupancy
  Na  Na0  1  0.716028  0.051668  0.333959  1
  Na  Na1  1  0.826054  0.847806  0.000720  1
  Na  Na2  1  0.173946  0.152194  0.999280  1
  Na  Na3  1  0.391809  0.724978  0.333748  1
  Na  Na4  1  0.283972  0.948332  0.666041  1
  Na  Na5  1  0.608191  0.275022  0.666252  1
  Tb  Tb6  1  0.500000  0.500000  0.000000  1
  Tb  Tb7  1  0.045023  0.375324  0.333031  1
  Tb  Tb8  1  0.954977  0.624676  0.666969  1
  O  O9  1  0.136227  0.728008  0.162833  1
  O  O10  1  0.863773  0.271992  0.837167  1
  O  O11  1  0.231251  0.557779  0.829489  1
  O  O12  1  0.419157  0.151068  0.168556  1
  O  O13  1  0.580843  0.848932  0.831444  1
  O  O14  1  0.282814  0.353512  0.506241  1
  O  O15  1  0.768749  0.442221  0.170511  1
  O  O16  1  0.717186  0.646488  0.493759  1
  O  O17  1  0.000000  0.000000  0.500000  1
