# generated using pymatgen
data_LiTi6O12
_symmetry_space_group_name_H-M   'P 1'
_cell_length_a   4.93399891
_cell_length_b   5.94244407
_cell_length_c   14.24322392
_cell_angle_alpha   90.00000000
_cell_angle_beta   92.09741265
_cell_angle_gamma   90.00000000
_symmetry_Int_Tables_number   1
_chemical_formula_structural   LiTi6O12
_chemical_formula_sum   'Li2 Ti12 O24'
_cell_volume   417.33172473
_cell_formula_units_Z   2
loop_
 _symmetry_equiv_pos_site_id
 _symmetry_equiv_pos_as_xyz
  1  'x, y, z'
loop_
 _atom_site_type_symbol
 _atom_site_label
 _atom_site_symmetry_multiplicity
 _atom_site_fract_x
 _atom_site_fract_y
 _atom_site_fract_z
 _atom_site_occupancy
  Li  Li0  1  0.931646  0.124771  0.780960  1
  Li  Li1  1  0.931646  0.875229  0.280960  1
  Ti  Ti2  1  0.473883  0.871122  0.845538  1
  Ti  Ti3  1  0.474928  0.378735  0.846223  1
  Ti  Ti4  1  0.474928  0.621265  0.346223  1
  Ti  Ti5  1  0.473883  0.128878  0.345538  1
  Ti  Ti6  1  0.539164  0.624587  0.659996  1
  Ti  Ti7  1  0.501146  0.126039  0.649255  1
  Ti  Ti8  1  0.501146  0.873961  0.149255  1
  Ti  Ti9  1  0.539164  0.375413  0.159996  1
  Ti  Ti10  1  0.998479  0.874696  0.503474  1
  Ti  Ti11  1  0.000437  0.375559  0.499390  1
  Ti  Ti12  1  0.000437  0.624441  0.999390  1
  Ti  Ti13  1  0.998479  0.125304  0.003474  1
  O  O14  1  0.183047  0.372369  0.933006  1
  O  O15  1  0.185014  0.877761  0.933988  1
  O  O16  1  0.183047  0.627631  0.433006  1
  O  O17  1  0.185014  0.122239  0.433988  1
  O  O18  1  0.309222  0.624822  0.774709  1
  O  O19  1  0.300889  0.125160  0.773086  1
  O  O20  1  0.310964  0.869932  0.597102  1
  O  O21  1  0.310706  0.380001  0.596833  1
  O  O22  1  0.309222  0.375178  0.274709  1
  O  O23  1  0.300889  0.874840  0.273086  1
  O  O24  1  0.310706  0.619999  0.096833  1
  O  O25  1  0.310964  0.130068  0.097102  1
  O  O26  1  0.687770  0.625420  0.904431  1
  O  O27  1  0.704730  0.124849  0.897144  1
  O  O28  1  0.699690  0.882152  0.726549  1
  O  O29  1  0.699952  0.367564  0.726581  1
  O  O30  1  0.704730  0.875151  0.397144  1
  O  O31  1  0.687770  0.374580  0.404431  1
  O  O32  1  0.699952  0.632436  0.226581  1
  O  O33  1  0.699690  0.117848  0.226549  1
  O  O34  1  0.814686  0.624841  0.565465  1
  O  O35  1  0.812647  0.124895  0.565870  1
  O  O36  1  0.812647  0.875105  0.065870  1
  O  O37  1  0.814686  0.375159  0.065465  1
