# generated using pymatgen
data_Li3Mn2(CO3)4
_symmetry_space_group_name_H-M   'P 1'
_cell_length_a   5.36627076
_cell_length_b   6.43569600
_cell_length_c   8.61962918
_cell_angle_alpha   84.13828570
_cell_angle_beta   107.27802603
_cell_angle_gamma   114.18138907
_symmetry_Int_Tables_number   1
_chemical_formula_structural   Li3Mn2(CO3)4
_chemical_formula_sum   'Li3 Mn2 C4 O12'
_cell_volume   259.24433681
_cell_formula_units_Z   1
loop_
 _symmetry_equiv_pos_site_id
 _symmetry_equiv_pos_as_xyz
  1  'x, y, z'
loop_
 _atom_site_type_symbol
 _atom_site_label
 _atom_site_symmetry_multiplicity
 _atom_site_fract_x
 _atom_site_fract_y
 _atom_site_fract_z
 _atom_site_occupancy
  Li  Li0  1  0.509720  0.979755  0.348632  1
  Li  Li1  1  0.179157  0.017839  0.646450  1
  Li  Li2  1  0.290229  0.523581  0.858424  1
  Mn  Mn3  1  0.630263  0.492630  0.493250  1
  Mn  Mn4  1  0.911168  0.005445  0.004448  1
  C  C5  1  0.365941  0.412793  0.210248  1
  C  C6  1  0.903915  0.906587  0.300268  1
  C  C7  1  0.697747  0.092752  0.702123  1
  C  C8  1  0.747236  0.592488  0.789128  1
  O  O9  1  0.220229  0.362138  0.062942  1
  O  O10  1  0.698737  0.946065  0.195821  1
  O  O11  1  0.274475  0.466539  0.319079  1
  O  O12  1  0.619318  0.411718  0.269503  1
  O  O13  1  0.120045  0.927399  0.254293  1
  O  O14  1  0.885052  0.849717  0.448347  1
  O  O15  1  0.589085  0.146681  0.554852  1
  O  O16  1  0.954673  0.100237  0.751124  1
  O  O17  1  0.496500  0.528665  0.676861  1
  O  O18  1  0.951614  0.589422  0.740034  1
  O  O19  1  0.545885  0.030802  0.803583  1
  O  O20  1  0.764454  0.651111  0.929051  1
