# generated using pymatgen
data_NaTi8O16
_symmetry_space_group_name_H-M   'P 1'
_cell_length_a   6.04373051
_cell_length_b   6.04373051
_cell_length_c   10.78085646
_cell_angle_alpha   65.89699032
_cell_angle_beta   114.10300968
_cell_angle_gamma   120.71022463
_symmetry_Int_Tables_number   1
_chemical_formula_structural   NaTi8O16
_chemical_formula_sum   'Na1 Ti8 O16'
_cell_volume   298.86060232
_cell_formula_units_Z   1
loop_
 _symmetry_equiv_pos_site_id
 _symmetry_equiv_pos_as_xyz
  1  'x, y, z'
loop_
 _atom_site_type_symbol
 _atom_site_label
 _atom_site_symmetry_multiplicity
 _atom_site_fract_x
 _atom_site_fract_y
 _atom_site_fract_z
 _atom_site_occupancy
  Na  Na0  1  0.130605  0.869395  0.459383  1
  Ti  Ti1  1  0.073332  0.428864  0.352223  1
  Ti  Ti2  1  0.445978  0.554022  0.645753  1
  Ti  Ti3  1  0.959585  0.040415  0.125907  1
  Ti  Ti4  1  0.472281  0.527719  0.141156  1
  Ti  Ti5  1  0.529732  0.960449  0.857752  1
  Ti  Ti6  1  0.039551  0.470268  0.857752  1
  Ti  Ti7  1  0.571136  0.926668  0.352223  1
  Ti  Ti8  1  0.917660  0.082340  0.638973  1
  O  O9  1  0.154199  0.333255  0.230797  1
  O  O10  1  0.450765  0.549235  0.461593  1
  O  O11  1  0.176007  0.823993  0.271309  1
  O  O12  1  0.674625  0.325375  0.266736  1
  O  O13  1  0.055168  0.446535  0.539144  1
  O  O14  1  0.733336  0.758760  0.033457  1
  O  O15  1  0.241240  0.266664  0.033457  1
  O  O16  1  0.346215  0.653785  0.768092  1
  O  O17  1  0.666745  0.845801  0.230797  1
  O  O18  1  0.765825  0.234175  0.963160  1
  O  O19  1  0.266347  0.733653  0.962876  1
  O  O20  1  0.936871  0.063129  0.459752  1
  O  O21  1  0.828035  0.672680  0.726736  1
  O  O22  1  0.327320  0.171965  0.726736  1
  O  O23  1  0.553465  0.944832  0.539144  1
  O  O24  1  0.844945  0.155055  0.770549  1
