# generated using pymatgen
data_Li2MnSiCO7
_symmetry_space_group_name_H-M   'P 1'
_cell_length_a   5.00718998
_cell_length_b   6.31612766
_cell_length_c   8.53499381
_cell_angle_alpha   90.00000000
_cell_angle_beta   92.99308907
_cell_angle_gamma   90.00000000
_symmetry_Int_Tables_number   1
_chemical_formula_structural   Li2MnSiCO7
_chemical_formula_sum   'Li4 Mn2 Si2 C2 O14'
_cell_volume   269.55992525
_cell_formula_units_Z   2
loop_
 _symmetry_equiv_pos_site_id
 _symmetry_equiv_pos_as_xyz
  1  'x, y, z'
loop_
 _atom_site_type_symbol
 _atom_site_label
 _atom_site_symmetry_multiplicity
 _atom_site_fract_x
 _atom_site_fract_y
 _atom_site_fract_z
 _atom_site_occupancy
  Li  Li0  1  0.782470  0.500853  0.233900  1
  Li  Li1  1  0.782470  0.999147  0.233900  1
  Li  Li2  1  0.217530  0.499147  0.766100  1
  Li  Li3  1  0.217530  0.000853  0.766100  1
  Mn  Mn4  1  0.200638  0.250000  0.342127  1
  Mn  Mn5  1  0.799362  0.750000  0.657873  1
  Si  Si6  1  0.289031  0.750000  0.426038  1
  Si  Si7  1  0.710969  0.250000  0.573962  1
  C  C8  1  0.270286  0.250000  0.058868  1
  C  C9  1  0.729714  0.750000  0.941132  1
  O  O10  1  0.699918  0.750000  0.085908  1
  O  O11  1  0.035257  0.250000  0.120878  1
  O  O12  1  0.468712  0.250000  0.166808  1
  O  O13  1  0.185634  0.952649  0.321336  1
  O  O14  1  0.185634  0.547351  0.321336  1
  O  O15  1  0.837137  0.250000  0.399506  1
  O  O16  1  0.617866  0.750000  0.456723  1
  O  O17  1  0.382134  0.250000  0.543277  1
  O  O18  1  0.162863  0.750000  0.600494  1
  O  O19  1  0.814366  0.452649  0.678664  1
  O  O20  1  0.814366  0.047351  0.678664  1
  O  O21  1  0.531288  0.750000  0.833192  1
  O  O22  1  0.964743  0.750000  0.879122  1
  O  O23  1  0.300082  0.250000  0.914092  1
