# generated using pymatgen
data_LiV2O4
_symmetry_space_group_name_H-M   'P 1'
_cell_length_a   5.93753810
_cell_length_b   5.93753810
_cell_length_c   5.93753810
_cell_angle_alpha   120.64239048
_cell_angle_beta   118.69043467
_cell_angle_gamma   90.58699674
_symmetry_Int_Tables_number   1
_chemical_formula_structural   LiV2O4
_chemical_formula_sum   'Li2 V4 O8'
_cell_volume   148.69906909
_cell_formula_units_Z   2
loop_
 _symmetry_equiv_pos_site_id
 _symmetry_equiv_pos_as_xyz
  1  'x, y, z'
loop_
 _atom_site_type_symbol
 _atom_site_label
 _atom_site_symmetry_multiplicity
 _atom_site_fract_x
 _atom_site_fract_y
 _atom_site_fract_z
 _atom_site_occupancy
  Li  Li0  1  0.000000  0.500000  0.000000  1
  Li  Li1  1  0.000000  0.000000  0.500000  1
  V  V2  1  0.000000  0.500000  0.500000  1
  V  V3  1  0.500000  0.500000  0.000000  1
  V  V4  1  0.379631  0.129631  0.250000  1
  V  V5  1  0.620369  0.870369  0.750000  1
  O  O6  1  0.248996  0.740410  0.991415  1
  O  O7  1  0.272620  0.261399  0.011222  1
  O  O8  1  0.750177  0.261399  0.488778  1
  O  O9  1  0.751004  0.742419  0.491415  1
  O  O10  1  0.248996  0.257581  0.508585  1
  O  O11  1  0.249823  0.738601  0.511222  1
  O  O12  1  0.727380  0.738601  0.988778  1
  O  O13  1  0.751004  0.259590  0.008585  1
