# generated using pymatgen
data_ZrH6NOF5
_symmetry_space_group_name_H-M   'P 1'
_cell_length_a   6.87155207
_cell_length_b   7.60824899
_cell_length_c   11.45931432
_cell_angle_alpha   90.00000000
_cell_angle_beta   113.60763120
_cell_angle_gamma   90.00000000
_symmetry_Int_Tables_number   1
_chemical_formula_structural   ZrH6NOF5
_chemical_formula_sum   'Zr4 H24 N4 O4 F20'
_cell_volume   548.95953457
_cell_formula_units_Z   4
loop_
 _symmetry_equiv_pos_site_id
 _symmetry_equiv_pos_as_xyz
  1  'x, y, z'
loop_
 _atom_site_type_symbol
 _atom_site_label
 _atom_site_symmetry_multiplicity
 _atom_site_fract_x
 _atom_site_fract_y
 _atom_site_fract_z
 _atom_site_occupancy
  Zr  Zr0  1  0.721354  0.558138  0.456275  1
  Zr  Zr1  1  0.721354  0.941862  0.956275  1
  Zr  Zr2  1  0.278646  0.441862  0.543725  1
  Zr  Zr3  1  0.278646  0.058138  0.043725  1
  H  H4  1  0.463248  0.453594  0.192894  1
  H  H5  1  0.463248  0.046406  0.692894  1
  H  H6  1  0.536752  0.546406  0.807106  1
  H  H7  1  0.536752  0.953594  0.307106  1
  H  H8  1  0.502484  0.657826  0.192356  1
  H  H9  1  0.502484  0.842174  0.692356  1
  H  H10  1  0.497516  0.342174  0.807644  1
  H  H11  1  0.497516  0.157826  0.307644  1
  H  H12  1  0.833781  0.065875  0.704826  1
  H  H13  1  0.833781  0.434125  0.204826  1
  H  H14  1  0.166219  0.934125  0.295174  1
  H  H15  1  0.166219  0.565875  0.795174  1
  H  H16  1  0.884046  0.935997  0.605959  1
  H  H17  1  0.884046  0.564003  0.105959  1
  H  H18  1  0.115954  0.064003  0.394041  1
  H  H19  1  0.115954  0.435997  0.894041  1
  H  H20  1  0.823224  0.151977  0.565558  1
  H  H21  1  0.823224  0.348023  0.065558  1
  H  H22  1  0.176776  0.848023  0.434442  1
  H  H23  1  0.176776  0.651977  0.934442  1
  H  H24  1  0.057057  0.101848  0.681553  1
  H  H25  1  0.057057  0.398152  0.181553  1
  H  H26  1  0.942943  0.898152  0.318447  1
  H  H27  1  0.942943  0.601848  0.818447  1
  N  N28  1  0.900395  0.064778  0.638648  1
  N  N29  1  0.900395  0.435222  0.138648  1
  N  N30  1  0.099605  0.935222  0.361352  1
  N  N31  1  0.099605  0.564778  0.861352  1
  O  O32  1  0.571346  0.546898  0.234673  1
  O  O33  1  0.571346  0.953102  0.734673  1
  O  O34  1  0.428654  0.453102  0.765327  1
  O  O35  1  0.428654  0.046898  0.265327  1
  F  F36  1  0.988662  0.571102  0.403305  1
  F  F37  1  0.988662  0.928898  0.903305  1
  F  F38  1  0.011338  0.428898  0.596695  1
  F  F39  1  0.011338  0.071102  0.096695  1
  F  F40  1  0.691915  0.297382  0.399323  1
  F  F41  1  0.691915  0.202618  0.899323  1
  F  F42  1  0.308085  0.702618  0.600677  1
  F  F43  1  0.308085  0.797382  0.100677  1
  F  F44  1  0.713416  0.816897  0.388744  1
  F  F45  1  0.713416  0.683103  0.888744  1
  F  F46  1  0.286584  0.183103  0.611256  1
  F  F47  1  0.286584  0.316897  0.111256  1
  F  F48  1  0.807913  0.708239  0.616333  1
  F  F49  1  0.807913  0.791761  0.116333  1
  F  F50  1  0.192087  0.291761  0.383667  1
  F  F51  1  0.192087  0.208239  0.883667  1
  F  F52  1  0.396352  0.598243  0.412271  1
  F  F53  1  0.396352  0.901757  0.912271  1
  F  F54  1  0.603648  0.401757  0.587729  1
  F  F55  1  0.603648  0.098243  0.087729  1
