# generated using pymatgen
data_LiCr3O8
_symmetry_space_group_name_H-M   'P 1'
_cell_length_a   5.58265828
_cell_length_b   8.13674846
_cell_length_c   14.66766136
_cell_angle_alpha   90.00000000
_cell_angle_beta   90.00000000
_cell_angle_gamma   90.00000000
_symmetry_Int_Tables_number   1
_chemical_formula_structural   LiCr3O8
_chemical_formula_sum   'Li4 Cr12 O32'
_cell_volume   666.27391403
_cell_formula_units_Z   4
loop_
 _symmetry_equiv_pos_site_id
 _symmetry_equiv_pos_as_xyz
  1  'x, y, z'
loop_
 _atom_site_type_symbol
 _atom_site_label
 _atom_site_symmetry_multiplicity
 _atom_site_fract_x
 _atom_site_fract_y
 _atom_site_fract_z
 _atom_site_occupancy
  Li  Li0  1  0.250000  0.499372  0.285056  1
  Li  Li1  1  0.750000  0.999372  0.214944  1
  Li  Li2  1  0.250000  0.000628  0.785056  1
  Li  Li3  1  0.750000  0.500628  0.714944  1
  Cr  Cr4  1  0.750000  0.238168  0.056552  1
  Cr  Cr5  1  0.750000  0.646741  0.087586  1
  Cr  Cr6  1  0.250000  0.031622  0.121949  1
  Cr  Cr7  1  0.750000  0.531622  0.378051  1
  Cr  Cr8  1  0.250000  0.146741  0.412414  1
  Cr  Cr9  1  0.250000  0.738168  0.443448  1
  Cr  Cr10  1  0.750000  0.261832  0.556552  1
  Cr  Cr11  1  0.750000  0.853259  0.587586  1
  Cr  Cr12  1  0.250000  0.468378  0.621949  1
  Cr  Cr13  1  0.750000  0.968378  0.878051  1
  Cr  Cr14  1  0.250000  0.353259  0.912414  1
  Cr  Cr15  1  0.250000  0.761832  0.943448  1
  O  O16  1  0.250000  0.973047  0.013315  1
  O  O17  1  0.994159  0.680366  0.024952  1
  O  O18  1  0.505841  0.680366  0.024952  1
  O  O19  1  0.750000  0.450094  0.123971  1
  O  O20  1  0.508189  0.139115  0.143494  1
  O  O21  1  0.991811  0.139115  0.143494  1
  O  O22  1  0.750000  0.766320  0.177421  1
  O  O23  1  0.250000  0.874127  0.187420  1
  O  O24  1  0.750000  0.374127  0.312580  1
  O  O25  1  0.250000  0.266320  0.322579  1
  O  O26  1  0.491811  0.639115  0.356506  1
  O  O27  1  0.008189  0.639115  0.356506  1
  O  O28  1  0.250000  0.950094  0.376029  1
  O  O29  1  0.494159  0.180366  0.475048  1
  O  O30  1  0.005841  0.180366  0.475048  1
  O  O31  1  0.750000  0.473047  0.486685  1
  O  O32  1  0.250000  0.526953  0.513315  1
  O  O33  1  0.994159  0.819634  0.524952  1
  O  O34  1  0.505841  0.819634  0.524952  1
  O  O35  1  0.750000  0.049906  0.623971  1
  O  O36  1  0.991811  0.360885  0.643494  1
  O  O37  1  0.508189  0.360885  0.643494  1
  O  O38  1  0.750000  0.733680  0.677421  1
  O  O39  1  0.250000  0.625873  0.687420  1
  O  O40  1  0.750000  0.125873  0.812580  1
  O  O41  1  0.250000  0.233680  0.822579  1
  O  O42  1  0.491811  0.860885  0.856506  1
  O  O43  1  0.008189  0.860885  0.856506  1
  O  O44  1  0.250000  0.549906  0.876029  1
  O  O45  1  0.494159  0.319634  0.975048  1
  O  O46  1  0.005841  0.319634  0.975048  1
  O  O47  1  0.750000  0.026953  0.986685  1
