# generated using pymatgen
data_Fe3Cu2Te(PO4)6
_symmetry_space_group_name_H-M   'P 1'
_cell_length_a   8.66793032
_cell_length_b   8.66793032
_cell_length_c   8.66793032
_cell_angle_alpha   59.97424514
_cell_angle_beta   59.97424514
_cell_angle_gamma   59.97424514
_symmetry_Int_Tables_number   1
_chemical_formula_structural   Fe3Cu2Te(PO4)6
_chemical_formula_sum   'Fe3 Cu2 Te1 P6 O24'
_cell_volume   460.23275532
_cell_formula_units_Z   1
loop_
 _symmetry_equiv_pos_site_id
 _symmetry_equiv_pos_as_xyz
  1  'x, y, z'
loop_
 _atom_site_type_symbol
 _atom_site_label
 _atom_site_symmetry_multiplicity
 _atom_site_fract_x
 _atom_site_fract_y
 _atom_site_fract_z
 _atom_site_occupancy
  Fe  Fe0  1  0.855400  0.855400  0.855400  1
  Fe  Fe1  1  0.644522  0.644522  0.644522  1
  Fe  Fe2  1  0.357095  0.357095  0.357095  1
  Cu  Cu3  1  0.990682  0.990682  0.990682  1
  Cu  Cu4  1  0.499874  0.499874  0.499873  1
  Te  Te5  1  0.142984  0.142984  0.142984  1
  P  P6  1  0.044796  0.747082  0.463131  1
  P  P7  1  0.747082  0.463131  0.044796  1
  P  P8  1  0.463131  0.044796  0.747082  1
  P  P9  1  0.546267  0.954825  0.255135  1
  P  P10  1  0.255135  0.546267  0.954825  1
  P  P11  1  0.954825  0.255135  0.546267  1
  O  O12  1  0.488370  0.884254  0.700623  1
  O  O13  1  0.884254  0.700623  0.488370  1
  O  O14  1  0.731437  0.943075  0.085801  1
  O  O15  1  0.700623  0.488370  0.884254  1
  O  O16  1  0.380481  0.985851  0.196056  1
  O  O17  1  0.554227  0.763463  0.416653  1
  O  O18  1  0.085801  0.731437  0.943075  1
  O  O19  1  0.416653  0.554227  0.763463  1
  O  O20  1  0.006079  0.814361  0.613886  1
  O  O21  1  0.763463  0.416653  0.554227  1
  O  O22  1  0.058656  0.920904  0.261024  1
  O  O23  1  0.814361  0.613886  0.006079  1
  O  O24  1  0.196056  0.380481  0.985851  1
  O  O25  1  0.943075  0.085801  0.731437  1
  O  O26  1  0.239676  0.590944  0.436553  1
  O  O27  1  0.985851  0.196056  0.380481  1
  O  O28  1  0.590944  0.436553  0.239676  1
  O  O29  1  0.920904  0.261024  0.058656  1
  O  O30  1  0.436553  0.239676  0.590944  1
  O  O31  1  0.613886  0.006079  0.814361  1
  O  O32  1  0.311339  0.497536  0.116956  1
  O  O33  1  0.261024  0.058656  0.920904  1
  O  O34  1  0.116956  0.311339  0.497536  1
  O  O35  1  0.497536  0.116956  0.311339  1
