# generated using pymatgen
data_K2Li3MnO4
_symmetry_space_group_name_H-M   'P 1'
_cell_length_a   5.54791430
_cell_length_b   8.97181196
_cell_length_c   10.98508206
_cell_angle_alpha   90.00000000
_cell_angle_beta   108.13203360
_cell_angle_gamma   90.00000000
_symmetry_Int_Tables_number   1
_chemical_formula_structural   K2Li3MnO4
_chemical_formula_sum   'K8 Li12 Mn4 O16'
_cell_volume   519.62864442
_cell_formula_units_Z   4
loop_
 _symmetry_equiv_pos_site_id
 _symmetry_equiv_pos_as_xyz
  1  'x, y, z'
loop_
 _atom_site_type_symbol
 _atom_site_label
 _atom_site_symmetry_multiplicity
 _atom_site_fract_x
 _atom_site_fract_y
 _atom_site_fract_z
 _atom_site_occupancy
  K  K0  1  0.285416  0.226992  0.892227  1
  K  K1  1  0.291969  0.490259  0.637845  1
  K  K2  1  0.285416  0.273008  0.392227  1
  K  K3  1  0.708031  0.990259  0.862155  1
  K  K4  1  0.291969  0.009741  0.137845  1
  K  K5  1  0.714584  0.726992  0.607773  1
  K  K6  1  0.708031  0.509741  0.362155  1
  K  K7  1  0.714584  0.773008  0.107773  1
  Li  Li8  1  0.094852  0.964115  0.705438  1
  Li  Li9  1  0.378646  0.734886  0.800272  1
  Li  Li10  1  0.094852  0.535885  0.205438  1
  Li  Li11  1  0.620652  0.505386  0.926791  1
  Li  Li12  1  0.379348  0.005386  0.573209  1
  Li  Li13  1  0.621354  0.234886  0.699728  1
  Li  Li14  1  0.378646  0.765114  0.300272  1
  Li  Li15  1  0.620652  0.994614  0.426791  1
  Li  Li16  1  0.379348  0.494614  0.073209  1
  Li  Li17  1  0.905148  0.464115  0.794562  1
  Li  Li18  1  0.621354  0.265114  0.199728  1
  Li  Li19  1  0.905148  0.035885  0.294562  1
  Mn  Mn20  1  0.089833  0.706466  0.942267  1
  Mn  Mn21  1  0.089833  0.793534  0.442267  1
  Mn  Mn22  1  0.910167  0.206466  0.557733  1
  Mn  Mn23  1  0.910167  0.293534  0.057733  1
  O  O24  1  0.201902  0.891891  0.887942  1
  O  O25  1  0.252579  0.537962  0.882208  1
  O  O26  1  0.253347  0.807377  0.622661  1
  O  O27  1  0.257341  0.171411  0.654095  1
  O  O28  1  0.201902  0.608109  0.387942  1
  O  O29  1  0.252579  0.962038  0.382208  1
  O  O30  1  0.742659  0.671411  0.845905  1
  O  O31  1  0.746653  0.307377  0.877339  1
  O  O32  1  0.253347  0.692623  0.122661  1
  O  O33  1  0.257341  0.328589  0.154095  1
  O  O34  1  0.747421  0.037962  0.617792  1
  O  O35  1  0.798098  0.391891  0.612058  1
  O  O36  1  0.742659  0.828589  0.345905  1
  O  O37  1  0.746653  0.192623  0.377339  1
  O  O38  1  0.747421  0.462038  0.117792  1
  O  O39  1  0.798098  0.108109  0.112058  1
