# generated using pymatgen
data_PH9C2N4O5
_symmetry_space_group_name_H-M   'P 1'
_cell_length_a   6.74465901
_cell_length_b   8.35282630
_cell_length_c   8.53843172
_cell_angle_alpha   66.37590107
_cell_angle_beta   75.58174696
_cell_angle_gamma   81.34266229
_symmetry_Int_Tables_number   1
_chemical_formula_structural   PH9C2N4O5
_chemical_formula_sum   'P2 H18 C4 N8 O10'
_cell_volume   426.13698355
_cell_formula_units_Z   2
loop_
 _symmetry_equiv_pos_site_id
 _symmetry_equiv_pos_as_xyz
  1  'x, y, z'
loop_
 _atom_site_type_symbol
 _atom_site_label
 _atom_site_symmetry_multiplicity
 _atom_site_fract_x
 _atom_site_fract_y
 _atom_site_fract_z
 _atom_site_occupancy
  P  P0  1  0.049994  0.973156  0.250444  1
  P  P1  1  0.950006  0.026844  0.749556  1
  H  H2  1  0.994149  0.162435  0.987558  1
  H  H3  1  0.005851  0.837565  0.012442  1
  H  H4  1  0.820594  0.978480  0.490663  1
  H  H5  1  0.179406  0.021520  0.509337  1
  H  H6  1  0.622552  0.305153  0.235573  1
  H  H7  1  0.377448  0.694847  0.764427  1
  H  H8  1  0.433718  0.180029  0.229778  1
  H  H9  1  0.566282  0.819971  0.770222  1
  H  H10  1  0.113012  0.331904  0.168070  1
  H  H11  1  0.886988  0.668096  0.831930  1
  H  H12  1  0.038986  0.515161  0.220126  1
  H  H13  1  0.961014  0.484839  0.779874  1
  H  H14  1  0.274265  0.671016  0.227830  1
  H  H15  1  0.725735  0.328984  0.772170  1
  H  H16  1  0.703926  0.757109  0.334853  1
  H  H17  1  0.296074  0.242891  0.665147  1
  H  H18  1  0.446136  0.813557  0.322644  1
  H  H19  1  0.553864  0.186443  0.677356  1
  C  C20  1  0.342334  0.426944  0.220651  1
  C  C21  1  0.657666  0.573056  0.779349  1
  C  C22  1  0.575256  0.589681  0.275097  1
  C  C23  1  0.424744  0.410319  0.724903  1
  N  N24  1  0.481057  0.296275  0.216664  1
  N  N25  1  0.518943  0.703725  0.783336  1
  N  N26  1  0.153178  0.425940  0.200540  1
  N  N27  1  0.846822  0.574060  0.799460  1
  N  N28  1  0.387954  0.568766  0.243440  1
  N  N29  1  0.612046  0.431234  0.756560  1
  N  N30  1  0.573830  0.731673  0.311356  1
  N  N31  1  0.426170  0.268327  0.688644  1
  O  O32  1  0.079883  0.829863  0.177095  1
  O  O33  1  0.920117  0.170137  0.822905  1
  O  O34  1  0.039388  0.159706  0.094722  1
  O  O35  1  0.960612  0.840294  0.905278  1
  O  O36  1  0.832456  0.951033  0.381861  1
  O  O37  1  0.167544  0.048967  0.618139  1
  O  O38  1  0.217147  0.977746  0.340239  1
  O  O39  1  0.782853  0.022254  0.659761  1
  O  O40  1  0.727077  0.484586  0.268751  1
  O  O41  1  0.272923  0.515414  0.731249  1
