# generated using pymatgen
data_LiFe2OF5
_symmetry_space_group_name_H-M   'P 1'
_cell_length_a   4.73531858
_cell_length_b   4.73531858
_cell_length_c   18.44756945
_cell_angle_alpha   89.94018583
_cell_angle_beta   90.05981417
_cell_angle_gamma   89.99938089
_symmetry_Int_Tables_number   1
_chemical_formula_structural   LiFe2OF5
_chemical_formula_sum   'Li4 Fe8 O4 F20'
_cell_volume   413.65386362
_cell_formula_units_Z   4
loop_
 _symmetry_equiv_pos_site_id
 _symmetry_equiv_pos_as_xyz
  1  'x, y, z'
loop_
 _atom_site_type_symbol
 _atom_site_label
 _atom_site_symmetry_multiplicity
 _atom_site_fract_x
 _atom_site_fract_y
 _atom_site_fract_z
 _atom_site_occupancy
  Li  Li0  1  0.008420  0.999661  0.001742  1
  Li  Li1  1  0.000339  0.991580  0.501742  1
  Li  Li2  1  0.508016  0.500218  0.751781  1
  Li  Li3  1  0.499782  0.491984  0.251781  1
  Fe  Fe4  1  0.976891  0.979009  0.833654  1
  Fe  Fe5  1  0.013786  0.990178  0.661119  1
  Fe  Fe6  1  0.020991  0.023109  0.333654  1
  Fe  Fe7  1  0.009821  0.986214  0.161119  1
  Fe  Fe8  1  0.488690  0.487919  0.411118  1
  Fe  Fe9  1  0.512081  0.511310  0.911118  1
  Fe  Fe10  1  0.479584  0.523660  0.583685  1
  Fe  Fe11  1  0.476340  0.520416  0.083685  1
  O  O12  1  0.199722  0.799945  0.586840  1
  O  O13  1  0.200055  0.800278  0.086840  1
  O  O14  1  0.301408  0.298877  0.336829  1
  O  O15  1  0.701123  0.698592  0.836829  1
  F  F16  1  0.200255  0.800926  0.915441  1
  F  F17  1  0.199074  0.799745  0.415441  1
  F  F18  1  0.193465  0.809895  0.749575  1
  F  F19  1  0.190105  0.806535  0.249575  1
  F  F20  1  0.315509  0.313090  0.997950  1
  F  F21  1  0.309587  0.307145  0.499596  1
  F  F22  1  0.290703  0.288885  0.837510  1
  F  F23  1  0.299891  0.299048  0.165565  1
  F  F24  1  0.302926  0.301930  0.666018  1
  F  F25  1  0.700952  0.700109  0.665565  1
  F  F26  1  0.698070  0.697074  0.166018  1
  F  F27  1  0.711115  0.709297  0.337510  1
  F  F28  1  0.692855  0.690413  0.999596  1
  F  F29  1  0.686910  0.684491  0.497950  1
  F  F30  1  0.815959  0.187125  0.747957  1
  F  F31  1  0.812875  0.184041  0.247957  1
  F  F32  1  0.801784  0.198511  0.916116  1
  F  F33  1  0.789470  0.210045  0.587504  1
  F  F34  1  0.801489  0.198216  0.416116  1
  F  F35  1  0.789955  0.210530  0.087504  1
