# generated using pymatgen
data_Mn8O13F3
_symmetry_space_group_name_H-M   'P 1'
_cell_length_a   4.49138358
_cell_length_b   5.49872250
_cell_length_c   9.95609784
_cell_angle_alpha   90.03087938
_cell_angle_beta   90.05798718
_cell_angle_gamma   90.93010891
_symmetry_Int_Tables_number   1
_chemical_formula_structural   Mn8O13F3
_chemical_formula_sum   'Mn8 O13 F3'
_cell_volume   245.85191187
_cell_formula_units_Z   1
loop_
 _symmetry_equiv_pos_site_id
 _symmetry_equiv_pos_as_xyz
  1  'x, y, z'
loop_
 _atom_site_type_symbol
 _atom_site_label
 _atom_site_symmetry_multiplicity
 _atom_site_fract_x
 _atom_site_fract_y
 _atom_site_fract_z
 _atom_site_occupancy
  Mn  Mn0  1  0.996577  0.160034  0.372395  1
  Mn  Mn1  1  0.006264  0.850523  0.625080  1
  Mn  Mn2  1  0.006392  0.161499  0.874367  1
  Mn  Mn3  1  0.983560  0.862187  0.120733  1
  Mn  Mn4  1  0.505941  0.338461  0.122626  1
  Mn  Mn5  1  0.501716  0.351238  0.626443  1
  Mn  Mn6  1  0.478644  0.637492  0.879936  1
  Mn  Mn7  1  0.531753  0.636806  0.377419  1
  O  O8  1  0.775753  0.110696  0.538646  1
  O  O9  1  0.769838  0.112778  0.034795  1
  O  O10  1  0.772911  0.885238  0.290239  1
  O  O11  1  0.726459  0.391614  0.791777  1
  O  O12  1  0.741606  0.605343  0.539213  1
  O  O13  1  0.732717  0.387809  0.286757  1
  O  O14  1  0.719521  0.614480  0.040838  1
  O  O15  1  0.260255  0.387989  0.965042  1
  O  O16  1  0.270229  0.607874  0.712052  1
  O  O17  1  0.277015  0.390925  0.460072  1
  O  O18  1  0.233201  0.113791  0.712114  1
  O  O19  1  0.218371  0.884716  0.958422  1
  O  O20  1  0.226777  0.114224  0.208440  1
  F  F21  1  0.739454  0.887071  0.797454  1
  F  F22  1  0.261117  0.621518  0.214177  1
  F  F23  1  0.263929  0.885695  0.450962  1
