# generated using pymatgen
data_Li2Mn3O4F3
_symmetry_space_group_name_H-M   'P 1'
_cell_length_a   6.39263337
_cell_length_b   6.51801763
_cell_length_c   8.01108448
_cell_angle_alpha   104.37764617
_cell_angle_beta   112.74383478
_cell_angle_gamma   102.15012780
_symmetry_Int_Tables_number   1
_chemical_formula_structural   Li2Mn3O4F3
_chemical_formula_sum   'Li4 Mn6 O8 F6'
_cell_volume   280.10636013
_cell_formula_units_Z   2
loop_
 _symmetry_equiv_pos_site_id
 _symmetry_equiv_pos_as_xyz
  1  'x, y, z'
loop_
 _atom_site_type_symbol
 _atom_site_label
 _atom_site_symmetry_multiplicity
 _atom_site_fract_x
 _atom_site_fract_y
 _atom_site_fract_z
 _atom_site_occupancy
  Li  Li0  1  0.238994  0.842786  0.538189  1
  Li  Li1  1  0.728272  0.260819  0.927759  1
  Li  Li2  1  0.227928  0.728071  0.080857  1
  Li  Li3  1  0.825368  0.177100  0.474390  1
  Mn  Mn4  1  0.586001  0.566976  0.351596  1
  Mn  Mn5  1  0.840957  0.842679  0.780008  1
  Mn  Mn6  1  0.709739  0.734317  0.071385  1
  Mn  Mn7  1  0.294874  0.274014  0.935580  1
  Mn  Mn8  1  0.131226  0.148079  0.209899  1
  Mn  Mn9  1  0.419185  0.413614  0.639916  1
  O  O10  1  0.514303  0.685710  0.567278  1
  O  O11  1  0.648659  0.464557  0.132597  1
  O  O12  1  0.167605  0.988325  0.983498  1
  O  O13  1  0.251070  0.429317  0.155124  1
  O  O14  1  0.376373  0.169310  0.735867  1
  O  O15  1  0.756545  0.573386  0.860084  1
  O  O16  1  0.776506  0.000583  0.016903  1
  O  O17  1  0.104945  0.291136  0.428872  1
  F  F18  1  0.929498  0.706758  0.548080  1
  F  F19  1  0.113543  0.848025  0.271915  1
  F  F20  1  0.621280  0.872854  0.271487  1
  F  F21  1  0.895466  0.143390  0.731056  1
  F  F22  1  0.305969  0.577664  0.870351  1
  F  F23  1  0.535695  0.260530  0.417310  1
