# generated using pymatgen
data_Li4Mn3OF11
_symmetry_space_group_name_H-M   'P 1'
_cell_length_a   5.92455286
_cell_length_b   6.01374319
_cell_length_c   6.07725219
_cell_angle_alpha   98.30200283
_cell_angle_beta   97.22342687
_cell_angle_gamma   97.68312383
_symmetry_Int_Tables_number   1
_chemical_formula_structural   Li4Mn3OF11
_chemical_formula_sum   'Li4 Mn3 O1 F11'
_cell_volume   209.99697541
_cell_formula_units_Z   1
loop_
 _symmetry_equiv_pos_site_id
 _symmetry_equiv_pos_as_xyz
  1  'x, y, z'
loop_
 _atom_site_type_symbol
 _atom_site_label
 _atom_site_symmetry_multiplicity
 _atom_site_fract_x
 _atom_site_fract_y
 _atom_site_fract_z
 _atom_site_occupancy
  Li  Li0  1  0.990472  0.974630  0.004102  1
  Li  Li1  1  0.753459  0.392842  0.922522  1
  Li  Li2  1  0.861315  0.711494  0.398008  1
  Li  Li3  1  0.593345  0.120014  0.277945  1
  Mn  Mn4  1  0.399622  0.881938  0.698863  1
  Mn  Mn5  1  0.128016  0.336057  0.593611  1
  Mn  Mn6  1  0.286593  0.593172  0.088947  1
  O  O7  1  0.356279  0.591207  0.793218  1
  F  F8  1  0.079138  0.891203  0.676987  1
  F  F9  1  0.319137  0.924491  0.107845  1
  F  F10  1  0.204595  0.569915  0.377667  1
  F  F11  1  0.084198  0.293245  0.934528  1
  F  F12  1  0.597986  0.839569  0.452106  1
  F  F13  1  0.397503  0.181537  0.587944  1
  F  F14  1  0.921806  0.676138  0.079715  1
  F  F15  1  0.535297  0.401829  0.150453  1
  F  F16  1  0.854014  0.458779  0.610024  1
  F  F17  1  0.679442  0.030947  0.902588  1
  F  F18  1  0.957784  0.130996  0.342926  1
