# generated using pymatgen
data_LiVF5
_symmetry_space_group_name_H-M   'P 1'
_cell_length_a   6.24420095
_cell_length_b   6.38413251
_cell_length_c   9.04962324
_cell_angle_alpha   90.00000000
_cell_angle_beta   90.00000000
_cell_angle_gamma   90.00000000
_symmetry_Int_Tables_number   1
_chemical_formula_structural   LiVF5
_chemical_formula_sum   'Li4 V4 F20'
_cell_volume   360.75242778
_cell_formula_units_Z   4
loop_
 _symmetry_equiv_pos_site_id
 _symmetry_equiv_pos_as_xyz
  1  'x, y, z'
loop_
 _atom_site_type_symbol
 _atom_site_label
 _atom_site_symmetry_multiplicity
 _atom_site_fract_x
 _atom_site_fract_y
 _atom_site_fract_z
 _atom_site_occupancy
  Li  Li0  1  0.543509  0.778999  0.148213  1
  Li  Li1  1  0.043509  0.278999  0.351787  1
  Li  Li2  1  0.956491  0.778999  0.648213  1
  Li  Li3  1  0.456491  0.278999  0.851787  1
  V  V4  1  0.078961  0.000276  0.005566  1
  V  V5  1  0.578961  0.500276  0.494434  1
  V  V6  1  0.421039  0.000276  0.505566  1
  V  V7  1  0.921039  0.500276  0.994434  1
  F  F8  1  0.372984  0.000530  0.008431  1
  F  F9  1  0.828752  0.192087  0.003582  1
  F  F10  1  0.827093  0.807343  0.042984  1
  F  F11  1  0.986373  0.473388  0.194253  1
  F  F12  1  0.065751  0.041178  0.209485  1
  F  F13  1  0.565751  0.541178  0.290515  1
  F  F14  1  0.486373  0.973388  0.305747  1
  F  F15  1  0.327093  0.307343  0.457016  1
  F  F16  1  0.328752  0.692087  0.496418  1
  F  F17  1  0.872984  0.500530  0.491569  1
  F  F18  1  0.127016  0.000530  0.508431  1
  F  F19  1  0.671248  0.192087  0.503582  1
  F  F20  1  0.672907  0.807343  0.542984  1
  F  F21  1  0.513627  0.473388  0.694253  1
  F  F22  1  0.434249  0.041178  0.709485  1
  F  F23  1  0.934249  0.541178  0.790515  1
  F  F24  1  0.013627  0.973388  0.805747  1
  F  F25  1  0.172907  0.307343  0.957016  1
  F  F26  1  0.171248  0.692087  0.996418  1
  F  F27  1  0.627016  0.500530  0.991569  1
