# generated using pymatgen
data_Li4Mn3Co3(SbO8)2
_symmetry_space_group_name_H-M   'P 1'
_cell_length_a   5.88127704
_cell_length_b   5.88127704
_cell_length_c   9.63745800
_cell_angle_alpha   87.97999972
_cell_angle_beta   92.02000028
_cell_angle_gamma   120.42710293
_symmetry_Int_Tables_number   1
_chemical_formula_structural   Li4Mn3Co3(SbO8)2
_chemical_formula_sum   'Li4 Mn3 Co3 Sb2 O16'
_cell_volume   287.20545433
_cell_formula_units_Z   1
loop_
 _symmetry_equiv_pos_site_id
 _symmetry_equiv_pos_as_xyz
  1  'x, y, z'
loop_
 _atom_site_type_symbol
 _atom_site_label
 _atom_site_symmetry_multiplicity
 _atom_site_fract_x
 _atom_site_fract_y
 _atom_site_fract_z
 _atom_site_occupancy
  Li  Li0  1  0.659836  0.340164  0.907586  1
  Li  Li1  1  0.004357  0.995643  0.992123  1
  Li  Li2  1  0.010370  0.989630  0.489451  1
  Li  Li3  1  0.332086  0.667914  0.397934  1
  Mn  Mn4  1  0.832379  0.167621  0.212266  1
  Mn  Mn5  1  0.170169  0.336334  0.713200  1
  Mn  Mn6  1  0.663666  0.829831  0.713200  1
  Co  Co7  1  0.341162  0.169568  0.214431  1
  Co  Co8  1  0.830432  0.658838  0.214431  1
  Co  Co9  1  0.171732  0.828268  0.716201  1
  Sb  Sb10  1  0.668082  0.331918  0.483970  1
  Sb  Sb11  1  0.328358  0.671642  0.990075  1
  O  O12  1  0.337482  0.157189  0.593400  1
  O  O13  1  0.517284  0.482716  0.331057  1
  O  O14  1  0.664510  0.335490  0.116896  1
  O  O15  1  0.003316  0.996684  0.301635  1
  O  O16  1  0.005645  0.994355  0.802218  1
  O  O17  1  0.842811  0.662518  0.593400  1
  O  O18  1  0.504146  0.033659  0.343758  1
  O  O19  1  0.966341  0.495854  0.343758  1
  O  O20  1  0.162794  0.837206  0.104533  1
  O  O21  1  0.841677  0.158323  0.588694  1
  O  O22  1  0.025644  0.534542  0.847176  1
  O  O23  1  0.465458  0.974356  0.847176  1
  O  O24  1  0.330186  0.669814  0.615684  1
  O  O25  1  0.168896  0.326053  0.092455  1
  O  O26  1  0.477464  0.522536  0.848649  1
  O  O27  1  0.673947  0.831104  0.092455  1
