# generated using pymatgen
data_Li2MnFe(BO3)2
_symmetry_space_group_name_H-M   'P 1'
_cell_length_a   8.25220835
_cell_length_b   6.32669338
_cell_length_c   8.25655425
_cell_angle_alpha   90.00000000
_cell_angle_beta   119.90565756
_cell_angle_gamma   90.00000000
_symmetry_Int_Tables_number   1
_chemical_formula_structural   Li2MnFe(BO3)2
_chemical_formula_sum   'Li6 Mn3 Fe3 B6 O18'
_cell_volume   373.67025020
_cell_formula_units_Z   3
loop_
 _symmetry_equiv_pos_site_id
 _symmetry_equiv_pos_as_xyz
  1  'x, y, z'
loop_
 _atom_site_type_symbol
 _atom_site_label
 _atom_site_symmetry_multiplicity
 _atom_site_fract_x
 _atom_site_fract_y
 _atom_site_fract_z
 _atom_site_occupancy
  Li  Li0  1  0.982311  0.250633  0.698366  1
  Li  Li1  1  0.982311  0.749367  0.698366  1
  Li  Li2  1  0.301950  0.249190  0.283811  1
  Li  Li3  1  0.301950  0.750810  0.283811  1
  Li  Li4  1  0.714807  0.749330  0.015909  1
  Li  Li5  1  0.714807  0.250670  0.015909  1
  Mn  Mn6  1  0.359657  0.000000  0.987222  1
  Mn  Mn7  1  0.012096  0.000000  0.371438  1
  Mn  Mn8  1  0.012417  0.500000  0.373121  1
  Fe  Fe9  1  0.358930  0.500000  0.993225  1
  Fe  Fe10  1  0.632956  0.000000  0.641037  1
  Fe  Fe11  1  0.631784  0.500000  0.640049  1
  B  B12  1  0.997359  0.000000  0.999193  1
  B  B13  1  0.997604  0.500000  0.997366  1
  B  B14  1  0.666011  0.251629  0.334756  1
  B  B15  1  0.666011  0.748371  0.334756  1
  B  B16  1  0.335864  0.251616  0.667173  1
  B  B17  1  0.335864  0.748384  0.667173  1
  O  O18  1  0.915366  0.500000  0.803816  1
  O  O19  1  0.916732  0.000000  0.804990  1
  O  O20  1  0.580232  0.250049  0.443195  1
  O  O21  1  0.580232  0.749951  0.443195  1
  O  O22  1  0.191187  0.000000  0.112537  1
  O  O23  1  0.192951  0.500000  0.108696  1
  O  O24  1  0.859724  0.249949  0.420281  1
  O  O25  1  0.859724  0.750051  0.420281  1
  O  O26  1  0.558016  0.253537  0.140889  1
  O  O27  1  0.558016  0.746463  0.140889  1
  O  O28  1  0.253776  0.253625  0.779341  1
  O  O29  1  0.253776  0.746375  0.779341  1
  O  O30  1  0.883203  0.000000  0.078682  1
  O  O31  1  0.887196  0.500000  0.080400  1
  O  O32  1  0.529430  0.250365  0.747157  1
  O  O33  1  0.529430  0.749635  0.747157  1
  O  O34  1  0.223160  0.749965  0.473236  1
  O  O35  1  0.223160  0.250035  0.473236  1
