# generated using pymatgen
data_K3H8RhC4(ClO6)2
_symmetry_space_group_name_H-M   'P 1'
_cell_length_a   8.34788251
_cell_length_b   8.34788251
_cell_length_c   6.44823292
_cell_angle_alpha   71.67254305
_cell_angle_beta   108.32745695
_cell_angle_gamma   88.19720929
_symmetry_Int_Tables_number   1
_chemical_formula_structural   K3H8RhC4(ClO6)2
_chemical_formula_sum   'K3 H8 Rh1 C4 Cl2 O12'
_cell_volume   400.66962828
_cell_formula_units_Z   1
loop_
 _symmetry_equiv_pos_site_id
 _symmetry_equiv_pos_as_xyz
  1  'x, y, z'
loop_
 _atom_site_type_symbol
 _atom_site_label
 _atom_site_symmetry_multiplicity
 _atom_site_fract_x
 _atom_site_fract_y
 _atom_site_fract_z
 _atom_site_occupancy
  K  K0  1  0.500000  0.500000  0.000000  1
  K  K1  1  0.769214  0.769214  0.500000  1
  K  K2  1  0.230786  0.230786  0.500000  1
  H  H3  1  0.873061  0.454389  0.021528  1
  H  H4  1  0.545611  0.126939  0.021528  1
  H  H5  1  0.377173  0.130268  0.076537  1
  H  H6  1  0.869732  0.622827  0.076537  1
  H  H7  1  0.622827  0.869732  0.923463  1
  H  H8  1  0.130268  0.377173  0.923463  1
  H  H9  1  0.454389  0.873061  0.978472  1
  H  H10  1  0.126939  0.545611  0.978472  1
  Rh  Rh11  1  0.000000  0.000000  0.000000  1
  C  C12  1  0.702779  0.168238  0.607709  1
  C  C13  1  0.831762  0.297221  0.607709  1
  C  C14  1  0.297221  0.831762  0.392291  1
  C  C15  1  0.168238  0.702779  0.392291  1
  Cl  Cl16  1  0.861403  0.138597  0.179326  1
  Cl  Cl17  1  0.138597  0.861403  0.820674  1
  O  O18  1  0.572994  0.818170  0.044433  1
  O  O19  1  0.181830  0.427006  0.044433  1
  O  O20  1  0.787276  0.445128  0.467732  1
  O  O21  1  0.554872  0.212724  0.467732  1
  O  O22  1  0.762639  0.014841  0.759962  1
  O  O23  1  0.985159  0.237361  0.759962  1
  O  O24  1  0.237361  0.985159  0.240038  1
  O  O25  1  0.014841  0.762639  0.240038  1
  O  O26  1  0.445128  0.787276  0.532268  1
  O  O27  1  0.212724  0.554872  0.532268  1
  O  O28  1  0.818170  0.572994  0.955567  1
  O  O29  1  0.427006  0.181830  0.955567  1
