# generated using pymatgen
data_Mn2V3Cr(PO4)6
_symmetry_space_group_name_H-M   'P 1'
_cell_length_a   8.62868108
_cell_length_b   8.62868108
_cell_length_c   8.62868108
_cell_angle_alpha   59.89956113
_cell_angle_beta   59.89956113
_cell_angle_gamma   59.89956113
_symmetry_Int_Tables_number   1
_chemical_formula_structural   Mn2V3Cr(PO4)6
_chemical_formula_sum   'Mn2 V3 Cr1 P6 O24'
_cell_volume   453.23926523
_cell_formula_units_Z   1
loop_
 _symmetry_equiv_pos_site_id
 _symmetry_equiv_pos_as_xyz
  1  'x, y, z'
loop_
 _atom_site_type_symbol
 _atom_site_label
 _atom_site_symmetry_multiplicity
 _atom_site_fract_x
 _atom_site_fract_y
 _atom_site_fract_z
 _atom_site_occupancy
  Mn  Mn0  1  0.000250  0.000250  0.000250  1
  Mn  Mn1  1  0.500478  0.500478  0.500478  1
  V  V2  1  0.644261  0.644261  0.644261  1
  V  V3  1  0.856587  0.856587  0.856587  1
  V  V4  1  0.355806  0.355806  0.355806  1
  Cr  Cr5  1  0.142703  0.142703  0.142703  1
  P  P6  1  0.249758  0.539775  0.958996  1
  P  P7  1  0.958996  0.249758  0.539775  1
  P  P8  1  0.539775  0.958996  0.249758  1
  P  P9  1  0.458196  0.041706  0.750259  1
  P  P10  1  0.041706  0.750259  0.458196  1
  P  P11  1  0.750259  0.458196  0.041706  1
  O  O12  1  0.119794  0.306832  0.505071  1
  O  O13  1  0.505071  0.119794  0.306832  1
  O  O14  1  0.306832  0.505071  0.119794  1
  O  O15  1  0.085539  0.735760  0.941497  1
  O  O16  1  0.196144  0.381798  0.990365  1
  O  O17  1  0.416061  0.561615  0.764273  1
  O  O18  1  0.941497  0.085539  0.735760  1
  O  O19  1  0.764273  0.416061  0.561615  1
  O  O20  1  0.619460  0.005390  0.806169  1
  O  O21  1  0.561615  0.764273  0.416061  1
  O  O22  1  0.264722  0.056476  0.913610  1
  O  O23  1  0.005390  0.806169  0.619460  1
  O  O24  1  0.990365  0.196144  0.381798  1
  O  O25  1  0.735760  0.941497  0.085539  1
  O  O26  1  0.441632  0.235726  0.583973  1
  O  O27  1  0.381798  0.990365  0.196144  1
  O  O28  1  0.235726  0.583973  0.441632  1
  O  O29  1  0.056476  0.913610  0.264722  1
  O  O30  1  0.583973  0.441632  0.235726  1
  O  O31  1  0.806169  0.619460  0.005390  1
  O  O32  1  0.913610  0.264722  0.056476  1
  O  O33  1  0.690026  0.497670  0.881645  1
  O  O34  1  0.497670  0.881645  0.690026  1
  O  O35  1  0.881645  0.690026  0.497670  1
