# generated using pymatgen
data_LiVOF3
_symmetry_space_group_name_H-M   'P 1'
_cell_length_a   5.54710114
_cell_length_b   5.54710114
_cell_length_c   9.75686197
_cell_angle_alpha   90.00000000
_cell_angle_beta   90.00000000
_cell_angle_gamma   90.00000000
_symmetry_Int_Tables_number   1
_chemical_formula_structural   LiVOF3
_chemical_formula_sum   'Li4 V4 O4 F12'
_cell_volume   300.22187326
_cell_formula_units_Z   4
loop_
 _symmetry_equiv_pos_site_id
 _symmetry_equiv_pos_as_xyz
  1  'x, y, z'
loop_
 _atom_site_type_symbol
 _atom_site_label
 _atom_site_symmetry_multiplicity
 _atom_site_fract_x
 _atom_site_fract_y
 _atom_site_fract_z
 _atom_site_occupancy
  Li  Li0  1  0.093450  0.852723  0.752724  1
  Li  Li1  1  0.147277  0.093450  0.002724  1
  Li  Li2  1  0.852723  0.906550  0.502724  1
  Li  Li3  1  0.906550  0.147277  0.252724  1
  V  V4  1  0.137187  0.415606  0.503054  1
  V  V5  1  0.415606  0.862813  0.253054  1
  V  V6  1  0.584394  0.137187  0.753054  1
  V  V7  1  0.862813  0.584394  0.003054  1
  O  O8  1  0.079044  0.667949  0.584523  1
  O  O9  1  0.332051  0.079044  0.834523  1
  O  O10  1  0.667949  0.920956  0.334523  1
  O  O11  1  0.920956  0.332051  0.084523  1
  F  F12  1  0.039006  0.818718  0.120192  1
  F  F13  1  0.128160  0.601969  0.883226  1
  F  F14  1  0.181282  0.039006  0.370192  1
  F  F15  1  0.314978  0.559677  0.344007  1
  F  F16  1  0.398031  0.128160  0.133226  1
  F  F17  1  0.440323  0.314978  0.594007  1
  F  F18  1  0.559677  0.685022  0.094007  1
  F  F19  1  0.601969  0.871840  0.633226  1
  F  F20  1  0.685022  0.440323  0.844007  1
  F  F21  1  0.818718  0.960994  0.870192  1
  F  F22  1  0.871840  0.398031  0.383226  1
  F  F23  1  0.960994  0.181282  0.620192  1
