# generated using pymatgen
data_Mn3Fe2Co(PO4)6
_symmetry_space_group_name_H-M   'P 1'
_cell_length_a   8.44407252
_cell_length_b   8.44407252
_cell_length_c   8.44407252
_cell_angle_alpha   60.71402958
_cell_angle_beta   60.71402958
_cell_angle_gamma   60.71402958
_symmetry_Int_Tables_number   1
_chemical_formula_structural   Mn3Fe2Co(PO4)6
_chemical_formula_sum   'Mn3 Fe2 Co1 P6 O24'
_cell_volume   432.59691474
_cell_formula_units_Z   1
loop_
 _symmetry_equiv_pos_site_id
 _symmetry_equiv_pos_as_xyz
  1  'x, y, z'
loop_
 _atom_site_type_symbol
 _atom_site_label
 _atom_site_symmetry_multiplicity
 _atom_site_fract_x
 _atom_site_fract_y
 _atom_site_fract_z
 _atom_site_occupancy
  Mn  Mn0  1  0.641336  0.641336  0.641336  1
  Mn  Mn1  1  0.858773  0.858773  0.858773  1
  Mn  Mn2  1  0.358027  0.358027  0.358027  1
  Fe  Fe3  1  0.000959  0.000959  0.000959  1
  Fe  Fe4  1  0.499263  0.499263  0.499263  1
  Co  Co5  1  0.140357  0.140357  0.140357  1
  P  P6  1  0.960651  0.248383  0.539588  1
  P  P7  1  0.539588  0.960651  0.248383  1
  P  P8  1  0.248383  0.539588  0.960651  1
  P  P9  1  0.752160  0.458328  0.039673  1
  P  P10  1  0.458328  0.039673  0.752160  1
  P  P11  1  0.039673  0.752160  0.458328  1
  O  O12  1  0.509903  0.117730  0.310973  1
  O  O13  1  0.310973  0.509903  0.117730  1
  O  O14  1  0.117730  0.310973  0.509903  1
  O  O15  1  0.941407  0.089122  0.743645  1
  O  O16  1  0.991090  0.186147  0.383030  1
  O  O17  1  0.758977  0.412871  0.557956  1
  O  O18  1  0.743645  0.941407  0.089122  1
  O  O19  1  0.557956  0.758977  0.412871  1
  O  O20  1  0.813114  0.617314  0.007571  1
  O  O21  1  0.412871  0.557956  0.758977  1
  O  O22  1  0.915880  0.257963  0.055447  1
  O  O23  1  0.617314  0.007571  0.813114  1
  O  O24  1  0.383030  0.991090  0.186147  1
  O  O25  1  0.089122  0.743645  0.941407  1
  O  O26  1  0.586669  0.445602  0.237855  1
  O  O27  1  0.186147  0.383030  0.991090  1
  O  O28  1  0.445602  0.237855  0.586669  1
  O  O29  1  0.257963  0.055447  0.915880  1
  O  O30  1  0.237855  0.586669  0.445602  1
  O  O31  1  0.007571  0.813114  0.617314  1
  O  O32  1  0.055447  0.915880  0.257963  1
  O  O33  1  0.883131  0.683483  0.495622  1
  O  O34  1  0.683483  0.495622  0.883131  1
  O  O35  1  0.495622  0.883131  0.683483  1
