# generated using pymatgen
data_Li4Cu3Sb(PO4)4
_symmetry_space_group_name_H-M   'P 1'
_cell_length_a   4.78880722
_cell_length_b   6.32651806
_cell_length_c   10.26536231
_cell_angle_alpha   90.00000000
_cell_angle_beta   91.74627361
_cell_angle_gamma   90.00000000
_symmetry_Int_Tables_number   1
_chemical_formula_structural   Li4Cu3Sb(PO4)4
_chemical_formula_sum   'Li4 Cu3 Sb1 P4 O16'
_cell_volume   310.85985782
_cell_formula_units_Z   1
loop_
 _symmetry_equiv_pos_site_id
 _symmetry_equiv_pos_as_xyz
  1  'x, y, z'
loop_
 _atom_site_type_symbol
 _atom_site_label
 _atom_site_symmetry_multiplicity
 _atom_site_fract_x
 _atom_site_fract_y
 _atom_site_fract_z
 _atom_site_occupancy
  Li  Li0  1  0.003111  0.256519  0.981535  1
  Li  Li1  1  0.003111  0.743481  0.981535  1
  Li  Li2  1  0.497320  0.744385  0.516215  1
  Li  Li3  1  0.497320  0.255615  0.516215  1
  Cu  Cu4  1  0.952282  0.500000  0.717819  1
  Cu  Cu5  1  0.549688  0.500000  0.212281  1
  Cu  Cu6  1  0.440147  0.000000  0.785521  1
  Sb  Sb7  1  0.026336  0.000000  0.285164  1
  P  P8  1  0.907966  0.000000  0.604622  1
  P  P9  1  0.582019  0.000000  0.079289  1
  P  P10  1  0.423697  0.500000  0.902119  1
  P  P11  1  0.088283  0.500000  0.415921  1
  O  O12  1  0.777318  0.000000  0.457953  1
  O  O13  1  0.781014  0.199810  0.666479  1
  O  O14  1  0.781014  0.800190  0.666479  1
  O  O15  1  0.767511  0.500000  0.397175  1
  O  O16  1  0.746988  0.500000  0.898462  1
  O  O17  1  0.713608  0.193819  0.158288  1
  O  O18  1  0.713608  0.806181  0.158288  1
  O  O19  1  0.707276  0.000000  0.942882  1
  O  O20  1  0.314502  0.500000  0.045549  1
  O  O21  1  0.289205  0.698586  0.834842  1
  O  O22  1  0.289205  0.301414  0.834842  1
  O  O23  1  0.262501  0.000000  0.075464  1
  O  O24  1  0.230727  0.000000  0.603316  1
  O  O25  1  0.229043  0.695673  0.351011  1
  O  O26  1  0.229043  0.304327  0.351011  1
  O  O27  1  0.196158  0.500000  0.559724  1
