# generated using pymatgen
data_Li4Nb5V3O16
_symmetry_space_group_name_H-M   'P 1'
_cell_length_a   6.08566886
_cell_length_b   6.08566886
_cell_length_c   10.06849006
_cell_angle_alpha   89.86157797
_cell_angle_beta   90.13842203
_cell_angle_gamma   120.37117131
_symmetry_Int_Tables_number   1
_chemical_formula_structural   Li4Nb5V3O16
_chemical_formula_sum   'Li4 Nb5 V3 O16'
_cell_volume   321.71655783
_cell_formula_units_Z   1
loop_
 _symmetry_equiv_pos_site_id
 _symmetry_equiv_pos_as_xyz
  1  'x, y, z'
loop_
 _atom_site_type_symbol
 _atom_site_label
 _atom_site_symmetry_multiplicity
 _atom_site_fract_x
 _atom_site_fract_y
 _atom_site_fract_z
 _atom_site_occupancy
  Li  Li0  1  0.667497  0.332503  0.907244  1
  Li  Li1  1  0.000161  0.999839  0.987173  1
  Li  Li2  1  0.004023  0.995977  0.491405  1
  Li  Li3  1  0.333421  0.666579  0.391720  1
  Nb  Nb4  1  0.655922  0.344078  0.493792  1
  Nb  Nb5  1  0.823113  0.176887  0.223149  1
  Nb  Nb6  1  0.326777  0.673223  0.997734  1
  Nb  Nb7  1  0.189522  0.373546  0.714137  1
  Nb  Nb8  1  0.626454  0.810478  0.714137  1
  V  V9  1  0.340410  0.170423  0.211925  1
  V  V10  1  0.829577  0.659590  0.211925  1
  V  V11  1  0.173459  0.826541  0.713796  1
  O  O12  1  0.336783  0.171219  0.594808  1
  O  O13  1  0.525149  0.474851  0.353276  1
  O  O14  1  0.675945  0.324055  0.099060  1
  O  O15  1  0.993799  0.006201  0.308563  1
  O  O16  1  0.000553  0.999447  0.803927  1
  O  O17  1  0.828781  0.663217  0.594808  1
  O  O18  1  0.524532  0.035052  0.345313  1
  O  O19  1  0.964948  0.475468  0.345313  1
  O  O20  1  0.167939  0.832061  0.089305  1
  O  O21  1  0.829761  0.170239  0.591629  1
  O  O22  1  0.040363  0.513330  0.846460  1
  O  O23  1  0.486670  0.959637  0.846460  1
  O  O24  1  0.323038  0.676962  0.579459  1
  O  O25  1  0.158031  0.339411  0.096825  1
  O  O26  1  0.486543  0.513457  0.857589  1
  O  O27  1  0.660589  0.841969  0.096825  1
