# generated using pymatgen
data_VO2F
_symmetry_space_group_name_H-M   'P 1'
_cell_length_a   5.27755470
_cell_length_b   5.42334236
_cell_length_c   11.07015302
_cell_angle_alpha   101.06007108
_cell_angle_beta   103.21550437
_cell_angle_gamma   93.04429222
_symmetry_Int_Tables_number   1
_chemical_formula_structural   VO2F
_chemical_formula_sum   'V6 O12 F6'
_cell_volume   301.16647586
_cell_formula_units_Z   6
loop_
 _symmetry_equiv_pos_site_id
 _symmetry_equiv_pos_as_xyz
  1  'x, y, z'
loop_
 _atom_site_type_symbol
 _atom_site_label
 _atom_site_symmetry_multiplicity
 _atom_site_fract_x
 _atom_site_fract_y
 _atom_site_fract_z
 _atom_site_occupancy
  V  V0  1  0.131485  0.210013  0.329106  1
  V  V1  1  0.377805  0.295477  0.658969  1
  V  V2  1  0.500000  0.500000  0.000000  1
  V  V3  1  0.622195  0.704523  0.341031  1
  V  V4  1  0.000000  0.000000  0.000000  1
  V  V5  1  0.868515  0.789987  0.670894  1
  O  O6  1  0.839933  0.924360  0.830154  1
  O  O7  1  0.616290  0.128580  0.635615  1
  O  O8  1  0.483454  0.422032  0.830735  1
  O  O9  1  0.165615  0.241147  0.500414  1
  O  O10  1  0.785310  0.737029  0.021473  1
  O  O11  1  0.962606  0.444275  0.301581  1
  O  O12  1  0.214690  0.262971  0.978527  1
  O  O13  1  0.037394  0.555725  0.698419  1
  O  O14  1  0.834385  0.758853  0.499586  1
  O  O15  1  0.516546  0.577968  0.169265  1
  O  O16  1  0.383710  0.871420  0.364385  1
  O  O17  1  0.160067  0.075640  0.169846  1
  F  F18  1  0.516308  0.615273  0.630157  1
  F  F19  1  0.157854  0.047213  0.701978  1
  F  F20  1  0.267311  0.770256  0.969652  1
  F  F21  1  0.732689  0.229744  0.030348  1
  F  F22  1  0.842146  0.952787  0.298022  1
  F  F23  1  0.483692  0.384727  0.369843  1
