# generated using pymatgen
data_Li8FeO6
_symmetry_space_group_name_H-M   'P 1'
_cell_length_a   5.34692793
_cell_length_b   5.39490143
_cell_length_c   5.85519517
_cell_angle_alpha   62.62804755
_cell_angle_beta   65.43557954
_cell_angle_gamma   63.06323613
_symmetry_Int_Tables_number   1
_chemical_formula_structural   Li8FeO6
_chemical_formula_sum   'Li8 Fe1 O6'
_cell_volume   129.04532578
_cell_formula_units_Z   1
loop_
 _symmetry_equiv_pos_site_id
 _symmetry_equiv_pos_as_xyz
  1  'x, y, z'
loop_
 _atom_site_type_symbol
 _atom_site_label
 _atom_site_symmetry_multiplicity
 _atom_site_fract_x
 _atom_site_fract_y
 _atom_site_fract_z
 _atom_site_occupancy
  Li  Li0  1  0.231810  0.510007  0.356549  1
  Li  Li1  1  0.099632  0.759690  0.658171  1
  Li  Li2  1  0.485719  0.100663  0.643075  1
  Li  Li3  1  0.368447  0.335642  0.976102  1
  Li  Li4  1  0.631553  0.664358  0.023898  1
  Li  Li5  1  0.514281  0.899337  0.356925  1
  Li  Li6  1  0.900368  0.240310  0.341829  1
  Li  Li7  1  0.768190  0.489993  0.643451  1
  Fe  Fe8  1  0.000000  0.000000  0.000000  1
  O  O9  1  0.102820  0.360308  0.768055  1
  O  O10  1  0.218857  0.916411  0.238689  1
  O  O11  1  0.603601  0.245009  0.239237  1
  O  O12  1  0.396399  0.754991  0.760763  1
  O  O13  1  0.781143  0.083589  0.761311  1
  O  O14  1  0.897180  0.639692  0.231945  1
