# generated using pymatgen
data_Li2Mn2(PO4)3
_symmetry_space_group_name_H-M   'P 1'
_cell_length_a   8.59917650
_cell_length_b   8.59917650
_cell_length_c   8.80041177
_cell_angle_alpha   59.41610452
_cell_angle_beta   120.58389548
_cell_angle_gamma   119.31802172
_symmetry_Int_Tables_number   1
_chemical_formula_structural   Li2Mn2(PO4)3
_chemical_formula_sum   'Li4 Mn4 P6 O24'
_cell_volume   458.31003367
_cell_formula_units_Z   2
loop_
 _symmetry_equiv_pos_site_id
 _symmetry_equiv_pos_as_xyz
  1  'x, y, z'
loop_
 _atom_site_type_symbol
 _atom_site_label
 _atom_site_symmetry_multiplicity
 _atom_site_fract_x
 _atom_site_fract_y
 _atom_site_fract_z
 _atom_site_occupancy
  Li  Li0  1  0.325746  0.825755  0.552904  1
  Li  Li1  1  0.825755  0.325746  0.947096  1
  Li  Li2  1  0.174245  0.674254  0.052904  1
  Li  Li3  1  0.674254  0.174245  0.447096  1
  Mn  Mn4  1  0.140386  0.361436  0.855475  1
  Mn  Mn5  1  0.361436  0.140386  0.644525  1
  Mn  Mn6  1  0.638564  0.859614  0.355475  1
  Mn  Mn7  1  0.859614  0.638564  0.144525  1
  P  P8  1  0.032752  0.032752  0.250000  1
  P  P9  1  0.967248  0.967248  0.750000  1
  P  P10  1  0.460461  0.748118  0.963912  1
  P  P11  1  0.748118  0.460461  0.536088  1
  P  P12  1  0.251882  0.539539  0.463912  1
  P  P13  1  0.539539  0.251882  0.036088  1
  O  O14  1  0.138728  0.988268  0.718813  1
  O  O15  1  0.295410  0.367983  0.504183  1
  O  O16  1  0.044176  0.220737  0.078676  1
  O  O17  1  0.532079  0.207396  0.883145  1
  O  O18  1  0.011732  0.861272  0.218813  1
  O  O19  1  0.220737  0.044176  0.421324  1
  O  O20  1  0.270315  0.582024  0.942905  1
  O  O21  1  0.442802  0.914510  0.769980  1
  O  O22  1  0.582024  0.270315  0.557095  1
  O  O23  1  0.207396  0.532079  0.616855  1
  O  O24  1  0.085490  0.557198  0.269980  1
  O  O25  1  0.367983  0.295410  0.995817  1
  O  O26  1  0.632017  0.704590  0.004183  1
  O  O27  1  0.914510  0.442802  0.730020  1
  O  O28  1  0.792604  0.467921  0.383145  1
  O  O29  1  0.417976  0.729685  0.442905  1
  O  O30  1  0.557198  0.085490  0.230020  1
  O  O31  1  0.729685  0.417976  0.057095  1
  O  O32  1  0.779263  0.955824  0.578676  1
  O  O33  1  0.988268  0.138728  0.781187  1
  O  O34  1  0.467921  0.792604  0.116855  1
  O  O35  1  0.955824  0.779263  0.921324  1
  O  O36  1  0.704590  0.632017  0.495817  1
  O  O37  1  0.861272  0.011732  0.281187  1
