# generated using pymatgen
data_Li4MnFe3(PO4)4
_symmetry_space_group_name_H-M   'P 1'
_cell_length_a   7.72961673
_cell_length_b   7.74046331
_cell_length_c   10.51703284
_cell_angle_alpha   90.07980486
_cell_angle_beta   90.05412383
_cell_angle_gamma   103.98916141
_symmetry_Int_Tables_number   1
_chemical_formula_structural   Li4MnFe3(PO4)4
_chemical_formula_sum   'Li8 Mn2 Fe6 P8 O32'
_cell_volume   610.57910883
_cell_formula_units_Z   2
loop_
 _symmetry_equiv_pos_site_id
 _symmetry_equiv_pos_as_xyz
  1  'x, y, z'
loop_
 _atom_site_type_symbol
 _atom_site_label
 _atom_site_symmetry_multiplicity
 _atom_site_fract_x
 _atom_site_fract_y
 _atom_site_fract_z
 _atom_site_occupancy
  Li  Li0  1  0.249515  0.250161  0.499489  1
  Li  Li1  1  0.500000  0.000000  0.500000  1
  Li  Li2  1  0.750485  0.749839  0.500511  1
  Li  Li3  1  0.000000  0.500000  0.500000  1
  Li  Li4  1  0.249628  0.749969  0.000515  1
  Li  Li5  1  0.500000  0.500000  0.000000  1
  Li  Li6  1  0.750372  0.250031  0.999485  1
  Li  Li7  1  0.000000  0.000000  0.000000  1
  Mn  Mn8  1  0.614710  0.364239  0.282419  1
  Mn  Mn9  1  0.385290  0.635761  0.717581  1
  Fe  Fe10  1  0.612793  0.863000  0.217393  1
  Fe  Fe11  1  0.112397  0.362137  0.217427  1
  Fe  Fe12  1  0.113022  0.863429  0.282437  1
  Fe  Fe13  1  0.886978  0.136571  0.717563  1
  Fe  Fe14  1  0.387207  0.137000  0.782607  1
  Fe  Fe15  1  0.887603  0.637863  0.782573  1
  P  P16  1  0.332636  0.082604  0.095070  1
  P  P17  1  0.835342  0.585387  0.094279  1
  P  P18  1  0.331254  0.583393  0.403394  1
  P  P19  1  0.833683  0.081586  0.404475  1
  P  P20  1  0.166317  0.918414  0.595525  1
  P  P21  1  0.668746  0.416607  0.596606  1
  P  P22  1  0.164658  0.414613  0.905721  1
  P  P23  1  0.667364  0.917396  0.904930  1
  O  O24  1  0.728741  0.978876  0.042047  1
  O  O25  1  0.227628  0.477630  0.042370  1
  O  O26  1  0.996387  0.746313  0.097809  1
  O  O27  1  0.494463  0.244299  0.097961  1
  O  O28  1  0.368059  0.915148  0.165419  1
  O  O29  1  0.666831  0.620431  0.164279  1
  O  O30  1  0.165070  0.117905  0.165394  1
  O  O31  1  0.870289  0.417013  0.164171  1
  O  O32  1  0.663594  0.112504  0.334844  1
  O  O33  1  0.869607  0.913461  0.334968  1
  O  O34  1  0.362709  0.413744  0.333995  1
  O  O35  1  0.163489  0.619925  0.334170  1
  O  O36  1  0.494498  0.743158  0.400825  1
  O  O37  1  0.993406  0.244499  0.400601  1
  O  O38  1  0.729456  0.477782  0.459258  1
  O  O39  1  0.227107  0.978787  0.458000  1
  O  O40  1  0.270544  0.522218  0.540742  1
  O  O41  1  0.772893  0.021213  0.542000  1
  O  O42  1  0.505502  0.256842  0.599175  1
  O  O43  1  0.006594  0.755501  0.599399  1
  O  O44  1  0.130393  0.086539  0.665032  1
  O  O45  1  0.336406  0.887496  0.665156  1
  O  O46  1  0.637291  0.586256  0.666005  1
  O  O47  1  0.836511  0.380075  0.665830  1
  O  O48  1  0.333169  0.379569  0.835721  1
  O  O49  1  0.631941  0.084852  0.834581  1
  O  O50  1  0.129711  0.582987  0.835829  1
  O  O51  1  0.834930  0.882095  0.834606  1
  O  O52  1  0.003613  0.253687  0.902191  1
  O  O53  1  0.505537  0.755701  0.902039  1
  O  O54  1  0.271259  0.021124  0.957953  1
  O  O55  1  0.772372  0.522370  0.957630  1
