# generated using pymatgen
data_Ho2(SO4)3
_symmetry_space_group_name_H-M   'P 1'
_cell_length_a   9.26933327
_cell_length_b   9.36124184
_cell_length_c   12.89413276
_cell_angle_alpha   90.00000000
_cell_angle_beta   90.00000000
_cell_angle_gamma   90.00000000
_symmetry_Int_Tables_number   1
_chemical_formula_structural   Ho2(SO4)3
_chemical_formula_sum   'Ho8 S12 O48'
_cell_volume   1118.85575372
_cell_formula_units_Z   4
loop_
 _symmetry_equiv_pos_site_id
 _symmetry_equiv_pos_as_xyz
  1  'x, y, z'
loop_
 _atom_site_type_symbol
 _atom_site_label
 _atom_site_symmetry_multiplicity
 _atom_site_fract_x
 _atom_site_fract_y
 _atom_site_fract_z
 _atom_site_occupancy
  Ho  Ho0  1  0.249410  0.962811  0.117343  1
  Ho  Ho1  1  0.750590  0.462811  0.117343  1
  Ho  Ho2  1  0.250590  0.462811  0.382657  1
  Ho  Ho3  1  0.749410  0.962811  0.382657  1
  Ho  Ho4  1  0.250590  0.037189  0.617343  1
  Ho  Ho5  1  0.749410  0.537189  0.617343  1
  Ho  Ho6  1  0.249410  0.537189  0.882657  1
  Ho  Ho7  1  0.750590  0.037189  0.882657  1
  S  S8  1  0.035390  0.250000  0.000000  1
  S  S9  1  0.964610  0.750000  0.000000  1
  S  S10  1  0.393598  0.611155  0.146211  1
  S  S11  1  0.606402  0.111155  0.146211  1
  S  S12  1  0.106402  0.111155  0.353789  1
  S  S13  1  0.893598  0.611155  0.353789  1
  S  S14  1  0.464610  0.750000  0.500000  1
  S  S15  1  0.535390  0.250000  0.500000  1
  S  S16  1  0.106402  0.388845  0.646211  1
  S  S17  1  0.893598  0.888845  0.646211  1
  S  S18  1  0.393598  0.888845  0.853789  1
  S  S19  1  0.606402  0.388845  0.853789  1
  O  O20  1  0.663300  0.076260  0.041786  1
  O  O21  1  0.336700  0.576260  0.041786  1
  O  O22  1  0.871915  0.650926  0.059551  1
  O  O23  1  0.128085  0.150926  0.059551  1
  O  O24  1  0.056246  0.830994  0.073709  1
  O  O25  1  0.943754  0.330994  0.073709  1
  O  O26  1  0.447578  0.093595  0.147588  1
  O  O27  1  0.552422  0.593595  0.147588  1
  O  O28  1  0.357817  0.761227  0.172816  1
  O  O29  1  0.642183  0.261227  0.172816  1
  O  O30  1  0.327607  0.512921  0.222946  1
  O  O31  1  0.672393  0.012921  0.222946  1
  O  O32  1  0.172393  0.012921  0.277054  1
  O  O33  1  0.827607  0.512921  0.277054  1
  O  O34  1  0.857817  0.761227  0.327184  1
  O  O35  1  0.142183  0.261227  0.327184  1
  O  O36  1  0.052422  0.593595  0.352412  1
  O  O37  1  0.947578  0.093595  0.352412  1
  O  O38  1  0.443754  0.330994  0.426291  1
  O  O39  1  0.556246  0.830994  0.426291  1
  O  O40  1  0.371915  0.650926  0.440449  1
  O  O41  1  0.628085  0.150926  0.440449  1
  O  O42  1  0.163300  0.076260  0.458214  1
  O  O43  1  0.836700  0.576260  0.458214  1
  O  O44  1  0.163300  0.423740  0.541786  1
  O  O45  1  0.836700  0.923740  0.541786  1
  O  O46  1  0.628085  0.349074  0.559551  1
  O  O47  1  0.371915  0.849074  0.559551  1
  O  O48  1  0.443754  0.169006  0.573709  1
  O  O49  1  0.556246  0.669006  0.573709  1
  O  O50  1  0.052422  0.906405  0.647588  1
  O  O51  1  0.947578  0.406405  0.647588  1
  O  O52  1  0.142183  0.238773  0.672816  1
  O  O53  1  0.857817  0.738773  0.672816  1
  O  O54  1  0.172393  0.487079  0.722946  1
  O  O55  1  0.827607  0.987079  0.722946  1
  O  O56  1  0.327607  0.987079  0.777054  1
  O  O57  1  0.672393  0.487079  0.777054  1
  O  O58  1  0.357817  0.738773  0.827184  1
  O  O59  1  0.642183  0.238773  0.827184  1
  O  O60  1  0.447578  0.406405  0.852412  1
  O  O61  1  0.552422  0.906405  0.852412  1
  O  O62  1  0.056246  0.669006  0.926291  1
  O  O63  1  0.943754  0.169006  0.926291  1
  O  O64  1  0.128085  0.349074  0.940449  1
  O  O65  1  0.871915  0.849074  0.940449  1
  O  O66  1  0.336700  0.923740  0.958214  1
  O  O67  1  0.663300  0.423740  0.958214  1
