# generated using pymatgen
data_Li2Fe2(CO3)3
_symmetry_space_group_name_H-M   'P 1'
_cell_length_a   6.01956117
_cell_length_b   6.01956117
_cell_length_c   5.05385292
_cell_angle_alpha   90.00000000
_cell_angle_beta   90.00000000
_cell_angle_gamma   108.78857180
_symmetry_Int_Tables_number   1
_chemical_formula_structural   Li2Fe2(CO3)3
_chemical_formula_sum   'Li2 Fe2 C3 O9'
_cell_volume   173.36875985
_cell_formula_units_Z   1
loop_
 _symmetry_equiv_pos_site_id
 _symmetry_equiv_pos_as_xyz
  1  'x, y, z'
loop_
 _atom_site_type_symbol
 _atom_site_label
 _atom_site_symmetry_multiplicity
 _atom_site_fract_x
 _atom_site_fract_y
 _atom_site_fract_z
 _atom_site_occupancy
  Li  Li0  1  0.776074  0.193989  0.500000  1
  Li  Li1  1  0.193989  0.776074  0.500000  1
  Fe  Fe2  1  0.909128  0.909128  0.000000  1
  Fe  Fe3  1  0.601497  0.601497  0.500000  1
  C  C4  1  0.866850  0.456392  0.000000  1
  C  C5  1  0.456392  0.866850  0.000000  1
  C  C6  1  0.241210  0.241210  0.500000  1
  O  O7  1  0.896040  0.257354  1.000000  1
  O  O8  1  0.257354  0.896040  0.000000  1
  O  O9  1  0.855927  0.568647  0.219926  1
  O  O10  1  0.568647  0.855927  0.219926  1
  O  O11  1  0.450352  0.223473  0.500000  1
  O  O12  1  0.054984  0.054984  0.500000  1
  O  O13  1  0.223473  0.450352  0.500000  1
  O  O14  1  0.855927  0.568647  0.780074  1
  O  O15  1  0.568647  0.855927  0.780074  1
