# generated using pymatgen
data_KSO4
_symmetry_space_group_name_H-M   'P 1'
_cell_length_a   5.16179831
_cell_length_b   5.85688837
_cell_length_c   7.02734447
_cell_angle_alpha   104.92323877
_cell_angle_beta   104.23463708
_cell_angle_gamma   91.82962493
_symmetry_Int_Tables_number   1
_chemical_formula_structural   KSO4
_chemical_formula_sum   'K2 S2 O8'
_cell_volume   197.95101922
_cell_formula_units_Z   2
loop_
 _symmetry_equiv_pos_site_id
 _symmetry_equiv_pos_as_xyz
  1  'x, y, z'
loop_
 _atom_site_type_symbol
 _atom_site_label
 _atom_site_symmetry_multiplicity
 _atom_site_fract_x
 _atom_site_fract_y
 _atom_site_fract_z
 _atom_site_occupancy
  K  K0  1  0.408197  0.193237  0.279406  1
  K  K1  1  0.591803  0.806763  0.720594  1
  S  S2  1  0.092394  0.286496  0.751383  1
  S  S3  1  0.907606  0.713504  0.248617  1
  O  O4  1  0.228630  0.126058  0.861986  1
  O  O5  1  0.771370  0.873942  0.138014  1
  O  O6  1  0.817404  0.196221  0.634944  1
  O  O7  1  0.182596  0.803779  0.365056  1
  O  O8  1  0.926498  0.464819  0.070979  1
  O  O9  1  0.073502  0.535181  0.929021  1
  O  O10  1  0.749644  0.602166  0.351878  1
  O  O11  1  0.250356  0.397834  0.648122  1
