# generated using pymatgen
data_LiMn2(PO4)2
_symmetry_space_group_name_H-M   'P 1'
_cell_length_a   5.06664692
_cell_length_b   5.06664692
_cell_length_c   7.23191869
_cell_angle_alpha   89.63753146
_cell_angle_beta   90.36246854
_cell_angle_gamma   90.79347261
_symmetry_Int_Tables_number   1
_chemical_formula_structural   LiMn2(PO4)2
_chemical_formula_sum   'Li1 Mn2 P2 O8'
_cell_volume   185.62481124
_cell_formula_units_Z   1
loop_
 _symmetry_equiv_pos_site_id
 _symmetry_equiv_pos_as_xyz
  1  'x, y, z'
loop_
 _atom_site_type_symbol
 _atom_site_label
 _atom_site_symmetry_multiplicity
 _atom_site_fract_x
 _atom_site_fract_y
 _atom_site_fract_z
 _atom_site_occupancy
  Li  Li0  1  0.498591  0.498591  0.000000  1
  Mn  Mn1  1  0.973893  0.973893  0.000000  1
  Mn  Mn2  1  0.518325  0.518325  0.500000  1
  P  P3  1  0.005450  0.493716  0.247189  1
  P  P4  1  0.493716  0.005450  0.752811  1
  O  O5  1  0.707604  0.562650  0.240478  1
  O  O6  1  0.139032  0.645626  0.078185  1
  O  O7  1  0.575017  0.129171  0.568930  1
  O  O8  1  0.053964  0.196960  0.213033  1
  O  O9  1  0.196960  0.053964  0.786967  1
  O  O10  1  0.129171  0.575017  0.431070  1
  O  O11  1  0.645626  0.139032  0.921815  1
  O  O12  1  0.562650  0.707604  0.759522  1
