# generated using pymatgen
data_Co3(OF2)2
_symmetry_space_group_name_H-M   'P 1'
_cell_length_a   5.62091648
_cell_length_b   5.62091648
_cell_length_c   7.51280305
_cell_angle_alpha   70.40577338
_cell_angle_beta   109.59422662
_cell_angle_gamma   110.42264424
_symmetry_Int_Tables_number   1
_chemical_formula_structural   Co3(OF2)2
_chemical_formula_sum   'Co6 O4 F8'
_cell_volume   203.05415279
_cell_formula_units_Z   2
loop_
 _symmetry_equiv_pos_site_id
 _symmetry_equiv_pos_as_xyz
  1  'x, y, z'
loop_
 _atom_site_type_symbol
 _atom_site_label
 _atom_site_symmetry_multiplicity
 _atom_site_fract_x
 _atom_site_fract_y
 _atom_site_fract_z
 _atom_site_occupancy
  Co  Co0  1  0.674727  0.354860  0.160953  1
  Co  Co1  1  0.647207  0.313201  0.663951  1
  Co  Co2  1  0.313201  0.647207  0.336049  1
  Co  Co3  1  0.354860  0.674727  0.839047  1
  Co  Co4  1  0.018064  0.018064  0.500000  1
  Co  Co5  1  0.011084  0.011084  0.000000  1
  O  O6  1  0.352970  0.001156  0.674613  1
  O  O7  1  0.001156  0.352970  0.325387  1
  O  O8  1  0.722609  0.722609  0.000000  1
  O  O9  1  0.314142  0.314142  0.000000  1
  F  F10  1  0.962685  0.624917  0.665378  1
  F  F11  1  0.624917  0.962685  0.334622  1
  F  F12  1  0.559460  0.429022  0.367671  1
  F  F13  1  0.908273  0.093731  0.695068  1
  F  F14  1  0.238285  0.773607  0.037873  1
  F  F15  1  0.429022  0.559460  0.632329  1
  F  F16  1  0.773607  0.238285  0.962127  1
  F  F17  1  0.093731  0.908273  0.304932  1
