# generated using pymatgen
data_KMg2B12H19O30
_symmetry_space_group_name_H-M   'P 1'
_cell_length_a   10.28039817
_cell_length_b   10.28039817
_cell_length_c   14.80798762
_cell_angle_alpha   80.85100362
_cell_angle_beta   99.14899638
_cell_angle_gamma   131.07699251
_symmetry_Int_Tables_number   1
_chemical_formula_structural   KMg2B12H19O30
_chemical_formula_sum   'K2 Mg4 B24 H38 O60'
_cell_volume   1161.60534468
_cell_formula_units_Z   2
loop_
 _symmetry_equiv_pos_site_id
 _symmetry_equiv_pos_as_xyz
  1  'x, y, z'
loop_
 _atom_site_type_symbol
 _atom_site_label
 _atom_site_symmetry_multiplicity
 _atom_site_fract_x
 _atom_site_fract_y
 _atom_site_fract_z
 _atom_site_occupancy
  K  K0  1  0.122829  0.122829  0.750000  1
  K  K1  1  0.877171  0.877171  0.250000  1
  Mg  Mg2  1  0.559712  0.284147  0.664852  1
  Mg  Mg3  1  0.284147  0.559712  0.835148  1
  Mg  Mg4  1  0.440288  0.715853  0.335148  1
  Mg  Mg5  1  0.715853  0.440288  0.164852  1
  B  B6  1  0.646872  0.646115  0.608449  1
  B  B7  1  0.646115  0.646872  0.891551  1
  B  B8  1  0.353128  0.353885  0.391551  1
  B  B9  1  0.353885  0.353128  0.108449  1
  B  B10  1  0.906623  0.768624  0.525347  1
  B  B11  1  0.768624  0.906623  0.974653  1
  B  B12  1  0.093377  0.231376  0.474653  1
  B  B13  1  0.231376  0.093377  0.025347  1
  B  B14  1  0.905965  0.684675  0.696531  1
  B  B15  1  0.684675  0.905965  0.803469  1
  B  B16  1  0.094035  0.315325  0.303469  1
  B  B17  1  0.315325  0.094035  0.196531  1
  B  B18  1  0.465727  0.938968  0.754936  1
  B  B19  1  0.938968  0.465727  0.745064  1
  B  B20  1  0.534273  0.061032  0.245064  1
  B  B21  1  0.061032  0.534273  0.254936  1
  B  B22  1  0.764568  0.155542  0.693095  1
  B  B23  1  0.155542  0.764568  0.806905  1
  B  B24  1  0.235432  0.844458  0.306905  1
  B  B25  1  0.844458  0.235432  0.193095  1
  B  B26  1  0.738680  0.255830  0.522664  1
  B  B27  1  0.255830  0.738680  0.977336  1
  B  B28  1  0.261320  0.744170  0.477336  1
  B  B29  1  0.744170  0.261320  0.022664  1
  H  H30  1  0.262653  0.262653  0.250000  1
  H  H31  1  0.737347  0.737347  0.750000  1
  H  H32  1  0.634326  0.830729  0.631805  1
  H  H33  1  0.830729  0.634326  0.868195  1
  H  H34  1  0.365674  0.169271  0.368195  1
  H  H35  1  0.169271  0.365674  0.131805  1
  H  H36  1  0.923652  0.162727  0.565057  1
  H  H37  1  0.162727  0.923652  0.934943  1
  H  H38  1  0.076348  0.837273  0.434943  1
  H  H39  1  0.837273  0.076348  0.065057  1
  H  H40  1  0.418720  0.406070  0.566812  1
  H  H41  1  0.406070  0.418720  0.933188  1
  H  H42  1  0.581280  0.593930  0.433188  1
  H  H43  1  0.593930  0.581280  0.066812  1
  H  H44  1  0.136486  0.728056  0.577829  1
  H  H45  1  0.728056  0.136486  0.922171  1
  H  H46  1  0.863514  0.271944  0.422171  1
  H  H47  1  0.271944  0.863514  0.077829  1
  H  H48  1  0.570436  0.299030  0.482924  1
  H  H49  1  0.299030  0.570436  0.017076  1
  H  H50  1  0.429564  0.700970  0.517076  1
  H  H51  1  0.700970  0.429564  0.982924  1
  H  H52  1  0.221257  0.977516  0.628909  1
  H  H53  1  0.977516  0.221257  0.871091  1
  H  H54  1  0.778743  0.022484  0.371091  1
  H  H55  1  0.022484  0.778743  0.128909  1
  H  H56  1  0.269197  0.132966  0.555628  1
  H  H57  1  0.132966  0.269197  0.944372  1
  H  H58  1  0.730803  0.867034  0.444372  1
  H  H59  1  0.867034  0.730803  0.055628  1
  H  H60  1  0.375839  0.568328  0.673775  1
  H  H61  1  0.568328  0.375839  0.826225  1
  H  H62  1  0.624161  0.431672  0.326225  1
  H  H63  1  0.431672  0.624161  0.173775  1
  H  H64  1  0.189455  0.504937  0.664990  1
  H  H65  1  0.504937  0.189455  0.835010  1
  H  H66  1  0.810545  0.495063  0.335010  1
  H  H67  1  0.495063  0.810545  0.164990  1
  O  O68  1  0.743234  0.717087  0.524211  1
  O  O69  1  0.717087  0.743234  0.975789  1
  O  O70  1  0.256766  0.282913  0.475789  1
  O  O71  1  0.282913  0.256766  0.024211  1
  O  O72  1  0.769474  0.697899  0.689552  1
  O  O73  1  0.697899  0.769474  0.810448  1
  O  O74  1  0.230526  0.302101  0.310448  1
  O  O75  1  0.302101  0.230526  0.189552  1
  O  O76  1  0.989875  0.756817  0.605273  1
  O  O77  1  0.756817  0.989875  0.894727  1
  O  O78  1  0.010125  0.243183  0.394727  1
  O  O79  1  0.243183  0.010125  0.105273  1
  O  O80  1  0.775953  0.023049  0.727041  1
  O  O81  1  0.023049  0.775953  0.772959  1
  O  O82  1  0.224047  0.976951  0.272959  1
  O  O83  1  0.976951  0.224047  0.227041  1
  O  O84  1  0.827489  0.496665  0.707405  1
  O  O85  1  0.496665  0.827489  0.792595  1
  O  O86  1  0.172511  0.503335  0.292595  1
  O  O87  1  0.503335  0.172511  0.207405  1
  O  O88  1  0.903265  0.315417  0.738072  1
  O  O89  1  0.315417  0.903265  0.761928  1
  O  O90  1  0.096735  0.684583  0.261928  1
  O  O91  1  0.684583  0.096735  0.238072  1
  O  O92  1  0.592510  0.098529  0.710114  1
  O  O93  1  0.098529  0.592510  0.789886  1
  O  O94  1  0.407490  0.901471  0.289886  1
  O  O95  1  0.901471  0.407490  0.210114  1
  O  O96  1  0.787806  0.188181  0.591748  1
  O  O97  1  0.188181  0.787806  0.908252  1
  O  O98  1  0.212194  0.811819  0.408252  1
  O  O99  1  0.811819  0.212194  0.091748  1
  O  O100  1  0.557329  0.714484  0.608550  1
  O  O101  1  0.714484  0.557329  0.891450  1
  O  O102  1  0.442671  0.285516  0.391450  1
  O  O103  1  0.285516  0.442671  0.108550  1
  O  O104  1  0.020107  0.165290  0.557253  1
  O  O105  1  0.165290  0.020107  0.942747  1
  O  O106  1  0.979893  0.834710  0.442747  1
  O  O107  1  0.834710  0.979893  0.057253  1
  O  O108  1  0.518915  0.456187  0.612490  1
  O  O109  1  0.456187  0.518915  0.887510  1
  O  O110  1  0.481085  0.543813  0.387510  1
  O  O111  1  0.543813  0.481085  0.112490  1
  O  O112  1  0.210422  0.703845  0.565276  1
  O  O113  1  0.703845  0.210422  0.934724  1
  O  O114  1  0.789578  0.296155  0.434724  1
  O  O115  1  0.296155  0.789578  0.065276  1
  O  O116  1  0.633092  0.289116  0.539052  1
  O  O117  1  0.289116  0.633092  0.960948  1
  O  O118  1  0.366908  0.710884  0.460948  1
  O  O119  1  0.710884  0.366908  0.039052  1
  O  O120  1  0.304384  0.103718  0.615529  1
  O  O121  1  0.103718  0.304384  0.884471  1
  O  O122  1  0.695616  0.896282  0.384471  1
  O  O123  1  0.896282  0.695616  0.115529  1
  O  O124  1  0.265674  0.491374  0.705174  1
  O  O125  1  0.491374  0.265674  0.794826  1
  O  O126  1  0.734326  0.508626  0.294826  1
  O  O127  1  0.508626  0.734326  0.205174  1
