# generated using pymatgen
data_Na3Ni(BO3)2
_symmetry_space_group_name_H-M   'P 1'
_cell_length_a   5.61066683
_cell_length_b   9.56019960
_cell_length_c   11.37207507
_cell_angle_alpha   90.00000000
_cell_angle_beta   114.55588304
_cell_angle_gamma   90.00000000
_symmetry_Int_Tables_number   1
_chemical_formula_structural   Na3Ni(BO3)2
_chemical_formula_sum   'Na12 Ni4 B8 O24'
_cell_volume   554.81830061
_cell_formula_units_Z   4
loop_
 _symmetry_equiv_pos_site_id
 _symmetry_equiv_pos_as_xyz
  1  'x, y, z'
loop_
 _atom_site_type_symbol
 _atom_site_label
 _atom_site_symmetry_multiplicity
 _atom_site_fract_x
 _atom_site_fract_y
 _atom_site_fract_z
 _atom_site_occupancy
  Na  Na0  1  0.989124  0.970142  0.643711  1
  Na  Na1  1  0.961951  0.659898  0.625314  1
  Na  Na2  1  0.430664  0.988684  0.118519  1
  Na  Na3  1  0.038049  0.159898  0.874686  1
  Na  Na4  1  0.010876  0.470142  0.856289  1
  Na  Na5  1  0.569336  0.488684  0.381481  1
  Na  Na6  1  0.430664  0.511316  0.618519  1
  Na  Na7  1  0.989124  0.529858  0.143711  1
  Na  Na8  1  0.961951  0.840102  0.125314  1
  Na  Na9  1  0.569336  0.011316  0.881481  1
  Na  Na10  1  0.038049  0.340102  0.374686  1
  Na  Na11  1  0.010876  0.029858  0.356289  1
  Ni  Ni12  1  0.485392  0.310781  0.126550  1
  Ni  Ni13  1  0.514608  0.810781  0.373450  1
  Ni  Ni14  1  0.485392  0.189219  0.626550  1
  Ni  Ni15  1  0.514608  0.689219  0.873450  1
  B  B16  1  0.945310  0.310495  0.618392  1
  B  B17  1  0.476799  0.648572  0.132463  1
  B  B18  1  0.054690  0.810495  0.881608  1
  B  B19  1  0.523201  0.148572  0.367537  1
  B  B20  1  0.476799  0.851428  0.632463  1
  B  B21  1  0.945310  0.189505  0.118392  1
  B  B22  1  0.523201  0.351428  0.867537  1
  B  B23  1  0.054690  0.689505  0.381608  1
  O  O24  1  0.366421  0.321592  0.932129  1
  O  O25  1  0.833895  0.694612  0.407390  1
  O  O26  1  0.182476  0.935284  0.888344  1
  O  O27  1  0.141349  0.686633  0.847454  1
  O  O28  1  0.609904  0.263145  0.318910  1
  O  O29  1  0.593807  0.014682  0.348357  1
  O  O30  1  0.858651  0.186633  0.652546  1
  O  O31  1  0.406193  0.514682  0.151643  1
  O  O32  1  0.817524  0.435284  0.611656  1
  O  O33  1  0.390096  0.763145  0.181090  1
  O  O34  1  0.633579  0.821592  0.567871  1
  O  O35  1  0.166105  0.194612  0.092610  1
  O  O36  1  0.833895  0.805388  0.907390  1
  O  O37  1  0.366421  0.178408  0.432129  1
  O  O38  1  0.609904  0.236855  0.818910  1
  O  O39  1  0.182476  0.564716  0.388344  1
  O  O40  1  0.593807  0.485318  0.848357  1
  O  O41  1  0.141349  0.813367  0.347454  1
  O  O42  1  0.406193  0.985318  0.651643  1
  O  O43  1  0.390096  0.736855  0.681090  1
  O  O44  1  0.858651  0.313367  0.152546  1
  O  O45  1  0.817524  0.064716  0.111656  1
  O  O46  1  0.166105  0.305388  0.592610  1
  O  O47  1  0.633579  0.678408  0.067871  1
