# generated using pymatgen
data_CuH20Se2(NO7)2
_symmetry_space_group_name_H-M   'P 1'
_cell_length_a   6.58927063
_cell_length_b   12.67350818
_cell_length_c   9.30929640
_cell_angle_alpha   90.00000000
_cell_angle_beta   105.87854320
_cell_angle_gamma   90.00000000
_symmetry_Int_Tables_number   1
_chemical_formula_structural   CuH20Se2(NO7)2
_chemical_formula_sum   'Cu2 H40 Se4 N4 O28'
_cell_volume   747.74861839
_cell_formula_units_Z   2
loop_
 _symmetry_equiv_pos_site_id
 _symmetry_equiv_pos_as_xyz
  1  'x, y, z'
loop_
 _atom_site_type_symbol
 _atom_site_label
 _atom_site_symmetry_multiplicity
 _atom_site_fract_x
 _atom_site_fract_y
 _atom_site_fract_z
 _atom_site_occupancy
  Cu  Cu0  1  0.500000  0.500000  0.000000  1
  Cu  Cu1  1  0.500000  0.000000  0.500000  1
  H  H2  1  0.186302  0.556837  0.101817  1
  H  H3  1  0.813698  0.056837  0.398183  1
  H  H4  1  0.813698  0.443163  0.898183  1
  H  H5  1  0.186302  0.943163  0.601817  1
  H  H6  1  0.186424  0.640982  0.975180  1
  H  H7  1  0.813576  0.140982  0.524820  1
  H  H8  1  0.813576  0.359018  0.024820  1
  H  H9  1  0.186424  0.859018  0.475180  1
  H  H10  1  0.511172  0.680215  0.870637  1
  H  H11  1  0.488828  0.180215  0.629363  1
  H  H12  1  0.488828  0.319785  0.129363  1
  H  H13  1  0.511172  0.819785  0.370637  1
  H  H14  1  0.440176  0.592274  0.742405  1
  H  H15  1  0.559824  0.092274  0.757595  1
  H  H16  1  0.559824  0.407726  0.257595  1
  H  H17  1  0.440176  0.907726  0.242405  1
  H  H18  1  0.827753  0.590635  0.214058  1
  H  H19  1  0.172247  0.090635  0.285942  1
  H  H20  1  0.172247  0.409365  0.785942  1
  H  H21  1  0.827753  0.909365  0.714058  1
  H  H22  1  0.623148  0.625746  0.260736  1
  H  H23  1  0.376852  0.125746  0.239264  1
  H  H24  1  0.376852  0.374254  0.739264  1
  H  H25  1  0.623148  0.874254  0.760736  1
  H  H26  1  0.873761  0.580266  0.664562  1
  H  H27  1  0.126239  0.080266  0.835438  1
  H  H28  1  0.126239  0.419734  0.335438  1
  H  H29  1  0.873761  0.919734  0.164562  1
  H  H30  1  0.893132  0.705566  0.730306  1
  H  H31  1  0.106868  0.205566  0.769694  1
  H  H32  1  0.106868  0.294434  0.269694  1
  H  H33  1  0.893132  0.794434  0.230306  1
  H  H34  1  0.706992  0.673769  0.568750  1
  H  H35  1  0.293008  0.173769  0.931250  1
  H  H36  1  0.293008  0.326231  0.431250  1
  H  H37  1  0.706992  0.826231  0.068750  1
  H  H38  1  0.961984  0.680668  0.572474  1
  H  H39  1  0.038016  0.180668  0.927526  1
  H  H40  1  0.038016  0.319332  0.427526  1
  H  H41  1  0.961984  0.819332  0.072474  1
  Se  Se42  1  0.249665  0.635245  0.419260  1
  Se  Se43  1  0.750335  0.135245  0.080740  1
  Se  Se44  1  0.750335  0.364755  0.580740  1
  Se  Se45  1  0.249665  0.864755  0.919260  1
  N  N46  1  0.859127  0.659944  0.635434  1
  N  N47  1  0.140873  0.159944  0.864566  1
  N  N48  1  0.140873  0.340056  0.364566  1
  N  N49  1  0.859127  0.840056  0.135434  1
  O  O50  1  0.478683  0.683141  0.398337  1
  O  O51  1  0.521317  0.183141  0.101663  1
  O  O52  1  0.521317  0.316859  0.601663  1
  O  O53  1  0.478683  0.816859  0.898337  1
  O  O54  1  0.126934  0.558791  0.274116  1
  O  O55  1  0.873066  0.058791  0.225884  1
  O  O56  1  0.873066  0.441209  0.725884  1
  O  O57  1  0.126934  0.941209  0.774116  1
  O  O58  1  0.087968  0.737129  0.425650  1
  O  O59  1  0.912032  0.237129  0.074350  1
  O  O60  1  0.912032  0.262871  0.574350  1
  O  O61  1  0.087968  0.762871  0.925650  1
  O  O62  1  0.287403  0.565138  0.575349  1
  O  O63  1  0.712597  0.065138  0.924651  1
  O  O64  1  0.712597  0.434862  0.424651  1
  O  O65  1  0.287403  0.934862  0.075349  1
  O  O66  1  0.216823  0.565116  0.003434  1
  O  O67  1  0.783177  0.065116  0.496566  1
  O  O68  1  0.783177  0.434884  0.996566  1
  O  O69  1  0.216823  0.934884  0.503434  1
  O  O70  1  0.534616  0.605821  0.845445  1
  O  O71  1  0.465384  0.105821  0.654555  1
  O  O72  1  0.465384  0.394179  0.154555  1
  O  O73  1  0.534616  0.894179  0.345445  1
  O  O74  1  0.684256  0.619671  0.175671  1
  O  O75  1  0.315744  0.119671  0.324329  1
  O  O76  1  0.315744  0.380329  0.824329  1
  O  O77  1  0.684256  0.880329  0.675671  1
