# generated using pymatgen
data_Na6MnO4
_symmetry_space_group_name_H-M   'P 1'
_cell_length_a   7.58983334
_cell_length_b   7.58983334
_cell_length_c   5.52013952
_cell_angle_alpha   90.00000000
_cell_angle_beta   90.00000000
_cell_angle_gamma   90.00000000
_symmetry_Int_Tables_number   1
_chemical_formula_structural   Na6MnO4
_chemical_formula_sum   'Na12 Mn2 O8'
_cell_volume   317.99078384
_cell_formula_units_Z   2
loop_
 _symmetry_equiv_pos_site_id
 _symmetry_equiv_pos_as_xyz
  1  'x, y, z'
loop_
 _atom_site_type_symbol
 _atom_site_label
 _atom_site_symmetry_multiplicity
 _atom_site_fract_x
 _atom_site_fract_y
 _atom_site_fract_z
 _atom_site_occupancy
  Na  Na0  1  0.286998  0.286998  0.500000  1
  Na  Na1  1  0.713002  0.286998  0.500000  1
  Na  Na2  1  0.000000  0.500000  0.417170  1
  Na  Na3  1  0.000000  0.500000  0.917170  1
  Na  Na4  1  0.286998  0.713002  0.500000  1
  Na  Na5  1  0.713002  0.713002  0.500000  1
  Na  Na6  1  0.786998  0.786998  0.000000  1
  Na  Na7  1  0.213002  0.786998  0.000000  1
  Na  Na8  1  0.500000  0.000000  0.082830  1
  Na  Na9  1  0.500000  0.000000  0.582830  1
  Na  Na10  1  0.786998  0.213002  0.000000  1
  Na  Na11  1  0.213002  0.213002  0.000000  1
  Mn  Mn12  1  0.500000  0.500000  0.000000  1
  Mn  Mn13  1  0.000000  0.000000  0.500000  1
  O  O14  1  0.000000  0.248401  0.686423  1
  O  O15  1  0.748401  0.500000  0.186423  1
  O  O16  1  0.251599  0.500000  0.186423  1
  O  O17  1  0.000000  0.751599  0.686423  1
  O  O18  1  0.500000  0.748401  0.813577  1
  O  O19  1  0.751599  0.000000  0.313577  1
  O  O20  1  0.248401  0.000000  0.313577  1
  O  O21  1  0.500000  0.251599  0.813577  1
