# generated using pymatgen
data_Mn3Sb(PO4)6
_symmetry_space_group_name_H-M   'P 1'
_cell_length_a   8.73006502
_cell_length_b   8.73006502
_cell_length_c   8.73006502
_cell_angle_alpha   58.08154050
_cell_angle_beta   58.08154050
_cell_angle_gamma   58.08154050
_symmetry_Int_Tables_number   1
_chemical_formula_structural   Mn3Sb(PO4)6
_chemical_formula_sum   'Mn3 Sb1 P6 O24'
_cell_volume   449.78072458
_cell_formula_units_Z   1
loop_
 _symmetry_equiv_pos_site_id
 _symmetry_equiv_pos_as_xyz
  1  'x, y, z'
loop_
 _atom_site_type_symbol
 _atom_site_label
 _atom_site_symmetry_multiplicity
 _atom_site_fract_x
 _atom_site_fract_y
 _atom_site_fract_z
 _atom_site_occupancy
  Mn  Mn0  1  0.855353  0.855353  0.855353  1
  Mn  Mn1  1  0.644633  0.644633  0.644633  1
  Mn  Mn2  1  0.356225  0.356225  0.356225  1
  Sb  Sb3  1  0.142683  0.142683  0.142683  1
  P  P4  1  0.251720  0.541254  0.962366  1
  P  P5  1  0.962366  0.251720  0.541254  1
  P  P6  1  0.541254  0.962366  0.251720  1
  P  P7  1  0.469815  0.033900  0.743605  1
  P  P8  1  0.033900  0.743605  0.469815  1
  P  P9  1  0.743605  0.469815  0.033900  1
  O  O10  1  0.723153  0.490785  0.859376  1
  O  O11  1  0.490785  0.859376  0.723153  1
  O  O12  1  0.073067  0.722732  0.939764  1
  O  O13  1  0.859376  0.723153  0.490785  1
  O  O14  1  0.427633  0.562952  0.779001  1
  O  O15  1  0.228912  0.366256  0.980767  1
  O  O16  1  0.939764  0.073067  0.722732  1
  O  O17  1  0.779001  0.427633  0.562952  1
  O  O18  1  0.562952  0.779001  0.427633  1
  O  O19  1  0.639391  0.011782  0.774511  1
  O  O20  1  0.282276  0.055973  0.921845  1
  O  O21  1  0.011782  0.774511  0.639391  1
  O  O22  1  0.980767  0.228912  0.366256  1
  O  O23  1  0.722732  0.939764  0.073067  1
  O  O24  1  0.366257  0.980767  0.228912  1
  O  O25  1  0.443308  0.219064  0.570451  1
  O  O26  1  0.219064  0.570451  0.443308  1
  O  O27  1  0.055973  0.921845  0.282276  1
  O  O28  1  0.774511  0.639391  0.011782  1
  O  O29  1  0.570451  0.443308  0.219064  1
  O  O30  1  0.139721  0.274094  0.511629  1
  O  O31  1  0.921845  0.282276  0.055973  1
  O  O32  1  0.511629  0.139721  0.274094  1
  O  O33  1  0.274094  0.511629  0.139721  1
