# generated using pymatgen
data_Na2DyPCO7
_symmetry_space_group_name_H-M   'P 1'
_cell_length_a   5.22862402
_cell_length_b   7.01046720
_cell_length_c   9.27597110
_cell_angle_alpha   90.00000000
_cell_angle_beta   90.87174942
_cell_angle_gamma   90.00000000
_symmetry_Int_Tables_number   1
_chemical_formula_structural   Na2DyPCO7
_chemical_formula_sum   'Na4 Dy2 P2 C2 O14'
_cell_volume   339.97226787
_cell_formula_units_Z   2
loop_
 _symmetry_equiv_pos_site_id
 _symmetry_equiv_pos_as_xyz
  1  'x, y, z'
loop_
 _atom_site_type_symbol
 _atom_site_label
 _atom_site_symmetry_multiplicity
 _atom_site_fract_x
 _atom_site_fract_y
 _atom_site_fract_z
 _atom_site_occupancy
  Na  Na0  1  0.232017  0.498485  0.209751  1
  Na  Na1  1  0.232017  0.001515  0.209751  1
  Na  Na2  1  0.767983  0.501515  0.790249  1
  Na  Na3  1  0.767983  0.998485  0.790249  1
  Dy  Dy4  1  0.776168  0.750000  0.369489  1
  Dy  Dy5  1  0.223832  0.250000  0.630511  1
  P  P6  1  0.705733  0.250000  0.417534  1
  P  P7  1  0.294267  0.750000  0.582466  1
  C  C8  1  0.731559  0.750000  0.072145  1
  C  C9  1  0.268441  0.250000  0.927855  1
  O  O10  1  0.300056  0.250000  0.062425  1
  O  O11  1  0.958227  0.750000  0.136341  1
  O  O12  1  0.536411  0.750000  0.162664  1
  O  O13  1  0.815220  0.068571  0.346616  1
  O  O14  1  0.815220  0.431429  0.346616  1
  O  O15  1  0.219602  0.750000  0.416838  1
  O  O16  1  0.407112  0.250000  0.408300  1
  O  O17  1  0.592888  0.750000  0.591700  1
  O  O18  1  0.780398  0.250000  0.583162  1
  O  O19  1  0.184780  0.568571  0.653384  1
  O  O20  1  0.184780  0.931429  0.653384  1
  O  O21  1  0.463589  0.250000  0.837336  1
  O  O22  1  0.041773  0.250000  0.863659  1
  O  O23  1  0.699944  0.750000  0.937575  1
