# generated using pymatgen
data_Mn3Sb(PO4)4
_symmetry_space_group_name_H-M   'P 1'
_cell_length_a   5.04097130
_cell_length_b   6.15350788
_cell_length_c   10.06642913
_cell_angle_alpha   90.00000000
_cell_angle_beta   91.14269510
_cell_angle_gamma   90.00000000
_symmetry_Int_Tables_number   1
_chemical_formula_structural   Mn3Sb(PO4)4
_chemical_formula_sum   'Mn3 Sb1 P4 O16'
_cell_volume   312.19507625
_cell_formula_units_Z   1
loop_
 _symmetry_equiv_pos_site_id
 _symmetry_equiv_pos_as_xyz
  1  'x, y, z'
loop_
 _atom_site_type_symbol
 _atom_site_label
 _atom_site_symmetry_multiplicity
 _atom_site_fract_x
 _atom_site_fract_y
 _atom_site_fract_z
 _atom_site_occupancy
  Mn  Mn0  1  0.913555  0.500000  0.713747  1
  Mn  Mn1  1  0.575488  0.500000  0.209474  1
  Mn  Mn2  1  0.414427  0.000000  0.787072  1
  Sb  Sb3  1  0.049842  0.000000  0.285149  1
  P  P4  1  0.894455  0.000000  0.610900  1
  P  P5  1  0.588968  0.000000  0.088113  1
  P  P6  1  0.416837  0.500000  0.895074  1
  P  P7  1  0.103444  0.500000  0.406279  1
  O  O8  1  0.815235  0.000000  0.461515  1
  O  O9  1  0.764883  0.198382  0.680659  1
  O  O10  1  0.764883  0.801618  0.680659  1
  O  O11  1  0.809715  0.500000  0.367813  1
  O  O12  1  0.720405  0.500000  0.875743  1
  O  O13  1  0.731742  0.194918  0.162733  1
  O  O14  1  0.731742  0.805082  0.162733  1
  O  O15  1  0.651988  0.000000  0.940678  1
  O  O16  1  0.365458  0.500000  0.045060  1
  O  O17  1  0.276338  0.697965  0.827127  1
  O  O18  1  0.276338  0.302035  0.827127  1
  O  O19  1  0.288313  0.000000  0.107584  1
  O  O20  1  0.198986  0.000000  0.625715  1
  O  O21  1  0.256552  0.695171  0.340660  1
  O  O22  1  0.256552  0.304829  0.340660  1
  O  O23  1  0.133857  0.500000  0.557726  1
