# generated using pymatgen
data_RbFeH4Cl3O2
_symmetry_space_group_name_H-M   'P 1'
_cell_length_a   7.04036322
_cell_length_b   8.98861353
_cell_length_c   11.43691480
_cell_angle_alpha   90.00000000
_cell_angle_beta   90.00000000
_cell_angle_gamma   90.00000000
_symmetry_Int_Tables_number   1
_chemical_formula_structural   RbFeH4Cl3O2
_chemical_formula_sum   'Rb4 Fe4 H16 Cl12 O8'
_cell_volume   723.76346982
_cell_formula_units_Z   4
loop_
 _symmetry_equiv_pos_site_id
 _symmetry_equiv_pos_as_xyz
  1  'x, y, z'
loop_
 _atom_site_type_symbol
 _atom_site_label
 _atom_site_symmetry_multiplicity
 _atom_site_fract_x
 _atom_site_fract_y
 _atom_site_fract_z
 _atom_site_occupancy
  Rb  Rb0  1  0.000000  0.750000  0.650312  1
  Rb  Rb1  1  0.000000  0.250000  0.849688  1
  Rb  Rb2  1  0.000000  0.250000  0.349688  1
  Rb  Rb3  1  0.000000  0.750000  0.150312  1
  Fe  Fe4  1  0.468733  0.000000  0.750000  1
  Fe  Fe5  1  0.531267  0.500000  0.750000  1
  Fe  Fe6  1  0.531267  0.000000  0.250000  1
  Fe  Fe7  1  0.468733  0.500000  0.250000  1
  H  H8  1  0.695815  0.975334  0.948148  1
  H  H9  1  0.304185  0.524666  0.948148  1
  H  H10  1  0.304185  0.475334  0.551852  1
  H  H11  1  0.695815  0.024666  0.551852  1
  H  H12  1  0.304185  0.024666  0.051852  1
  H  H13  1  0.695815  0.475334  0.051852  1
  H  H14  1  0.695815  0.524666  0.448148  1
  H  H15  1  0.304185  0.975334  0.448148  1
  H  H16  1  0.701585  0.817592  0.884758  1
  H  H17  1  0.298415  0.682408  0.884758  1
  H  H18  1  0.298415  0.317592  0.615242  1
  H  H19  1  0.701585  0.182408  0.615242  1
  H  H20  1  0.298415  0.182408  0.115242  1
  H  H21  1  0.701585  0.317592  0.115242  1
  H  H22  1  0.701585  0.682408  0.384758  1
  H  H23  1  0.298415  0.817592  0.384758  1
  Cl  Cl24  1  0.500000  0.750000  0.649785  1
  Cl  Cl25  1  0.500000  0.250000  0.850215  1
  Cl  Cl26  1  0.500000  0.250000  0.350215  1
  Cl  Cl27  1  0.500000  0.750000  0.149785  1
  Cl  Cl28  1  0.208177  0.913193  0.888655  1
  Cl  Cl29  1  0.791823  0.586807  0.888655  1
  Cl  Cl30  1  0.791823  0.413193  0.611345  1
  Cl  Cl31  1  0.208177  0.086807  0.611345  1
  Cl  Cl32  1  0.791823  0.086807  0.111345  1
  Cl  Cl33  1  0.208177  0.413193  0.111345  1
  Cl  Cl34  1  0.208177  0.586807  0.388655  1
  Cl  Cl35  1  0.791823  0.913193  0.388655  1
  O  O36  1  0.681696  0.925737  0.871410  1
  O  O37  1  0.318304  0.574263  0.871410  1
  O  O38  1  0.318304  0.425737  0.628590  1
  O  O39  1  0.681696  0.074263  0.628590  1
  O  O40  1  0.318304  0.074263  0.128590  1
  O  O41  1  0.681696  0.425737  0.128590  1
  O  O42  1  0.681696  0.574263  0.371410  1
  O  O43  1  0.318304  0.925737  0.371410  1
