# generated using pymatgen
data_Li4CoO4
_symmetry_space_group_name_H-M   'P 1'
_cell_length_a   9.14289338
_cell_length_b   9.35027335
_cell_length_c   9.19730400
_cell_angle_alpha   90.00000000
_cell_angle_beta   91.22541837
_cell_angle_gamma   90.00000000
_symmetry_Int_Tables_number   1
_chemical_formula_structural   Li4CoO4
_chemical_formula_sum   'Li32 Co8 O32'
_cell_volume   786.08438181
_cell_formula_units_Z   8
loop_
 _symmetry_equiv_pos_site_id
 _symmetry_equiv_pos_as_xyz
  1  'x, y, z'
loop_
 _atom_site_type_symbol
 _atom_site_label
 _atom_site_symmetry_multiplicity
 _atom_site_fract_x
 _atom_site_fract_y
 _atom_site_fract_z
 _atom_site_occupancy
  Li  Li0  1  0.871342  0.616818  0.888123  1
  Li  Li1  1  0.371342  0.383182  0.888123  1
  Li  Li2  1  0.596992  0.131014  0.844265  1
  Li  Li3  1  0.096992  0.868986  0.844265  1
  Li  Li4  1  0.083923  0.379451  0.680954  1
  Li  Li5  1  0.583923  0.620549  0.680954  1
  Li  Li6  1  0.652573  0.891226  0.641616  1
  Li  Li7  1  0.152573  0.108774  0.641616  1
  Li  Li8  1  0.175833  0.649556  0.644002  1
  Li  Li9  1  0.675833  0.350444  0.644002  1
  Li  Li10  1  0.870518  0.120108  0.600655  1
  Li  Li11  1  0.370518  0.879892  0.600655  1
  Li  Li12  1  0.636060  0.630208  0.399488  1
  Li  Li13  1  0.136060  0.369792  0.399488  1
  Li  Li14  1  0.343147  0.133112  0.393930  1
  Li  Li15  1  0.843147  0.866888  0.393930  1
  Li  Li16  1  0.369838  0.601926  0.383565  1
  Li  Li17  1  0.869838  0.398074  0.383565  1
  Li  Li18  1  0.102709  0.633036  0.360497  1
  Li  Li19  1  0.602709  0.366964  0.360497  1
  Li  Li20  1  0.897915  0.134830  0.329278  1
  Li  Li21  1  0.397915  0.865170  0.329278  1
  Li  Li22  1  0.892124  0.631983  0.169537  1
  Li  Li23  1  0.392124  0.368017  0.169537  1
  Li  Li24  1  0.598979  0.867082  0.120257  1
  Li  Li25  1  0.098979  0.132918  0.120257  1
  Li  Li26  1  0.362523  0.103825  0.111196  1
  Li  Li27  1  0.862523  0.896175  0.111196  1
  Li  Li28  1  0.337532  0.635790  0.094618  1
  Li  Li29  1  0.837532  0.364210  0.094618  1
  Li  Li30  1  0.634405  0.129841  0.108102  1
  Li  Li31  1  0.134405  0.870159  0.108102  1
  Co  Co32  1  0.886856  0.111050  0.872647  1
  Co  Co33  1  0.386856  0.888950  0.872647  1
  Co  Co34  1  0.882091  0.625369  0.613903  1
  Co  Co35  1  0.382091  0.374631  0.613903  1
  Co  Co36  1  0.621613  0.098790  0.379546  1
  Co  Co37  1  0.121613  0.901210  0.379546  1
  Co  Co38  1  0.616564  0.597789  0.124492  1
  Co  Co39  1  0.116564  0.402211  0.124492  1
  O  O40  1  0.498422  0.005701  0.993028  1
  O  O41  1  0.998422  0.994299  0.993028  1
  O  O42  1  0.766322  0.211548  0.983284  1
  O  O43  1  0.266322  0.788452  0.983284  1
  O  O44  1  0.998812  0.204972  0.747622  1
  O  O45  1  0.498812  0.795028  0.747622  1
  O  O46  1  0.758315  0.031952  0.747727  1
  O  O47  1  0.258315  0.968048  0.747727  1
  O  O48  1  0.768250  0.518150  0.724838  1
  O  O49  1  0.268250  0.481850  0.724838  1
  O  O50  1  0.999376  0.715338  0.739651  1
  O  O51  1  0.499376  0.284662  0.739651  1
  O  O52  1  0.750685  0.742866  0.523556  1
  O  O53  1  0.250685  0.257134  0.523556  1
  O  O54  1  0.504659  0.487628  0.501589  1
  O  O55  1  0.004659  0.512372  0.501589  1
  O  O56  1  0.500057  0.987963  0.475110  1
  O  O57  1  0.000057  0.012037  0.475110  1
  O  O58  1  0.745511  0.233384  0.461850  1
  O  O59  1  0.245511  0.766616  0.461850  1
  O  O60  1  0.499850  0.209151  0.260545  1
  O  O61  1  0.999850  0.790849  0.260545  1
  O  O62  1  0.735786  0.998823  0.252835  1
  O  O63  1  0.235786  0.001177  0.252835  1
  O  O64  1  0.733731  0.495008  0.250481  1
  O  O65  1  0.233731  0.504992  0.250481  1
  O  O66  1  0.502251  0.710838  0.241648  1
  O  O67  1  0.002251  0.289162  0.241648  1
  O  O68  1  0.741714  0.721561  0.044697  1
  O  O69  1  0.241714  0.278439  0.044697  1
  O  O70  1  0.485666  0.493970  0.030519  1
  O  O71  1  0.985666  0.506030  0.030519  1
