# generated using pymatgen
data_Ti3MnFe2(PO4)6
_symmetry_space_group_name_H-M   'P 1'
_cell_length_a   8.57079349
_cell_length_b   8.57079349
_cell_length_c   8.57079349
_cell_angle_alpha   61.18993064
_cell_angle_beta   61.18993064
_cell_angle_gamma   61.18993064
_symmetry_Int_Tables_number   1
_chemical_formula_structural   Ti3MnFe2(PO4)6
_chemical_formula_sum   'Ti3 Mn1 Fe2 P6 O24'
_cell_volume   457.10984880
_cell_formula_units_Z   1
loop_
 _symmetry_equiv_pos_site_id
 _symmetry_equiv_pos_as_xyz
  1  'x, y, z'
loop_
 _atom_site_type_symbol
 _atom_site_label
 _atom_site_symmetry_multiplicity
 _atom_site_fract_x
 _atom_site_fract_y
 _atom_site_fract_z
 _atom_site_occupancy
  Ti  Ti0  1  0.857018  0.857018  0.857018  1
  Ti  Ti1  1  0.645219  0.645219  0.645219  1
  Ti  Ti2  1  0.354023  0.354023  0.354023  1
  Mn  Mn3  1  0.143158  0.143158  0.143158  1
  Fe  Fe4  1  0.002899  0.002899  0.002899  1
  Fe  Fe5  1  0.501362  0.501362  0.501362  1
  P  P6  1  0.951904  0.247795  0.547508  1
  P  P7  1  0.547508  0.951904  0.247795  1
  P  P8  1  0.745073  0.460074  0.043912  1
  P  P9  1  0.460074  0.043912  0.745073  1
  P  P10  1  0.043912  0.745073  0.460074  1
  P  P11  1  0.247795  0.547508  0.951904  1
  O  O12  1  0.887341  0.666139  0.520771  1
  O  O13  1  0.666139  0.520771  0.887341  1
  O  O14  1  0.941822  0.090066  0.744722  1
  O  O15  1  0.520771  0.887341  0.666139  1
  O  O16  1  0.978329  0.183926  0.399862  1
  O  O17  1  0.758717  0.411613  0.571752  1
  O  O18  1  0.744722  0.941822  0.090066  1
  O  O19  1  0.571752  0.758717  0.411613  1
  O  O20  1  0.814104  0.621087  0.996888  1
  O  O21  1  0.411613  0.571752  0.758717  1
  O  O22  1  0.896637  0.267961  0.047157  1
  O  O23  1  0.621087  0.996888  0.814104  1
  O  O24  1  0.399862  0.978329  0.183926  1
  O  O25  1  0.090066  0.744722  0.941822  1
  O  O26  1  0.585740  0.448827  0.239098  1
  O  O27  1  0.183926  0.399862  0.978329  1
  O  O28  1  0.448827  0.239098  0.585740  1
  O  O29  1  0.267961  0.047157  0.896637  1
  O  O30  1  0.239098  0.585740  0.448827  1
  O  O31  1  0.996888  0.814104  0.621087  1
  O  O32  1  0.495461  0.120120  0.311913  1
  O  O33  1  0.047157  0.896637  0.267961  1
  O  O34  1  0.311913  0.495461  0.120120  1
  O  O35  1  0.120120  0.311913  0.495461  1
