# generated using pymatgen
data_Na3NiO3
_symmetry_space_group_name_H-M   'P 1'
_cell_length_a   5.75677325
_cell_length_b   5.86593144
_cell_length_c   6.35030609
_cell_angle_alpha   115.34822647
_cell_angle_beta   89.16911993
_cell_angle_gamma   94.11512962
_symmetry_Int_Tables_number   1
_chemical_formula_structural   Na3NiO3
_chemical_formula_sum   'Na6 Ni2 O6'
_cell_volume   193.26553924
_cell_formula_units_Z   2
loop_
 _symmetry_equiv_pos_site_id
 _symmetry_equiv_pos_as_xyz
  1  'x, y, z'
loop_
 _atom_site_type_symbol
 _atom_site_label
 _atom_site_symmetry_multiplicity
 _atom_site_fract_x
 _atom_site_fract_y
 _atom_site_fract_z
 _atom_site_occupancy
  Na  Na0  1  0.939565  0.768388  0.555142  1
  Na  Na1  1  0.858364  0.762811  0.018633  1
  Na  Na2  1  0.563772  0.260058  0.255340  1
  Na  Na3  1  0.436228  0.739942  0.744660  1
  Na  Na4  1  0.141636  0.237189  0.981367  1
  Na  Na5  1  0.060435  0.231612  0.444858  1
  Ni  Ni6  1  0.629155  0.186763  0.687258  1
  Ni  Ni7  1  0.370845  0.813237  0.312742  1
  O  O8  1  0.758488  0.099086  0.900370  1
  O  O9  1  0.745899  0.468609  0.655058  1
  O  O10  1  0.692229  0.920193  0.371776  1
  O  O11  1  0.307771  0.079807  0.628224  1
  O  O12  1  0.254101  0.531391  0.344942  1
  O  O13  1  0.241512  0.900914  0.099630  1
