# generated using pymatgen
data_LiNi2O3
_symmetry_space_group_name_H-M   'P 1'
_cell_length_a   5.09070493
_cell_length_b   5.09070493
_cell_length_c   9.74501804
_cell_angle_alpha   84.77339468
_cell_angle_beta   95.22660532
_cell_angle_gamma   59.71189848
_symmetry_Int_Tables_number   1
_chemical_formula_structural   LiNi2O3
_chemical_formula_sum   'Li4 Ni8 O12'
_cell_volume   214.39044533
_cell_formula_units_Z   4
loop_
 _symmetry_equiv_pos_site_id
 _symmetry_equiv_pos_as_xyz
  1  'x, y, z'
loop_
 _atom_site_type_symbol
 _atom_site_label
 _atom_site_symmetry_multiplicity
 _atom_site_fract_x
 _atom_site_fract_y
 _atom_site_fract_z
 _atom_site_occupancy
  Li  Li0  1  0.744919  0.744919  0.250000  1
  Li  Li1  1  0.084899  0.084899  0.250000  1
  Li  Li2  1  0.255081  0.255081  0.750000  1
  Li  Li3  1  0.915101  0.915101  0.750000  1
  Ni  Ni4  1  0.415234  0.415234  0.250000  1
  Ni  Ni5  1  0.167695  0.666426  0.500446  1
  Ni  Ni6  1  0.832305  0.333574  0.499554  1
  Ni  Ni7  1  0.500000  0.000000  0.500000  1
  Ni  Ni8  1  0.584766  0.584766  0.750000  1
  Ni  Ni9  1  0.000000  0.500000  0.000000  1
  Ni  Ni10  1  0.666426  0.167695  0.999554  1
  Ni  Ni11  1  0.333574  0.832305  0.000446  1
  O  O12  1  0.041502  0.768351  0.115984  1
  O  O13  1  0.699777  0.453354  0.125223  1
  O  O14  1  0.352346  0.151751  0.114984  1
  O  O15  1  0.151751  0.352346  0.385016  1
  O  O16  1  0.453354  0.699777  0.374777  1
  O  O17  1  0.768351  0.041502  0.384016  1
  O  O18  1  0.848249  0.647654  0.614984  1
  O  O19  1  0.546646  0.300223  0.625223  1
  O  O20  1  0.231649  0.958498  0.615984  1
  O  O21  1  0.300223  0.546646  0.874777  1
  O  O22  1  0.958498  0.231649  0.884016  1
  O  O23  1  0.647654  0.848249  0.885016  1
