# generated using pymatgen
data_Li3V2P2O8F3
_symmetry_space_group_name_H-M   'P 1'
_cell_length_a   8.92293009
_cell_length_b   9.21006719
_cell_length_c   10.50715884
_cell_angle_alpha   90.00000000
_cell_angle_beta   90.00000000
_cell_angle_gamma   90.00000000
_symmetry_Int_Tables_number   1
_chemical_formula_structural   Li3V2P2O8F3
_chemical_formula_sum   'Li12 V8 P8 O32 F12'
_cell_volume   863.48656853
_cell_formula_units_Z   4
loop_
 _symmetry_equiv_pos_site_id
 _symmetry_equiv_pos_as_xyz
  1  'x, y, z'
loop_
 _atom_site_type_symbol
 _atom_site_label
 _atom_site_symmetry_multiplicity
 _atom_site_fract_x
 _atom_site_fract_y
 _atom_site_fract_z
 _atom_site_occupancy
  Li  Li0  1  0.036920  0.282345  0.500000  1
  Li  Li1  1  0.062081  0.814199  0.000000  1
  Li  Li2  1  0.230967  0.492834  0.000000  1
  Li  Li3  1  0.269033  0.992834  0.500000  1
  Li  Li4  1  0.437919  0.314199  0.500000  1
  Li  Li5  1  0.463080  0.782345  0.000000  1
  Li  Li6  1  0.536920  0.217655  0.000000  1
  Li  Li7  1  0.562081  0.685801  0.500000  1
  Li  Li8  1  0.730967  0.007166  0.500000  1
  Li  Li9  1  0.769033  0.507166  0.000000  1
  Li  Li10  1  0.937919  0.185801  0.000000  1
  Li  Li11  1  0.963080  0.717655  0.500000  1
  V  V12  1  0.250976  0.248983  0.185344  1
  V  V13  1  0.250976  0.248983  0.814656  1
  V  V14  1  0.249024  0.748983  0.314656  1
  V  V15  1  0.249024  0.748983  0.685344  1
  V  V16  1  0.750976  0.251017  0.314656  1
  V  V17  1  0.750976  0.251017  0.685344  1
  V  V18  1  0.749024  0.751017  0.814656  1
  V  V19  1  0.749024  0.751017  0.185344  1
  P  P20  1  0.000000  0.000000  0.274623  1
  P  P21  1  0.000000  0.500000  0.263660  1
  P  P22  1  0.000000  0.000000  0.725377  1
  P  P23  1  0.000000  0.500000  0.736340  1
  P  P24  1  0.500000  0.500000  0.225377  1
  P  P25  1  0.500000  0.000000  0.236340  1
  P  P26  1  0.500000  0.000000  0.763660  1
  P  P27  1  0.500000  0.500000  0.774623  1
  O  O28  1  0.076532  0.613071  0.647571  1
  O  O29  1  0.076532  0.613071  0.352429  1
  O  O30  1  0.090956  0.099444  0.816457  1
  O  O31  1  0.090956  0.099444  0.183543  1
  O  O32  1  0.098532  0.906819  0.636449  1
  O  O33  1  0.098532  0.906819  0.363551  1
  O  O34  1  0.113631  0.423583  0.823908  1
  O  O35  1  0.113631  0.423583  0.176092  1
  O  O36  1  0.386369  0.923583  0.676092  1
  O  O37  1  0.386369  0.923583  0.323908  1
  O  O38  1  0.401468  0.406819  0.136449  1
  O  O39  1  0.401468  0.406819  0.863551  1
  O  O40  1  0.409044  0.599444  0.683543  1
  O  O41  1  0.409044  0.599444  0.316457  1
  O  O42  1  0.423468  0.113071  0.852429  1
  O  O43  1  0.423468  0.113071  0.147571  1
  O  O44  1  0.576532  0.886929  0.147571  1
  O  O45  1  0.576532  0.886929  0.852429  1
  O  O46  1  0.590956  0.400556  0.683543  1
  O  O47  1  0.590956  0.400556  0.316457  1
  O  O48  1  0.598532  0.593181  0.863551  1
  O  O49  1  0.598532  0.593181  0.136449  1
  O  O50  1  0.613631  0.076417  0.676092  1
  O  O51  1  0.613631  0.076417  0.323908  1
  O  O52  1  0.886369  0.576417  0.176092  1
  O  O53  1  0.886369  0.576417  0.823908  1
  O  O54  1  0.901468  0.093181  0.636449  1
  O  O55  1  0.901468  0.093181  0.363551  1
  O  O56  1  0.909044  0.900556  0.183543  1
  O  O57  1  0.909044  0.900556  0.816457  1
  O  O58  1  0.923468  0.386929  0.647571  1
  O  O59  1  0.923468  0.386929  0.352429  1
  F  F60  1  0.277294  0.247338  0.375930  1
  F  F61  1  0.277294  0.247338  0.624070  1
  F  F62  1  0.199181  0.250798  0.000000  1
  F  F63  1  0.300819  0.750798  0.500000  1
  F  F64  1  0.222706  0.747338  0.875930  1
  F  F65  1  0.222706  0.747338  0.124070  1
  F  F66  1  0.777294  0.252662  0.875930  1
  F  F67  1  0.777294  0.252662  0.124070  1
  F  F68  1  0.699181  0.249202  0.500000  1
  F  F69  1  0.800819  0.749202  0.000000  1
  F  F70  1  0.722706  0.752662  0.624070  1
  F  F71  1  0.722706  0.752662  0.375930  1
