# generated using pymatgen
data_Co(SO4)2
_symmetry_space_group_name_H-M   'P 1'
_cell_length_a   8.96726281
_cell_length_b   8.96726281
_cell_length_c   8.96726281
_cell_angle_alpha   56.43386031
_cell_angle_beta   56.43386031
_cell_angle_gamma   56.43386031
_symmetry_Int_Tables_number   1
_chemical_formula_structural   Co(SO4)2
_chemical_formula_sum   'Co3 S6 O24'
_cell_volume   467.83587639
_cell_formula_units_Z   3
loop_
 _symmetry_equiv_pos_site_id
 _symmetry_equiv_pos_as_xyz
  1  'x, y, z'
loop_
 _atom_site_type_symbol
 _atom_site_label
 _atom_site_symmetry_multiplicity
 _atom_site_fract_x
 _atom_site_fract_y
 _atom_site_fract_z
 _atom_site_occupancy
  Co  Co0  1  0.644399  0.644399  0.644399  1
  Co  Co1  1  0.356738  0.356738  0.356738  1
  Co  Co2  1  0.149773  0.149773  0.149773  1
  S  S3  1  0.256630  0.534032  0.960048  1
  S  S4  1  0.960048  0.256630  0.534032  1
  S  S5  1  0.534032  0.960048  0.256630  1
  S  S6  1  0.461173  0.038786  0.749425  1
  S  S7  1  0.038786  0.749425  0.461173  1
  S  S8  1  0.749425  0.461173  0.038786  1
  O  O9  1  0.701905  0.488239  0.888268  1
  O  O10  1  0.488239  0.888268  0.701905  1
  O  O11  1  0.056961  0.665271  0.992411  1
  O  O12  1  0.888268  0.701905  0.488239  1
  O  O13  1  0.274763  0.348997  0.977123  1
  O  O14  1  0.391402  0.610172  0.766702  1
  O  O15  1  0.766702  0.391402  0.610172  1
  O  O16  1  0.992411  0.056961  0.665271  1
  O  O17  1  0.610172  0.766702  0.391402  1
  O  O18  1  0.321262  0.020964  0.947971  1
  O  O19  1  0.642089  0.034025  0.720329  1
  O  O20  1  0.034025  0.720329  0.642089  1
  O  O21  1  0.977123  0.274763  0.348997  1
  O  O22  1  0.348997  0.977123  0.274763  1
  O  O23  1  0.665271  0.992411  0.056961  1
  O  O24  1  0.376885  0.234165  0.616266  1
  O  O25  1  0.020964  0.947971  0.321262  1
  O  O26  1  0.234165  0.616266  0.376885  1
  O  O27  1  0.616266  0.376885  0.234165  1
  O  O28  1  0.720329  0.642089  0.034025  1
  O  O29  1  0.107640  0.315579  0.497248  1
  O  O30  1  0.947971  0.321262  0.020964  1
  O  O31  1  0.497248  0.107640  0.315579  1
  O  O32  1  0.315579  0.497248  0.107640  1
