# generated using pymatgen
data_Mn3Cr2Co3O16
_symmetry_space_group_name_H-M   'P 1'
_cell_length_a   5.68453416
_cell_length_b   5.68453416
_cell_length_c   8.80085219
_cell_angle_alpha   89.30243995
_cell_angle_beta   90.69756005
_cell_angle_gamma   119.69106189
_symmetry_Int_Tables_number   1
_chemical_formula_structural   Mn3Cr2Co3O16
_chemical_formula_sum   'Mn3 Cr2 Co3 O16'
_cell_volume   247.02770022
_cell_formula_units_Z   1
loop_
 _symmetry_equiv_pos_site_id
 _symmetry_equiv_pos_as_xyz
  1  'x, y, z'
loop_
 _atom_site_type_symbol
 _atom_site_label
 _atom_site_symmetry_multiplicity
 _atom_site_fract_x
 _atom_site_fract_y
 _atom_site_fract_z
 _atom_site_occupancy
  Mn  Mn0  1  0.167900  0.832100  0.787891  1
  Mn  Mn1  1  0.335844  0.169344  0.287782  1
  Mn  Mn2  1  0.830656  0.664156  0.287782  1
  Cr  Cr3  1  0.332543  0.667457  0.512231  1
  Cr  Cr4  1  0.667661  0.332339  0.009754  1
  Co  Co5  1  0.167691  0.335624  0.791010  1
  Co  Co6  1  0.664376  0.832309  0.791010  1
  Co  Co7  1  0.832958  0.167042  0.292228  1
  O  O8  1  0.161085  0.331631  0.396657  1
  O  O9  1  0.477292  0.522708  0.668946  1
  O  O10  1  0.335786  0.664214  0.899657  1
  O  O11  1  0.996617  0.003383  0.683554  1
  O  O12  1  0.998006  0.001994  0.181371  1
  O  O13  1  0.668369  0.838915  0.396657  1
  O  O14  1  0.040992  0.515255  0.662565  1
  O  O15  1  0.484745  0.959008  0.662565  1
  O  O16  1  0.834738  0.165262  0.893277  1
  O  O17  1  0.168871  0.831129  0.400539  1
  O  O18  1  0.527276  0.042617  0.163331  1
  O  O19  1  0.957383  0.472724  0.163331  1
  O  O20  1  0.667150  0.332850  0.400273  1
  O  O21  1  0.333636  0.170736  0.896502  1
  O  O22  1  0.519146  0.480854  0.158826  1
  O  O23  1  0.829264  0.666364  0.896502  1
