# generated using pymatgen
data_Li5Ti8O16
_symmetry_space_group_name_H-M   'P 1'
_cell_length_a   5.32074856
_cell_length_b   7.66095744
_cell_length_c   7.87470272
_cell_angle_alpha   93.60168136
_cell_angle_beta   105.75671648
_cell_angle_gamma   108.82967782
_symmetry_Int_Tables_number   1
_chemical_formula_structural   Li5Ti8O16
_chemical_formula_sum   'Li5 Ti8 O16'
_cell_volume   288.37759547
_cell_formula_units_Z   1
loop_
 _symmetry_equiv_pos_site_id
 _symmetry_equiv_pos_as_xyz
  1  'x, y, z'
loop_
 _atom_site_type_symbol
 _atom_site_label
 _atom_site_symmetry_multiplicity
 _atom_site_fract_x
 _atom_site_fract_y
 _atom_site_fract_z
 _atom_site_occupancy
  Li  Li0  1  0.460471  0.331480  0.459296  1
  Li  Li1  1  0.547170  0.178916  0.041689  1
  Li  Li2  1  0.020892  0.659616  0.042513  1
  Li  Li3  1  0.474036  0.824785  0.948109  1
  Li  Li4  1  0.966731  0.831649  0.458216  1
  Ti  Ti5  1  0.019905  0.058158  0.179046  1
  Ti  Ti6  1  0.523707  0.058063  0.679593  1
  Ti  Ti7  1  0.469755  0.442528  0.808165  1
  Ti  Ti8  1  0.011539  0.550522  0.680218  1
  Ti  Ti9  1  0.996372  0.443527  0.331702  1
  Ti  Ti10  1  0.505685  0.553558  0.182881  1
  Ti  Ti11  1  0.502253  0.944478  0.330421  1
  Ti  Ti12  1  0.978715  0.946281  0.807229  1
  O  O13  1  0.285180  0.174389  0.805987  1
  O  O14  1  0.267271  0.051864  0.426048  1
  O  O15  1  0.763817  0.050347  0.932192  1
  O  O16  1  0.768576  0.175130  0.291554  1
  O  O17  1  0.237197  0.440894  0.567350  1
  O  O18  1  0.269172  0.560801  0.933814  1
  O  O19  1  0.715607  0.325438  0.691695  1
  O  O20  1  0.234427  0.323704  0.208875  1
  O  O21  1  0.776696  0.676452  0.808584  1
  O  O22  1  0.264430  0.675417  0.292914  1
  O  O23  1  0.764618  0.555314  0.427521  1
  O  O24  1  0.721539  0.449507  0.075498  1
  O  O25  1  0.225384  0.824519  0.699254  1
  O  O26  1  0.236949  0.946255  0.069924  1
  O  O27  1  0.744075  0.943443  0.566117  1
  O  O28  1  0.729730  0.824513  0.200145  1
