# generated using pymatgen
data_Mg3P4H28(NO12)2
_symmetry_space_group_name_H-M   'P 1'
_cell_length_a   6.76113558
_cell_length_b   7.74361057
_cell_length_c   10.76038024
_cell_angle_alpha   104.65069046
_cell_angle_beta   96.93187896
_cell_angle_gamma   97.91687981
_symmetry_Int_Tables_number   1
_chemical_formula_structural   Mg3P4H28(NO12)2
_chemical_formula_sum   'Mg3 P4 H28 N2 O24'
_cell_volume   532.69620345
_cell_formula_units_Z   1
loop_
 _symmetry_equiv_pos_site_id
 _symmetry_equiv_pos_as_xyz
  1  'x, y, z'
loop_
 _atom_site_type_symbol
 _atom_site_label
 _atom_site_symmetry_multiplicity
 _atom_site_fract_x
 _atom_site_fract_y
 _atom_site_fract_z
 _atom_site_occupancy
  Mg  Mg0  1  0.000000  0.000000  0.000000  1
  Mg  Mg1  1  0.659854  0.240900  0.403051  1
  Mg  Mg2  1  0.340146  0.759100  0.596949  1
  P  P3  1  0.750914  0.334291  0.128021  1
  P  P4  1  0.249086  0.665709  0.871979  1
  P  P5  1  0.795555  0.695206  0.527253  1
  P  P6  1  0.204445  0.304794  0.472747  1
  H  H7  1  0.844077  0.612639  0.265474  1
  H  H8  1  0.155923  0.387361  0.734526  1
  H  H9  1  0.013228  0.775892  0.717113  1
  H  H10  1  0.986772  0.224108  0.282887  1
  H  H11  1  0.626834  0.781064  0.026127  1
  H  H12  1  0.373166  0.218936  0.973873  1
  H  H13  1  0.821691  0.727883  0.093350  1
  H  H14  1  0.178309  0.272117  0.906650  1
  H  H15  1  0.269315  0.054600  0.231690  1
  H  H16  1  0.730685  0.945400  0.768310  1
  H  H17  1  0.292905  0.884653  0.115166  1
  H  H18  1  0.707095  0.115347  0.884834  1
  H  H19  1  0.679174  0.943343  0.216518  1
  H  H20  1  0.320826  0.056657  0.783482  1
  H  H21  1  0.698146  0.884996  0.344721  1
  H  H22  1  0.301854  0.115004  0.655279  1
  H  H23  1  0.898356  0.187042  0.590100  1
  H  H24  1  0.101644  0.812958  0.409900  1
  H  H25  1  0.704269  0.041507  0.584266  1
  H  H26  1  0.295731  0.958493  0.415734  1
  H  H27  1  0.343086  0.582878  0.131492  1
  H  H28  1  0.656914  0.417122  0.868508  1
  H  H29  1  0.429096  0.452395  0.227793  1
  H  H30  1  0.570904  0.547605  0.772207  1
  H  H31  1  0.178298  0.438209  0.181322  1
  H  H32  1  0.821702  0.561791  0.818678  1
  H  H33  1  0.307271  0.628473  0.289543  1
  H  H34  1  0.692729  0.371527  0.710457  1
  N  N35  1  0.316063  0.526158  0.207744  1
  N  N36  1  0.683937  0.473842  0.792256  1
  O  O37  1  0.628289  0.290649  0.990756  1
  O  O38  1  0.371711  0.709351  0.009244  1
  O  O39  1  0.931463  0.229765  0.129043  1
  O  O40  1  0.068537  0.770235  0.870957  1
  O  O41  1  0.617872  0.305383  0.229449  1
  O  O42  1  0.382128  0.694617  0.770551  1
  O  O43  1  0.850122  0.546919  0.169756  1
  O  O44  1  0.149878  0.453081  0.830244  1
  O  O45  1  0.013313  0.771136  0.622242  1
  O  O46  1  0.986687  0.228864  0.377758  1
  O  O47  1  0.647878  0.812737  0.591815  1
  O  O48  1  0.352122  0.187263  0.408185  1
  O  O49  1  0.735180  0.496353  0.516715  1
  O  O50  1  0.264820  0.503647  0.483285  1
  O  O51  1  0.837704  0.738412  0.399316  1
  O  O52  1  0.162296  0.261588  0.600684  1
  O  O53  1  0.774392  0.826782  0.061490  1
  O  O54  1  0.225608  0.173218  0.938510  1
  O  O55  1  0.202389  0.970972  0.147210  1
  O  O56  1  0.797611  0.029028  0.852790  1
  O  O57  1  0.628377  0.963963  0.300266  1
  O  O58  1  0.371623  0.036037  0.699734  1
  O  O59  1  0.747736  0.166802  0.577071  1
  O  O60  1  0.252264  0.833198  0.422929  1
