# generated using pymatgen
data_Ce8Fe8As8O7F
_symmetry_space_group_name_H-M   'P 1'
_cell_length_a   10.56178518
_cell_length_b   10.56178518
_cell_length_c   10.56178518
_cell_angle_alpha   135.77059931
_cell_angle_beta   135.77059931
_cell_angle_gamma   64.33519232
_symmetry_Int_Tables_number   1
_chemical_formula_structural   Ce8Fe8As8O7F
_chemical_formula_sum   'Ce8 Fe8 As8 O7 F1'
_cell_volume   565.37720045
_cell_formula_units_Z   1
loop_
 _symmetry_equiv_pos_site_id
 _symmetry_equiv_pos_as_xyz
  1  'x, y, z'
loop_
 _atom_site_type_symbol
 _atom_site_label
 _atom_site_symmetry_multiplicity
 _atom_site_fract_x
 _atom_site_fract_y
 _atom_site_fract_z
 _atom_site_occupancy
  Ce  Ce0  1  0.334656  0.074073  0.260583  1
  Ce  Ce1  1  0.319518  0.569482  0.750037  1
  Ce  Ce2  1  0.813490  0.074073  0.739417  1
  Ce  Ce3  1  0.819445  0.569482  0.249963  1
  Ce  Ce4  1  0.430518  0.680482  0.249963  1
  Ce  Ce5  1  0.430518  0.180555  0.750037  1
  Ce  Ce6  1  0.925927  0.665344  0.739417  1
  Ce  Ce7  1  0.925927  0.186510  0.260583  1
  Fe  Fe8  1  0.750466  0.750466  0.000000  1
  Fe  Fe9  1  0.750000  0.250000  0.500000  1
  Fe  Fe10  1  0.003486  0.996514  0.500000  1
  Fe  Fe11  1  0.003486  0.503486  0.006972  1
  Fe  Fe12  1  0.250000  0.750000  0.500000  1
  Fe  Fe13  1  0.249534  0.249534  0.000000  1
  Fe  Fe14  1  0.496514  0.996514  0.993028  1
  Fe  Fe15  1  0.496514  0.503486  0.500000  1
  As  As16  1  0.657080  0.906722  0.249642  1
  As  As17  1  0.657080  0.407438  0.750358  1
  As  As18  1  0.093927  0.844856  0.249071  1
  As  As19  1  0.093278  0.342920  0.750358  1
  As  As20  1  0.155144  0.906073  0.750929  1
  As  As21  1  0.155144  0.404215  0.249071  1
  As  As22  1  0.595785  0.844856  0.750929  1
  As  As23  1  0.592562  0.342920  0.249642  1
  O  O24  1  0.247026  0.752974  0.000000  1
  O  O25  1  0.247026  0.247026  0.494051  1
  O  O26  1  0.501428  0.001428  0.500000  1
  O  O27  1  0.500000  0.500000  0.000000  1
  O  O28  1  0.752974  0.752974  0.505949  1
  O  O29  1  0.752974  0.247026  0.000000  1
  O  O30  1  0.998572  0.498572  0.500000  1
  F  F31  1  0.000000  0.000000  0.000000  1
