# generated using pymatgen
data_LiLaNdSbO6
_symmetry_space_group_name_H-M   'P 1'
_cell_length_a   5.61503903
_cell_length_b   5.79327925
_cell_length_c   8.04449915
_cell_angle_alpha   89.97871179
_cell_angle_beta   89.65384086
_cell_angle_gamma   89.61370089
_symmetry_Int_Tables_number   1
_chemical_formula_structural   LiLaNdSbO6
_chemical_formula_sum   'Li2 La2 Nd2 Sb2 O12'
_cell_volume   261.67270979
_cell_formula_units_Z   2
loop_
 _symmetry_equiv_pos_site_id
 _symmetry_equiv_pos_as_xyz
  1  'x, y, z'
loop_
 _atom_site_type_symbol
 _atom_site_label
 _atom_site_symmetry_multiplicity
 _atom_site_fract_x
 _atom_site_fract_y
 _atom_site_fract_z
 _atom_site_occupancy
  Li  Li0  1  0.000000  0.500000  0.000000  1
  Li  Li1  1  0.500000  0.000000  0.500000  1
  La  La2  1  0.985468  0.051249  0.248700  1
  La  La3  1  0.014532  0.948751  0.751300  1
  Nd  Nd4  1  0.515419  0.554708  0.250996  1
  Nd  Nd5  1  0.484581  0.445292  0.749004  1
  Sb  Sb6  1  0.000000  0.500000  0.500000  1
  Sb  Sb7  1  0.500000  0.000000  0.000000  1
  O  O8  1  0.106056  0.469649  0.261834  1
  O  O9  1  0.212578  0.195409  0.951454  1
  O  O10  1  0.192691  0.215844  0.556359  1
  O  O11  1  0.313788  0.714289  0.942656  1
  O  O12  1  0.285960  0.691321  0.553179  1
  O  O13  1  0.403074  0.960599  0.238959  1
  O  O14  1  0.596926  0.039401  0.761041  1
  O  O15  1  0.714040  0.308679  0.446821  1
  O  O16  1  0.686212  0.285711  0.057344  1
  O  O17  1  0.807309  0.784156  0.443641  1
  O  O18  1  0.787422  0.804591  0.048546  1
  O  O19  1  0.893944  0.530351  0.738166  1
