# generated using pymatgen
data_LiCrP2O7
_symmetry_space_group_name_H-M   'P 1'
_cell_length_a   5.26077170
_cell_length_b   5.26077170
_cell_length_c   9.01092087
_cell_angle_alpha   82.47466701
_cell_angle_beta   97.52533299
_cell_angle_gamma   75.94236285
_symmetry_Int_Tables_number   1
_chemical_formula_structural   LiCrP2O7
_chemical_formula_sum   'Li2 Cr2 P4 O14'
_cell_volume   236.37116401
_cell_formula_units_Z   2
loop_
 _symmetry_equiv_pos_site_id
 _symmetry_equiv_pos_as_xyz
  1  'x, y, z'
loop_
 _atom_site_type_symbol
 _atom_site_label
 _atom_site_symmetry_multiplicity
 _atom_site_fract_x
 _atom_site_fract_y
 _atom_site_fract_z
 _atom_site_occupancy
  Li  Li0  1  0.306185  0.302296  0.999115  1
  Li  Li1  1  0.697704  0.693815  0.499115  1
  Cr  Cr2  1  0.320906  0.323369  0.499971  1
  Cr  Cr3  1  0.676631  0.679094  0.999971  1
  P  P4  1  0.788505  0.230180  0.296835  1
  P  P5  1  0.769820  0.211495  0.796835  1
  P  P6  1  0.218835  0.777625  0.203667  1
  P  P7  1  0.222375  0.781165  0.703667  1
  O  O8  1  0.618543  0.093706  0.389513  1
  O  O9  1  0.940937  0.388999  0.387999  1
  O  O10  1  0.625845  0.379987  0.142256  1
  O  O11  1  0.906294  0.381457  0.889513  1
  O  O12  1  0.611001  0.059063  0.887999  1
  O  O13  1  0.620013  0.374155  0.642256  1
  O  O14  1  0.019918  0.017368  0.250638  1
  O  O15  1  0.982632  0.980082  0.750638  1
  O  O16  1  0.374385  0.616999  0.357323  1
  O  O17  1  0.402495  0.898553  0.113393  1
  O  O18  1  0.050215  0.637687  0.109291  1
  O  O19  1  0.383001  0.625615  0.857323  1
  O  O20  1  0.101447  0.597505  0.613393  1
  O  O21  1  0.362313  0.949785  0.609291  1
