# generated using pymatgen
data_Li3CuF6
_symmetry_space_group_name_H-M   'P 1'
_cell_length_a   5.95194119
_cell_length_b   5.95194119
_cell_length_c   5.95194119
_cell_angle_alpha   91.24339754
_cell_angle_beta   91.24339754
_cell_angle_gamma   91.24339754
_symmetry_Int_Tables_number   1
_chemical_formula_structural   Li3CuF6
_chemical_formula_sum   'Li6 Cu2 F12'
_cell_volume   210.69997544
_cell_formula_units_Z   2
loop_
 _symmetry_equiv_pos_site_id
 _symmetry_equiv_pos_as_xyz
  1  'x, y, z'
loop_
 _atom_site_type_symbol
 _atom_site_label
 _atom_site_symmetry_multiplicity
 _atom_site_fract_x
 _atom_site_fract_y
 _atom_site_fract_z
 _atom_site_occupancy
  Li  Li0  1  0.558243  0.249019  0.068203  1
  Li  Li1  1  0.068203  0.558243  0.249019  1
  Li  Li2  1  0.750981  0.931797  0.441757  1
  Li  Li3  1  0.249019  0.068203  0.558243  1
  Li  Li4  1  0.931797  0.441757  0.750981  1
  Li  Li5  1  0.441757  0.750981  0.931797  1
  Cu  Cu6  1  0.000000  0.000000  0.000000  1
  Cu  Cu7  1  0.500000  0.500000  0.500000  1
  F  F8  1  0.694927  0.925122  0.072628  1
  F  F9  1  0.927372  0.305073  0.074878  1
  F  F10  1  0.404366  0.546705  0.194833  1
  F  F11  1  0.074878  0.927372  0.305073  1
  F  F12  1  0.546705  0.194833  0.404366  1
  F  F13  1  0.805167  0.595634  0.453295  1
  F  F14  1  0.194833  0.404366  0.546705  1
  F  F15  1  0.453295  0.805167  0.595634  1
  F  F16  1  0.925122  0.072628  0.694927  1
  F  F17  1  0.595634  0.453295  0.805167  1
  F  F18  1  0.072628  0.694927  0.925122  1
  F  F19  1  0.305073  0.074878  0.927372  1
