# generated using pymatgen
data_LiSi
_symmetry_space_group_name_H-M   'P 1'
_cell_length_a   7.19283443
_cell_length_b   7.19283443
_cell_length_c   7.19283443
_cell_angle_alpha   99.16318580
_cell_angle_beta   99.16318580
_cell_angle_gamma   132.96145665
_symmetry_Int_Tables_number   1
_chemical_formula_structural   LiSi
_chemical_formula_sum   'Li8 Si8'
_cell_volume   249.70897299
_cell_formula_units_Z   8
loop_
 _symmetry_equiv_pos_site_id
 _symmetry_equiv_pos_as_xyz
  1  'x, y, z'
loop_
 _atom_site_type_symbol
 _atom_site_label
 _atom_site_symmetry_multiplicity
 _atom_site_fract_x
 _atom_site_fract_y
 _atom_site_fract_z
 _atom_site_occupancy
  Li  Li0  1  0.293797  0.010257  0.445471  1
  Li  Li1  1  0.098326  0.043797  0.783540  1
  Li  Li2  1  0.260257  0.314786  0.216460  1
  Li  Li3  1  0.564786  0.848326  0.554529  1
  Li  Li4  1  0.956203  0.739743  0.054529  1
  Li  Li5  1  0.151674  0.706203  0.716460  1
  Li  Li6  1  0.989743  0.435214  0.283540  1
  Li  Li7  1  0.685214  0.901674  0.945471  1
  Si  Si8  1  0.766954  0.580262  0.408046  1
  Si  Si9  1  0.608908  0.516954  0.686691  1
  Si  Si10  1  0.830262  0.922217  0.313309  1
  Si  Si11  1  0.172217  0.358908  0.591954  1
  Si  Si12  1  0.483046  0.169738  0.091954  1
  Si  Si13  1  0.641092  0.233046  0.813309  1
  Si  Si14  1  0.419738  0.827783  0.186691  1
  Si  Si15  1  0.077783  0.391092  0.908046  1
