# generated using pymatgen
data_BaLaFe2Cu2O11
_symmetry_space_group_name_H-M   'P 1'
_cell_length_a   5.39324142
_cell_length_b   5.40960641
_cell_length_c   8.21936899
_cell_angle_alpha   90.00000000
_cell_angle_beta   90.00000000
_cell_angle_gamma   90.00000000
_symmetry_Int_Tables_number   1
_chemical_formula_structural   BaLaFe2Cu2O11
_chemical_formula_sum   'Ba1 La1 Fe2 Cu2 O11'
_cell_volume   239.80266590
_cell_formula_units_Z   1
loop_
 _symmetry_equiv_pos_site_id
 _symmetry_equiv_pos_as_xyz
  1  'x, y, z'
loop_
 _atom_site_type_symbol
 _atom_site_label
 _atom_site_symmetry_multiplicity
 _atom_site_fract_x
 _atom_site_fract_y
 _atom_site_fract_z
 _atom_site_occupancy
  Ba  Ba0  1  0.000000  0.500000  0.752002  1
  La  La1  1  0.500000  0.000000  0.759758  1
  Fe  Fe2  1  0.500000  0.500000  0.043302  1
  Fe  Fe3  1  0.000000  0.000000  0.503793  1
  Cu  Cu4  1  0.000000  0.000000  0.015535  1
  Cu  Cu5  1  0.500000  0.500000  0.487261  1
  O  O6  1  0.744447  0.764391  0.987436  1
  O  O7  1  0.255553  0.764391  0.987436  1
  O  O8  1  0.500000  0.500000  0.733574  1
  O  O9  1  0.252047  0.231377  0.501887  1
  O  O10  1  0.000000  0.000000  0.737281  1
  O  O11  1  0.252047  0.768623  0.501887  1
  O  O12  1  0.747953  0.231377  0.501887  1
  O  O13  1  0.747953  0.768623  0.501887  1
  O  O14  1  0.500000  0.500000  0.262199  1
  O  O15  1  0.744447  0.235609  0.987436  1
  O  O16  1  0.255553  0.235609  0.987436  1
