# generated using pymatgen
data_Li4Nb2V3Co3O16
_symmetry_space_group_name_H-M   'P 1'
_cell_length_a   5.98985842
_cell_length_b   5.98985842
_cell_length_c   9.78845867
_cell_angle_alpha   89.52031977
_cell_angle_beta   90.47968023
_cell_angle_gamma   120.20228334
_symmetry_Int_Tables_number   1
_chemical_formula_structural   Li4Nb2V3Co3O16
_chemical_formula_sum   'Li4 Nb2 V3 Co3 O16'
_cell_volume   303.50716722
_cell_formula_units_Z   1
loop_
 _symmetry_equiv_pos_site_id
 _symmetry_equiv_pos_as_xyz
  1  'x, y, z'
loop_
 _atom_site_type_symbol
 _atom_site_label
 _atom_site_symmetry_multiplicity
 _atom_site_fract_x
 _atom_site_fract_y
 _atom_site_fract_z
 _atom_site_occupancy
  Li  Li0  1  0.666685  0.333315  0.097045  1
  Li  Li1  1  0.994585  0.005415  0.004559  1
  Li  Li2  1  0.996062  0.003938  0.512287  1
  Li  Li3  1  0.337900  0.662100  0.600616  1
  Nb  Nb4  1  0.653197  0.346803  0.511231  1
  Nb  Nb5  1  0.333832  0.666168  0.000118  1
  V  V6  1  0.824031  0.175969  0.771881  1
  V  V7  1  0.652995  0.837129  0.282298  1
  V  V8  1  0.162871  0.347005  0.282298  1
  Co  Co9  1  0.835256  0.658514  0.788313  1
  Co  Co10  1  0.341486  0.164744  0.788313  1
  Co  Co11  1  0.169009  0.830991  0.291389  1
  O  O12  1  0.827003  0.671182  0.404953  1
  O  O13  1  0.521472  0.478528  0.650785  1
  O  O14  1  0.685286  0.314714  0.891228  1
  O  O15  1  0.989872  0.010128  0.701423  1
  O  O16  1  0.990926  0.009074  0.193741  1
  O  O17  1  0.328818  0.172997  0.404953  1
  O  O18  1  0.967607  0.467671  0.647386  1
  O  O19  1  0.532329  0.032393  0.647386  1
  O  O20  1  0.166078  0.833922  0.918680  1
  O  O21  1  0.834485  0.165515  0.397199  1
  O  O22  1  0.496215  0.961941  0.163089  1
  O  O23  1  0.038059  0.503785  0.163089  1
  O  O24  1  0.351180  0.648820  0.395597  1
  O  O25  1  0.658897  0.834608  0.909562  1
  O  O26  1  0.480978  0.519022  0.164627  1
  O  O27  1  0.165392  0.341103  0.909562  1
