# generated using pymatgen
data_Fe5O3F7
_symmetry_space_group_name_H-M   'P 1'
_cell_length_a   4.78361816
_cell_length_b   4.78456880
_cell_length_c   15.72762532
_cell_angle_alpha   89.94479641
_cell_angle_beta   89.83781621
_cell_angle_gamma   89.54755706
_symmetry_Int_Tables_number   1
_chemical_formula_structural   Fe5O3F7
_chemical_formula_sum   'Fe10 O6 F14'
_cell_volume   359.95398952
_cell_formula_units_Z   2
loop_
 _symmetry_equiv_pos_site_id
 _symmetry_equiv_pos_as_xyz
  1  'x, y, z'
loop_
 _atom_site_type_symbol
 _atom_site_label
 _atom_site_symmetry_multiplicity
 _atom_site_fract_x
 _atom_site_fract_y
 _atom_site_fract_z
 _atom_site_occupancy
  Fe  Fe0  1  0.962151  0.027810  0.993349  1
  Fe  Fe1  1  0.023433  0.971959  0.198091  1
  Fe  Fe2  1  0.011560  0.983894  0.401163  1
  Fe  Fe3  1  0.019395  0.973170  0.606566  1
  Fe  Fe4  1  0.974144  0.976674  0.799910  1
  Fe  Fe5  1  0.498083  0.495210  0.101647  1
  Fe  Fe6  1  0.472310  0.522095  0.498141  1
  Fe  Fe7  1  0.475069  0.521128  0.300721  1
  Fe  Fe8  1  0.517570  0.534348  0.693762  1
  Fe  Fe9  1  0.531524  0.519005  0.906071  1
  O  O10  1  0.800184  0.800670  0.706764  1
  O  O11  1  0.795123  0.805343  0.893372  1
  O  O12  1  0.318489  0.673664  0.198488  1
  O  O13  1  0.313260  0.682526  0.399895  1
  O  O14  1  0.317014  0.684610  0.599704  1
  O  O15  1  0.668193  0.327787  0.002448  1
  F  F16  1  0.785570  0.797981  0.098156  1
  F  F17  1  0.799250  0.782618  0.300166  1
  F  F18  1  0.797241  0.788206  0.499399  1
  F  F19  1  0.289671  0.713166  0.999700  1
  F  F20  1  0.304606  0.696638  0.800289  1
  F  F21  1  0.702867  0.288800  0.201059  1
  F  F22  1  0.693636  0.300438  0.400687  1
  F  F23  1  0.706198  0.299262  0.599456  1
  F  F24  1  0.694362  0.309096  0.799832  1
  F  F25  1  0.194748  0.208296  0.096662  1
  F  F26  1  0.210302  0.198061  0.502508  1
  F  F27  1  0.209201  0.195180  0.301686  1
  F  F28  1  0.202501  0.215452  0.889731  1
  F  F29  1  0.212347  0.206915  0.710580  1
