# generated using pymatgen
data_CdRe2H16C4S4(NO)8
_symmetry_space_group_name_H-M   'P 1'
_cell_length_a   7.07435405
_cell_length_b   13.79018244
_cell_length_c   11.67442043
_cell_angle_alpha   90.00000000
_cell_angle_beta   106.78603326
_cell_angle_gamma   90.00000000
_symmetry_Int_Tables_number   1
_chemical_formula_structural   CdRe2H16C4S4(NO)8
_chemical_formula_sum   'Cd2 Re4 H32 C8 S8 N16 O16'
_cell_volume   1090.38780353
_cell_formula_units_Z   2
loop_
 _symmetry_equiv_pos_site_id
 _symmetry_equiv_pos_as_xyz
  1  'x, y, z'
loop_
 _atom_site_type_symbol
 _atom_site_label
 _atom_site_symmetry_multiplicity
 _atom_site_fract_x
 _atom_site_fract_y
 _atom_site_fract_z
 _atom_site_occupancy
  Cd  Cd0  1  0.000000  0.500000  0.500000  1
  Cd  Cd1  1  0.000000  0.000000  0.000000  1
  Re  Re2  1  0.580505  0.477688  0.188503  1
  Re  Re3  1  0.419495  0.977688  0.311497  1
  Re  Re4  1  0.419495  0.522312  0.811497  1
  Re  Re5  1  0.580505  0.022312  0.688503  1
  H  H6  1  0.759262  0.321006  0.383159  1
  H  H7  1  0.240738  0.821006  0.116841  1
  H  H8  1  0.240738  0.678994  0.616841  1
  H  H9  1  0.759262  0.178994  0.883159  1
  H  H10  1  0.748059  0.195159  0.355305  1
  H  H11  1  0.251941  0.695159  0.144695  1
  H  H12  1  0.251941  0.804841  0.644695  1
  H  H13  1  0.748059  0.304841  0.855305  1
  H  H14  1  0.908098  0.088676  0.501370  1
  H  H15  1  0.091902  0.588676  0.998630  1
  H  H16  1  0.091902  0.911324  0.498630  1
  H  H17  1  0.908098  0.411324  0.001370  1
  H  H18  1  0.046552  0.130375  0.642456  1
  H  H19  1  0.953448  0.630375  0.857544  1
  H  H20  1  0.953448  0.869625  0.357544  1
  H  H21  1  0.046552  0.369625  0.142456  1
  H  H22  1  0.510706  0.419557  0.576234  1
  H  H23  1  0.489294  0.919557  0.923766  1
  H  H24  1  0.489294  0.580443  0.423766  1
  H  H25  1  0.510706  0.080443  0.076234  1
  H  H26  1  0.544323  0.293960  0.596494  1
  H  H27  1  0.455677  0.793960  0.903506  1
  H  H28  1  0.455677  0.706040  0.403506  1
  H  H29  1  0.544323  0.206040  0.096494  1
  H  H30  1  0.360950  0.187425  0.456924  1
  H  H31  1  0.639050  0.687425  0.043076  1
  H  H32  1  0.639050  0.812575  0.543076  1
  H  H33  1  0.360950  0.312575  0.956924  1
  H  H34  1  0.185103  0.230993  0.328119  1
  H  H35  1  0.814897  0.730993  0.171881  1
  H  H36  1  0.814897  0.769007  0.671881  1
  H  H37  1  0.185103  0.269007  0.828119  1
  C  C38  1  0.915805  0.236683  0.522610  1
  C  C39  1  0.084195  0.736683  0.977390  1
  C  C40  1  0.084195  0.763317  0.477390  1
  C  C41  1  0.915805  0.263317  0.022610  1
  C  C42  1  0.331665  0.335399  0.444792  1
  C  C43  1  0.668335  0.835399  0.055208  1
  C  C44  1  0.668335  0.664601  0.555208  1
  C  C45  1  0.331665  0.164601  0.944792  1
  S  S46  1  0.002867  0.329650  0.621932  1
  S  S47  1  0.997133  0.829650  0.878068  1
  S  S48  1  0.997133  0.670350  0.378068  1
  S  S49  1  0.002867  0.170350  0.121932  1
  S  S50  1  0.208592  0.431568  0.359808  1
  S  S51  1  0.791408  0.931568  0.140192  1
  S  S52  1  0.791408  0.568432  0.640192  1
  S  S53  1  0.208592  0.068432  0.859808  1
  N  N54  1  0.800204  0.252195  0.411136  1
  N  N55  1  0.199796  0.752195  0.088864  1
  N  N56  1  0.199796  0.747805  0.588864  1
  N  N57  1  0.800204  0.247805  0.911136  1
  N  N58  1  0.961965  0.144980  0.557581  1
  N  N59  1  0.038035  0.644980  0.942419  1
  N  N60  1  0.038035  0.855020  0.442419  1
  N  N61  1  0.961965  0.355020  0.057581  1
  N  N62  1  0.472473  0.350822  0.547008  1
  N  N63  1  0.527527  0.850822  0.952992  1
  N  N64  1  0.527527  0.649178  0.452992  1
  N  N65  1  0.472473  0.149178  0.047008  1
  N  N66  1  0.290251  0.244516  0.406880  1
  N  N67  1  0.709749  0.744516  0.093120  1
  N  N68  1  0.709749  0.755484  0.593120  1
  N  N69  1  0.290251  0.255484  0.906880  1
  O  O70  1  0.696154  0.464314  0.344020  1
  O  O71  1  0.303846  0.964314  0.155980  1
  O  O72  1  0.303846  0.535686  0.655980  1
  O  O73  1  0.696154  0.035686  0.844020  1
  O  O74  1  0.377206  0.556073  0.162418  1
  O  O75  1  0.622794  0.056073  0.337582  1
  O  O76  1  0.622794  0.443927  0.837582  1
  O  O77  1  0.377206  0.943927  0.662418  1
  O  O78  1  0.748504  0.528052  0.121434  1
  O  O79  1  0.251496  0.028052  0.378566  1
  O  O80  1  0.251496  0.471948  0.878566  1
  O  O81  1  0.748504  0.971948  0.621434  1
  O  O82  1  0.510999  0.362280  0.127577  1
  O  O83  1  0.489001  0.862280  0.372423  1
  O  O84  1  0.489001  0.637720  0.872423  1
  O  O85  1  0.510999  0.137720  0.627577  1
