# generated using pymatgen
data_Li2VOF4
_symmetry_space_group_name_H-M   'P 1'
_cell_length_a   5.42919501
_cell_length_b   7.22568878
_cell_length_c   9.62198028
_cell_angle_alpha   90.00000000
_cell_angle_beta   90.00000000
_cell_angle_gamma   90.00000000
_symmetry_Int_Tables_number   1
_chemical_formula_structural   Li2VOF4
_chemical_formula_sum   'Li8 V4 O4 F16'
_cell_volume   377.46714450
_cell_formula_units_Z   4
loop_
 _symmetry_equiv_pos_site_id
 _symmetry_equiv_pos_as_xyz
  1  'x, y, z'
loop_
 _atom_site_type_symbol
 _atom_site_label
 _atom_site_symmetry_multiplicity
 _atom_site_fract_x
 _atom_site_fract_y
 _atom_site_fract_z
 _atom_site_occupancy
  Li  Li0  1  0.257850  0.047660  0.720273  1
  Li  Li1  1  0.744125  0.883938  0.571989  1
  Li  Li2  1  0.244125  0.616062  0.071989  1
  Li  Li3  1  0.757850  0.452340  0.220273  1
  Li  Li4  1  0.257850  0.547660  0.779727  1
  Li  Li5  1  0.744125  0.383938  0.928011  1
  Li  Li6  1  0.244125  0.116062  0.428011  1
  Li  Li7  1  0.757850  0.952340  0.279727  1
  V  V8  1  0.741616  0.803976  0.948995  1
  V  V9  1  0.241616  0.696024  0.448995  1
  V  V10  1  0.741616  0.303976  0.551005  1
  V  V11  1  0.241616  0.196024  0.051005  1
  O  O12  1  0.009913  0.844406  0.420687  1
  O  O13  1  0.509913  0.655594  0.920687  1
  O  O14  1  0.009913  0.344406  0.079313  1
  O  O15  1  0.509913  0.155594  0.579313  1
  F  F16  1  0.054164  0.977309  0.994815  1
  F  F17  1  0.774737  0.899037  0.764886  1
  F  F18  1  0.512849  0.866597  0.413302  1
  F  F19  1  0.281790  0.758842  0.649223  1
  F  F20  1  0.781790  0.741158  0.149223  1
  F  F21  1  0.012849  0.633403  0.913302  1
  F  F22  1  0.274737  0.600963  0.264886  1
  F  F23  1  0.554164  0.522691  0.494815  1
  F  F24  1  0.054164  0.477309  0.505185  1
  F  F25  1  0.774737  0.399037  0.735114  1
  F  F26  1  0.512849  0.366597  0.086698  1
  F  F27  1  0.281790  0.258842  0.850777  1
  F  F28  1  0.781790  0.241158  0.350777  1
  F  F29  1  0.012849  0.133403  0.586698  1
  F  F30  1  0.274737  0.100963  0.235114  1
  F  F31  1  0.554164  0.022691  0.005185  1
