# generated using pymatgen
data_LiTi3O6
_symmetry_space_group_name_H-M   'P 1'
_cell_length_a   9.56642749
_cell_length_b   8.82978632
_cell_length_c   5.40419008
_cell_angle_alpha   80.55938643
_cell_angle_beta   65.57402834
_cell_angle_gamma   33.86658522
_symmetry_Int_Tables_number   1
_chemical_formula_structural   LiTi3O6
_chemical_formula_sum   'Li2 Ti6 O12'
_cell_volume   216.66563071
_cell_formula_units_Z   2
loop_
 _symmetry_equiv_pos_site_id
 _symmetry_equiv_pos_as_xyz
  1  'x, y, z'
loop_
 _atom_site_type_symbol
 _atom_site_label
 _atom_site_symmetry_multiplicity
 _atom_site_fract_x
 _atom_site_fract_y
 _atom_site_fract_z
 _atom_site_occupancy
  Li  Li0  1  0.000000  0.000000  0.000000  1
  Li  Li1  1  0.250000  0.250000  0.250000  1
  Ti  Ti2  1  0.418956  0.418956  0.081044  1
  Ti  Ti3  1  0.831044  0.831044  0.168956  1
  Ti  Ti4  1  0.500000  0.500000  0.500000  1
  Ti  Ti5  1  0.081044  0.081044  0.418956  1
  Ti  Ti6  1  0.168956  0.168956  0.831044  1
  Ti  Ti7  1  0.750000  0.750000  0.750000  1
  O  O8  1  0.608086  0.053880  0.961362  1
  O  O9  1  0.053880  0.608086  0.376672  1
  O  O10  1  0.641914  0.196120  0.288638  1
  O  O11  1  0.718352  0.281648  0.718352  1
  O  O12  1  0.196120  0.641914  0.873328  1
  O  O13  1  0.873328  0.288638  0.196120  1
  O  O14  1  0.961362  0.376672  0.608086  1
  O  O15  1  0.281648  0.718352  0.281648  1
  O  O16  1  0.288638  0.873328  0.641914  1
  O  O17  1  0.968352  0.531648  0.968352  1
  O  O18  1  0.376672  0.961362  0.053880  1
  O  O19  1  0.531648  0.968352  0.531648  1
