# generated using pymatgen
data_RbFeO2
_symmetry_space_group_name_H-M   'P 1'
_cell_length_a   5.98370960
_cell_length_b   6.01545322
_cell_length_c   8.19635939
_cell_angle_alpha   90.00000000
_cell_angle_beta   90.00000000
_cell_angle_gamma   90.00000000
_symmetry_Int_Tables_number   1
_chemical_formula_structural   RbFeO2
_chemical_formula_sum   'Rb4 Fe4 O8'
_cell_volume   295.02570373
_cell_formula_units_Z   4
loop_
 _symmetry_equiv_pos_site_id
 _symmetry_equiv_pos_as_xyz
  1  'x, y, z'
loop_
 _atom_site_type_symbol
 _atom_site_label
 _atom_site_symmetry_multiplicity
 _atom_site_fract_x
 _atom_site_fract_y
 _atom_site_fract_z
 _atom_site_occupancy
  Rb  Rb0  1  0.985848  0.936055  0.377738  1
  Rb  Rb1  1  0.485848  0.563945  0.877738  1
  Rb  Rb2  1  0.985848  0.436055  0.122262  1
  Rb  Rb3  1  0.485848  0.063945  0.622262  1
  Fe  Fe4  1  0.998863  0.953711  0.873439  1
  Fe  Fe5  1  0.498863  0.546289  0.373439  1
  Fe  Fe6  1  0.998863  0.453711  0.626561  1
  Fe  Fe7  1  0.498863  0.046289  0.126561  1
  O  O8  1  0.298133  0.993058  0.949985  1
  O  O9  1  0.457036  0.849651  0.307197  1
  O  O10  1  0.957036  0.650349  0.807197  1
  O  O11  1  0.798133  0.506942  0.449985  1
  O  O12  1  0.298133  0.493058  0.550015  1
  O  O13  1  0.457036  0.349651  0.192803  1
  O  O14  1  0.957036  0.150349  0.692803  1
  O  O15  1  0.798133  0.006942  0.050015  1
