# generated using pymatgen
data_V5(BO5)2
_symmetry_space_group_name_H-M   'P 1'
_cell_length_a   3.12255801
_cell_length_b   9.44161104
_cell_length_c   12.40402236
_cell_angle_alpha   90.00000000
_cell_angle_beta   90.00000000
_cell_angle_gamma   90.00000000
_symmetry_Int_Tables_number   1
_chemical_formula_structural   V5(BO5)2
_chemical_formula_sum   'V10 B4 O20'
_cell_volume   365.69511659
_cell_formula_units_Z   2
loop_
 _symmetry_equiv_pos_site_id
 _symmetry_equiv_pos_as_xyz
  1  'x, y, z'
loop_
 _atom_site_type_symbol
 _atom_site_label
 _atom_site_symmetry_multiplicity
 _atom_site_fract_x
 _atom_site_fract_y
 _atom_site_fract_z
 _atom_site_occupancy
  V  V0  1  0.500000  0.000000  0.500000  1
  V  V1  1  0.500000  0.015863  0.791177  1
  V  V2  1  0.000000  0.254632  0.611085  1
  V  V3  1  0.000000  0.245368  0.111085  1
  V  V4  1  0.500000  0.484137  0.291177  1
  V  V5  1  0.500000  0.500000  0.000000  1
  V  V6  1  0.500000  0.515863  0.708823  1
  V  V7  1  0.000000  0.754632  0.888915  1
  V  V8  1  0.000000  0.745368  0.388915  1
  V  V9  1  0.500000  0.984137  0.208823  1
  B  B10  1  0.000000  0.214631  0.356187  1
  B  B11  1  0.000000  0.285369  0.856187  1
  B  B12  1  0.000000  0.714631  0.143813  1
  B  B13  1  0.000000  0.785369  0.643813  1
  O  O14  1  0.500000  0.112843  0.648271  1
  O  O15  1  0.500000  0.120806  0.091171  1
  O  O16  1  0.000000  0.139741  0.844997  1
  O  O17  1  0.000000  0.151836  0.457021  1
  O  O18  1  0.000000  0.130384  0.263538  1
  O  O19  1  0.000000  0.369616  0.763538  1
  O  O20  1  0.000000  0.348164  0.957021  1
  O  O21  1  0.000000  0.360259  0.344997  1
  O  O22  1  0.500000  0.379194  0.591171  1
  O  O23  1  0.500000  0.387157  0.148271  1
  O  O24  1  0.500000  0.612843  0.851729  1
  O  O25  1  0.500000  0.620806  0.408829  1
  O  O26  1  0.000000  0.639741  0.655003  1
  O  O27  1  0.000000  0.651836  0.042979  1
  O  O28  1  0.000000  0.630384  0.236462  1
  O  O29  1  0.000000  0.869616  0.736462  1
  O  O30  1  0.000000  0.848164  0.542979  1
  O  O31  1  0.000000  0.860259  0.155003  1
  O  O32  1  0.500000  0.879194  0.908829  1
  O  O33  1  0.500000  0.887157  0.351729  1
