# generated using pymatgen
data_LiFe2(BO3)2
_symmetry_space_group_name_H-M   'P 1'
_cell_length_a   5.28321326
_cell_length_b   8.93649808
_cell_length_c   10.34232976
_cell_angle_alpha   90.00000000
_cell_angle_beta   91.16383088
_cell_angle_gamma   90.00000000
_symmetry_Int_Tables_number   1
_chemical_formula_structural   LiFe2(BO3)2
_chemical_formula_sum   'Li4 Fe8 B8 O24'
_cell_volume   488.19607814
_cell_formula_units_Z   4
loop_
 _symmetry_equiv_pos_site_id
 _symmetry_equiv_pos_as_xyz
  1  'x, y, z'
loop_
 _atom_site_type_symbol
 _atom_site_label
 _atom_site_symmetry_multiplicity
 _atom_site_fract_x
 _atom_site_fract_y
 _atom_site_fract_z
 _atom_site_occupancy
  Li  Li0  1  0.658324  0.990787  0.163420  1
  Li  Li1  1  0.343013  0.995321  0.913853  1
  Li  Li2  1  0.658324  0.009213  0.663420  1
  Li  Li3  1  0.343013  0.004679  0.413853  1
  Fe  Fe4  1  0.851284  0.821789  0.881117  1
  Fe  Fe5  1  0.148371  0.824975  0.630293  1
  Fe  Fe6  1  0.666820  0.658761  0.133765  1
  Fe  Fe7  1  0.338765  0.663765  0.374745  1
  Fe  Fe8  1  0.666820  0.341239  0.633765  1
  Fe  Fe9  1  0.851284  0.178211  0.381117  1
  Fe  Fe10  1  0.338765  0.336235  0.874745  1
  Fe  Fe11  1  0.148371  0.175025  0.130293  1
  B  B12  1  0.828285  0.832515  0.368901  1
  B  B13  1  0.658507  0.674775  0.622900  1
  B  B14  1  0.176855  0.834881  0.130820  1
  B  B15  1  0.343530  0.670755  0.884195  1
  B  B16  1  0.658507  0.325225  0.122900  1
  B  B17  1  0.343530  0.329245  0.384195  1
  B  B18  1  0.828285  0.167485  0.868901  1
  B  B19  1  0.176855  0.165119  0.630820  1
  O  O20  1  0.698135  0.965975  0.366765  1
  O  O21  1  0.916074  0.826124  0.103297  1
  O  O22  1  0.304065  0.966160  0.109483  1
  O  O23  1  0.778584  0.803510  0.671009  1
  O  O24  1  0.702871  0.701685  0.330265  1
  O  O25  1  0.221465  0.801801  0.841025  1
  O  O26  1  0.082446  0.826116  0.406907  1
  O  O27  1  0.577890  0.689127  0.946697  1
  O  O28  1  0.770538  0.539395  0.636925  1
  O  O29  1  0.424233  0.693012  0.561533  1
  O  O30  1  0.307301  0.709450  0.176410  1
  O  O31  1  0.770538  0.460605  0.136925  1
  O  O32  1  0.236220  0.534327  0.864921  1
  O  O33  1  0.702871  0.298315  0.830265  1
  O  O34  1  0.577890  0.310873  0.446697  1
  O  O35  1  0.236220  0.465673  0.364921  1
  O  O36  1  0.424233  0.306988  0.061533  1
  O  O37  1  0.916074  0.173876  0.603297  1
  O  O38  1  0.778584  0.196490  0.171009  1
  O  O39  1  0.307301  0.290550  0.676410  1
  O  O40  1  0.221465  0.198199  0.341025  1
  O  O41  1  0.698135  0.034025  0.866765  1
  O  O42  1  0.082446  0.173884  0.906907  1
  O  O43  1  0.304065  0.033840  0.609483  1
