# generated using pymatgen
data_Li4TiNi3O8
_symmetry_space_group_name_H-M   'P 1'
_cell_length_a   5.86836026
_cell_length_b   5.86836026
_cell_length_c   5.86836026
_cell_angle_alpha   59.36819098
_cell_angle_beta   59.36819098
_cell_angle_gamma   59.36819098
_symmetry_Int_Tables_number   1
_chemical_formula_structural   Li4TiNi3O8
_chemical_formula_sum   'Li4 Ti1 Ni3 O8'
_cell_volume   140.84602806
_cell_formula_units_Z   1
loop_
 _symmetry_equiv_pos_site_id
 _symmetry_equiv_pos_as_xyz
  1  'x, y, z'
loop_
 _atom_site_type_symbol
 _atom_site_label
 _atom_site_symmetry_multiplicity
 _atom_site_fract_x
 _atom_site_fract_y
 _atom_site_fract_z
 _atom_site_occupancy
  Li  Li0  1  0.000000  0.000000  0.500000  1
  Li  Li1  1  0.500000  0.500000  0.500000  1
  Li  Li2  1  1.000000  0.500000  0.000000  1
  Li  Li3  1  0.500000  0.000000  0.000000  1
  Ti  Ti4  1  0.000000  0.000000  0.000000  1
  Ni  Ni5  1  0.500000  0.500000  0.000000  1
  Ni  Ni6  1  0.500000  0.000000  0.500000  1
  Ni  Ni7  1  0.000000  0.500000  0.500000  1
  O  O8  1  0.760165  0.760165  0.245611  1
  O  O9  1  0.239835  0.239835  0.754389  1
  O  O10  1  0.263165  0.263165  0.263165  1
  O  O11  1  0.239835  0.754389  0.239835  1
  O  O12  1  0.736835  0.736835  0.736835  1
  O  O13  1  0.760165  0.245611  0.760165  1
  O  O14  1  0.245611  0.760165  0.760165  1
  O  O15  1  0.754389  0.239835  0.239835  1
