# generated using pymatgen
data_Na3GeH11O9
_symmetry_space_group_name_H-M   'P 1'
_cell_length_a   11.16919229
_cell_length_b   11.99340780
_cell_length_c   13.20229937
_cell_angle_alpha   90.00000000
_cell_angle_beta   90.00000000
_cell_angle_gamma   90.00000000
_symmetry_Int_Tables_number   1
_chemical_formula_structural   Na3GeH11O9
_chemical_formula_sum   'Na24 Ge8 H88 O72'
_cell_volume   1768.53616465
_cell_formula_units_Z   8
loop_
 _symmetry_equiv_pos_site_id
 _symmetry_equiv_pos_as_xyz
  1  'x, y, z'
loop_
 _atom_site_type_symbol
 _atom_site_label
 _atom_site_symmetry_multiplicity
 _atom_site_fract_x
 _atom_site_fract_y
 _atom_site_fract_z
 _atom_site_occupancy
  Na  Na0  1  0.366726  0.173637  0.128568  1
  Na  Na1  1  0.133274  0.673637  0.871432  1
  Na  Na2  1  0.866726  0.826363  0.371432  1
  Na  Na3  1  0.633274  0.326363  0.628568  1
  Na  Na4  1  0.633274  0.826363  0.871432  1
  Na  Na5  1  0.866726  0.326363  0.128568  1
  Na  Na6  1  0.133274  0.173637  0.628568  1
  Na  Na7  1  0.366726  0.673637  0.371432  1
  Na  Na8  1  0.392851  0.317811  0.916919  1
  Na  Na9  1  0.107149  0.817811  0.083081  1
  Na  Na10  1  0.892851  0.682189  0.583081  1
  Na  Na11  1  0.607149  0.182189  0.416919  1
  Na  Na12  1  0.607149  0.682189  0.083081  1
  Na  Na13  1  0.892851  0.182189  0.916919  1
  Na  Na14  1  0.107149  0.317811  0.416919  1
  Na  Na15  1  0.392851  0.817811  0.583081  1
  Na  Na16  1  0.624494  0.163517  0.821777  1
  Na  Na17  1  0.875506  0.663517  0.178223  1
  Na  Na18  1  0.124494  0.836483  0.678223  1
  Na  Na19  1  0.375506  0.336483  0.321777  1
  Na  Na20  1  0.375506  0.836483  0.178223  1
  Na  Na21  1  0.124494  0.336483  0.821777  1
  Na  Na22  1  0.875506  0.163517  0.321777  1
  Na  Na23  1  0.624494  0.663517  0.678223  1
  Ge  Ge24  1  0.371321  0.021220  0.869179  1
  Ge  Ge25  1  0.128679  0.521220  0.130821  1
  Ge  Ge26  1  0.871321  0.978780  0.630821  1
  Ge  Ge27  1  0.628679  0.478780  0.369179  1
  Ge  Ge28  1  0.628679  0.978780  0.130821  1
  Ge  Ge29  1  0.871321  0.478780  0.869179  1
  Ge  Ge30  1  0.128679  0.021220  0.369179  1
  Ge  Ge31  1  0.371321  0.521220  0.630821  1
  H  H32  1  0.503320  0.112358  0.995185  1
  H  H33  1  0.996680  0.612358  0.004815  1
  H  H34  1  0.003320  0.887642  0.504815  1
  H  H35  1  0.496680  0.387642  0.495185  1
  H  H36  1  0.496680  0.887642  0.004815  1
  H  H37  1  0.003320  0.387642  0.995185  1
  H  H38  1  0.996680  0.112358  0.495185  1
  H  H39  1  0.503320  0.612358  0.504815  1
  H  H40  1  0.493009  0.080145  0.276291  1
  H  H41  1  0.006991  0.580145  0.723709  1
  H  H42  1  0.993009  0.919855  0.223709  1
  H  H43  1  0.506991  0.419855  0.776291  1
  H  H44  1  0.506991  0.919855  0.723709  1
  H  H45  1  0.993009  0.419855  0.276291  1
  H  H46  1  0.006991  0.080145  0.776291  1
  H  H47  1  0.493009  0.580145  0.223709  1
  H  H48  1  0.373610  0.096809  0.343253  1
  H  H49  1  0.126390  0.596809  0.656747  1
  H  H50  1  0.873610  0.903191  0.156747  1
  H  H51  1  0.626390  0.403191  0.843253  1
  H  H52  1  0.626390  0.903191  0.656747  1
  H  H53  1  0.873610  0.403191  0.343253  1
  H  H54  1  0.126390  0.096809  0.843253  1
  H  H55  1  0.373610  0.596809  0.156747  1
  H  H56  1  0.350662  0.308642  0.692106  1
  H  H57  1  0.149338  0.808642  0.307894  1
  H  H58  1  0.850662  0.691358  0.807894  1
  H  H59  1  0.649338  0.191358  0.192106  1
  H  H60  1  0.649338  0.691358  0.307894  1
  H  H61  1  0.850662  0.191358  0.692106  1
  H  H62  1  0.149338  0.308642  0.192106  1
  H  H63  1  0.350662  0.808642  0.807894  1
  H  H64  1  0.336474  0.186786  0.741093  1
  H  H65  1  0.163526  0.686786  0.258907  1
  H  H66  1  0.836474  0.813214  0.758907  1
  H  H67  1  0.663526  0.313214  0.241093  1
  H  H68  1  0.663526  0.813214  0.258907  1
  H  H69  1  0.836474  0.313214  0.741093  1
  H  H70  1  0.163526  0.186786  0.241093  1
  H  H71  1  0.336474  0.686786  0.758907  1
  H  H72  1  0.301295  0.172562  0.471795  1
  H  H73  1  0.198705  0.672562  0.528205  1
  H  H74  1  0.801295  0.827438  0.028205  1
  H  H75  1  0.698705  0.327438  0.971795  1
  H  H76  1  0.698705  0.827438  0.528205  1
  H  H77  1  0.801295  0.327438  0.471795  1
  H  H78  1  0.198705  0.172562  0.971795  1
  H  H79  1  0.301295  0.672562  0.028205  1
  H  H80  1  0.340282  0.289101  0.532978  1
  H  H81  1  0.159718  0.789101  0.467022  1
  H  H82  1  0.840282  0.710899  0.967022  1
  H  H83  1  0.659718  0.210899  0.032978  1
  H  H84  1  0.659718  0.710899  0.467022  1
  H  H85  1  0.840282  0.210899  0.532978  1
  H  H86  1  0.159718  0.289101  0.032978  1
  H  H87  1  0.340282  0.789101  0.967022  1
  H  H88  1  0.237421  0.002346  0.039444  1
  H  H89  1  0.262579  0.502346  0.960556  1
  H  H90  1  0.737421  0.997654  0.460556  1
  H  H91  1  0.762579  0.497654  0.539444  1
  H  H92  1  0.762579  0.997654  0.960556  1
  H  H93  1  0.737421  0.497654  0.039444  1
  H  H94  1  0.262579  0.002346  0.539444  1
  H  H95  1  0.237421  0.502346  0.460556  1
  H  H96  1  0.194867  0.015768  0.160342  1
  H  H97  1  0.305133  0.515768  0.839658  1
  H  H98  1  0.694867  0.984232  0.339658  1
  H  H99  1  0.805133  0.484232  0.660342  1
  H  H100  1  0.805133  0.984232  0.839658  1
  H  H101  1  0.694867  0.484232  0.160342  1
  H  H102  1  0.305133  0.015768  0.660342  1
  H  H103  1  0.194867  0.515768  0.339658  1
  H  H104  1  0.624764  0.076731  0.600528  1
  H  H105  1  0.875236  0.576731  0.399472  1
  H  H106  1  0.124764  0.923269  0.899472  1
  H  H107  1  0.375236  0.423269  0.100528  1
  H  H108  1  0.375236  0.923269  0.399472  1
  H  H109  1  0.124764  0.423269  0.600528  1
  H  H110  1  0.875236  0.076731  0.100528  1
  H  H111  1  0.624764  0.576731  0.899472  1
  H  H112  1  0.498211  0.112911  0.645728  1
  H  H113  1  0.001789  0.612911  0.354272  1
  H  H114  1  0.998211  0.887089  0.854272  1
  H  H115  1  0.501789  0.387089  0.145728  1
  H  H116  1  0.501789  0.887089  0.354272  1
  H  H117  1  0.998211  0.387089  0.645728  1
  H  H118  1  0.001789  0.112911  0.145728  1
  H  H119  1  0.498211  0.612911  0.854272  1
  O  O120  1  0.458392  0.131521  0.930211  1
  O  O121  1  0.041608  0.631521  0.069789  1
  O  O122  1  0.958392  0.868479  0.569789  1
  O  O123  1  0.541608  0.368479  0.430211  1
  O  O124  1  0.541608  0.868479  0.069789  1
  O  O125  1  0.958392  0.368479  0.930211  1
  O  O126  1  0.041608  0.131521  0.430211  1
  O  O127  1  0.458392  0.631521  0.569789  1
  O  O128  1  0.220671  0.034175  0.911025  1
  O  O129  1  0.279329  0.534175  0.088975  1
  O  O130  1  0.720671  0.965825  0.588975  1
  O  O131  1  0.779329  0.465825  0.411025  1
  O  O132  1  0.779329  0.965825  0.088975  1
  O  O133  1  0.720671  0.465825  0.911025  1
  O  O134  1  0.279329  0.034175  0.411025  1
  O  O135  1  0.220671  0.534175  0.588975  1
  O  O136  1  0.428961  0.888166  0.897479  1
  O  O137  1  0.071039  0.388166  0.102521  1
  O  O138  1  0.928961  0.111834  0.602521  1
  O  O139  1  0.571039  0.611834  0.397479  1
  O  O140  1  0.571039  0.111834  0.102521  1
  O  O141  1  0.928961  0.611834  0.897479  1
  O  O142  1  0.071039  0.888166  0.397479  1
  O  O143  1  0.428961  0.388166  0.602521  1
  O  O144  1  0.396789  0.056542  0.740347  1
  O  O145  1  0.103211  0.556542  0.259653  1
  O  O146  1  0.896789  0.943458  0.759653  1
  O  O147  1  0.603211  0.443458  0.240347  1
  O  O148  1  0.603211  0.943458  0.259653  1
  O  O149  1  0.896789  0.443458  0.740347  1
  O  O150  1  0.103211  0.056542  0.240347  1
  O  O151  1  0.396789  0.556542  0.759653  1
  O  O152  1  0.441076  0.138320  0.305926  1
  O  O153  1  0.058924  0.638320  0.694074  1
  O  O154  1  0.941076  0.861680  0.194074  1
  O  O155  1  0.558924  0.361680  0.805926  1
  O  O156  1  0.558924  0.861680  0.694074  1
  O  O157  1  0.941076  0.361680  0.305926  1
  O  O158  1  0.058924  0.138320  0.805926  1
  O  O159  1  0.441076  0.638320  0.194074  1
  O  O160  1  0.300537  0.264090  0.740962  1
  O  O161  1  0.199463  0.764090  0.259038  1
  O  O162  1  0.800537  0.735910  0.759038  1
  O  O163  1  0.699463  0.235910  0.240962  1
  O  O164  1  0.699463  0.735910  0.259038  1
  O  O165  1  0.800537  0.235910  0.740962  1
  O  O166  1  0.199463  0.264090  0.240962  1
  O  O167  1  0.300537  0.764090  0.759038  1
  O  O168  1  0.278463  0.249450  0.491851  1
  O  O169  1  0.221537  0.749450  0.508149  1
  O  O170  1  0.778463  0.750550  0.008149  1
  O  O171  1  0.721537  0.250550  0.991851  1
  O  O172  1  0.721537  0.750550  0.508149  1
  O  O173  1  0.778463  0.250550  0.491851  1
  O  O174  1  0.221537  0.249450  0.991851  1
  O  O175  1  0.278463  0.749450  0.008149  1
  O  O176  1  0.259586  0.986189  0.111629  1
  O  O177  1  0.240414  0.486189  0.888371  1
  O  O178  1  0.759586  0.013811  0.388371  1
  O  O179  1  0.740414  0.513811  0.611629  1
  O  O180  1  0.740414  0.013811  0.888371  1
  O  O181  1  0.759586  0.513811  0.111629  1
  O  O182  1  0.240414  0.986189  0.611629  1
  O  O183  1  0.259586  0.486189  0.388371  1
  O  O184  1  0.566561  0.140724  0.604076  1
  O  O185  1  0.933439  0.640724  0.395924  1
  O  O186  1  0.066561  0.859276  0.895924  1
  O  O187  1  0.433439  0.359276  0.104076  1
  O  O188  1  0.433439  0.859276  0.395924  1
  O  O189  1  0.066561  0.359276  0.604076  1
  O  O190  1  0.933439  0.140724  0.104076  1
  O  O191  1  0.566561  0.640724  0.895924  1
