# generated using pymatgen
data_FeOF
_symmetry_space_group_name_H-M   'P 1'
_cell_length_a   14.22311565
_cell_length_b   3.10301293
_cell_length_c   14.26320650
_cell_angle_alpha   90.00000000
_cell_angle_beta   90.23198807
_cell_angle_gamma   90.00000000
_symmetry_Int_Tables_number   1
_chemical_formula_structural   FeOF
_chemical_formula_sum   'Fe18 O18 F18'
_cell_volume   629.49449536
_cell_formula_units_Z   18
loop_
 _symmetry_equiv_pos_site_id
 _symmetry_equiv_pos_as_xyz
  1  'x, y, z'
loop_
 _atom_site_type_symbol
 _atom_site_label
 _atom_site_symmetry_multiplicity
 _atom_site_fract_x
 _atom_site_fract_y
 _atom_site_fract_z
 _atom_site_occupancy
  Fe  Fe0  1  0.987847  0.000000  0.003943  1
  Fe  Fe1  1  0.992070  0.000000  0.673386  1
  Fe  Fe2  1  0.993921  0.000000  0.329849  1
  Fe  Fe3  1  0.845757  0.500000  0.836520  1
  Fe  Fe4  1  0.833808  0.500000  0.479408  1
  Fe  Fe5  1  0.846757  0.500000  0.170162  1
  Fe  Fe6  1  0.654695  0.000000  0.004079  1
  Fe  Fe7  1  0.656571  0.000000  0.665465  1
  Fe  Fe8  1  0.663420  0.000000  0.344294  1
  Fe  Fe9  1  0.512953  0.500000  0.500001  1
  Fe  Fe10  1  0.517486  0.500000  0.832280  1
  Fe  Fe11  1  0.495651  0.500000  0.152681  1
  Fe  Fe12  1  0.332616  0.000000  0.002122  1
  Fe  Fe13  1  0.320118  0.000000  0.668747  1
  Fe  Fe14  1  0.319699  0.000000  0.333631  1
  Fe  Fe15  1  0.183607  0.500000  0.840025  1
  Fe  Fe16  1  0.180117  0.500000  0.500392  1
  Fe  Fe17  1  0.161820  0.500000  0.186499  1
  O  O18  1  0.934974  0.500000  0.729688  1
  O  O19  1  0.937637  0.500000  0.399549  1
  O  O20  1  0.935948  0.500000  0.064474  1
  O  O21  1  0.899311  0.000000  0.897237  1
  O  O22  1  0.893586  0.000000  0.231992  1
  O  O23  1  0.766531  0.000000  0.432588  1
  O  O24  1  0.604274  0.500000  0.729437  1
  O  O25  1  0.597168  0.500000  0.392979  1
  O  O26  1  0.602324  0.500000  0.067268  1
  O  O27  1  0.565278  0.000000  0.898645  1
  O  O28  1  0.565925  0.000000  0.563108  1
  O  O29  1  0.429243  0.000000  0.097744  1
  O  O30  1  0.268802  0.500000  0.734210  1
  O  O31  1  0.268777  0.500000  0.397157  1
  O  O32  1  0.236000  0.000000  0.904632  1
  O  O33  1  0.231180  0.000000  0.566144  1
  O  O34  1  0.234253  0.000000  0.228113  1
  O  O35  1  0.062622  0.500000  0.270716  1
  F  F36  1  0.900615  0.000000  0.564785  1
  F  F37  1  0.768521  0.000000  0.768004  1
  F  F38  1  0.767472  0.000000  0.097825  1
  F  F39  1  0.731969  0.500000  0.933691  1
  F  F40  1  0.726147  0.500000  0.262516  1
  F  F41  1  0.736890  0.500000  0.603263  1
  F  F42  1  0.561781  0.000000  0.228273  1
  F  F43  1  0.435670  0.000000  0.767068  1
  F  F44  1  0.433119  0.000000  0.435187  1
  F  F45  1  0.397941  0.500000  0.932117  1
  F  F46  1  0.398739  0.500000  0.601848  1
  F  F47  1  0.402986  0.500000  0.268938  1
  F  F48  1  0.265541  0.500000  0.063836  1
  F  F49  1  0.103177  0.000000  0.769957  1
  F  F50  1  0.102564  0.000000  0.440381  1
  F  F51  1  0.102836  0.000000  0.097668  1
  F  F52  1  0.067725  0.500000  0.932451  1
  F  F53  1  0.063564  0.500000  0.603027  1
