# generated using pymatgen
data_Li3ZrO3
_symmetry_space_group_name_H-M   'P 1'
_cell_length_a   9.64391588
_cell_length_b   9.64391588
_cell_length_c   3.49961367
_cell_angle_alpha   90.00000000
_cell_angle_beta   90.00000000
_cell_angle_gamma   90.00000000
_symmetry_Int_Tables_number   1
_chemical_formula_structural   Li3ZrO3
_chemical_formula_sum   'Li12 Zr4 O12'
_cell_volume   325.48196659
_cell_formula_units_Z   4
loop_
 _symmetry_equiv_pos_site_id
 _symmetry_equiv_pos_as_xyz
  1  'x, y, z'
loop_
 _atom_site_type_symbol
 _atom_site_label
 _atom_site_symmetry_multiplicity
 _atom_site_fract_x
 _atom_site_fract_y
 _atom_site_fract_z
 _atom_site_occupancy
  Li  Li0  1  0.354220  0.086141  0.500000  1
  Li  Li1  1  0.586141  0.145780  0.000000  1
  Li  Li2  1  0.173373  0.173373  0.000000  1
  Li  Li3  1  0.673373  0.326627  0.500000  1
  Li  Li4  1  0.086141  0.354220  0.500000  1
  Li  Li5  1  0.854220  0.413859  0.000000  1
  Li  Li6  1  0.145780  0.586141  0.000000  1
  Li  Li7  1  0.913859  0.645780  0.500000  1
  Li  Li8  1  0.326627  0.673373  0.500000  1
  Li  Li9  1  0.826627  0.826627  0.000000  1
  Li  Li10  1  0.413859  0.854220  0.000000  1
  Li  Li11  1  0.645780  0.913859  0.500000  1
  Zr  Zr12  1  0.880648  0.119352  0.500000  1
  Zr  Zr13  1  0.380648  0.380648  0.000000  1
  Zr  Zr14  1  0.619352  0.619352  0.000000  1
  Zr  Zr15  1  0.119352  0.880648  0.500000  1
  O  O16  1  0.105500  0.105500  0.500000  1
  O  O17  1  0.670765  0.115711  0.500000  1
  O  O18  1  0.384289  0.170765  0.000000  1
  O  O19  1  0.884289  0.329235  0.500000  1
  O  O20  1  0.170765  0.384289  0.000000  1
  O  O21  1  0.605500  0.394500  0.000000  1
  O  O22  1  0.394500  0.605500  0.000000  1
  O  O23  1  0.829235  0.615711  0.000000  1
  O  O24  1  0.115711  0.670765  0.500000  1
  O  O25  1  0.615711  0.829235  0.000000  1
  O  O26  1  0.329235  0.884289  0.500000  1
  O  O27  1  0.894500  0.894500  0.500000  1
