# generated using pymatgen
data_Li4Mn5NbO12
_symmetry_space_group_name_H-M   'P 1'
_cell_length_a   5.25587356
_cell_length_b   5.25587356
_cell_length_c   10.57842141
_cell_angle_alpha   86.14303835
_cell_angle_beta   93.85696165
_cell_angle_gamma   63.61838187
_symmetry_Int_Tables_number   1
_chemical_formula_structural   Li4Mn5NbO12
_chemical_formula_sum   'Li4 Mn5 Nb1 O12'
_cell_volume   259.64652048
_cell_formula_units_Z   1
loop_
 _symmetry_equiv_pos_site_id
 _symmetry_equiv_pos_as_xyz
  1  'x, y, z'
loop_
 _atom_site_type_symbol
 _atom_site_label
 _atom_site_symmetry_multiplicity
 _atom_site_fract_x
 _atom_site_fract_y
 _atom_site_fract_z
 _atom_site_occupancy
  Li  Li0  1  0.911452  0.444759  0.712092  1
  Li  Li1  1  0.444759  0.911452  0.287908  1
  Li  Li2  1  0.555241  0.088548  0.712092  1
  Li  Li3  1  0.088548  0.555241  0.287908  1
  Mn  Mn4  1  0.835531  0.835531  0.500000  1
  Mn  Mn5  1  0.665615  0.665615  0.000000  1
  Mn  Mn6  1  0.500000  0.500000  0.500000  1
  Mn  Mn7  1  0.334385  0.334385  0.000000  1
  Mn  Mn8  1  0.164469  0.164469  0.500000  1
  Nb  Nb9  1  0.000000  0.000000  0.000000  1
  O  O10  1  0.988306  0.673620  0.105115  1
  O  O11  1  0.673620  0.988306  0.894885  1
  O  O12  1  0.777331  0.585907  0.389890  1
  O  O13  1  0.585907  0.777331  0.610110  1
  O  O14  1  0.835598  0.164402  0.589033  1
  O  O15  1  0.688690  0.311310  0.087776  1
  O  O16  1  0.311310  0.688690  0.912224  1
  O  O17  1  0.164402  0.835598  0.410967  1
  O  O18  1  0.414093  0.222669  0.389890  1
  O  O19  1  0.222669  0.414093  0.610110  1
  O  O20  1  0.326380  0.011694  0.105115  1
  O  O21  1  0.011694  0.326380  0.894885  1
