# generated using pymatgen
data_Li4Nb2Fe3O10
_symmetry_space_group_name_H-M   'P 1'
_cell_length_a   5.27570088
_cell_length_b   5.41282695
_cell_length_c   8.06217924
_cell_angle_alpha   71.69561304
_cell_angle_beta   71.76011947
_cell_angle_gamma   79.06748973
_symmetry_Int_Tables_number   1
_chemical_formula_structural   Li4Nb2Fe3O10
_chemical_formula_sum   'Li4 Nb2 Fe3 O10'
_cell_volume   206.52740583
_cell_formula_units_Z   1
loop_
 _symmetry_equiv_pos_site_id
 _symmetry_equiv_pos_as_xyz
  1  'x, y, z'
loop_
 _atom_site_type_symbol
 _atom_site_label
 _atom_site_symmetry_multiplicity
 _atom_site_fract_x
 _atom_site_fract_y
 _atom_site_fract_z
 _atom_site_occupancy
  Li  Li0  1  0.510414  0.240453  0.600963  1
  Li  Li1  1  0.464037  0.409193  0.211180  1
  Li  Li2  1  0.535963  0.590807  0.788820  1
  Li  Li3  1  0.489586  0.759547  0.399037  1
  Nb  Nb4  1  0.964474  0.107552  0.305803  1
  Nb  Nb5  1  0.035526  0.892448  0.694197  1
  Fe  Fe6  1  0.500000  0.000000  0.000000  1
  Fe  Fe7  1  0.994080  0.686473  0.114445  1
  Fe  Fe8  1  0.005920  0.313527  0.885555  1
  O  O9  1  0.734817  0.424978  0.336780  1
  O  O10  1  0.757900  0.209545  0.771794  1
  O  O11  1  0.225831  0.110419  0.454492  1
  O  O12  1  0.222126  0.330452  0.073436  1
  O  O13  1  0.245367  0.958764  0.837163  1
  O  O14  1  0.754633  0.041236  0.162837  1
  O  O15  1  0.777874  0.669548  0.926564  1
  O  O16  1  0.774169  0.889581  0.545508  1
  O  O17  1  0.242100  0.790455  0.228206  1
  O  O18  1  0.265183  0.575022  0.663220  1
