# generated using pymatgen
data_Li4Mn3Cu3(TeO8)2
_symmetry_space_group_name_H-M   'P 1'
_cell_length_a   5.97529322
_cell_length_b   5.97529322
_cell_length_c   9.89960761
_cell_angle_alpha   87.61511873
_cell_angle_beta   92.38488127
_cell_angle_gamma   120.37501190
_symmetry_Int_Tables_number   1
_chemical_formula_structural   Li4Mn3Cu3(TeO8)2
_chemical_formula_sum   'Li4 Mn3 Cu3 Te2 O16'
_cell_volume   304.58846337
_cell_formula_units_Z   1
loop_
 _symmetry_equiv_pos_site_id
 _symmetry_equiv_pos_as_xyz
  1  'x, y, z'
loop_
 _atom_site_type_symbol
 _atom_site_label
 _atom_site_symmetry_multiplicity
 _atom_site_fract_x
 _atom_site_fract_y
 _atom_site_fract_z
 _atom_site_occupancy
  Li  Li0  1  0.668030  0.331970  0.082175  1
  Li  Li1  1  0.997991  0.002009  0.015876  1
  Li  Li2  1  0.999666  0.000334  0.522107  1
  Li  Li3  1  0.341448  0.658552  0.588598  1
  Mn  Mn4  1  0.828296  0.171704  0.787707  1
  Mn  Mn5  1  0.662040  0.829976  0.288436  1
  Mn  Mn6  1  0.170024  0.337960  0.288436  1
  Cu  Cu7  1  0.830401  0.662986  0.790138  1
  Cu  Cu8  1  0.337014  0.169599  0.790138  1
  Cu  Cu9  1  0.169855  0.830145  0.289363  1
  Te  Te10  1  0.669426  0.330574  0.519612  1
  Te  Te11  1  0.330025  0.669975  0.016779  1
  O  O12  1  0.826594  0.664546  0.415310  1
  O  O13  1  0.526015  0.473985  0.646910  1
  O  O14  1  0.670484  0.329516  0.878376  1
  O  O15  1  0.994014  0.005986  0.710153  1
  O  O16  1  0.995711  0.004289  0.206359  1
  O  O17  1  0.335454  0.173406  0.415310  1
  O  O18  1  0.974243  0.467662  0.641217  1
  O  O19  1  0.532338  0.025757  0.641217  1
  O  O20  1  0.160665  0.839335  0.916598  1
  O  O21  1  0.822950  0.177050  0.407180  1
  O  O22  1  0.490899  0.962660  0.145780  1
  O  O23  1  0.037340  0.509101  0.145780  1
  O  O24  1  0.340558  0.659442  0.380405  1
  O  O25  1  0.647686  0.840732  0.910849  1
  O  O26  1  0.485488  0.514512  0.140590  1
  O  O27  1  0.159268  0.352314  0.910849  1
