# generated using pymatgen
data_Li2Sn5(PO4)4
_symmetry_space_group_name_H-M   'P 1'
_cell_length_a   5.17906465
_cell_length_b   9.65615782
_cell_length_c   9.72393904
_cell_angle_alpha   115.57307212
_cell_angle_beta   101.96937874
_cell_angle_gamma   99.87865869
_symmetry_Int_Tables_number   1
_chemical_formula_structural   Li2Sn5(PO4)4
_chemical_formula_sum   'Li2 Sn5 P4 O16'
_cell_volume   409.90399451
_cell_formula_units_Z   1
loop_
 _symmetry_equiv_pos_site_id
 _symmetry_equiv_pos_as_xyz
  1  'x, y, z'
loop_
 _atom_site_type_symbol
 _atom_site_label
 _atom_site_symmetry_multiplicity
 _atom_site_fract_x
 _atom_site_fract_y
 _atom_site_fract_z
 _atom_site_occupancy
  Li  Li0  1  0.633115  0.175671  0.254314  1
  Li  Li1  1  0.366885  0.824329  0.745686  1
  Sn  Sn2  1  0.771440  0.547155  0.768673  1
  Sn  Sn3  1  0.000000  0.000000  0.000000  1
  Sn  Sn4  1  0.975323  0.194634  0.667505  1
  Sn  Sn5  1  0.024677  0.805366  0.332495  1
  Sn  Sn6  1  0.228560  0.452845  0.231327  1
  P  P7  1  0.216268  0.249782  0.437502  1
  P  P8  1  0.446029  0.775153  0.050429  1
  P  P9  1  0.553971  0.224847  0.949571  1
  P  P10  1  0.783732  0.750218  0.562498  1
  O  O11  1  0.606610  0.754148  0.922816  1
  O  O12  1  0.158701  0.648631  0.968262  1
  O  O13  1  0.035623  0.249555  0.282466  1
  O  O14  1  0.509493  0.260087  0.431204  1
  O  O15  1  0.201140  0.383216  0.595257  1
  O  O16  1  0.416767  0.947407  0.116211  1
  O  O17  1  0.392294  0.249897  0.813776  1
  O  O18  1  0.060326  0.089091  0.430507  1
  O  O19  1  0.939674  0.910909  0.569493  1
  O  O20  1  0.607706  0.750103  0.186224  1
  O  O21  1  0.583233  0.052593  0.883789  1
  O  O22  1  0.798860  0.616784  0.404743  1
  O  O23  1  0.490507  0.739913  0.568796  1
  O  O24  1  0.964377  0.750445  0.717534  1
  O  O25  1  0.841299  0.351369  0.031738  1
  O  O26  1  0.393390  0.245852  0.077184  1
