# generated using pymatgen
data_LiMn3(BO3)3
_symmetry_space_group_name_H-M   'P 1'
_cell_length_a   5.23071429
_cell_length_b   6.19389479
_cell_length_c   11.80758933
_cell_angle_alpha   81.83779810
_cell_angle_beta   77.62453414
_cell_angle_gamma   88.02248576
_symmetry_Int_Tables_number   1
_chemical_formula_structural   LiMn3(BO3)3
_chemical_formula_sum   'Li2 Mn6 B6 O18'
_cell_volume   369.87085690
_cell_formula_units_Z   2
loop_
 _symmetry_equiv_pos_site_id
 _symmetry_equiv_pos_as_xyz
  1  'x, y, z'
loop_
 _atom_site_type_symbol
 _atom_site_label
 _atom_site_symmetry_multiplicity
 _atom_site_fract_x
 _atom_site_fract_y
 _atom_site_fract_z
 _atom_site_occupancy
  Li  Li0  1  0.857104  0.130930  0.461392  1
  Li  Li1  1  0.190596  0.463245  0.794959  1
  Mn  Mn2  1  0.003300  0.031899  0.789298  1
  Mn  Mn3  1  0.646694  0.613565  0.882023  1
  Mn  Mn4  1  0.319821  0.290330  0.546286  1
  Mn  Mn5  1  0.683904  0.708039  0.450852  1
  Mn  Mn6  1  0.331888  0.377587  0.128305  1
  Mn  Mn7  1  0.000218  0.953212  0.202064  1
  B  B8  1  0.748895  0.411988  0.663446  1
  B  B9  1  0.070636  0.726652  0.999205  1
  B  B10  1  0.418199  0.092995  0.331050  1
  B  B11  1  0.581953  0.924497  0.671573  1
  B  B12  1  0.918784  0.260210  0.001001  1
  B  B13  1  0.256882  0.588555  0.334247  1
  O  O14  1  0.674052  0.353180  0.995238  1
  O  O15  1  0.090601  0.209540  0.907011  1
  O  O16  1  0.000238  0.359082  0.677549  1
  O  O17  1  0.561337  0.477313  0.752274  1
  O  O18  1  0.682788  0.384758  0.556650  1
  O  O19  1  0.010950  0.708471  0.890072  1
  O  O20  1  0.668194  0.027497  0.340984  1
  O  O21  1  0.632979  0.894511  0.785782  1
  O  O22  1  0.229572  0.144149  0.423657  1
  O  O23  1  0.760178  0.874775  0.578455  1
  O  O24  1  0.338151  0.090480  0.223974  1
  O  O25  1  0.345252  0.028932  0.659584  1
  O  O26  1  0.992114  0.242082  0.110669  1
  O  O27  1  0.312526  0.572580  0.446411  1
  O  O28  1  0.433025  0.508933  0.248322  1
  O  O29  1  0.026336  0.695043  0.316823  1
  O  O30  1  0.899895  0.818755  0.081646  1
  O  O31  1  0.311742  0.640058  0.016013  1
