# generated using pymatgen
data_Li3Fe4(BO3)4
_symmetry_space_group_name_H-M   'P 1'
_cell_length_a   5.24167169
_cell_length_b   9.10279148
_cell_length_c   11.39611354
_cell_angle_alpha   112.52799692
_cell_angle_beta   102.70356253
_cell_angle_gamma   90.17553912
_symmetry_Int_Tables_number   1
_chemical_formula_structural   Li3Fe4(BO3)4
_chemical_formula_sum   'Li6 Fe8 B8 O24'
_cell_volume   487.65920758
_cell_formula_units_Z   2
loop_
 _symmetry_equiv_pos_site_id
 _symmetry_equiv_pos_as_xyz
  1  'x, y, z'
loop_
 _atom_site_type_symbol
 _atom_site_label
 _atom_site_symmetry_multiplicity
 _atom_site_fract_x
 _atom_site_fract_y
 _atom_site_fract_z
 _atom_site_occupancy
  Li  Li0  1  0.029019  0.040248  0.406282  1
  Li  Li1  1  0.301470  0.282296  0.912263  1
  Li  Li2  1  0.489263  0.509456  0.666946  1
  Li  Li3  1  0.270124  0.249152  0.169827  1
  Li  Li4  1  0.980760  0.005892  0.664140  1
  Li  Li5  1  0.767925  0.744177  0.160232  1
  Fe  Fe6  1  0.008925  0.358094  0.379481  1
  Fe  Fe7  1  0.268122  0.924971  0.879896  1
  Fe  Fe8  1  0.478586  0.160556  0.632699  1
  Fe  Fe9  1  0.250159  0.563793  0.131927  1
  Fe  Fe10  1  0.775723  0.451324  0.885574  1
  Fe  Fe11  1  0.519652  0.850997  0.384525  1
  Fe  Fe12  1  0.962483  0.650294  0.628303  1
  Fe  Fe13  1  0.748622  0.059549  0.125678  1
  B  B14  1  0.020670  0.692998  0.379900  1
  B  B15  1  0.271670  0.599891  0.875134  1
  B  B16  1  0.474637  0.816285  0.631451  1
  B  B17  1  0.238944  0.896138  0.130255  1
  B  B18  1  0.518639  0.175657  0.371303  1
  B  B19  1  0.761044  0.104307  0.875852  1
  B  B20  1  0.977209  0.314240  0.624848  1
  B  B21  1  0.733804  0.395465  0.125913  1
  O  O22  1  0.021545  0.087405  0.863748  1
  O  O23  1  0.120181  0.714228  0.845483  1
  O  O24  1  0.168281  0.495194  0.920056  1
  O  O25  1  0.084724  0.170372  0.613054  1
  O  O26  1  0.103731  0.427029  0.596833  1
  O  O27  1  0.244391  0.854702  0.677870  1
  O  O28  1  0.258073  0.680590  0.341322  1
  O  O29  1  0.519490  0.592954  0.857740  1
  O  O30  1  0.622249  0.217938  0.842696  1
  O  O31  1  0.421893  0.065921  0.416983  1
  O  O32  1  0.365901  0.287609  0.352583  1
  O  O33  1  0.637457  0.006395  0.918615  1
  O  O34  1  0.335406  0.998824  0.079822  1
  O  O35  1  0.591907  0.684414  0.630893  1
  O  O36  1  0.582051  0.921261  0.585154  1
  O  O37  1  0.411439  0.798794  0.173338  1
  O  O38  1  0.462822  0.375848  0.109320  1
  O  O39  1  0.740887  0.342867  0.662548  1
  O  O40  1  0.765778  0.157590  0.343678  1
  O  O41  1  0.935786  0.589858  0.426287  1
  O  O42  1  0.874912  0.817970  0.368057  1
  O  O43  1  0.842476  0.517834  0.101087  1
  O  O44  1  0.893257  0.291257  0.162803  1
  O  O45  1  0.985764  0.895221  0.141032  1
