# generated using pymatgen
data_KLiSb3O8
_symmetry_space_group_name_H-M   'P 1'
_cell_length_a   8.80373816
_cell_length_b   8.80678366
_cell_length_c   8.96492184
_cell_angle_alpha   108.19695359
_cell_angle_beta   107.47257729
_cell_angle_gamma   112.08219889
_symmetry_Int_Tables_number   1
_chemical_formula_structural   KLiSb3O8
_chemical_formula_sum   'K3 Li3 Sb9 O24'
_cell_volume   538.62737524
_cell_formula_units_Z   3
loop_
 _symmetry_equiv_pos_site_id
 _symmetry_equiv_pos_as_xyz
  1  'x, y, z'
loop_
 _atom_site_type_symbol
 _atom_site_label
 _atom_site_symmetry_multiplicity
 _atom_site_fract_x
 _atom_site_fract_y
 _atom_site_fract_z
 _atom_site_occupancy
  K  K0  1  0.880319  0.841432  0.929069  1
  K  K1  1  0.495283  0.490414  0.016977  1
  K  K2  1  0.129501  0.119918  0.038555  1
  Li  Li3  1  0.355001  0.150422  0.542660  1
  Li  Li4  1  0.969195  0.764746  0.541646  1
  Li  Li5  1  0.198318  0.717281  0.747226  1
  Sb  Sb6  1  0.836997  0.319650  0.166347  1
  Sb  Sb7  1  0.034043  0.151245  0.477775  1
  Sb  Sb8  1  0.646154  0.834225  0.517223  1
  Sb  Sb9  1  0.677721  0.492797  0.491732  1
  Sb  Sb10  1  0.824250  0.332488  0.823798  1
  Sb  Sb11  1  0.505446  0.013857  0.823929  1
  Sb  Sb12  1  0.352785  0.992047  0.317680  1
  Sb  Sb13  1  0.176279  0.658160  0.166488  1
  Sb  Sb14  1  0.310425  0.498306  0.518021  1
  O  O15  1  0.831814  0.109692  0.346646  1
  O  O16  1  0.807245  0.857300  0.635498  1
  O  O17  1  0.473393  0.532172  0.657264  1
  O  O18  1  0.874859  0.497067  0.290183  1
  O  O19  1  0.788140  0.151882  0.721813  1
  O  O20  1  0.472789  0.867051  0.688715  1
  O  O21  1  0.810229  0.771984  0.364529  1
  O  O22  1  0.804461  0.508648  0.639974  1
  O  O23  1  0.513857  0.217631  0.639853  1
  O  O24  1  0.117648  0.477234  0.067014  1
  O  O25  1  0.456462  0.790542  0.024508  1
  O  O26  1  0.845682  0.180891  0.025103  1
  O  O27  1  0.216894  0.870191  0.953298  1
  O  O28  1  0.836633  0.490928  0.953760  1
  O  O29  1  0.534984  0.166365  0.960291  1
  O  O30  1  0.464842  0.785008  0.411909  1
  O  O31  1  0.204632  0.483162  0.347832  1
  O  O32  1  0.168562  0.218823  0.635354  1
  O  O33  1  0.567708  0.204771  0.309091  1
  O  O34  1  0.148827  0.787066  0.306906  1
  O  O35  1  0.106321  0.500595  0.688905  1
  O  O36  1  0.234414  0.151078  0.276662  1
  O  O37  1  0.525545  0.487356  0.364778  1
  O  O38  1  0.188543  0.901776  0.570988  1
