# generated using pymatgen
data_Na3FeBSO7
_symmetry_space_group_name_H-M   'P 1'
_cell_length_a   5.31811056
_cell_length_b   6.76520545
_cell_length_c   9.11217018
_cell_angle_alpha   90.00000000
_cell_angle_beta   90.94413752
_cell_angle_gamma   90.00000000
_symmetry_Int_Tables_number   1
_chemical_formula_structural   Na3FeBSO7
_chemical_formula_sum   'Na6 Fe2 B2 S2 O14'
_cell_volume   327.79415738
_cell_formula_units_Z   2
loop_
 _symmetry_equiv_pos_site_id
 _symmetry_equiv_pos_as_xyz
  1  'x, y, z'
loop_
 _atom_site_type_symbol
 _atom_site_label
 _atom_site_symmetry_multiplicity
 _atom_site_fract_x
 _atom_site_fract_y
 _atom_site_fract_z
 _atom_site_occupancy
  Na  Na0  1  0.250805  0.750000  0.063526  1
  Na  Na1  1  0.753352  0.009663  0.238629  1
  Na  Na2  1  0.753352  0.490337  0.238629  1
  Na  Na3  1  0.246648  0.509663  0.761371  1
  Na  Na4  1  0.246648  0.990337  0.761371  1
  Na  Na5  1  0.749195  0.250000  0.936474  1
  Fe  Fe6  1  0.232863  0.250000  0.334307  1
  Fe  Fe7  1  0.767137  0.750000  0.665693  1
  B  B8  1  0.265552  0.250000  0.062154  1
  B  B9  1  0.734448  0.750000  0.937846  1
  S  S10  1  0.294452  0.750000  0.419252  1
  S  S11  1  0.705548  0.250000  0.580748  1
  O  O12  1  0.712720  0.750000  0.086400  1
  O  O13  1  0.033758  0.250000  0.134430  1
  O  O14  1  0.475812  0.250000  0.158263  1
  O  O15  1  0.221836  0.926826  0.329553  1
  O  O16  1  0.221836  0.573174  0.329553  1
  O  O17  1  0.573320  0.750000  0.446487  1
  O  O18  1  0.838607  0.250000  0.438649  1
  O  O19  1  0.161393  0.750000  0.561351  1
  O  O20  1  0.426680  0.250000  0.553513  1
  O  O21  1  0.778164  0.426826  0.670447  1
  O  O22  1  0.778164  0.073174  0.670447  1
  O  O23  1  0.524188  0.750000  0.841737  1
  O  O24  1  0.966242  0.750000  0.865570  1
  O  O25  1  0.287280  0.250000  0.913600  1
