# generated using pymatgen
data_LiFePO4
_symmetry_space_group_name_H-M   'P 1'
_cell_length_a   5.20311135
_cell_length_b   6.31651744
_cell_length_c   11.04879185
_cell_angle_alpha   90.00000000
_cell_angle_beta   90.00000000
_cell_angle_gamma   90.00000000
_symmetry_Int_Tables_number   1
_chemical_formula_structural   LiFePO4
_chemical_formula_sum   'Li4 Fe4 P4 O16'
_cell_volume   363.12455010
_cell_formula_units_Z   4
loop_
 _symmetry_equiv_pos_site_id
 _symmetry_equiv_pos_as_xyz
  1  'x, y, z'
loop_
 _atom_site_type_symbol
 _atom_site_label
 _atom_site_symmetry_multiplicity
 _atom_site_fract_x
 _atom_site_fract_y
 _atom_site_fract_z
 _atom_site_occupancy
  Li  Li0  1  0.750233  0.481616  0.165975  1
  Li  Li1  1  0.250233  0.981616  0.334025  1
  Li  Li2  1  0.750233  0.018384  0.665975  1
  Li  Li3  1  0.250233  0.518384  0.834025  1
  Fe  Fe4  1  0.255372  0.210759  0.083601  1
  Fe  Fe5  1  0.755372  0.710759  0.416399  1
  Fe  Fe6  1  0.255372  0.289241  0.583601  1
  Fe  Fe7  1  0.755372  0.789241  0.916399  1
  P  P8  1  0.750766  0.981242  0.176260  1
  P  P9  1  0.250766  0.481242  0.323740  1
  P  P10  1  0.750766  0.518758  0.676260  1
  P  P11  1  0.250766  0.018758  0.823740  1
  O  O12  1  0.807652  0.781852  0.096253  1
  O  O13  1  0.866093  0.182583  0.114969  1
  O  O14  1  0.368722  0.451890  0.195722  1
  O  O15  1  0.455310  0.006633  0.186680  1
  O  O16  1  0.955310  0.506633  0.313320  1
  O  O17  1  0.868722  0.951890  0.304278  1
  O  O18  1  0.366093  0.682583  0.385031  1
  O  O19  1  0.307652  0.281852  0.403747  1
  O  O20  1  0.807652  0.718148  0.596253  1
  O  O21  1  0.866093  0.317417  0.614969  1
  O  O22  1  0.368722  0.048110  0.695722  1
  O  O23  1  0.455310  0.493367  0.686680  1
  O  O24  1  0.955310  0.993367  0.813320  1
  O  O25  1  0.868722  0.548110  0.804278  1
  O  O26  1  0.366093  0.817417  0.885031  1
  O  O27  1  0.307652  0.218148  0.903747  1
