# generated using pymatgen
data_Dy(ClO4)3
_symmetry_space_group_name_H-M   'P 1'
_cell_length_a   9.49029594
_cell_length_b   9.49029594
_cell_length_c   9.49029594
_cell_angle_alpha   51.71795339
_cell_angle_beta   51.71795339
_cell_angle_gamma   51.71795339
_symmetry_Int_Tables_number   1
_chemical_formula_structural   Dy(ClO4)3
_chemical_formula_sum   'Dy2 Cl6 O24'
_cell_volume   486.61962258
_cell_formula_units_Z   2
loop_
 _symmetry_equiv_pos_site_id
 _symmetry_equiv_pos_as_xyz
  1  'x, y, z'
loop_
 _atom_site_type_symbol
 _atom_site_label
 _atom_site_symmetry_multiplicity
 _atom_site_fract_x
 _atom_site_fract_y
 _atom_site_fract_z
 _atom_site_occupancy
  Dy  Dy0  1  0.941726  0.941726  0.941726  1
  Dy  Dy1  1  0.441726  0.441726  0.441726  1
  Cl  Cl2  1  0.033952  0.310249  0.655057  1
  Cl  Cl3  1  0.155057  0.810249  0.533952  1
  Cl  Cl4  1  0.533952  0.155057  0.810249  1
  Cl  Cl5  1  0.310249  0.655057  0.033952  1
  Cl  Cl6  1  0.655057  0.033952  0.310249  1
  Cl  Cl7  1  0.810249  0.533952  0.155057  1
  O  O8  1  0.247244  0.868373  0.923994  1
  O  O9  1  0.114605  0.797658  0.717600  1
  O  O10  1  0.426041  0.052366  0.999785  1
  O  O11  1  0.081591  0.159799  0.607452  1
  O  O12  1  0.107452  0.659799  0.581591  1
  O  O13  1  0.499785  0.552366  0.926041  1
  O  O14  1  0.217600  0.297658  0.614605  1
  O  O15  1  0.052366  0.999785  0.426041  1
  O  O16  1  0.423994  0.368373  0.747244  1
  O  O17  1  0.717600  0.114605  0.797658  1
  O  O18  1  0.581591  0.107452  0.659799  1
  O  O19  1  0.368373  0.747244  0.423994  1
  O  O20  1  0.552366  0.926041  0.499785  1
  O  O21  1  0.923994  0.247244  0.868373  1
  O  O22  1  0.159799  0.607452  0.081591  1
  O  O23  1  0.297658  0.614605  0.217600  1
  O  O24  1  0.614605  0.217600  0.297658  1
  O  O25  1  0.926041  0.499785  0.552366  1
  O  O26  1  0.747244  0.423994  0.368373  1
  O  O27  1  0.607452  0.081591  0.159799  1
  O  O28  1  0.659799  0.581591  0.107452  1
  O  O29  1  0.868373  0.923994  0.247244  1
  O  O30  1  0.797658  0.717600  0.114605  1
  O  O31  1  0.999785  0.426041  0.052366  1
