# generated using pymatgen
data_Na3CuBAsO7
_symmetry_space_group_name_H-M   'P 1'
_cell_length_a   5.28431067
_cell_length_b   6.60593540
_cell_length_c   9.17156649
_cell_angle_alpha   90.00000000
_cell_angle_beta   91.36842289
_cell_angle_gamma   90.00000000
_symmetry_Int_Tables_number   1
_chemical_formula_structural   Na3CuBAsO7
_chemical_formula_sum   'Na6 Cu2 B2 As2 O14'
_cell_volume   320.06803730
_cell_formula_units_Z   2
loop_
 _symmetry_equiv_pos_site_id
 _symmetry_equiv_pos_as_xyz
  1  'x, y, z'
loop_
 _atom_site_type_symbol
 _atom_site_label
 _atom_site_symmetry_multiplicity
 _atom_site_fract_x
 _atom_site_fract_y
 _atom_site_fract_z
 _atom_site_occupancy
  Na  Na0  1  0.241085  0.750000  0.079014  1
  Na  Na1  1  0.754686  0.000346  0.250951  1
  Na  Na2  1  0.754686  0.499654  0.250951  1
  Na  Na3  1  0.245314  0.500346  0.749049  1
  Na  Na4  1  0.245314  0.999654  0.749049  1
  Na  Na5  1  0.758915  0.250000  0.920986  1
  Cu  Cu6  1  0.221126  0.250000  0.334171  1
  Cu  Cu7  1  0.778874  0.750000  0.665829  1
  B  B8  1  0.266184  0.250000  0.061719  1
  B  B9  1  0.733816  0.750000  0.938281  1
  As  As10  1  0.298847  0.750000  0.423864  1
  As  As11  1  0.701153  0.250000  0.576136  1
  O  O12  1  0.710484  0.750000  0.084273  1
  O  O13  1  0.034711  0.250000  0.130550  1
  O  O14  1  0.472542  0.250000  0.158654  1
  O  O15  1  0.214816  0.948684  0.308430  1
  O  O16  1  0.214816  0.551316  0.308430  1
  O  O17  1  0.624258  0.750000  0.454730  1
  O  O18  1  0.848612  0.250000  0.413963  1
  O  O19  1  0.151388  0.750000  0.586037  1
  O  O20  1  0.375742  0.250000  0.545270  1
  O  O21  1  0.785184  0.448684  0.691570  1
  O  O22  1  0.785184  0.051316  0.691570  1
  O  O23  1  0.527458  0.750000  0.841346  1
  O  O24  1  0.965289  0.750000  0.869450  1
  O  O25  1  0.289516  0.250000  0.915727  1
