# generated using pymatgen
data_Mn6OF11
_symmetry_space_group_name_H-M   'P 1'
_cell_length_a   4.91211636
_cell_length_b   5.93234322
_cell_length_c   8.25577511
_cell_angle_alpha   87.86923527
_cell_angle_beta   89.04293916
_cell_angle_gamma   89.06508030
_symmetry_Int_Tables_number   1
_chemical_formula_structural   Mn6OF11
_chemical_formula_sum   'Mn6 O1 F11'
_cell_volume   240.34672102
_cell_formula_units_Z   1
loop_
 _symmetry_equiv_pos_site_id
 _symmetry_equiv_pos_as_xyz
  1  'x, y, z'
loop_
 _atom_site_type_symbol
 _atom_site_label
 _atom_site_symmetry_multiplicity
 _atom_site_fract_x
 _atom_site_fract_y
 _atom_site_fract_z
 _atom_site_occupancy
  Mn  Mn0  1  0.516117  0.487488  0.993095  1
  Mn  Mn1  1  0.498002  0.167546  0.336085  1
  Mn  Mn2  1  0.501132  0.834322  0.667767  1
  Mn  Mn3  1  0.010142  0.661387  0.328118  1
  Mn  Mn4  1  0.981468  0.337668  0.681866  1
  Mn  Mn5  1  0.982253  0.019301  0.997060  1
  O  O6  1  0.789100  0.306121  0.898709  1
  F  F7  1  0.804857  0.632080  0.562343  1
  F  F8  1  0.810524  0.961145  0.232898  1
  F  F9  1  0.695916  0.789005  0.902114  1
  F  F10  1  0.692845  0.465657  0.227971  1
  F  F11  1  0.699698  0.129042  0.563966  1
  F  F12  1  0.306338  0.867478  0.433386  1
  F  F13  1  0.306521  0.534704  0.769776  1
  F  F14  1  0.308829  0.208004  0.100662  1
  F  F15  1  0.188279  0.366216  0.445165  1
  F  F16  1  0.192508  0.036716  0.767078  1
  F  F17  1  0.215472  0.696121  0.091943  1
