# generated using pymatgen
data_Li2Mn3(BO3)3
_symmetry_space_group_name_H-M   'P 1'
_cell_length_a   8.25796981
_cell_length_b   8.84039294
_cell_length_c   9.49823289
_cell_angle_alpha   111.47038810
_cell_angle_beta   89.51978420
_cell_angle_gamma   117.68392253
_symmetry_Int_Tables_number   1
_chemical_formula_structural   Li2Mn3(BO3)3
_chemical_formula_sum   'Li6 Mn9 B9 O27'
_cell_volume   560.31426835
_cell_formula_units_Z   3
loop_
 _symmetry_equiv_pos_site_id
 _symmetry_equiv_pos_as_xyz
  1  'x, y, z'
loop_
 _atom_site_type_symbol
 _atom_site_label
 _atom_site_symmetry_multiplicity
 _atom_site_fract_x
 _atom_site_fract_y
 _atom_site_fract_z
 _atom_site_occupancy
  Li  Li0  1  0.291634  0.280713  0.586329  1
  Li  Li1  1  0.303098  0.273438  0.260231  1
  Li  Li2  1  0.981729  0.699876  0.077288  1
  Li  Li3  1  0.978542  0.696887  0.738763  1
  Li  Li4  1  0.725759  0.021365  0.497705  1
  Li  Li5  1  0.710742  0.017483  0.836046  1
  Mn  Mn6  1  0.009757  0.379624  0.456156  1
  Mn  Mn7  1  0.011893  0.353557  0.116672  1
  Mn  Mn8  1  0.013138  0.362819  0.786810  1
  Mn  Mn9  1  0.339515  0.994173  0.662385  1
  Mn  Mn10  1  0.361326  0.996682  0.995180  1
  Mn  Mn11  1  0.382084  0.983886  0.326383  1
  Mn  Mn12  1  0.625860  0.646774  0.888261  1
  Mn  Mn13  1  0.622189  0.631290  0.210070  1
  Mn  Mn14  1  0.637522  0.644503  0.550852  1
  B  B15  1  0.994593  0.987937  0.997057  1
  B  B16  1  0.331851  0.664219  0.066284  1
  B  B17  1  0.328336  0.669331  0.720093  1
  B  B18  1  0.011266  0.004158  0.337491  1
  B  B19  1  0.346909  0.669171  0.379208  1
  B  B20  1  0.667676  0.331524  0.276611  1
  B  B21  1  0.662844  0.334458  0.606376  1
  B  B22  1  0.672851  0.339737  0.951075  1
  B  B23  1  0.988116  0.998821  0.666941  1
  O  O24  1  0.262834  0.791219  0.111529  1
  O  O25  1  0.248826  0.784023  0.760694  1
  O  O26  1  0.278797  0.792714  0.414633  1
  O  O27  1  0.213268  0.478369  0.987560  1
  O  O28  1  0.214383  0.475708  0.645256  1
  O  O29  1  0.230234  0.478771  0.324310  1
  O  O30  1  0.176658  0.113199  0.684216  1
  O  O31  1  0.184549  0.097986  0.050985  1
  O  O32  1  0.206395  0.099098  0.365596  1
  O  O33  1  0.523816  0.738474  0.105127  1
  O  O34  1  0.520091  0.746961  0.753749  1
  O  O35  1  0.542739  0.744773  0.402195  1
  O  O36  1  0.573743  0.438573  0.645784  1
  O  O37  1  0.599432  0.456383  0.307859  1
  O  O38  1  0.603990  0.464128  0.001299  1
  O  O39  1  0.532643  0.143328  0.221552  1
  O  O40  1  0.552442  0.148508  0.877082  1
  O  O41  1  0.555485  0.137923  0.530865  1
  O  O42  1  0.905013  0.812873  0.263072  1
  O  O43  1  0.914593  0.810672  0.630115  1
  O  O44  1  0.913560  0.793181  0.937304  1
  O  O45  1  0.854199  0.416291  0.640441  1
  O  O46  1  0.853386  0.389109  0.297684  1
  O  O47  1  0.862978  0.412607  0.974842  1
  O  O48  1  0.868090  0.073888  0.686719  1
  O  O49  1  0.887102  0.070392  0.003012  1
  O  O50  1  0.921460  0.108427  0.386249  1
