# generated using pymatgen
data_Eu3ReO8
_symmetry_space_group_name_H-M   'P 1'
_cell_length_a   7.41882111
_cell_length_b   6.29236607
_cell_length_c   7.42652589
_cell_angle_alpha   90.00000000
_cell_angle_beta   111.33709706
_cell_angle_gamma   90.00000000
_symmetry_Int_Tables_number   1
_chemical_formula_structural   Eu3ReO8
_chemical_formula_sum   'Eu6 Re2 O16'
_cell_volume   322.92141665
_cell_formula_units_Z   2
loop_
 _symmetry_equiv_pos_site_id
 _symmetry_equiv_pos_as_xyz
  1  'x, y, z'
loop_
 _atom_site_type_symbol
 _atom_site_label
 _atom_site_symmetry_multiplicity
 _atom_site_fract_x
 _atom_site_fract_y
 _atom_site_fract_z
 _atom_site_occupancy
  Eu  Eu0  1  0.331432  0.250000  0.109865  1
  Eu  Eu1  1  0.602640  0.750000  0.394710  1
  Eu  Eu2  1  0.110069  0.750000  0.342284  1
  Eu  Eu3  1  0.889931  0.250000  0.657716  1
  Eu  Eu4  1  0.397360  0.250000  0.605290  1
  Eu  Eu5  1  0.668568  0.750000  0.890135  1
  Re  Re6  1  0.819534  0.250000  0.172415  1
  Re  Re7  1  0.180466  0.750000  0.827585  1
  O  O8  1  0.420807  0.750000  0.036336  1
  O  O9  1  0.806188  0.951609  0.194152  1
  O  O10  1  0.806188  0.548391  0.194152  1
  O  O11  1  0.039128  0.750000  0.982784  1
  O  O12  1  0.655673  0.250000  0.337976  1
  O  O13  1  0.334903  0.998902  0.336126  1
  O  O14  1  0.334903  0.501098  0.336126  1
  O  O15  1  0.965266  0.750000  0.591331  1
  O  O16  1  0.034734  0.250000  0.408669  1
  O  O17  1  0.665097  0.001098  0.663874  1
  O  O18  1  0.665097  0.498902  0.663874  1
  O  O19  1  0.344327  0.750000  0.662024  1
  O  O20  1  0.960872  0.250000  0.017216  1
  O  O21  1  0.193812  0.048391  0.805848  1
  O  O22  1  0.193812  0.451609  0.805848  1
  O  O23  1  0.579193  0.250000  0.963664  1
