# generated using pymatgen
data_Li3SbN3(O3F)3
_symmetry_space_group_name_H-M   'P 1'
_cell_length_a   8.78796460
_cell_length_b   8.78796460
_cell_length_c   7.00017239
_cell_angle_alpha   90.00000000
_cell_angle_beta   90.00000000
_cell_angle_gamma   107.22567805
_symmetry_Int_Tables_number   1
_chemical_formula_structural   Li3SbN3(O3F)3
_chemical_formula_sum   'Li6 Sb2 N6 O18 F6'
_cell_volume   516.36283385
_cell_formula_units_Z   2
loop_
 _symmetry_equiv_pos_site_id
 _symmetry_equiv_pos_as_xyz
  1  'x, y, z'
loop_
 _atom_site_type_symbol
 _atom_site_label
 _atom_site_symmetry_multiplicity
 _atom_site_fract_x
 _atom_site_fract_y
 _atom_site_fract_z
 _atom_site_occupancy
  Li  Li0  1  0.457525  0.969726  0.278080  1
  Li  Li1  1  0.969726  0.457525  0.778080  1
  Li  Li2  1  0.593970  0.406030  0.893254  1
  Li  Li3  1  0.406030  0.593970  0.393254  1
  Li  Li4  1  0.030274  0.542475  0.278080  1
  Li  Li5  1  0.542475  0.030274  0.778080  1
  Sb  Sb6  1  0.867866  0.132134  0.142684  1
  Sb  Sb7  1  0.132134  0.867866  0.642684  1
  N  N8  1  0.220262  0.318183  0.245998  1
  N  N9  1  0.318183  0.220262  0.745998  1
  N  N10  1  0.295428  0.704572  0.025111  1
  N  N11  1  0.704572  0.295428  0.525111  1
  N  N12  1  0.681817  0.779738  0.245998  1
  N  N13  1  0.779738  0.681817  0.745998  1
  O  O14  1  0.163456  0.201673  0.133973  1
  O  O15  1  0.201673  0.163456  0.633973  1
  O  O16  1  0.127427  0.373915  0.344132  1
  O  O17  1  0.373915  0.127427  0.844132  1
  O  O18  1  0.379094  0.368719  0.760435  1
  O  O19  1  0.368719  0.379094  0.260435  1
  O  O20  1  0.193873  0.595315  0.939767  1
  O  O21  1  0.595315  0.193873  0.439767  1
  O  O22  1  0.714878  0.285122  0.709401  1
  O  O23  1  0.285122  0.714878  0.209401  1
  O  O24  1  0.806127  0.404685  0.439767  1
  O  O25  1  0.404685  0.806127  0.939767  1
  O  O26  1  0.620906  0.631281  0.260435  1
  O  O27  1  0.631281  0.620906  0.760435  1
  O  O28  1  0.872573  0.626085  0.844132  1
  O  O29  1  0.626085  0.872573  0.344132  1
  O  O30  1  0.798327  0.836544  0.133973  1
  O  O31  1  0.836544  0.798327  0.633973  1
  F  F32  1  0.093208  0.638505  0.540629  1
  F  F33  1  0.638505  0.093208  0.040629  1
  F  F34  1  0.916893  0.083107  0.883204  1
  F  F35  1  0.083107  0.916893  0.383204  1
  F  F36  1  0.906792  0.361495  0.040629  1
  F  F37  1  0.361495  0.906792  0.540629  1
