# generated using pymatgen
data_Li4Ti2V3Sn3O16
_symmetry_space_group_name_H-M   'P 1'
_cell_length_a   6.17209358
_cell_length_b   6.17209358
_cell_length_c   9.68195154
_cell_angle_alpha   89.48065219
_cell_angle_beta   90.51934781
_cell_angle_gamma   120.70543820
_symmetry_Int_Tables_number   1
_chemical_formula_structural   Li4Ti2V3Sn3O16
_chemical_formula_sum   'Li4 Ti2 V3 Sn3 O16'
_cell_volume   317.10541036
_cell_formula_units_Z   1
loop_
 _symmetry_equiv_pos_site_id
 _symmetry_equiv_pos_as_xyz
  1  'x, y, z'
loop_
 _atom_site_type_symbol
 _atom_site_label
 _atom_site_symmetry_multiplicity
 _atom_site_fract_x
 _atom_site_fract_y
 _atom_site_fract_z
 _atom_site_occupancy
  Li  Li0  1  0.672766  0.327234  0.107357  1
  Li  Li1  1  0.990711  0.009289  0.011280  1
  Li  Li2  1  0.994698  0.005302  0.498869  1
  Li  Li3  1  0.333114  0.666886  0.602854  1
  Ti  Ti4  1  0.678154  0.321846  0.498349  1
  Ti  Ti5  1  0.344259  0.655741  0.022362  1
  V  V6  1  0.828673  0.171327  0.786035  1
  V  V7  1  0.651665  0.817244  0.286843  1
  V  V8  1  0.182756  0.348335  0.286843  1
  Sn  Sn9  1  0.829488  0.662004  0.785430  1
  Sn  Sn10  1  0.337996  0.170512  0.785430  1
  Sn  Sn11  1  0.170124  0.829876  0.286145  1
  O  O12  1  0.831432  0.654203  0.408821  1
  O  O13  1  0.515778  0.484222  0.656057  1
  O  O14  1  0.666427  0.333573  0.902329  1
  O  O15  1  0.996346  0.003654  0.683959  1
  O  O16  1  0.998230  0.001770  0.196302  1
  O  O17  1  0.345797  0.168568  0.408821  1
  O  O18  1  0.955818  0.475052  0.657278  1
  O  O19  1  0.524948  0.044182  0.657278  1
  O  O20  1  0.160400  0.839600  0.906028  1
  O  O21  1  0.828661  0.171339  0.405312  1
  O  O22  1  0.477719  0.953948  0.149470  1
  O  O23  1  0.046052  0.522281  0.149470  1
  O  O24  1  0.331202  0.668798  0.400127  1
  O  O25  1  0.665556  0.839764  0.902775  1
  O  O26  1  0.481229  0.518771  0.147527  1
  O  O27  1  0.160236  0.334444  0.902775  1
