# generated using pymatgen
data_CrTe(WO6)2
_symmetry_space_group_name_H-M   'P 1'
_cell_length_a   5.13172576
_cell_length_b   5.33330341
_cell_length_c   7.41493926
_cell_angle_alpha   92.68807169
_cell_angle_beta   90.03786375
_cell_angle_gamma   90.14826988
_symmetry_Int_Tables_number   1
_chemical_formula_structural   CrTe(WO6)2
_chemical_formula_sum   'Cr1 Te1 W2 O12'
_cell_volume   202.71580365
_cell_formula_units_Z   1
loop_
 _symmetry_equiv_pos_site_id
 _symmetry_equiv_pos_as_xyz
  1  'x, y, z'
loop_
 _atom_site_type_symbol
 _atom_site_label
 _atom_site_symmetry_multiplicity
 _atom_site_fract_x
 _atom_site_fract_y
 _atom_site_fract_z
 _atom_site_occupancy
  Cr  Cr0  1  0.001582  0.056273  0.968253  1
  Te  Te1  1  0.499767  0.497175  0.503844  1
  W  W2  1  0.987972  0.997840  0.469199  1
  W  W3  1  0.510300  0.554183  0.002836  1
  O  O4  1  0.300562  0.197181  0.447614  1
  O  O5  1  0.101998  0.009927  0.757561  1
  O  O6  1  0.294638  0.811394  0.049273  1
  O  O7  1  0.198939  0.698756  0.451954  1
  O  O8  1  0.808341  0.714178  0.951585  1
  O  O9  1  0.393492  0.490861  0.753704  1
  O  O10  1  0.598907  0.491454  0.250964  1
  O  O11  1  0.192448  0.292483  0.043915  1
  O  O12  1  0.803612  0.298206  0.555648  1
  O  O13  1  0.716672  0.199873  0.944161  1
  O  O14  1  0.893712  0.999471  0.239251  1
  O  O15  1  0.697057  0.800341  0.555441  1
