# generated using pymatgen
data_Li4Ti3Mn3(TeO8)2
_symmetry_space_group_name_H-M   'P 1'
_cell_length_a   6.07232097
_cell_length_b   6.07232097
_cell_length_c   10.30625305
_cell_angle_alpha   89.88850881
_cell_angle_beta   90.11149119
_cell_angle_gamma   120.62151356
_symmetry_Int_Tables_number   1
_chemical_formula_structural   Li4Ti3Mn3(TeO8)2
_chemical_formula_sum   'Li4 Ti3 Mn3 Te2 O16'
_cell_volume   327.02855788
_cell_formula_units_Z   1
loop_
 _symmetry_equiv_pos_site_id
 _symmetry_equiv_pos_as_xyz
  1  'x, y, z'
loop_
 _atom_site_type_symbol
 _atom_site_label
 _atom_site_symmetry_multiplicity
 _atom_site_fract_x
 _atom_site_fract_y
 _atom_site_fract_z
 _atom_site_occupancy
  Li  Li0  1  0.670753  0.329247  0.098007  1
  Li  Li1  1  0.007327  0.992673  0.009885  1
  Li  Li2  1  0.000666  0.999334  0.508288  1
  Li  Li3  1  0.331311  0.668689  0.599333  1
  Ti  Ti4  1  0.836815  0.660818  0.778175  1
  Ti  Ti5  1  0.339182  0.163185  0.778175  1
  Ti  Ti6  1  0.176656  0.823344  0.277819  1
  Mn  Mn7  1  0.831224  0.168776  0.787385  1
  Mn  Mn8  1  0.666846  0.832274  0.288339  1
  Mn  Mn9  1  0.167726  0.333154  0.288339  1
  Te  Te10  1  0.666070  0.333930  0.505656  1
  Te  Te11  1  0.358584  0.641416  0.006053  1
  O  O12  1  0.844676  0.690504  0.393266  1
  O  O13  1  0.504498  0.495502  0.682259  1
  O  O14  1  0.656939  0.343061  0.885234  1
  O  O15  1  0.000420  0.999580  0.688756  1
  O  O16  1  0.998196  0.001804  0.196307  1
  O  O17  1  0.309496  0.155324  0.393266  1
  O  O18  1  0.963277  0.511077  0.657655  1
  O  O19  1  0.488923  0.036723  0.657655  1
  O  O20  1  0.149185  0.850815  0.880494  1
  O  O21  1  0.831269  0.168731  0.420871  1
  O  O22  1  0.485375  0.976326  0.182833  1
  O  O23  1  0.023674  0.514625  0.182833  1
  O  O24  1  0.336101  0.663899  0.385205  1
  O  O25  1  0.683139  0.820065  0.909016  1
  O  O26  1  0.488148  0.511852  0.141867  1
  O  O27  1  0.179935  0.316861  0.909016  1
