# generated using pymatgen
data_LiFeF4
_symmetry_space_group_name_H-M   'P 1'
_cell_length_a   5.32939019
_cell_length_b   18.32823193
_cell_length_c   7.36962869
_cell_angle_alpha   90.00000000
_cell_angle_beta   91.97112099
_cell_angle_gamma   90.00000000
_symmetry_Int_Tables_number   1
_chemical_formula_structural   LiFeF4
_chemical_formula_sum   'Li8 Fe8 F32'
_cell_volume   719.42685446
_cell_formula_units_Z   8
loop_
 _symmetry_equiv_pos_site_id
 _symmetry_equiv_pos_as_xyz
  1  'x, y, z'
loop_
 _atom_site_type_symbol
 _atom_site_label
 _atom_site_symmetry_multiplicity
 _atom_site_fract_x
 _atom_site_fract_y
 _atom_site_fract_z
 _atom_site_occupancy
  Li  Li0  1  0.886912  0.946118  0.150539  1
  Li  Li1  1  0.886912  0.553882  0.650539  1
  Li  Li2  1  0.633739  0.320859  0.247141  1
  Li  Li3  1  0.633739  0.179141  0.747141  1
  Li  Li4  1  0.366261  0.820859  0.252859  1
  Li  Li5  1  0.366261  0.679141  0.752859  1
  Li  Li6  1  0.113088  0.446118  0.349461  1
  Li  Li7  1  0.113088  0.053882  0.849461  1
  Fe  Fe8  1  0.156412  0.129650  0.494284  1
  Fe  Fe9  1  0.349804  0.628428  0.384854  1
  Fe  Fe10  1  0.156412  0.370350  0.994284  1
  Fe  Fe11  1  0.349804  0.871572  0.884854  1
  Fe  Fe12  1  0.650196  0.128428  0.115146  1
  Fe  Fe13  1  0.843588  0.629650  0.005716  1
  Fe  Fe14  1  0.650196  0.371572  0.615146  1
  Fe  Fe15  1  0.843588  0.870350  0.505716  1
  F  F16  1  0.108705  0.652862  0.181947  1
  F  F17  1  0.108705  0.847138  0.681947  1
  F  F18  1  0.080661  0.873997  0.313083  1
  F  F19  1  0.080661  0.626003  0.813083  1
  F  F20  1  0.351016  0.203270  0.602544  1
  F  F21  1  0.351016  0.296730  0.102544  1
  F  F22  1  0.255994  0.038274  0.573226  1
  F  F23  1  0.145265  0.547976  0.438350  1
  F  F24  1  0.255994  0.461726  0.073226  1
  F  F25  1  0.145265  0.952024  0.938350  1
  F  F26  1  0.246860  0.710261  0.512211  1
  F  F27  1  0.246860  0.789739  0.012211  1
  F  F28  1  0.421176  0.106779  0.916994  1
  F  F29  1  0.421176  0.393221  0.416994  1
  F  F30  1  0.387289  0.128037  0.284696  1
  F  F31  1  0.612711  0.628037  0.215304  1
  F  F32  1  0.387289  0.371963  0.784696  1
  F  F33  1  0.612711  0.871963  0.715304  1
  F  F34  1  0.578824  0.606779  0.583006  1
  F  F35  1  0.578824  0.893221  0.083006  1
  F  F36  1  0.753140  0.210261  0.987789  1
  F  F37  1  0.753140  0.289739  0.487789  1
  F  F38  1  0.854735  0.047976  0.061650  1
  F  F39  1  0.744006  0.538274  0.926774  1
  F  F40  1  0.854735  0.452024  0.561650  1
  F  F41  1  0.744006  0.961726  0.426774  1
  F  F42  1  0.648984  0.703270  0.897456  1
  F  F43  1  0.648984  0.796730  0.397456  1
  F  F44  1  0.919339  0.373997  0.186917  1
  F  F45  1  0.919339  0.126003  0.686917  1
  F  F46  1  0.891295  0.152862  0.318053  1
  F  F47  1  0.891295  0.347138  0.818053  1
