# generated using pymatgen
data_Li2CrPO4F
_symmetry_space_group_name_H-M   'P 1'
_cell_length_a   5.33807465
_cell_length_b   5.48737500
_cell_length_c   7.76063915
_cell_angle_alpha   107.67205370
_cell_angle_beta   108.25292699
_cell_angle_gamma   94.87197826
_symmetry_Int_Tables_number   1
_chemical_formula_structural   Li2CrPO4F
_chemical_formula_sum   'Li4 Cr2 P2 O8 F2'
_cell_volume   201.58732652
_cell_formula_units_Z   2
loop_
 _symmetry_equiv_pos_site_id
 _symmetry_equiv_pos_as_xyz
  1  'x, y, z'
loop_
 _atom_site_type_symbol
 _atom_site_label
 _atom_site_symmetry_multiplicity
 _atom_site_fract_x
 _atom_site_fract_y
 _atom_site_fract_z
 _atom_site_occupancy
  Li  Li0  1  0.090168  0.430990  0.854747  1
  Li  Li1  1  0.016982  0.583108  0.511940  1
  Li  Li2  1  0.085109  0.069684  0.384709  1
  Li  Li3  1  0.842663  0.506697  0.129164  1
  Cr  Cr4  1  0.996767  0.987459  0.987428  1
  Cr  Cr5  1  0.511695  0.503669  0.502830  1
  P  P6  1  0.570447  0.871862  0.242764  1
  P  P7  1  0.430449  0.126868  0.758172  1
  O  O8  1  0.258977  0.792323  0.135848  1
  O  O9  1  0.658309  0.151999  0.389545  1
  O  O10  1  0.670287  0.672324  0.344661  1
  O  O11  1  0.730424  0.838578  0.102014  1
  O  O12  1  0.285216  0.160224  0.905489  1
  O  O13  1  0.333585  0.318072  0.648093  1
  O  O14  1  0.347032  0.848408  0.605477  1
  O  O15  1  0.741622  0.211578  0.871078  1
  F  F16  1  0.914865  0.629405  0.725510  1
  F  F17  1  0.084517  0.361701  0.288494  1
