# generated using pymatgen
data_Li2MnV(P2O7)2
_symmetry_space_group_name_H-M   'P 1'
_cell_length_a   4.84970672
_cell_length_b   7.04796529
_cell_length_c   16.60966949
_cell_angle_alpha   90.02954278
_cell_angle_beta   90.08378990
_cell_angle_gamma   108.77967873
_symmetry_Int_Tables_number   1
_chemical_formula_structural   Li2MnV(P2O7)2
_chemical_formula_sum   'Li4 Mn2 V2 P8 O28'
_cell_volume   537.50316920
_cell_formula_units_Z   2
loop_
 _symmetry_equiv_pos_site_id
 _symmetry_equiv_pos_as_xyz
  1  'x, y, z'
loop_
 _atom_site_type_symbol
 _atom_site_label
 _atom_site_symmetry_multiplicity
 _atom_site_fract_x
 _atom_site_fract_y
 _atom_site_fract_z
 _atom_site_occupancy
  Li  Li0  1  0.826734  0.324740  0.069613  1
  Li  Li1  1  0.822761  0.325302  0.569246  1
  Li  Li2  1  0.176291  0.676147  0.819474  1
  Li  Li3  1  0.174753  0.674165  0.319199  1
  Mn  Mn4  1  0.786523  0.268805  0.250785  1
  Mn  Mn5  1  0.214652  0.728402  0.000168  1
  V  V6  1  0.783742  0.273275  0.749966  1
  V  V7  1  0.213670  0.729108  0.500345  1
  P  P8  1  0.598938  0.478396  0.911034  1
  P  P9  1  0.601227  0.482034  0.409911  1
  P  P10  1  0.787235  0.914647  0.607922  1
  P  P11  1  0.787759  0.909926  0.106481  1
  P  P12  1  0.211069  0.086455  0.856911  1
  P  P13  1  0.213281  0.088645  0.357272  1
  P  P14  1  0.400691  0.516464  0.161293  1
  P  P15  1  0.400002  0.523528  0.659844  1
  O  O16  1  0.949386  0.153613  0.837389  1
  O  O17  1  0.942236  0.145742  0.336902  1
  O  O18  1  0.867850  0.115635  0.651933  1
  O  O19  1  0.873900  0.111080  0.148663  1
  O  O20  1  0.813899  0.518008  0.981834  1
  O  O21  1  0.810628  0.517807  0.482032  1
  O  O22  1  0.755425  0.504113  0.329428  1
  O  O23  1  0.749811  0.495228  0.828911  1
  O  O24  1  0.603800  0.395949  0.661149  1
  O  O25  1  0.607839  0.389890  0.164001  1
  O  O26  1  0.398064  0.086098  0.782090  1
  O  O27  1  0.397635  0.084311  0.282701  1
  O  O28  1  0.404016  0.246842  0.923240  1
  O  O29  1  0.404343  0.249455  0.422267  1
  O  O30  1  0.595510  0.753818  0.673486  1
  O  O31  1  0.597945  0.749939  0.172153  1
  O  O32  1  0.602656  0.917228  0.533435  1
  O  O33  1  0.598930  0.910997  0.031748  1
  O  O34  1  0.392302  0.605748  0.412447  1
  O  O35  1  0.396343  0.607550  0.912512  1
  O  O36  1  0.246655  0.506595  0.578326  1
  O  O37  1  0.249481  0.493893  0.079823  1
  O  O38  1  0.190233  0.481667  0.232951  1
  O  O39  1  0.186907  0.483911  0.730898  1
  O  O40  1  0.126083  0.884738  0.898458  1
  O  O41  1  0.130967  0.888336  0.402057  1
  O  O42  1  0.051058  0.851970  0.588177  1
  O  O43  1  0.056769  0.849798  0.085950  1
