# generated using pymatgen
data_Ho2WO6
_symmetry_space_group_name_H-M   'P 1'
_cell_length_a   7.68227678
_cell_length_b   5.38062218
_cell_length_c   11.45835357
_cell_angle_alpha   90.00000000
_cell_angle_beta   104.63553310
_cell_angle_gamma   90.00000000
_symmetry_Int_Tables_number   1
_chemical_formula_structural   Ho2WO6
_chemical_formula_sum   'Ho8 W4 O24'
_cell_volume   458.26773110
_cell_formula_units_Z   4
loop_
 _symmetry_equiv_pos_site_id
 _symmetry_equiv_pos_as_xyz
  1  'x, y, z'
loop_
 _atom_site_type_symbol
 _atom_site_label
 _atom_site_symmetry_multiplicity
 _atom_site_fract_x
 _atom_site_fract_y
 _atom_site_fract_z
 _atom_site_occupancy
  Ho  Ho0  1  0.000000  0.737054  0.750000  1
  Ho  Ho1  1  0.000000  0.262946  0.250000  1
  Ho  Ho2  1  0.201760  0.188626  0.578171  1
  Ho  Ho3  1  0.201760  0.811374  0.078171  1
  Ho  Ho4  1  0.500000  0.683409  0.750000  1
  Ho  Ho5  1  0.500000  0.316591  0.250000  1
  Ho  Ho6  1  0.798240  0.188626  0.921829  1
  Ho  Ho7  1  0.798240  0.811374  0.421829  1
  W  W8  1  0.279118  0.253384  0.886830  1
  W  W9  1  0.279118  0.746616  0.386830  1
  W  W10  1  0.720882  0.253384  0.613170  1
  W  W11  1  0.720882  0.746616  0.113170  1
  O  O12  1  0.061793  0.036269  0.895987  1
  O  O13  1  0.147234  0.524501  0.931092  1
  O  O14  1  0.061793  0.963731  0.395987  1
  O  O15  1  0.213880  0.464073  0.728579  1
  O  O16  1  0.147234  0.475499  0.431092  1
  O  O17  1  0.290837  0.985288  0.770860  1
  O  O18  1  0.213880  0.535927  0.228579  1
  O  O19  1  0.366742  0.852743  0.549493  1
  O  O20  1  0.512627  0.363301  0.888529  1
  O  O21  1  0.290837  0.014712  0.270860  1
  O  O22  1  0.487373  0.363301  0.611471  1
  O  O23  1  0.633258  0.852743  0.950507  1
  O  O24  1  0.366742  0.147257  0.049493  1
  O  O25  1  0.512627  0.636699  0.388529  1
  O  O26  1  0.709163  0.985288  0.729140  1
  O  O27  1  0.487373  0.636699  0.111471  1
  O  O28  1  0.633258  0.147257  0.450507  1
  O  O29  1  0.786120  0.464073  0.771421  1
  O  O30  1  0.709163  0.014712  0.229140  1
  O  O31  1  0.852766  0.524501  0.568908  1
  O  O32  1  0.786120  0.535927  0.271421  1
  O  O33  1  0.938207  0.036269  0.604013  1
  O  O34  1  0.852766  0.475499  0.068908  1
  O  O35  1  0.938207  0.963731  0.104013  1
