# generated using pymatgen
data_Li2TiS2O
_symmetry_space_group_name_H-M   'P 1'
_cell_length_a   5.55007665
_cell_length_b   12.62791575
_cell_length_c   6.46799994
_cell_angle_alpha   90.00000000
_cell_angle_beta   114.25146739
_cell_angle_gamma   90.00000000
_symmetry_Int_Tables_number   1
_chemical_formula_structural   Li2TiS2O
_chemical_formula_sum   'Li8 Ti4 S8 O4'
_cell_volume   413.31118852
_cell_formula_units_Z   4
loop_
 _symmetry_equiv_pos_site_id
 _symmetry_equiv_pos_as_xyz
  1  'x, y, z'
loop_
 _atom_site_type_symbol
 _atom_site_label
 _atom_site_symmetry_multiplicity
 _atom_site_fract_x
 _atom_site_fract_y
 _atom_site_fract_z
 _atom_site_occupancy
  Li  Li0  1  0.157885  0.442402  0.791565  1
  Li  Li1  1  0.050117  0.862365  0.597250  1
  Li  Li2  1  0.657885  0.057598  0.791565  1
  Li  Li3  1  0.550117  0.637635  0.597250  1
  Li  Li4  1  0.449883  0.362365  0.402750  1
  Li  Li5  1  0.342115  0.942402  0.208435  1
  Li  Li6  1  0.949883  0.137635  0.402750  1
  Li  Li7  1  0.842115  0.557598  0.208435  1
  Ti  Ti8  1  0.149806  0.680640  0.981410  1
  Ti  Ti9  1  0.649806  0.819360  0.981410  1
  Ti  Ti10  1  0.350194  0.180640  0.018590  1
  Ti  Ti11  1  0.850194  0.319360  0.018590  1
  S  S12  1  0.125461  0.049437  0.790783  1
  S  S13  1  0.053853  0.642051  0.619179  1
  S  S14  1  0.625461  0.450563  0.790783  1
  S  S15  1  0.553853  0.857949  0.619179  1
  S  S16  1  0.446147  0.142051  0.380821  1
  S  S17  1  0.374539  0.549437  0.209217  1
  S  S18  1  0.946147  0.357949  0.380821  1
  S  S19  1  0.874539  0.950563  0.209217  1
  O  O20  1  0.158575  0.306062  0.969923  1
  O  O21  1  0.658575  0.193938  0.969923  1
  O  O22  1  0.341425  0.806062  0.030077  1
  O  O23  1  0.841425  0.693938  0.030077  1
