# generated using pymatgen
data_Al2O3
_symmetry_space_group_name_H-M   'P 1'
_cell_length_a   7.77391168
_cell_length_b   7.77391168
_cell_length_c   7.77391168
_cell_angle_alpha   109.47122063
_cell_angle_beta   109.47122063
_cell_angle_gamma   109.47122063
_symmetry_Int_Tables_number   1
_chemical_formula_structural   Al2O3
_chemical_formula_sum   'Al16 O24'
_cell_volume   361.65703356
_cell_formula_units_Z   8
loop_
 _symmetry_equiv_pos_site_id
 _symmetry_equiv_pos_as_xyz
  1  'x, y, z'
loop_
 _atom_site_type_symbol
 _atom_site_label
 _atom_site_symmetry_multiplicity
 _atom_site_fract_x
 _atom_site_fract_y
 _atom_site_fract_z
 _atom_site_occupancy
  Al  Al0  1  0.500000  0.000000  0.000000  1
  Al  Al1  1  0.962242  0.250000  0.212242  1
  Al  Al2  1  0.787758  0.037758  0.750000  1
  Al  Al3  1  0.712242  0.462242  0.250000  1
  Al  Al4  1  0.750000  0.787758  0.037758  1
  Al  Al5  1  0.750000  0.287758  0.537758  1
  Al  Al6  1  0.462242  0.250000  0.712242  1
  Al  Al7  1  0.000000  0.500000  0.000000  1
  Al  Al8  1  0.500000  0.500000  0.500000  1
  Al  Al9  1  0.000000  0.000000  0.500000  1
  Al  Al10  1  0.537758  0.750000  0.287758  1
  Al  Al11  1  0.250000  0.712242  0.462242  1
  Al  Al12  1  0.250000  0.212242  0.962242  1
  Al  Al13  1  0.287758  0.537758  0.750000  1
  Al  Al14  1  0.212242  0.962242  0.250000  1
  Al  Al15  1  0.037758  0.750000  0.787758  1
  O  O16  1  0.770866  0.046032  0.497436  1
  O  O17  1  0.729134  0.226570  0.275166  1
  O  O18  1  0.273430  0.002564  0.048596  1
  O  O19  1  0.953968  0.502564  0.229134  1
  O  O20  1  0.453968  0.224834  0.451404  1
  O  O21  1  0.773430  0.724834  0.270866  1
  O  O22  1  0.048596  0.273430  0.002564  1
  O  O23  1  0.451404  0.453968  0.224834  1
  O  O24  1  0.724834  0.270866  0.773430  1
  O  O25  1  0.775166  0.548596  0.546032  1
  O  O26  1  0.002564  0.048596  0.273430  1
  O  O27  1  0.497436  0.770866  0.046032  1
  O  O28  1  0.997436  0.951404  0.726570  1
  O  O29  1  0.224834  0.451404  0.453968  1
  O  O30  1  0.275166  0.729134  0.226570  1
  O  O31  1  0.502564  0.229134  0.953968  1
  O  O32  1  0.548596  0.546032  0.775166  1
  O  O33  1  0.951404  0.726570  0.997436  1
  O  O34  1  0.546032  0.775166  0.548596  1
  O  O35  1  0.226570  0.275166  0.729134  1
  O  O36  1  0.046032  0.497436  0.770866  1
  O  O37  1  0.726570  0.997436  0.951404  1
  O  O38  1  0.229134  0.953968  0.502564  1
  O  O39  1  0.270866  0.773430  0.724834  1
