# generated using pymatgen
data_Na6Mn7O10
_symmetry_space_group_name_H-M   'P 1'
_cell_length_a   11.33807964
_cell_length_b   11.33807964
_cell_length_c   8.70607290
_cell_angle_alpha   72.50442189
_cell_angle_beta   107.49557811
_cell_angle_gamma   162.11313233
_symmetry_Int_Tables_number   1
_chemical_formula_structural   Na6Mn7O10
_chemical_formula_sum   'Na6 Mn7 O10'
_cell_volume   327.43916954
_cell_formula_units_Z   1
loop_
 _symmetry_equiv_pos_site_id
 _symmetry_equiv_pos_as_xyz
  1  'x, y, z'
loop_
 _atom_site_type_symbol
 _atom_site_label
 _atom_site_symmetry_multiplicity
 _atom_site_fract_x
 _atom_site_fract_y
 _atom_site_fract_z
 _atom_site_occupancy
  Na  Na0  1  0.999536  0.000464  0.174354  1
  Na  Na1  1  0.125325  0.874675  0.741839  1
  Na  Na2  1  0.716455  0.283545  0.650658  1
  Na  Na3  1  0.293192  0.706808  0.400307  1
  Na  Na4  1  0.891924  0.108076  0.261119  1
  Na  Na5  1  0.991090  0.008910  0.824764  1
  Mn  Mn6  1  0.602402  0.397598  0.962524  1
  Mn  Mn7  1  0.563903  0.436097  0.474079  1
  Mn  Mn8  1  0.155253  0.844747  0.281298  1
  Mn  Mn9  1  0.749181  0.250819  0.085386  1
  Mn  Mn10  1  0.849626  0.150374  0.700407  1
  Mn  Mn11  1  0.448469  0.551531  0.536615  1
  Mn  Mn12  1  0.356916  0.643084  0.968413  1
  O  O13  1  0.537429  0.462571  0.707102  1
  O  O14  1  0.115259  0.884741  0.470281  1
  O  O15  1  0.081046  0.918954  0.059773  1
  O  O16  1  0.678732  0.321268  0.879418  1
  O  O17  1  0.710283  0.289717  0.287455  1
  O  O18  1  0.300222  0.699778  0.703453  1
  O  O19  1  0.309798  0.690202  0.138880  1
  O  O20  1  0.905014  0.094986  0.947615  1
  O  O21  1  0.896981  0.103019  0.535709  1
  O  O22  1  0.473162  0.526838  0.325582  1
