# generated using pymatgen
data_Li8Mn5Fe3(BO3)8
_symmetry_space_group_name_H-M   'P 1'
_cell_length_a   5.23084414
_cell_length_b   6.03024155
_cell_length_c   16.20807173
_cell_angle_alpha   82.00287927
_cell_angle_beta   89.20286231
_cell_angle_gamma   89.35763114
_symmetry_Int_Tables_number   1
_chemical_formula_structural   Li8Mn5Fe3(BO3)8
_chemical_formula_sum   'Li8 Mn5 Fe3 B8 O24'
_cell_volume   506.21218040
_cell_formula_units_Z   1
loop_
 _symmetry_equiv_pos_site_id
 _symmetry_equiv_pos_as_xyz
  1  'x, y, z'
loop_
 _atom_site_type_symbol
 _atom_site_label
 _atom_site_symmetry_multiplicity
 _atom_site_fract_x
 _atom_site_fract_y
 _atom_site_fract_z
 _atom_site_occupancy
  Li  Li0  1  0.850253  0.064488  0.388729  1
  Li  Li1  1  0.150354  0.435338  0.111148  1
  Li  Li2  1  0.650351  0.186676  0.859561  1
  Li  Li3  1  0.348702  0.313129  0.639380  1
  Li  Li4  1  0.649366  0.687191  0.357686  1
  Li  Li5  1  0.348886  0.812797  0.142446  1
  Li  Li6  1  0.848944  0.563468  0.891579  1
  Li  Li7  1  0.151502  0.936131  0.607943  1
  Mn  Mn8  1  0.668880  0.272216  0.041320  1
  Mn  Mn9  1  0.168149  0.024784  0.789783  1
  Mn  Mn10  1  0.831626  0.475717  0.710468  1
  Mn  Mn11  1  0.666956  0.775269  0.539379  1
  Mn  Mn12  1  0.331736  0.724162  0.960513  1
  Fe  Fe13  1  0.332950  0.225848  0.460658  1
  Fe  Fe14  1  0.172540  0.521498  0.292178  1
  Fe  Fe15  1  0.838314  0.971222  0.209817  1
  B  B16  1  0.331135  0.038778  0.297184  1
  B  B17  1  0.827420  0.287131  0.545566  1
  B  B18  1  0.672133  0.462360  0.204344  1
  B  B19  1  0.169622  0.214708  0.952513  1
  B  B20  1  0.831894  0.784359  0.049571  1
  B  B21  1  0.330481  0.535421  0.797852  1
  B  B22  1  0.167186  0.714842  0.451272  1
  B  B23  1  0.668947  0.965578  0.701657  1
  O  O24  1  0.590395  0.012839  0.308564  1
  O  O25  1  0.185302  0.170995  0.345524  1
  O  O26  1  0.705374  0.172388  0.488577  1
  O  O27  1  0.286423  0.333102  0.009169  1
  O  O28  1  0.784949  0.083793  0.758442  1
  O  O29  1  0.816942  0.326771  0.157361  1
  O  O30  1  0.319932  0.080269  0.906395  1
  O  O31  1  0.088207  0.263795  0.557044  1
  O  O32  1  0.409715  0.486063  0.192071  1
  O  O33  1  0.910048  0.235470  0.938687  1
  O  O34  1  0.682495  0.418324  0.593853  1
  O  O35  1  0.215219  0.416685  0.740781  1
  O  O36  1  0.795035  0.582192  0.259136  1
  O  O37  1  0.314287  0.579428  0.404625  1
  O  O38  1  0.091961  0.763917  0.062296  1
  O  O39  1  0.589795  0.515194  0.812043  1
  O  O40  1  0.907609  0.737426  0.438170  1
  O  O41  1  0.683368  0.916884  0.096955  1
  O  O42  1  0.179146  0.669338  0.843615  1
  O  O43  1  0.206221  0.925351  0.240430  1
  O  O44  1  0.713978  0.668837  0.992262  1
  O  O45  1  0.285952  0.830597  0.508174  1
  O  O46  1  0.820008  0.831416  0.655666  1
  O  O47  1  0.409311  0.985815  0.687612  1
