# generated using pymatgen
data_Li3Mn2(FeO4)2
_symmetry_space_group_name_H-M   'P 1'
_cell_length_a   5.88223225
_cell_length_b   5.92225727
_cell_length_c   5.94048770
_cell_angle_alpha   118.93528810
_cell_angle_beta   90.78088700
_cell_angle_gamma   119.14588015
_symmetry_Int_Tables_number   1
_chemical_formula_structural   Li3Mn2(FeO4)2
_chemical_formula_sum   'Li3 Mn2 Fe2 O8'
_cell_volume   149.53076074
_cell_formula_units_Z   1
loop_
 _symmetry_equiv_pos_site_id
 _symmetry_equiv_pos_as_xyz
  1  'x, y, z'
loop_
 _atom_site_type_symbol
 _atom_site_label
 _atom_site_symmetry_multiplicity
 _atom_site_fract_x
 _atom_site_fract_y
 _atom_site_fract_z
 _atom_site_occupancy
  Li  Li0  1  0.500000  0.000000  0.000000  1
  Li  Li1  1  0.000000  0.000000  0.500000  1
  Li  Li2  1  1.000000  0.500000  0.500000  1
  Mn  Mn3  1  0.000000  0.500000  0.000000  1
  Mn  Mn4  1  0.500000  0.500000  0.500000  1
  Fe  Fe5  1  0.500000  0.500000  0.000000  1
  Fe  Fe6  1  0.000000  0.000000  0.000000  1
  O  O7  1  0.993893  0.732352  0.230565  1
  O  O8  1  0.485475  0.272937  0.752960  1
  O  O9  1  0.534923  0.273835  0.218779  1
  O  O10  1  0.019148  0.262176  0.218597  1
  O  O11  1  0.980852  0.737824  0.781403  1
  O  O12  1  0.465077  0.726165  0.781221  1
  O  O13  1  0.514526  0.727063  0.247040  1
  O  O14  1  0.006107  0.267648  0.769435  1
