# generated using pymatgen
data_LiCaP3H8O13
_symmetry_space_group_name_H-M   'P 1'
_cell_length_a   7.31328466
_cell_length_b   7.85939518
_cell_length_c   10.23729273
_cell_angle_alpha   84.97141454
_cell_angle_beta   74.68270304
_cell_angle_gamma   77.11381151
_symmetry_Int_Tables_number   1
_chemical_formula_structural   LiCaP3H8O13
_chemical_formula_sum   'Li2 Ca2 P6 H16 O26'
_cell_volume   552.96559870
_cell_formula_units_Z   2
loop_
 _symmetry_equiv_pos_site_id
 _symmetry_equiv_pos_as_xyz
  1  'x, y, z'
loop_
 _atom_site_type_symbol
 _atom_site_label
 _atom_site_symmetry_multiplicity
 _atom_site_fract_x
 _atom_site_fract_y
 _atom_site_fract_z
 _atom_site_occupancy
  Li  Li0  1  0.000000  0.500000  0.500000  1
  Li  Li1  1  0.000000  0.000000  0.000000  1
  Ca  Ca2  1  0.175850  0.192429  0.242350  1
  Ca  Ca3  1  0.824150  0.807571  0.757650  1
  P  P4  1  0.243779  0.797284  0.479813  1
  P  P5  1  0.756221  0.202716  0.520187  1
  P  P6  1  0.406493  0.540180  0.270987  1
  P  P7  1  0.593507  0.459820  0.729013  1
  P  P8  1  0.671280  0.196337  0.258534  1
  P  P9  1  0.328720  0.803663  0.741466  1
  H  H10  1  0.350362  0.378554  0.989919  1
  H  H11  1  0.649638  0.621446  0.010081  1
  H  H12  1  0.146865  0.346539  0.986456  1
  H  H13  1  0.853135  0.653461  0.013544  1
  H  H14  1  0.640836  0.026682  0.036571  1
  H  H15  1  0.359164  0.973318  0.963429  1
  H  H16  1  0.693615  0.132598  0.900495  1
  H  H17  1  0.306385  0.867402  0.099505  1
  H  H18  1  0.307742  0.304024  0.599492  1
  H  H19  1  0.692258  0.695976  0.400508  1
  H  H20  1  0.183127  0.180652  0.570874  1
  H  H21  1  0.816873  0.819348  0.429126  1
  H  H22  1  0.077424  0.257976  0.797803  1
  H  H23  1  0.922576  0.742024  0.202197  1
  H  H24  1  0.902063  0.334556  0.916653  1
  H  H25  1  0.097937  0.665444  0.083347  1
  O  O26  1  0.089094  0.704427  0.560569  1
  O  O27  1  0.910906  0.295573  0.439431  1
  O  O28  1  0.192907  0.951132  0.390488  1
  O  O29  1  0.807093  0.048868  0.609512  1
  O  O30  1  0.422136  0.654980  0.392215  1
  O  O31  1  0.577864  0.345020  0.607785  1
  O  O32  1  0.640600  0.147274  0.420440  1
  O  O33  1  0.359400  0.852726  0.579560  1
  O  O34  1  0.243813  0.445333  0.326591  1
  O  O35  1  0.756187  0.554667  0.673409  1
  O  O36  1  0.414255  0.649601  0.142728  1
  O  O37  1  0.585745  0.350399  0.857272  1
  O  O38  1  0.615258  0.408167  0.255255  1
  O  O39  1  0.384742  0.591833  0.744745  1
  O  O40  1  0.881900  0.145655  0.187991  1
  O  O41  1  0.118100  0.854345  0.812009  1
  O  O42  1  0.526976  0.123027  0.212003  1
  O  O43  1  0.473024  0.876973  0.787997  1
  O  O44  1  0.784217  0.613448  0.953885  1
  O  O45  1  0.215783  0.386552  0.046115  1
  O  O46  1  0.727853  0.016186  0.944269  1
  O  O47  1  0.272147  0.983814  0.055731  1
  O  O48  1  0.174325  0.286384  0.617710  1
  O  O49  1  0.825675  0.713616  0.382290  1
  O  O50  1  0.024432  0.248005  0.897527  1
  O  O51  1  0.975568  0.751995  0.102473  1
