# generated using pymatgen
data_LiVF5
_symmetry_space_group_name_H-M   'P 1'
_cell_length_a   5.30026800
_cell_length_b   5.30026800
_cell_length_c   7.61042583
_cell_angle_alpha   68.79685490
_cell_angle_beta   111.20314510
_cell_angle_gamma   105.78130230
_symmetry_Int_Tables_number   1
_chemical_formula_structural   LiVF5
_chemical_formula_sum   'Li2 V2 F10'
_cell_volume   183.36471772
_cell_formula_units_Z   2
loop_
 _symmetry_equiv_pos_site_id
 _symmetry_equiv_pos_as_xyz
  1  'x, y, z'
loop_
 _atom_site_type_symbol
 _atom_site_label
 _atom_site_symmetry_multiplicity
 _atom_site_fract_x
 _atom_site_fract_y
 _atom_site_fract_z
 _atom_site_occupancy
  Li  Li0  1  0.480320  0.480320  0.250000  1
  Li  Li1  1  0.519680  0.519680  0.750000  1
  V  V2  1  0.000000  0.000000  0.000000  1
  V  V3  1  0.000000  0.000000  0.500000  1
  F  F4  1  0.270620  0.302856  0.041931  1
  F  F5  1  0.302856  0.270620  0.458069  1
  F  F6  1  0.788182  0.271749  0.374433  1
  F  F7  1  0.923974  0.923974  0.250000  1
  F  F8  1  0.271749  0.788182  0.125567  1
  F  F9  1  0.728251  0.211818  0.874433  1
  F  F10  1  0.076026  0.076026  0.750000  1
  F  F11  1  0.211818  0.728251  0.625567  1
  F  F12  1  0.697144  0.729380  0.541931  1
  F  F13  1  0.729380  0.697144  0.958069  1
