# generated using pymatgen
data_Li2Ni2(SO4)3
_symmetry_space_group_name_H-M   'P 1'
_cell_length_a   8.57581770
_cell_length_b   8.75513011
_cell_length_c   12.23252883
_cell_angle_alpha   90.00000000
_cell_angle_beta   90.00000000
_cell_angle_gamma   90.00000000
_symmetry_Int_Tables_number   1
_chemical_formula_structural   Li2Ni2(SO4)3
_chemical_formula_sum   'Li8 Ni8 S12 O48'
_cell_volume   918.44761973
_cell_formula_units_Z   4
loop_
 _symmetry_equiv_pos_site_id
 _symmetry_equiv_pos_as_xyz
  1  'x, y, z'
loop_
 _atom_site_type_symbol
 _atom_site_label
 _atom_site_symmetry_multiplicity
 _atom_site_fract_x
 _atom_site_fract_y
 _atom_site_fract_z
 _atom_site_occupancy
  Li  Li0  1  0.217201  0.277097  0.182631  1
  Li  Li1  1  0.782799  0.777097  0.182631  1
  Li  Li2  1  0.282799  0.777097  0.317369  1
  Li  Li3  1  0.717201  0.277097  0.317369  1
  Li  Li4  1  0.282799  0.722903  0.682631  1
  Li  Li5  1  0.717201  0.222903  0.682631  1
  Li  Li6  1  0.217201  0.222903  0.817369  1
  Li  Li7  1  0.782799  0.722903  0.817369  1
  Ni  Ni8  1  0.252234  0.962917  0.110191  1
  Ni  Ni9  1  0.747766  0.462917  0.110191  1
  Ni  Ni10  1  0.752234  0.962917  0.389809  1
  Ni  Ni11  1  0.247766  0.462917  0.389809  1
  Ni  Ni12  1  0.247766  0.037083  0.610191  1
  Ni  Ni13  1  0.752234  0.537083  0.610191  1
  Ni  Ni14  1  0.252234  0.537083  0.889809  1
  Ni  Ni15  1  0.747766  0.037083  0.889809  1
  S  S16  1  0.458390  0.250000  0.000000  1
  S  S17  1  0.541610  0.750000  0.000000  1
  S  S18  1  0.102194  0.605770  0.145349  1
  S  S19  1  0.897806  0.105770  0.145349  1
  S  S20  1  0.397806  0.105770  0.354651  1
  S  S21  1  0.602194  0.605770  0.354651  1
  S  S22  1  0.041610  0.750000  0.500000  1
  S  S23  1  0.958390  0.250000  0.500000  1
  S  S24  1  0.397806  0.394230  0.645349  1
  S  S25  1  0.602194  0.894230  0.645349  1
  S  S26  1  0.102194  0.894230  0.854651  1
  S  S27  1  0.897806  0.394230  0.854651  1
  O  O28  1  0.137304  0.572285  0.031279  1
  O  O29  1  0.862696  0.072285  0.031279  1
  O  O30  1  0.549721  0.362755  0.060569  1
  O  O31  1  0.450279  0.862755  0.060569  1
  O  O32  1  0.354738  0.171665  0.081125  1
  O  O33  1  0.645262  0.671665  0.081125  1
  O  O34  1  0.070686  0.109757  0.160922  1
  O  O35  1  0.929314  0.609757  0.160922  1
  O  O36  1  0.165951  0.757109  0.179519  1
  O  O37  1  0.834049  0.257109  0.179519  1
  O  O38  1  0.829990  0.985058  0.217491  1
  O  O39  1  0.170010  0.485058  0.217491  1
  O  O40  1  0.329990  0.985058  0.282509  1
  O  O41  1  0.670010  0.485058  0.282509  1
  O  O42  1  0.665951  0.757109  0.320481  1
  O  O43  1  0.334049  0.257109  0.320481  1
  O  O44  1  0.429314  0.609757  0.339078  1
  O  O45  1  0.570686  0.109757  0.339078  1
  O  O46  1  0.145262  0.671665  0.418875  1
  O  O47  1  0.854738  0.171665  0.418875  1
  O  O48  1  0.049721  0.362755  0.439431  1
  O  O49  1  0.950279  0.862755  0.439431  1
  O  O50  1  0.637304  0.572285  0.468721  1
  O  O51  1  0.362696  0.072285  0.468721  1
  O  O52  1  0.362696  0.427715  0.531279  1
  O  O53  1  0.637304  0.927715  0.531279  1
  O  O54  1  0.049721  0.137245  0.560569  1
  O  O55  1  0.950279  0.637245  0.560569  1
  O  O56  1  0.145262  0.828335  0.581125  1
  O  O57  1  0.854738  0.328335  0.581125  1
  O  O58  1  0.429314  0.890243  0.660922  1
  O  O59  1  0.570686  0.390243  0.660922  1
  O  O60  1  0.334049  0.242891  0.679519  1
  O  O61  1  0.665951  0.742891  0.679519  1
  O  O62  1  0.329990  0.514942  0.717491  1
  O  O63  1  0.670010  0.014942  0.717491  1
  O  O64  1  0.170010  0.014942  0.782509  1
  O  O65  1  0.829990  0.514942  0.782509  1
  O  O66  1  0.165951  0.742891  0.820481  1
  O  O67  1  0.834049  0.242891  0.820481  1
  O  O68  1  0.070686  0.390243  0.839078  1
  O  O69  1  0.929314  0.890243  0.839078  1
  O  O70  1  0.354738  0.328335  0.918875  1
  O  O71  1  0.645262  0.828335  0.918875  1
  O  O72  1  0.450279  0.637245  0.939431  1
  O  O73  1  0.549721  0.137245  0.939431  1
  O  O74  1  0.137304  0.927715  0.968721  1
  O  O75  1  0.862696  0.427715  0.968721  1
