# generated using pymatgen
data_LiFe5P3O13
_symmetry_space_group_name_H-M   'P 1'
_cell_length_a   6.38370217
_cell_length_b   8.55378399
_cell_length_c   9.72834769
_cell_angle_alpha   85.76447898
_cell_angle_beta   88.65599679
_cell_angle_gamma   89.88535176
_symmetry_Int_Tables_number   1
_chemical_formula_structural   LiFe5P3O13
_chemical_formula_sum   'Li2 Fe10 P6 O26'
_cell_volume   529.61799930
_cell_formula_units_Z   2
loop_
 _symmetry_equiv_pos_site_id
 _symmetry_equiv_pos_as_xyz
  1  'x, y, z'
loop_
 _atom_site_type_symbol
 _atom_site_label
 _atom_site_symmetry_multiplicity
 _atom_site_fract_x
 _atom_site_fract_y
 _atom_site_fract_z
 _atom_site_occupancy
  Li  Li0  1  0.761207  0.593017  0.446242  1
  Li  Li1  1  0.238793  0.406983  0.553758  1
  Fe  Fe2  1  0.998575  0.872029  0.776407  1
  Fe  Fe3  1  0.748244  0.151624  0.902649  1
  Fe  Fe4  1  0.743859  0.213593  0.564872  1
  Fe  Fe5  1  0.749282  0.424798  0.101075  1
  Fe  Fe6  1  0.492774  0.871909  0.776879  1
  Fe  Fe7  1  0.507226  0.128091  0.223121  1
  Fe  Fe8  1  0.250718  0.575202  0.898925  1
  Fe  Fe9  1  0.256141  0.786407  0.435128  1
  Fe  Fe10  1  0.251756  0.848376  0.097351  1
  Fe  Fe11  1  0.001425  0.127971  0.223593  1
  P  P12  1  0.745951  0.527544  0.753849  1
  P  P13  1  0.752399  0.892057  0.480291  1
  P  P14  1  0.749074  0.823665  0.095811  1
  P  P15  1  0.250926  0.176335  0.904189  1
  P  P16  1  0.247601  0.107943  0.519709  1
  P  P17  1  0.254049  0.472456  0.246151  1
  O  O18  1  0.946808  0.629547  0.756636  1
  O  O19  1  0.943706  0.787037  0.457023  1
  O  O20  1  0.949121  0.893677  0.156371  1
  O  O21  1  0.743282  0.874761  0.937980  1
  O  O22  1  0.742690  0.401508  0.877422  1
  O  O23  1  0.748847  0.948893  0.633157  1
  O  O24  1  0.748207  0.444692  0.614542  1
  O  O25  1  0.751019  0.048562  0.388138  1
  O  O26  1  0.760377  0.196391  0.101664  1
  O  O27  1  0.751525  0.647211  0.126737  1
  O  O28  1  0.544858  0.629940  0.761972  1
  O  O29  1  0.566269  0.782647  0.460742  1
  O  O30  1  0.451796  0.108724  0.835689  1
  O  O31  1  0.548204  0.891276  0.164311  1
  O  O32  1  0.433731  0.217353  0.539258  1
  O  O33  1  0.455142  0.370060  0.238028  1
  O  O34  1  0.248475  0.352789  0.873263  1
  O  O35  1  0.239623  0.803609  0.898336  1
  O  O36  1  0.248981  0.951438  0.611862  1
  O  O37  1  0.251793  0.555308  0.385458  1
  O  O38  1  0.251153  0.051107  0.366843  1
  O  O39  1  0.257310  0.598492  0.122578  1
  O  O40  1  0.256718  0.125239  0.062020  1
  O  O41  1  0.050879  0.106323  0.843629  1
  O  O42  1  0.056294  0.212963  0.542977  1
  O  O43  1  0.053192  0.370453  0.243364  1
