# generated using pymatgen
data_Li3MnV(PO4)3
_symmetry_space_group_name_H-M   'P 1'
_cell_length_a   8.63690945
_cell_length_b   8.67903601
_cell_length_c   12.65799143
_cell_angle_alpha   105.63428339
_cell_angle_beta   105.83448391
_cell_angle_gamma   95.38290640
_symmetry_Int_Tables_number   1
_chemical_formula_structural   Li3MnV(PO4)3
_chemical_formula_sum   'Li12 Mn4 V4 P12 O48'
_cell_volume   864.60555187
_cell_formula_units_Z   4
loop_
 _symmetry_equiv_pos_site_id
 _symmetry_equiv_pos_as_xyz
  1  'x, y, z'
loop_
 _atom_site_type_symbol
 _atom_site_label
 _atom_site_symmetry_multiplicity
 _atom_site_fract_x
 _atom_site_fract_y
 _atom_site_fract_z
 _atom_site_occupancy
  Li  Li0  1  0.993716  0.001271  0.126738  1
  Li  Li1  1  0.998924  0.001476  0.624561  1
  Li  Li2  1  0.711371  0.287829  0.374132  1
  Li  Li3  1  0.500237  0.502000  0.250437  1
  Li  Li4  1  0.714272  0.292031  0.877569  1
  Li  Li5  1  0.497348  0.499625  0.498214  1
  Li  Li6  1  0.287897  0.709835  0.125158  1
  Li  Li7  1  0.499793  0.500222  0.751159  1
  Li  Li8  1  0.499800  0.500026  0.000211  1
  Li  Li9  1  0.287325  0.710439  0.623289  1
  Li  Li10  1  0.002104  0.997023  0.373537  1
  Li  Li11  1  0.007766  0.998415  0.875303  1
  Mn  Mn12  1  0.941545  0.629750  0.183577  1
  Mn  Mn13  1  0.625788  0.943507  0.435078  1
  Mn  Mn14  1  0.058871  0.370622  0.314647  1
  Mn  Mn15  1  0.058084  0.373300  0.816310  1
  V  V16  1  0.942633  0.622485  0.679882  1
  V  V17  1  0.379764  0.055938  0.070103  1
  V  V18  1  0.621324  0.944153  0.931428  1
  V  V19  1  0.376980  0.056478  0.569020  1
  P  P20  1  0.715700  0.289914  0.125370  1
  P  P21  1  0.865210  0.665694  0.431517  1
  P  P22  1  0.661162  0.867341  0.184195  1
  P  P23  1  0.712774  0.286762  0.625080  1
  P  P24  1  0.858881  0.664950  0.932746  1
  P  P25  1  0.661980  0.861494  0.681095  1
  P  P26  1  0.334642  0.134586  0.317271  1
  P  P27  1  0.141415  0.334074  0.067674  1
  P  P28  1  0.285248  0.712617  0.374526  1
  P  P29  1  0.337764  0.131699  0.817264  1
  P  P30  1  0.138750  0.339454  0.568091  1
  P  P31  1  0.285219  0.712506  0.875084  1
  O  O32  1  0.984182  0.662148  0.047670  1
  O  O33  1  0.948177  0.609057  0.334343  1
  O  O34  1  0.741897  0.173908  0.017152  1
  O  O35  1  0.989661  0.655095  0.543828  1
  O  O36  1  0.826116  0.265406  0.237693  1
  O  O37  1  0.844688  0.857140  0.197773  1
  O  O38  1  0.740613  0.463888  0.114000  1
  O  O39  1  0.855439  0.850314  0.452173  1
  O  O40  1  0.945723  0.615364  0.838186  1
  O  O41  1  0.737900  0.173342  0.514711  1
  O  O42  1  0.827271  0.262565  0.736490  1
  O  O43  1  0.844265  0.842889  0.693569  1
  O  O44  1  0.703527  0.550634  0.398337  1
  O  O45  1  0.597839  0.954004  0.089388  1
  O  O46  1  0.659840  0.988466  0.300327  1
  O  O47  1  0.539029  0.264233  0.133060  1
  O  O48  1  0.736147  0.461229  0.615170  1
  O  O49  1  0.546863  0.705017  0.148812  1
  O  O50  1  0.838788  0.847896  0.951614  1
  O  O51  1  0.700267  0.544280  0.897325  1
  O  O52  1  0.599711  0.951327  0.586891  1
  O  O53  1  0.450698  0.295681  0.351447  1
  O  O54  1  0.662805  0.985438  0.795658  1
  O  O55  1  0.537494  0.262287  0.635106  1
  O  O56  1  0.461911  0.740112  0.365539  1
  O  O57  1  0.343666  0.011587  0.204808  1
  O  O58  1  0.543851  0.702518  0.646749  1
  O  O59  1  0.389926  0.052087  0.413799  1
  O  O60  1  0.299521  0.454385  0.102045  1
  O  O61  1  0.161903  0.151603  0.049495  1
  O  O62  1  0.451514  0.293785  0.851331  1
  O  O63  1  0.261990  0.537689  0.384876  1
  O  O64  1  0.462287  0.736900  0.867496  1
  O  O65  1  0.343543  0.008886  0.703785  1
  O  O66  1  0.401818  0.046835  0.912874  1
  O  O67  1  0.299246  0.457412  0.603559  1
  O  O68  1  0.149164  0.144488  0.297125  1
  O  O69  1  0.173206  0.735602  0.262031  1
  O  O70  1  0.256896  0.826030  0.482750  1
  O  O71  1  0.053512  0.385239  0.162290  1
  O  O72  1  0.157548  0.158527  0.556949  1
  O  O73  1  0.260231  0.536424  0.884612  1
  O  O74  1  0.153227  0.141612  0.801269  1
  O  O75  1  0.174044  0.739479  0.765148  1
  O  O76  1  0.015876  0.337207  0.451616  1
  O  O77  1  0.259390  0.825916  0.984011  1
  O  O78  1  0.047866  0.400592  0.661946  1
  O  O79  1  0.014635  0.335955  0.952903  1
