# generated using pymatgen
data_Na2SiBiBO7
_symmetry_space_group_name_H-M   'P 1'
_cell_length_a   5.43829050
_cell_length_b   6.90897807
_cell_length_c   9.41480087
_cell_angle_alpha   90.00000000
_cell_angle_beta   90.91493792
_cell_angle_gamma   90.00000000
_symmetry_Int_Tables_number   1
_chemical_formula_structural   Na2SiBiBO7
_chemical_formula_sum   'Na4 Si2 Bi2 B2 O14'
_cell_volume   353.69749243
_cell_formula_units_Z   2
loop_
 _symmetry_equiv_pos_site_id
 _symmetry_equiv_pos_as_xyz
  1  'x, y, z'
loop_
 _atom_site_type_symbol
 _atom_site_label
 _atom_site_symmetry_multiplicity
 _atom_site_fract_x
 _atom_site_fract_y
 _atom_site_fract_z
 _atom_site_occupancy
  Na  Na0  1  0.765532  0.999280  0.709461  1
  Na  Na1  1  0.765532  0.500720  0.709461  1
  Na  Na2  1  0.234468  0.499280  0.290539  1
  Na  Na3  1  0.234468  0.000720  0.290539  1
  Si  Si4  1  0.282537  0.750000  0.927006  1
  Si  Si5  1  0.717463  0.250000  0.072994  1
  Bi  Bi6  1  0.220124  0.250000  0.846184  1
  Bi  Bi7  1  0.779876  0.750000  0.153816  1
  B  B8  1  0.271575  0.250000  0.569086  1
  B  B9  1  0.728425  0.750000  0.430914  1
  O  O10  1  0.697323  0.750000  0.569282  1
  O  O11  1  0.042357  0.250000  0.641086  1
  O  O12  1  0.472479  0.250000  0.673114  1
  O  O13  1  0.197676  0.938066  0.832922  1
  O  O14  1  0.197676  0.561934  0.832922  1
  O  O15  1  0.840756  0.250000  0.913487  1
  O  O16  1  0.588449  0.750000  0.951619  1
  O  O17  1  0.411551  0.250000  0.048381  1
  O  O18  1  0.159244  0.750000  0.086513  1
  O  O19  1  0.802324  0.438066  0.167078  1
  O  O20  1  0.802324  0.061934  0.167078  1
  O  O21  1  0.527521  0.750000  0.326886  1
  O  O22  1  0.957643  0.750000  0.358914  1
  O  O23  1  0.302677  0.250000  0.430718  1
