# generated using pymatgen
data_Ni2(PO3)5
_symmetry_space_group_name_H-M   'P 1'
_cell_length_a   5.34095595
_cell_length_b   8.63650641
_cell_length_c   13.52467204
_cell_angle_alpha   90.00000000
_cell_angle_beta   109.29171374
_cell_angle_gamma   90.00000000
_symmetry_Int_Tables_number   1
_chemical_formula_structural   Ni2(PO3)5
_chemical_formula_sum   'Ni4 P10 O30'
_cell_volume   588.82499872
_cell_formula_units_Z   2
loop_
 _symmetry_equiv_pos_site_id
 _symmetry_equiv_pos_as_xyz
  1  'x, y, z'
loop_
 _atom_site_type_symbol
 _atom_site_label
 _atom_site_symmetry_multiplicity
 _atom_site_fract_x
 _atom_site_fract_y
 _atom_site_fract_z
 _atom_site_occupancy
  Ni  Ni0  1  0.891737  0.280701  0.545711  1
  Ni  Ni1  1  0.108263  0.719299  0.454289  1
  Ni  Ni2  1  0.108263  0.280701  0.954289  1
  Ni  Ni3  1  0.891737  0.719299  0.045711  1
  P  P4  1  0.298486  0.177982  0.409692  1
  P  P5  1  0.540334  0.512431  0.639821  1
  P  P6  1  0.540334  0.487569  0.139821  1
  P  P7  1  0.000000  0.056351  0.750000  1
  P  P8  1  0.298486  0.822018  0.909692  1
  P  P9  1  0.701514  0.177982  0.090308  1
  P  P10  1  0.459666  0.487569  0.360179  1
  P  P11  1  0.459666  0.512431  0.860179  1
  P  P12  1  0.000000  0.943649  0.250000  1
  P  P13  1  0.701514  0.822018  0.590308  1
  O  O14  1  0.273209  0.342323  0.350587  1
  O  O15  1  0.909538  0.145003  0.827836  1
  O  O16  1  0.091930  0.174908  0.461623  1
  O  O17  1  0.307148  0.368144  0.864554  1
  O  O18  1  0.500000  0.488926  0.250000  1
  O  O19  1  0.726791  0.342323  0.149413  1
  O  O20  1  0.692852  0.368144  0.635446  1
  O  O21  1  0.581245  0.854117  0.973993  1
  O  O22  1  0.090462  0.145003  0.672164  1
  O  O23  1  0.692852  0.631856  0.135446  1
  O  O24  1  0.091930  0.825092  0.961623  1
  O  O25  1  0.763439  0.058749  0.188184  1
  O  O26  1  0.726791  0.657677  0.649413  1
  O  O27  1  0.307148  0.631856  0.364554  1
  O  O28  1  0.090462  0.854997  0.172164  1
  O  O29  1  0.236561  0.058749  0.311816  1
  O  O30  1  0.581245  0.145883  0.473993  1
  O  O31  1  0.908070  0.174908  0.038377  1
  O  O32  1  0.500000  0.511074  0.750000  1
  O  O33  1  0.732214  0.533454  0.941994  1
  O  O34  1  0.908070  0.825092  0.538377  1
  O  O35  1  0.267786  0.533454  0.558006  1
  O  O36  1  0.418755  0.854117  0.526007  1
  O  O37  1  0.267786  0.466546  0.058006  1
  O  O38  1  0.732214  0.466546  0.441994  1
  O  O39  1  0.418755  0.145883  0.026007  1
  O  O40  1  0.763439  0.941251  0.688184  1
  O  O41  1  0.273209  0.657677  0.850587  1
  O  O42  1  0.909538  0.854997  0.327836  1
  O  O43  1  0.236561  0.941251  0.811816  1
