# generated using pymatgen
data_Fe2O3F
_symmetry_space_group_name_H-M   'P 1'
_cell_length_a   5.58597330
_cell_length_b   5.58597330
_cell_length_c   4.69974849
_cell_angle_alpha   86.87530797
_cell_angle_beta   93.12469203
_cell_angle_gamma   114.55819924
_symmetry_Int_Tables_number   1
_chemical_formula_structural   Fe2O3F
_chemical_formula_sum   'Fe4 O6 F2'
_cell_volume   133.10073794
_cell_formula_units_Z   2
loop_
 _symmetry_equiv_pos_site_id
 _symmetry_equiv_pos_as_xyz
  1  'x, y, z'
loop_
 _atom_site_type_symbol
 _atom_site_label
 _atom_site_symmetry_multiplicity
 _atom_site_fract_x
 _atom_site_fract_y
 _atom_site_fract_z
 _atom_site_occupancy
  Fe  Fe0  1  0.000000  1.000000  0.500000  1
  Fe  Fe1  1  0.500000  0.500000  0.500000  1
  Fe  Fe2  1  0.500000  0.000000  0.000000  1
  Fe  Fe3  1  0.000000  0.500000  0.000000  1
  O  O4  1  0.162112  0.837888  0.180996  1
  O  O5  1  0.153570  0.347703  0.304985  1
  O  O6  1  0.652297  0.846430  0.304985  1
  O  O7  1  0.846430  0.652297  0.695015  1
  O  O8  1  0.347703  0.153570  0.695015  1
  O  O9  1  0.837888  0.162112  0.819004  1
  F  F10  1  0.648013  0.351987  0.200171  1
  F  F11  1  0.351987  0.648013  0.799829  1
