# generated using pymatgen
data_Li13Nb14ZnO42
_symmetry_space_group_name_H-M   'P 1'
_cell_length_a   9.06565554
_cell_length_b   9.27378844
_cell_length_c   9.88988040
_cell_angle_alpha   103.60887820
_cell_angle_beta   98.74570681
_cell_angle_gamma   99.38205685
_symmetry_Int_Tables_number   1
_chemical_formula_structural   Li13Nb14ZnO42
_chemical_formula_sum   'Li13 Nb14 Zn1 O42'
_cell_volume   781.44160656
_cell_formula_units_Z   1
loop_
 _symmetry_equiv_pos_site_id
 _symmetry_equiv_pos_as_xyz
  1  'x, y, z'
loop_
 _atom_site_type_symbol
 _atom_site_label
 _atom_site_symmetry_multiplicity
 _atom_site_fract_x
 _atom_site_fract_y
 _atom_site_fract_z
 _atom_site_occupancy
  Li  Li0  1  0.103174  0.691877  0.926234  1
  Li  Li1  1  0.745957  0.763920  0.711732  1
  Li  Li2  1  0.387999  0.833945  0.496835  1
  Li  Li3  1  0.031320  0.905631  0.282728  1
  Li  Li4  1  0.674413  0.976457  0.068865  1
  Li  Li5  1  0.817532  0.548422  0.354124  1
  Li  Li6  1  0.530775  0.406279  0.783260  1
  Li  Li7  1  0.174333  0.476734  0.568734  1
  Li  Li8  1  0.888762  0.334044  0.997683  1
  Li  Li9  1  0.459810  0.620461  0.139682  1
  Li  Li10  1  0.603582  0.191274  0.425771  1
  Li  Li11  1  0.315997  0.048387  0.854723  1
  Li  Li12  1  0.245324  0.262308  0.211290  1
  Nb  Nb13  1  0.356142  0.927723  0.214832  1
  Nb  Nb14  1  0.710885  0.854149  0.428340  1
  Nb  Nb15  1  0.069876  0.778779  0.643927  1
  Nb  Nb16  1  0.428704  0.714715  0.858777  1
  Nb  Nb17  1  0.854146  0.431703  0.719957  1
  Nb  Nb18  1  0.498241  0.500080  0.501071  1
  Nb  Nb19  1  0.785394  0.641543  0.072951  1
  Nb  Nb20  1  0.218841  0.357904  0.932953  1
  Nb  Nb21  1  0.142961  0.571938  0.286637  1
  Nb  Nb22  1  0.639626  0.071754  0.792077  1
  Nb  Nb23  1  0.572529  0.286222  0.147608  1
  Nb  Nb24  1  0.290140  0.141652  0.572779  1
  Nb  Nb25  1  0.928258  0.215204  0.357566  1
  Nb  Nb26  1  0.999496  0.999428  0.001376  1
  Zn  Zn27  1  0.959861  0.119356  0.641947  1
  O  O28  1  0.127550  0.997027  0.652852  1
  O  O29  1  0.758497  0.990271  0.650081  1
  O  O30  1  0.881656  0.994920  0.403652  1
  O  O31  1  0.595558  0.851988  0.828965  1
  O  O32  1  0.254354  0.987875  0.397582  1
  O  O33  1  0.968163  0.845299  0.826673  1
  O  O34  1  0.266928  0.813931  0.810939  1
  O  O35  1  0.552081  0.956325  0.382742  1
  O  O36  1  0.873584  0.741744  0.525372  1
  O  O37  1  0.587935  0.598504  0.953616  1
  O  O38  1  0.158929  0.883815  0.096466  1
  O  O39  1  0.560346  0.711371  0.509483  1
  O  O40  1  0.845728  0.852635  0.080610  1
  O  O41  1  0.272850  0.566994  0.937406  1
  O  O42  1  0.898454  0.558239  0.932423  1
  O  O43  1  0.183859  0.702800  0.504812  1
  O  O44  1  0.468893  0.844631  0.076456  1
  O  O45  1  0.024554  0.567723  0.686274  1
  O  O46  1  0.310489  0.709511  0.259086  1
  O  O47  1  0.681995  0.701431  0.254344  1
  O  O48  1  0.397455  0.558743  0.683748  1
  O  O49  1  0.694392  0.528698  0.667617  1
  O  O50  1  0.980116  0.670258  0.239499  1
  O  O51  1  0.301560  0.455350  0.381841  1
  O  O52  1  0.016164  0.308732  0.809019  1
  O  O53  1  0.702311  0.280545  0.791975  1
  O  O54  1  0.987859  0.424704  0.366169  1
  O  O55  1  0.611463  0.417128  0.362467  1
  O  O56  1  0.325339  0.274074  0.790999  1
  O  O57  1  0.453847  0.281958  0.544501  1
  O  O58  1  0.738158  0.424249  0.115757  1
  O  O59  1  0.166610  0.137846  0.973418  1
  O  O60  1  0.827471  0.272116  0.541813  1
  O  O61  1  0.540702  0.131562  0.968297  1
  O  O62  1  0.110655  0.416529  0.112053  1
  O  O63  1  0.408549  0.384538  0.095959  1
  O  O64  1  0.837552  0.099093  0.953202  1
  O  O65  1  0.123020  0.240564  0.526529  1
  O  O66  1  0.729788  0.169295  0.238313  1
  O  O67  1  0.442889  0.026608  0.667138  1
  O  O68  1  0.416791  0.138037  0.222811  1
  O  O69  1  0.040551  0.131269  0.220114  1
