# generated using pymatgen
data_LiMnVP2(HO5)2
_symmetry_space_group_name_H-M   'P 1'
_cell_length_a   5.33892570
_cell_length_b   7.34529361
_cell_length_c   10.45463693
_cell_angle_alpha   106.72832238
_cell_angle_beta   95.04106145
_cell_angle_gamma   110.54899915
_symmetry_Int_Tables_number   1
_chemical_formula_structural   LiMnVP2(HO5)2
_chemical_formula_sum   'Li2 Mn2 V2 P4 H4 O20'
_cell_volume   359.40573375
_cell_formula_units_Z   2
loop_
 _symmetry_equiv_pos_site_id
 _symmetry_equiv_pos_as_xyz
  1  'x, y, z'
loop_
 _atom_site_type_symbol
 _atom_site_label
 _atom_site_symmetry_multiplicity
 _atom_site_fract_x
 _atom_site_fract_y
 _atom_site_fract_z
 _atom_site_occupancy
  Li  Li0  1  0.562289  0.152077  0.782563  1
  Li  Li1  1  0.437711  0.847923  0.217437  1
  Mn  Mn2  1  0.999619  0.994145  0.747400  1
  Mn  Mn3  1  0.000381  0.005855  0.252600  1
  V  V4  1  0.500000  0.500000  0.500000  1
  V  V5  1  0.500000  0.500000  0.000000  1
  P  P6  1  0.129354  0.775265  0.025674  1
  P  P7  1  0.121520  0.768117  0.527185  1
  P  P8  1  0.870646  0.224735  0.974326  1
  P  P9  1  0.878480  0.231883  0.472815  1
  H  H10  1  0.718906  0.657539  0.246068  1
  H  H11  1  0.693494  0.660114  0.742741  1
  H  H12  1  0.281094  0.342461  0.753932  1
  H  H13  1  0.306506  0.339886  0.257259  1
  O  O14  1  0.325524  0.277083  0.685638  1
  O  O15  1  0.700630  0.357611  0.435718  1
  O  O16  1  0.804312  0.619290  0.584798  1
  O  O17  1  0.311603  0.284975  0.179246  1
  O  O18  1  0.179031  0.925802  0.109720  1
  O  O19  1  0.177884  0.931845  0.599006  1
  O  O20  1  0.206618  0.864527  0.372833  1
  O  O21  1  0.793382  0.135473  0.627167  1
  O  O22  1  0.688951  0.343994  0.933071  1
  O  O23  1  0.814063  0.624164  0.076245  1
  O  O24  1  0.195688  0.380710  0.415202  1
  O  O25  1  0.299370  0.642389  0.564282  1
  O  O26  1  0.227751  0.891677  0.873574  1
  O  O27  1  0.772249  0.108323  0.126426  1
  O  O28  1  0.820969  0.074198  0.890280  1
  O  O29  1  0.822116  0.068155  0.400994  1
  O  O30  1  0.674476  0.722917  0.314362  1
  O  O31  1  0.185937  0.375836  0.923755  1
  O  O32  1  0.311049  0.656006  0.066929  1
  O  O33  1  0.688397  0.715025  0.820754  1
