# generated using pymatgen
data_Li4Ti4V(Fe2O9)2
_symmetry_space_group_name_H-M   'P 1'
_cell_length_a   2.95209579
_cell_length_b   9.23969415
_cell_length_c   25.46873206
_cell_angle_alpha   90.00000000
_cell_angle_beta   90.00000000
_cell_angle_gamma   90.00000000
_symmetry_Int_Tables_number   1
_chemical_formula_structural   Li4Ti4V(Fe2O9)2
_chemical_formula_sum   'Li8 Ti8 V2 Fe8 O36'
_cell_volume   694.69690715
_cell_formula_units_Z   2
loop_
 _symmetry_equiv_pos_site_id
 _symmetry_equiv_pos_as_xyz
  1  'x, y, z'
loop_
 _atom_site_type_symbol
 _atom_site_label
 _atom_site_symmetry_multiplicity
 _atom_site_fract_x
 _atom_site_fract_y
 _atom_site_fract_z
 _atom_site_occupancy
  Li  Li0  1  0.000000  0.197698  0.488711  1
  Li  Li1  1  0.000000  0.196138  0.684057  1
  Li  Li2  1  0.000000  0.303862  0.184057  1
  Li  Li3  1  0.000000  0.302302  0.988711  1
  Li  Li4  1  0.000000  0.697698  0.011289  1
  Li  Li5  1  0.000000  0.696138  0.815943  1
  Li  Li6  1  0.000000  0.803862  0.315943  1
  Li  Li7  1  0.000000  0.802302  0.511289  1
  Ti  Ti8  1  0.000000  0.999088  0.599715  1
  Ti  Ti9  1  0.500000  0.158274  0.309795  1
  Ti  Ti10  1  0.500000  0.341726  0.809795  1
  Ti  Ti11  1  0.000000  0.500912  0.099715  1
  Ti  Ti12  1  0.000000  0.499088  0.900285  1
  Ti  Ti13  1  0.500000  0.658274  0.190205  1
  Ti  Ti14  1  0.500000  0.841726  0.690205  1
  Ti  Ti15  1  0.000000  0.000912  0.400285  1
  V  V16  1  0.000000  0.000000  0.000000  1
  V  V17  1  0.000000  0.500000  0.500000  1
  Fe  Fe18  1  0.000000  0.999167  0.805673  1
  Fe  Fe19  1  0.500000  0.151477  0.086139  1
  Fe  Fe20  1  0.500000  0.348523  0.586139  1
  Fe  Fe21  1  0.000000  0.500833  0.305673  1
  Fe  Fe22  1  0.000000  0.499167  0.694327  1
  Fe  Fe23  1  0.500000  0.651477  0.413861  1
  Fe  Fe24  1  0.500000  0.848523  0.913861  1
  Fe  Fe25  1  0.000000  0.000833  0.194327  1
  O  O26  1  0.000000  0.992878  0.925564  1
  O  O27  1  0.000000  0.007122  0.074436  1
  O  O28  1  0.500000  0.061567  0.443240  1
  O  O29  1  0.500000  0.043319  0.655913  1
  O  O30  1  0.500000  0.127391  0.164926  1
  O  O31  1  0.000000  0.102216  0.261428  1
  O  O32  1  0.500000  0.147924  0.003280  1
  O  O33  1  0.500000  0.139153  0.791454  1
  O  O34  1  0.000000  0.186990  0.358515  1
  O  O35  1  0.000000  0.198903  0.582682  1
  O  O36  1  0.000000  0.301097  0.082682  1
  O  O37  1  0.000000  0.313010  0.858515  1
  O  O38  1  0.500000  0.360847  0.291454  1
  O  O39  1  0.500000  0.352076  0.503280  1
  O  O40  1  0.000000  0.397784  0.761428  1
  O  O41  1  0.500000  0.372609  0.664926  1
  O  O42  1  0.500000  0.456681  0.155913  1
  O  O43  1  0.500000  0.438433  0.943240  1
  O  O44  1  0.000000  0.492878  0.574436  1
  O  O45  1  0.000000  0.507122  0.425564  1
  O  O46  1  0.500000  0.561567  0.056760  1
  O  O47  1  0.500000  0.543319  0.844087  1
  O  O48  1  0.500000  0.627391  0.335074  1
  O  O49  1  0.000000  0.602216  0.238572  1
  O  O50  1  0.500000  0.647924  0.496720  1
  O  O51  1  0.500000  0.639153  0.708546  1
  O  O52  1  0.000000  0.686990  0.141485  1
  O  O53  1  0.000000  0.698903  0.917318  1
  O  O54  1  0.000000  0.801097  0.417318  1
  O  O55  1  0.000000  0.813010  0.641485  1
  O  O56  1  0.500000  0.860847  0.208546  1
  O  O57  1  0.500000  0.852076  0.996720  1
  O  O58  1  0.000000  0.897784  0.738572  1
  O  O59  1  0.500000  0.872609  0.835074  1
  O  O60  1  0.500000  0.956681  0.344087  1
  O  O61  1  0.500000  0.938433  0.556760  1
