# generated using pymatgen
data_Cr(SO4)2
_symmetry_space_group_name_H-M   'P 1'
_cell_length_a   8.83688316
_cell_length_b   8.83688316
_cell_length_c   8.83688316
_cell_angle_alpha   55.96842563
_cell_angle_beta   55.96842563
_cell_angle_gamma   55.96842563
_symmetry_Int_Tables_number   1
_chemical_formula_structural   Cr(SO4)2
_chemical_formula_sum   'Cr3 S6 O24'
_cell_volume   442.37625450
_cell_formula_units_Z   3
loop_
 _symmetry_equiv_pos_site_id
 _symmetry_equiv_pos_as_xyz
  1  'x, y, z'
loop_
 _atom_site_type_symbol
 _atom_site_label
 _atom_site_symmetry_multiplicity
 _atom_site_fract_x
 _atom_site_fract_y
 _atom_site_fract_z
 _atom_site_occupancy
  Cr  Cr0  1  0.850492  0.850492  0.850492  1
  Cr  Cr1  1  0.356217  0.356217  0.356217  1
  Cr  Cr2  1  0.149631  0.149631  0.149631  1
  S  S3  1  0.251126  0.540704  0.954859  1
  S  S4  1  0.954859  0.251126  0.540704  1
  S  S5  1  0.540704  0.954859  0.251126  1
  S  S6  1  0.461977  0.040560  0.746627  1
  S  S7  1  0.040560  0.746627  0.461977  1
  S  S8  1  0.746627  0.461977  0.040560  1
  O  O9  1  0.703618  0.489701  0.888495  1
  O  O10  1  0.489701  0.888495  0.703618  1
  O  O11  1  0.039700  0.670511  0.992509  1
  O  O12  1  0.888495  0.703618  0.489701  1
  O  O13  1  0.280815  0.343753  0.979345  1
  O  O14  1  0.377762  0.622326  0.759564  1
  O  O15  1  0.759564  0.377762  0.622326  1
  O  O16  1  0.992509  0.039700  0.670511  1
  O  O17  1  0.622326  0.759564  0.377762  1
  O  O18  1  0.327141  0.018038  0.954707  1
  O  O19  1  0.653672  0.026362  0.717666  1
  O  O20  1  0.026362  0.717665  0.653672  1
  O  O21  1  0.979345  0.280815  0.343753  1
  O  O22  1  0.343753  0.979345  0.280815  1
  O  O23  1  0.670511  0.992509  0.039700  1
  O  O24  1  0.378355  0.242620  0.617554  1
  O  O25  1  0.018038  0.954707  0.327141  1
  O  O26  1  0.242620  0.617554  0.378355  1
  O  O27  1  0.617554  0.378355  0.242620  1
  O  O28  1  0.717666  0.653672  0.026362  1
  O  O29  1  0.109058  0.296540  0.513037  1
  O  O30  1  0.954707  0.327141  0.018038  1
  O  O31  1  0.513037  0.109058  0.296540  1
  O  O32  1  0.296540  0.513037  0.109058  1
