# generated using pymatgen
data_Li5Co2Ni3O10
_symmetry_space_group_name_H-M   'P 1'
_cell_length_a   5.77802197
_cell_length_b   2.86024591
_cell_length_c   20.58177110
_cell_angle_alpha   90.00000000
_cell_angle_beta   97.70878489
_cell_angle_gamma   90.00000000
_symmetry_Int_Tables_number   1
_chemical_formula_structural   Li5Co2Ni3O10
_chemical_formula_sum   'Li10 Co4 Ni6 O20'
_cell_volume   337.07193122
_cell_formula_units_Z   2
loop_
 _symmetry_equiv_pos_site_id
 _symmetry_equiv_pos_as_xyz
  1  'x, y, z'
loop_
 _atom_site_type_symbol
 _atom_site_label
 _atom_site_symmetry_multiplicity
 _atom_site_fract_x
 _atom_site_fract_y
 _atom_site_fract_z
 _atom_site_occupancy
  Li  Li0  1  0.100680  0.500000  0.200399  1
  Li  Li1  1  0.300321  0.000000  0.100596  1
  Li  Li2  1  0.500000  0.500000  0.000000  1
  Li  Li3  1  0.699679  0.000000  0.899404  1
  Li  Li4  1  0.899320  0.500000  0.799601  1
  Li  Li5  1  0.099505  0.000000  0.700285  1
  Li  Li6  1  0.500000  0.000000  0.500000  1
  Li  Li7  1  0.302169  0.500000  0.599451  1
  Li  Li8  1  0.697831  0.500000  0.400549  1
  Li  Li9  1  0.900495  0.000000  0.299715  1
  Co  Co10  1  0.000000  0.500000  0.000000  1
  Co  Co11  1  0.800204  0.500000  0.598362  1
  Co  Co12  1  0.000000  0.000000  0.500000  1
  Co  Co13  1  0.199796  0.500000  0.401638  1
  Ni  Ni14  1  0.599956  0.500000  0.200085  1
  Ni  Ni15  1  0.801878  0.000000  0.099843  1
  Ni  Ni16  1  0.198122  0.000000  0.900157  1
  Ni  Ni17  1  0.602693  0.000000  0.699099  1
  Ni  Ni18  1  0.400044  0.500000  0.799915  1
  Ni  Ni19  1  0.397307  0.000000  0.300901  1
  O  O20  1  0.632204  0.500000  0.293603  1
  O  O21  1  0.836075  0.000000  0.200463  1
  O  O22  1  0.364221  0.000000  0.199277  1
  O  O23  1  0.568995  0.500000  0.106500  1
  O  O24  1  0.773699  0.000000  0.999333  1
  O  O25  1  0.031096  0.500000  0.092598  1
  O  O26  1  0.431005  0.500000  0.893500  1
  O  O27  1  0.226301  0.000000  0.000667  1
  O  O28  1  0.968904  0.500000  0.907402  1
  O  O29  1  0.635779  0.000000  0.800723  1
  O  O30  1  0.163925  0.000000  0.799537  1
  O  O31  1  0.574257  0.000000  0.598145  1
  O  O32  1  0.834138  0.500000  0.691496  1
  O  O33  1  0.367796  0.500000  0.706397  1
  O  O34  1  0.025447  0.000000  0.594803  1
  O  O35  1  0.425743  0.000000  0.401855  1
  O  O36  1  0.778456  0.500000  0.504173  1
  O  O37  1  0.974553  0.000000  0.405197  1
  O  O38  1  0.221544  0.500000  0.495827  1
  O  O39  1  0.165862  0.500000  0.308504  1
