# generated using pymatgen
data_LiMn2F5
_symmetry_space_group_name_H-M   'P 1'
_cell_length_a   8.06432000
_cell_length_b   8.06432000
_cell_length_c   10.10624508
_cell_angle_alpha   63.00048185
_cell_angle_beta   116.99951815
_cell_angle_gamma   130.95366367
_symmetry_Int_Tables_number   1
_chemical_formula_structural   LiMn2F5
_chemical_formula_sum   'Li4 Mn8 F20'
_cell_volume   430.16115800
_cell_formula_units_Z   4
loop_
 _symmetry_equiv_pos_site_id
 _symmetry_equiv_pos_as_xyz
  1  'x, y, z'
loop_
 _atom_site_type_symbol
 _atom_site_label
 _atom_site_symmetry_multiplicity
 _atom_site_fract_x
 _atom_site_fract_y
 _atom_site_fract_z
 _atom_site_occupancy
  Li  Li0  1  0.698076  0.076125  0.681389  1
  Li  Li1  1  0.076125  0.698076  0.818611  1
  Li  Li2  1  0.923875  0.301924  0.181389  1
  Li  Li3  1  0.301924  0.923875  0.318611  1
  Mn  Mn4  1  0.778723  0.494124  0.351216  1
  Mn  Mn5  1  0.172045  0.272882  0.014015  1
  Mn  Mn6  1  0.272882  0.172045  0.485985  1
  Mn  Mn7  1  0.505876  0.221277  0.851216  1
  Mn  Mn8  1  0.494124  0.778723  0.148784  1
  Mn  Mn9  1  0.727118  0.827955  0.514015  1
  Mn  Mn10  1  0.827955  0.727118  0.985985  1
  Mn  Mn11  1  0.221277  0.505876  0.648784  1
  F  F12  1  0.898911  0.049072  0.862069  1
  F  F13  1  0.119749  0.720508  0.460675  1
  F  F14  1  0.438813  0.201924  0.357433  1
  F  F15  1  0.153784  0.527863  0.816351  1
  F  F16  1  0.527863  0.153784  0.683649  1
  F  F17  1  0.613329  0.646433  0.102364  1
  F  F18  1  0.646433  0.613329  0.397636  1
  F  F19  1  0.049072  0.898911  0.637931  1
  F  F20  1  0.279492  0.880251  0.960675  1
  F  F21  1  0.201924  0.438813  0.142567  1
  F  F22  1  0.798076  0.561187  0.857433  1
  F  F23  1  0.720508  0.119749  0.039325  1
  F  F24  1  0.950928  0.101089  0.362069  1
  F  F25  1  0.353567  0.386671  0.602364  1
  F  F26  1  0.386671  0.353567  0.897636  1
  F  F27  1  0.472137  0.846216  0.316351  1
  F  F28  1  0.846216  0.472137  0.183649  1
  F  F29  1  0.561187  0.798076  0.642567  1
  F  F30  1  0.880251  0.279492  0.539325  1
  F  F31  1  0.101089  0.950928  0.137931  1
