# generated using pymatgen
data_Li3MnPCO7
_symmetry_space_group_name_H-M   'P 1'
_cell_length_a   9.56719020
_cell_length_b   6.47858506
_cell_length_c   9.84107649
_cell_angle_alpha   90.00000000
_cell_angle_beta   116.30394592
_cell_angle_gamma   90.00000000
_symmetry_Int_Tables_number   1
_chemical_formula_structural   Li3MnPCO7
_chemical_formula_sum   'Li12 Mn4 P4 C4 O28'
_cell_volume   546.80958295
_cell_formula_units_Z   4
loop_
 _symmetry_equiv_pos_site_id
 _symmetry_equiv_pos_as_xyz
  1  'x, y, z'
loop_
 _atom_site_type_symbol
 _atom_site_label
 _atom_site_symmetry_multiplicity
 _atom_site_fract_x
 _atom_site_fract_y
 _atom_site_fract_z
 _atom_site_occupancy
  Li  Li0  1  0.102733  0.249232  0.937704  1
  Li  Li1  1  0.102733  0.250768  0.437704  1
  Li  Li2  1  0.286246  0.487765  0.760047  1
  Li  Li3  1  0.286246  0.012235  0.260047  1
  Li  Li4  1  0.352832  0.745660  0.566005  1
  Li  Li5  1  0.352832  0.754340  0.066005  1
  Li  Li6  1  0.647168  0.245660  0.933995  1
  Li  Li7  1  0.647168  0.254340  0.433995  1
  Li  Li8  1  0.713754  0.987765  0.739953  1
  Li  Li9  1  0.713754  0.512235  0.239953  1
  Li  Li10  1  0.897267  0.749232  0.562296  1
  Li  Li11  1  0.897267  0.750768  0.062296  1
  Mn  Mn12  1  0.268733  0.001827  0.764203  1
  Mn  Mn13  1  0.268733  0.498173  0.264203  1
  Mn  Mn14  1  0.731267  0.501827  0.735797  1
  Mn  Mn15  1  0.731267  0.998173  0.235797  1
  P  P16  1  0.407471  0.247806  0.563641  1
  P  P17  1  0.407471  0.252194  0.063641  1
  P  P18  1  0.592529  0.747806  0.936359  1
  P  P19  1  0.592529  0.752194  0.436359  1
  C  C20  1  0.041630  0.752237  0.873309  1
  C  C21  1  0.041630  0.747763  0.373309  1
  C  C22  1  0.958370  0.252237  0.626691  1
  C  C23  1  0.958370  0.247763  0.126691  1
  O  O24  1  0.069649  0.760019  0.512399  1
  O  O25  1  0.069649  0.739981  0.012399  1
  O  O26  1  0.104125  0.250352  0.734646  1
  O  O27  1  0.152907  0.764933  0.831943  1
  O  O28  1  0.104125  0.249648  0.234646  1
  O  O29  1  0.152907  0.735067  0.331943  1
  O  O30  1  0.310444  0.056493  0.567803  1
  O  O31  1  0.309669  0.437202  0.565944  1
  O  O32  1  0.309669  0.062798  0.065944  1
  O  O33  1  0.310444  0.443507  0.067803  1
  O  O34  1  0.425805  0.744410  0.803136  1
  O  O35  1  0.422646  0.249736  0.911587  1
  O  O36  1  0.425805  0.755590  0.303136  1
  O  O37  1  0.422646  0.250264  0.411587  1
  O  O38  1  0.577354  0.749736  0.588413  1
  O  O39  1  0.574195  0.244410  0.696864  1
  O  O40  1  0.577354  0.750264  0.088413  1
  O  O41  1  0.574195  0.255590  0.196864  1
  O  O42  1  0.690331  0.937202  0.934056  1
  O  O43  1  0.689556  0.556493  0.932197  1
  O  O44  1  0.689556  0.943507  0.432197  1
  O  O45  1  0.690331  0.562798  0.434056  1
  O  O46  1  0.847093  0.264933  0.668057  1
  O  O47  1  0.895875  0.750352  0.765354  1
  O  O48  1  0.847093  0.235067  0.168057  1
  O  O49  1  0.895875  0.749648  0.265354  1
  O  O50  1  0.930351  0.260019  0.987601  1
  O  O51  1  0.930351  0.239981  0.487601  1
