# generated using pymatgen
data_CdH2(SO4)2
_symmetry_space_group_name_H-M   'P 1'
_cell_length_a   5.44664071
_cell_length_b   13.69141396
_cell_length_c   8.70841402
_cell_angle_alpha   90.00000000
_cell_angle_beta   92.39800020
_cell_angle_gamma   90.00000000
_symmetry_Int_Tables_number   1
_chemical_formula_structural   CdH2(SO4)2
_chemical_formula_sum   'Cd4 H8 S8 O32'
_cell_volume   648.83701176
_cell_formula_units_Z   4
loop_
 _symmetry_equiv_pos_site_id
 _symmetry_equiv_pos_as_xyz
  1  'x, y, z'
loop_
 _atom_site_type_symbol
 _atom_site_label
 _atom_site_symmetry_multiplicity
 _atom_site_fract_x
 _atom_site_fract_y
 _atom_site_fract_z
 _atom_site_occupancy
  Cd  Cd0  1  0.277597  0.046335  0.745445  1
  Cd  Cd1  1  0.277597  0.453665  0.245445  1
  Cd  Cd2  1  0.722403  0.546335  0.754555  1
  Cd  Cd3  1  0.722403  0.953665  0.254555  1
  H  H4  1  0.070029  0.745636  0.572685  1
  H  H5  1  0.070029  0.754364  0.072685  1
  H  H6  1  0.403181  0.276579  0.696925  1
  H  H7  1  0.403181  0.223421  0.196925  1
  H  H8  1  0.596819  0.776579  0.803075  1
  H  H9  1  0.596819  0.723421  0.303075  1
  H  H10  1  0.929971  0.245636  0.927315  1
  H  H11  1  0.929971  0.254364  0.427315  1
  S  S12  1  0.202862  0.406440  0.624960  1
  S  S13  1  0.247335  0.642275  0.944104  1
  S  S14  1  0.202862  0.093560  0.124960  1
  S  S15  1  0.247335  0.857725  0.444104  1
  S  S16  1  0.752665  0.142275  0.555896  1
  S  S17  1  0.797138  0.906440  0.875040  1
  S  S18  1  0.752665  0.357725  0.055896  1
  S  S19  1  0.797138  0.593560  0.375040  1
  O  O20  1  0.027066  0.653654  0.842478  1
  O  O21  1  0.055619  0.920861  0.839334  1
  O  O22  1  0.027066  0.846346  0.342478  1
  O  O23  1  0.055619  0.579139  0.339334  1
  O  O24  1  0.226784  0.138108  0.971528  1
  O  O25  1  0.236740  0.773689  0.568551  1
  O  O26  1  0.226784  0.361892  0.471528  1
  O  O27  1  0.236740  0.726311  0.068551  1
  O  O28  1  0.261687  0.951923  0.521275  1
  O  O29  1  0.261687  0.548077  0.021275  1
  O  O30  1  0.304526  0.329092  0.745726  1
  O  O31  1  0.304526  0.170908  0.245726  1
  O  O32  1  0.346813  0.496050  0.648531  1
  O  O33  1  0.346813  0.003950  0.148531  1
  O  O34  1  0.478419  0.664444  0.866389  1
  O  O35  1  0.478419  0.835556  0.366389  1
  O  O36  1  0.521581  0.164444  0.633611  1
  O  O37  1  0.521581  0.335556  0.133611  1
  O  O38  1  0.653187  0.996050  0.851469  1
  O  O39  1  0.653187  0.503950  0.351469  1
  O  O40  1  0.695474  0.829092  0.754274  1
  O  O41  1  0.695474  0.670908  0.254274  1
  O  O42  1  0.738313  0.451923  0.978725  1
  O  O43  1  0.738313  0.048077  0.478725  1
  O  O44  1  0.763260  0.273689  0.931449  1
  O  O45  1  0.773216  0.638108  0.528472  1
  O  O46  1  0.763260  0.226311  0.431449  1
  O  O47  1  0.773216  0.861892  0.028472  1
  O  O48  1  0.944381  0.420861  0.660666  1
  O  O49  1  0.972934  0.153654  0.657522  1
  O  O50  1  0.944381  0.079139  0.160666  1
  O  O51  1  0.972934  0.346346  0.157522  1
