# generated using pymatgen
data_Li4Cu3SbO8
_symmetry_space_group_name_H-M   'P 1'
_cell_length_a   5.97657745
_cell_length_b   5.97657745
_cell_length_c   5.97657745
_cell_angle_alpha   60.50547905
_cell_angle_beta   60.50547905
_cell_angle_gamma   60.50547905
_symmetry_Int_Tables_number   1
_chemical_formula_structural   Li4Cu3SbO8
_chemical_formula_sum   'Li4 Cu3 Sb1 O8'
_cell_volume   152.67771035
_cell_formula_units_Z   1
loop_
 _symmetry_equiv_pos_site_id
 _symmetry_equiv_pos_as_xyz
  1  'x, y, z'
loop_
 _atom_site_type_symbol
 _atom_site_label
 _atom_site_symmetry_multiplicity
 _atom_site_fract_x
 _atom_site_fract_y
 _atom_site_fract_z
 _atom_site_occupancy
  Li  Li0  1  0.500000  0.500000  0.500000  1
  Li  Li1  1  1.000000  0.500000  1.000000  1
  Li  Li2  1  0.000000  1.000000  0.500000  1
  Li  Li3  1  0.500000  0.000000  1.000000  1
  Cu  Cu4  1  0.500000  0.000000  0.500000  1
  Cu  Cu5  1  0.500000  0.500000  0.000000  1
  Cu  Cu6  1  0.000000  0.500000  0.500000  1
  Sb  Sb7  1  0.000000  1.000000  0.000000  1
  O  O8  1  0.266992  0.266992  0.266992  1
  O  O9  1  0.763202  0.231424  0.763202  1
  O  O10  1  0.763202  0.763202  0.231424  1
  O  O11  1  0.733008  0.733008  0.733008  1
  O  O12  1  0.231424  0.763202  0.763202  1
  O  O13  1  0.236798  0.768576  0.236798  1
  O  O14  1  0.236798  0.236798  0.768576  1
  O  O15  1  0.768576  0.236798  0.236798  1
