# generated using pymatgen
data_Li3TiMn2O6
_symmetry_space_group_name_H-M   'P 1'
_cell_length_a   6.98469163
_cell_length_b   6.98469163
_cell_length_c   5.95579324
_cell_angle_alpha   78.58269450
_cell_angle_beta   101.41730550
_cell_angle_gamma   155.44317149
_symmetry_Int_Tables_number   1
_chemical_formula_structural   Li3TiMn2O6
_chemical_formula_sum   'Li3 Ti1 Mn2 O6'
_cell_volume   118.25101360
_cell_formula_units_Z   1
loop_
 _symmetry_equiv_pos_site_id
 _symmetry_equiv_pos_as_xyz
  1  'x, y, z'
loop_
 _atom_site_type_symbol
 _atom_site_label
 _atom_site_symmetry_multiplicity
 _atom_site_fract_x
 _atom_site_fract_y
 _atom_site_fract_z
 _atom_site_occupancy
  Li  Li0  1  0.500000  0.500000  0.500000  1
  Li  Li1  1  0.161345  0.838655  0.824767  1
  Li  Li2  1  0.838655  0.161345  0.175233  1
  Ti  Ti3  1  0.500000  0.500000  0.000000  1
  Mn  Mn4  1  0.167416  0.832584  0.339617  1
  Mn  Mn5  1  0.832584  0.167416  0.660383  1
  O  O6  1  0.649378  0.350622  0.087944  1
  O  O7  1  0.334489  0.665511  0.427523  1
  O  O8  1  0.350622  0.649378  0.912056  1
  O  O9  1  0.004646  0.995354  0.778239  1
  O  O10  1  0.995354  0.004646  0.221761  1
  O  O11  1  0.665511  0.334489  0.572477  1
