# generated using pymatgen
data_Mn3Fe2Sb3O16
_symmetry_space_group_name_H-M   'P 1'
_cell_length_a   6.09129337
_cell_length_b   6.09129337
_cell_length_c   9.13789484
_cell_angle_alpha   89.46674837
_cell_angle_beta   90.53325163
_cell_angle_gamma   120.67027095
_symmetry_Int_Tables_number   1
_chemical_formula_structural   Mn3Fe2Sb3O16
_chemical_formula_sum   'Mn3 Fe2 Sb3 O16'
_cell_volume   291.60692937
_cell_formula_units_Z   1
loop_
 _symmetry_equiv_pos_site_id
 _symmetry_equiv_pos_as_xyz
  1  'x, y, z'
loop_
 _atom_site_type_symbol
 _atom_site_label
 _atom_site_symmetry_multiplicity
 _atom_site_fract_x
 _atom_site_fract_y
 _atom_site_fract_z
 _atom_site_occupancy
  Mn  Mn0  1  0.830225  0.169775  0.785997  1
  Mn  Mn1  1  0.661783  0.833809  0.289710  1
  Mn  Mn2  1  0.166191  0.338217  0.289710  1
  Fe  Fe3  1  0.673919  0.326081  0.501472  1
  Fe  Fe4  1  0.343748  0.656252  0.009402  1
  Sb  Sb5  1  0.829572  0.665281  0.788469  1
  Sb  Sb6  1  0.334719  0.170428  0.788469  1
  Sb  Sb7  1  0.165427  0.834573  0.288247  1
  O  O8  1  0.833374  0.668887  0.395735  1
  O  O9  1  0.518928  0.481072  0.655821  1
  O  O10  1  0.652965  0.347035  0.912415  1
  O  O11  1  0.009991  0.990009  0.674028  1
  O  O12  1  0.993247  0.006753  0.185871  1
  O  O13  1  0.331113  0.166626  0.395735  1
  O  O14  1  0.953692  0.479062  0.665011  1
  O  O15  1  0.520938  0.046308  0.665011  1
  O  O16  1  0.165507  0.834493  0.905025  1
  O  O17  1  0.836429  0.163571  0.394669  1
  O  O18  1  0.484126  0.954709  0.164988  1
  O  O19  1  0.045291  0.515874  0.164988  1
  O  O20  1  0.336976  0.663024  0.399405  1
  O  O21  1  0.670918  0.834120  0.895528  1
  O  O22  1  0.475527  0.524473  0.173059  1
  O  O23  1  0.165880  0.329082  0.895528  1
