# generated using pymatgen
data_Ba2MgO3
_symmetry_space_group_name_H-M   'P 1'
_cell_length_a   6.51939132
_cell_length_b   6.51939132
_cell_length_c   12.74137905
_cell_angle_alpha   88.68220034
_cell_angle_beta   91.31779966
_cell_angle_gamma   54.80610646
_symmetry_Int_Tables_number   1
_chemical_formula_structural   Ba2MgO3
_chemical_formula_sum   'Ba8 Mg4 O12'
_cell_volume   441.99707116
_cell_formula_units_Z   4
loop_
 _symmetry_equiv_pos_site_id
 _symmetry_equiv_pos_as_xyz
  1  'x, y, z'
loop_
 _atom_site_type_symbol
 _atom_site_label
 _atom_site_symmetry_multiplicity
 _atom_site_fract_x
 _atom_site_fract_y
 _atom_site_fract_z
 _atom_site_occupancy
  Ba  Ba0  1  0.348020  0.868467  0.924920  1
  Ba  Ba1  1  0.444898  0.969355  0.350187  1
  Ba  Ba2  1  0.030645  0.555102  0.850187  1
  Ba  Ba3  1  0.868467  0.348020  0.575080  1
  Ba  Ba4  1  0.131533  0.651980  0.424920  1
  Ba  Ba5  1  0.969355  0.444898  0.149813  1
  Ba  Ba6  1  0.555102  0.030645  0.649813  1
  Ba  Ba7  1  0.651980  0.131533  0.075080  1
  Mg  Mg8  1  0.269536  0.738053  0.165952  1
  Mg  Mg9  1  0.261947  0.730464  0.665952  1
  Mg  Mg10  1  0.738053  0.269536  0.334048  1
  Mg  Mg11  1  0.730464  0.261947  0.834048  1
  O  O12  1  0.317597  0.879936  0.537533  1
  O  O13  1  0.494938  0.847737  0.132649  1
  O  O14  1  0.587424  0.587424  0.750000  1
  O  O15  1  0.997972  0.997972  0.750000  1
  O  O16  1  0.847737  0.494938  0.367351  1
  O  O17  1  0.879936  0.317597  0.962467  1
  O  O18  1  0.120064  0.682403  0.037533  1
  O  O19  1  0.152263  0.505062  0.632649  1
  O  O20  1  0.412576  0.412576  0.250000  1
  O  O21  1  0.002028  0.002028  0.250000  1
  O  O22  1  0.505062  0.152263  0.867351  1
  O  O23  1  0.682403  0.120064  0.462467  1
