# generated using pymatgen
data_Na3H6Ir
_symmetry_space_group_name_H-M   'P 1'
_cell_length_a   5.26095387
_cell_length_b   9.33519516
_cell_length_c   9.65379702
_cell_angle_alpha   90.00000000
_cell_angle_beta   90.00000000
_cell_angle_gamma   90.00000000
_symmetry_Int_Tables_number   1
_chemical_formula_structural   Na3H6Ir
_chemical_formula_sum   'Na12 H24 Ir4'
_cell_volume   474.11757952
_cell_formula_units_Z   4
loop_
 _symmetry_equiv_pos_site_id
 _symmetry_equiv_pos_as_xyz
  1  'x, y, z'
loop_
 _atom_site_type_symbol
 _atom_site_label
 _atom_site_symmetry_multiplicity
 _atom_site_fract_x
 _atom_site_fract_y
 _atom_site_fract_z
 _atom_site_occupancy
  Na  Na0  1  0.750000  0.452985  0.871824  1
  Na  Na1  1  0.750000  0.952985  0.628176  1
  Na  Na2  1  0.250000  0.547015  0.128176  1
  Na  Na3  1  0.250000  0.047015  0.371824  1
  Na  Na4  1  0.750000  0.105469  0.963918  1
  Na  Na5  1  0.750000  0.605469  0.536082  1
  Na  Na6  1  0.250000  0.894531  0.036082  1
  Na  Na7  1  0.250000  0.394531  0.463918  1
  Na  Na8  1  0.750000  0.282845  0.248838  1
  Na  Na9  1  0.750000  0.782845  0.251162  1
  Na  Na10  1  0.250000  0.717155  0.751162  1
  Na  Na11  1  0.250000  0.217155  0.748838  1
  H  H12  1  0.522541  0.168791  0.530925  1
  H  H13  1  0.977459  0.668791  0.969075  1
  H  H14  1  0.022541  0.831209  0.469075  1
  H  H15  1  0.477459  0.331209  0.030925  1
  H  H16  1  0.477459  0.831209  0.469075  1
  H  H17  1  0.022541  0.331209  0.030925  1
  H  H18  1  0.977459  0.168791  0.530925  1
  H  H19  1  0.522541  0.668791  0.969075  1
  H  H20  1  0.530158  0.389937  0.662488  1
  H  H21  1  0.969842  0.889937  0.837512  1
  H  H22  1  0.030158  0.610063  0.337512  1
  H  H23  1  0.469842  0.110063  0.162488  1
  H  H24  1  0.469842  0.610063  0.337512  1
  H  H25  1  0.030158  0.110063  0.162488  1
  H  H26  1  0.969842  0.389937  0.662488  1
  H  H27  1  0.530158  0.889937  0.837512  1
  H  H28  1  0.750000  0.377215  0.452836  1
  H  H29  1  0.750000  0.877215  0.047164  1
  H  H30  1  0.250000  0.622785  0.547164  1
  H  H31  1  0.250000  0.122785  0.952836  1
  H  H32  1  0.750000  0.180848  0.744063  1
  H  H33  1  0.750000  0.680848  0.755937  1
  H  H34  1  0.250000  0.819152  0.255937  1
  H  H35  1  0.250000  0.319152  0.244063  1
  Ir  Ir36  1  0.750000  0.277429  0.596943  1
  Ir  Ir37  1  0.750000  0.777429  0.903057  1
  Ir  Ir38  1  0.250000  0.722571  0.403057  1
  Ir  Ir39  1  0.250000  0.222571  0.096943  1
