# generated using pymatgen
data_VSO4F3
_symmetry_space_group_name_H-M   'P 1'
_cell_length_a   7.18476243
_cell_length_b   8.20703593
_cell_length_c   10.64232859
_cell_angle_alpha   90.00000000
_cell_angle_beta   90.00000000
_cell_angle_gamma   90.00000000
_symmetry_Int_Tables_number   1
_chemical_formula_structural   VSO4F3
_chemical_formula_sum   'V4 S4 O16 F12'
_cell_volume   627.53132701
_cell_formula_units_Z   4
loop_
 _symmetry_equiv_pos_site_id
 _symmetry_equiv_pos_as_xyz
  1  'x, y, z'
loop_
 _atom_site_type_symbol
 _atom_site_label
 _atom_site_symmetry_multiplicity
 _atom_site_fract_x
 _atom_site_fract_y
 _atom_site_fract_z
 _atom_site_occupancy
  V  V0  1  0.000000  0.000000  0.000000  1
  V  V1  1  0.000000  0.500000  0.500000  1
  V  V2  1  0.500000  0.000000  0.000000  1
  V  V3  1  0.500000  0.500000  0.500000  1
  S  S4  1  0.250000  0.178569  0.500000  1
  S  S5  1  0.250000  0.678569  0.000000  1
  S  S6  1  0.750000  0.821431  0.500000  1
  S  S7  1  0.750000  0.321431  0.000000  1
  O  O8  1  0.103888  0.305285  0.555831  1
  O  O9  1  0.103888  0.805285  0.944169  1
  O  O10  1  0.164536  0.094393  0.397873  1
  O  O11  1  0.164536  0.594393  0.102127  1
  O  O12  1  0.335464  0.094393  0.602127  1
  O  O13  1  0.335464  0.594393  0.897873  1
  O  O14  1  0.396112  0.805285  0.055831  1
  O  O15  1  0.396112  0.305285  0.444169  1
  O  O16  1  0.603888  0.194715  0.944169  1
  O  O17  1  0.603888  0.694715  0.555831  1
  O  O18  1  0.664536  0.405607  0.102127  1
  O  O19  1  0.664536  0.905607  0.397873  1
  O  O20  1  0.835464  0.405607  0.897873  1
  O  O21  1  0.835464  0.905607  0.602127  1
  O  O22  1  0.896112  0.694715  0.444169  1
  O  O23  1  0.896112  0.194715  0.055831  1
  F  F24  1  0.032460  0.441172  0.341832  1
  F  F25  1  0.032460  0.941172  0.158168  1
  F  F26  1  0.250000  0.593770  0.500000  1
  F  F27  1  0.250000  0.093770  0.000000  1
  F  F28  1  0.467540  0.941172  0.841832  1
  F  F29  1  0.467540  0.441172  0.658168  1
  F  F30  1  0.532460  0.058828  0.158168  1
  F  F31  1  0.532460  0.558828  0.341832  1
  F  F32  1  0.750000  0.406230  0.500000  1
  F  F33  1  0.750000  0.906230  0.000000  1
  F  F34  1  0.967540  0.058828  0.841832  1
  F  F35  1  0.967540  0.558828  0.658168  1
