# generated using pymatgen
data_Ti3Fe9O16
_symmetry_space_group_name_H-M   'P 1'
_cell_length_a   6.12874330
_cell_length_b   8.64499534
_cell_length_c   12.19073643
_cell_angle_alpha   90.00000000
_cell_angle_beta   90.00000000
_cell_angle_gamma   90.00000000
_symmetry_Int_Tables_number   1
_chemical_formula_structural   Ti3Fe9O16
_chemical_formula_sum   'Ti6 Fe18 O32'
_cell_volume   645.90126790
_cell_formula_units_Z   2
loop_
 _symmetry_equiv_pos_site_id
 _symmetry_equiv_pos_as_xyz
  1  'x, y, z'
loop_
 _atom_site_type_symbol
 _atom_site_label
 _atom_site_symmetry_multiplicity
 _atom_site_fract_x
 _atom_site_fract_y
 _atom_site_fract_z
 _atom_site_occupancy
  Ti  Ti0  1  0.500000  0.499440  0.747937  1
  Ti  Ti1  1  0.500000  0.500000  0.000000  1
  Ti  Ti2  1  0.500000  0.500560  0.252063  1
  Ti  Ti3  1  0.000000  0.000000  0.500000  1
  Ti  Ti4  1  0.000000  0.000560  0.247937  1
  Ti  Ti5  1  0.000000  0.999440  0.752063  1
  Fe  Fe6  1  0.750657  0.751390  0.123958  1
  Fe  Fe7  1  0.749343  0.748610  0.623958  1
  Fe  Fe8  1  0.249343  0.751390  0.123958  1
  Fe  Fe9  1  0.250657  0.748610  0.623958  1
  Fe  Fe10  1  0.000000  0.634089  0.875832  1
  Fe  Fe11  1  0.000000  0.631798  0.372354  1
  Fe  Fe12  1  0.500000  0.500000  0.500000  1
  Fe  Fe13  1  0.000000  0.365911  0.124168  1
  Fe  Fe14  1  0.000000  0.368202  0.627646  1
  Fe  Fe15  1  0.250657  0.251390  0.376042  1
  Fe  Fe16  1  0.750657  0.248610  0.876042  1
  Fe  Fe17  1  0.249343  0.248610  0.876042  1
  Fe  Fe18  1  0.749343  0.251390  0.376042  1
  Fe  Fe19  1  0.500000  0.131798  0.127646  1
  Fe  Fe20  1  0.500000  0.134089  0.624168  1
  Fe  Fe21  1  0.000000  0.000000  0.000000  1
  Fe  Fe22  1  0.500000  0.865911  0.375832  1
  Fe  Fe23  1  0.500000  0.868202  0.872354  1
  O  O24  1  0.500000  0.734338  0.997862  1
  O  O25  1  0.500000  0.729221  0.237533  1
  O  O26  1  0.500000  0.735916  0.513730  1
  O  O27  1  0.500000  0.727249  0.751755  1
  O  O28  1  0.283959  0.498851  0.121960  1
  O  O29  1  0.716041  0.498851  0.121960  1
  O  O30  1  0.739285  0.493352  0.640447  1
  O  O31  1  0.260715  0.493352  0.640447  1
  O  O32  1  0.739285  0.506648  0.359553  1
  O  O33  1  0.716041  0.501149  0.878040  1
  O  O34  1  0.283959  0.501149  0.878040  1
  O  O35  1  0.260715  0.506648  0.359553  1
  O  O36  1  0.500000  0.265662  0.002138  1
  O  O37  1  0.500000  0.270779  0.762467  1
  O  O38  1  0.500000  0.264084  0.486270  1
  O  O39  1  0.500000  0.272751  0.248245  1
  O  O40  1  0.000000  0.229221  0.262467  1
  O  O41  1  0.000000  0.227249  0.748245  1
  O  O42  1  0.000000  0.235916  0.986270  1
  O  O43  1  0.000000  0.234338  0.502138  1
  O  O44  1  0.783959  0.998851  0.378040  1
  O  O45  1  0.216041  0.998851  0.378040  1
  O  O46  1  0.760715  0.993352  0.859553  1
  O  O47  1  0.239285  0.993352  0.859553  1
  O  O48  1  0.216041  0.001149  0.621960  1
  O  O49  1  0.783959  0.001149  0.621960  1
  O  O50  1  0.239285  0.006648  0.140447  1
  O  O51  1  0.760715  0.006648  0.140447  1
  O  O52  1  0.000000  0.764084  0.013730  1
  O  O53  1  0.000000  0.772751  0.251755  1
  O  O54  1  0.000000  0.770779  0.737533  1
  O  O55  1  0.000000  0.765662  0.497862  1
