# generated using pymatgen
data_Li5Ti2V3O10
_symmetry_space_group_name_H-M   'P 1'
_cell_length_a   5.16958360
_cell_length_b   5.18358289
_cell_length_c   7.82616892
_cell_angle_alpha   71.56929879
_cell_angle_beta   71.66488388
_cell_angle_gamma   80.54091795
_symmetry_Int_Tables_number   1
_chemical_formula_structural   Li5Ti2V3O10
_chemical_formula_sum   'Li5 Ti2 V3 O10'
_cell_volume   188.36891827
_cell_formula_units_Z   1
loop_
 _symmetry_equiv_pos_site_id
 _symmetry_equiv_pos_as_xyz
  1  'x, y, z'
loop_
 _atom_site_type_symbol
 _atom_site_label
 _atom_site_symmetry_multiplicity
 _atom_site_fract_x
 _atom_site_fract_y
 _atom_site_fract_z
 _atom_site_occupancy
  Li  Li0  1  0.494194  0.783572  0.409785  1
  Li  Li1  1  0.518110  0.602054  0.781741  1
  Li  Li2  1  0.000000  0.500000  0.500000  1
  Li  Li3  1  0.505806  0.216428  0.590215  1
  Li  Li4  1  0.481890  0.397946  0.218259  1
  Ti  Ti5  1  0.014313  0.895329  0.697311  1
  Ti  Ti6  1  0.985687  0.104671  0.302689  1
  V  V7  1  0.991223  0.309184  0.904948  1
  V  V8  1  0.500000  0.000000  0.000000  1
  V  V9  1  0.008777  0.690816  0.095052  1
  O  O10  1  0.243362  0.958619  0.849245  1
  O  O11  1  0.777630  0.862808  0.544828  1
  O  O12  1  0.747063  0.674217  0.937429  1
  O  O13  1  0.242920  0.776218  0.243420  1
  O  O14  1  0.233997  0.575587  0.659145  1
  O  O15  1  0.766003  0.424413  0.340855  1
  O  O16  1  0.757080  0.223782  0.756580  1
  O  O17  1  0.252937  0.325783  0.062571  1
  O  O18  1  0.222370  0.137192  0.455172  1
  O  O19  1  0.756638  0.041381  0.150755  1
