# generated using pymatgen
data_Li9(FeO4)2
_symmetry_space_group_name_H-M   'P 1'
_cell_length_a   5.49924370
_cell_length_b   6.81552949
_cell_length_c   11.23974469
_cell_angle_alpha   90.00000000
_cell_angle_beta   106.72106435
_cell_angle_gamma   90.00000000
_symmetry_Int_Tables_number   1
_chemical_formula_structural   Li9(FeO4)2
_chemical_formula_sum   'Li18 Fe4 O16'
_cell_volume   403.45593837
_cell_formula_units_Z   2
loop_
 _symmetry_equiv_pos_site_id
 _symmetry_equiv_pos_as_xyz
  1  'x, y, z'
loop_
 _atom_site_type_symbol
 _atom_site_label
 _atom_site_symmetry_multiplicity
 _atom_site_fract_x
 _atom_site_fract_y
 _atom_site_fract_z
 _atom_site_occupancy
  Li  Li0  1  0.373026  0.045993  0.280291  1
  Li  Li1  1  0.663263  0.000224  0.661083  1
  Li  Li2  1  0.360289  0.720459  0.060251  1
  Li  Li3  1  0.634480  0.225807  0.438141  1
  Li  Li4  1  0.634969  0.786585  0.428533  1
  Li  Li5  1  0.914707  0.730512  0.800929  1
  Li  Li6  1  0.600371  0.508068  0.206449  1
  Li  Li7  1  0.663263  0.999776  0.161083  1
  Li  Li8  1  0.088926  0.212586  0.696922  1
  Li  Li9  1  0.914707  0.269488  0.300929  1
  Li  Li10  1  0.314636  0.492480  0.841552  1
  Li  Li11  1  0.373026  0.954007  0.780291  1
  Li  Li12  1  0.088926  0.787414  0.196922  1
  Li  Li13  1  0.360289  0.279541  0.560251  1
  Li  Li14  1  0.634480  0.774193  0.938141  1
  Li  Li15  1  0.634969  0.213415  0.928533  1
  Li  Li16  1  0.314636  0.507520  0.341552  1
  Li  Li17  1  0.600371  0.491932  0.706449  1
  Fe  Fe18  1  0.896759  0.506976  0.560805  1
  Fe  Fe19  1  0.123632  0.015045  0.943671  1
  Fe  Fe20  1  0.896759  0.493024  0.060805  1
  Fe  Fe21  1  0.123632  0.984955  0.443671  1
  O  O22  1  0.226095  0.534232  0.153760  1
  O  O23  1  0.275254  0.974207  0.113276  1
  O  O24  1  0.764605  0.721379  0.620785  1
  O  O25  1  0.738155  0.282739  0.613658  1
  O  O26  1  0.727369  0.493158  0.389623  1
  O  O27  1  0.768587  0.022695  0.356502  1
  O  O28  1  0.764605  0.278621  0.120785  1
  O  O29  1  0.738155  0.717261  0.113658  1
  O  O30  1  0.260301  0.773242  0.886598  1
  O  O31  1  0.272344  0.202897  0.868002  1
  O  O32  1  0.226095  0.465768  0.653760  1
  O  O33  1  0.275254  0.025793  0.613276  1
  O  O34  1  0.260301  0.226758  0.386598  1
  O  O35  1  0.272344  0.797103  0.368002  1
  O  O36  1  0.727369  0.506842  0.889623  1
  O  O37  1  0.768587  0.977305  0.856502  1
