# generated using pymatgen
data_LiVP2HO8
_symmetry_space_group_name_H-M   'P 1'
_cell_length_a   7.75006608
_cell_length_b   7.99837891
_cell_length_c   9.71853306
_cell_angle_alpha   90.00000000
_cell_angle_beta   111.65409428
_cell_angle_gamma   90.00000000
_symmetry_Int_Tables_number   1
_chemical_formula_structural   LiVP2HO8
_chemical_formula_sum   'Li4 V4 P8 H4 O32'
_cell_volume   559.91756173
_cell_formula_units_Z   4
loop_
 _symmetry_equiv_pos_site_id
 _symmetry_equiv_pos_as_xyz
  1  'x, y, z'
loop_
 _atom_site_type_symbol
 _atom_site_label
 _atom_site_symmetry_multiplicity
 _atom_site_fract_x
 _atom_site_fract_y
 _atom_site_fract_z
 _atom_site_occupancy
  Li  Li0  1  0.102568  0.868277  0.720470  1
  Li  Li1  1  0.602022  0.629684  0.725408  1
  Li  Li2  1  0.897432  0.368277  0.279530  1
  Li  Li3  1  0.397978  0.129684  0.274592  1
  V  V4  1  0.242530  0.489993  0.750957  1
  V  V5  1  0.748501  0.009199  0.752770  1
  V  V6  1  0.251499  0.509199  0.247230  1
  V  V7  1  0.757470  0.989993  0.249043  1
  P  P8  1  0.018965  0.149171  0.566979  1
  P  P9  1  0.513744  0.346047  0.566399  1
  P  P10  1  0.982755  0.653538  0.931972  1
  P  P11  1  0.017245  0.153538  0.068028  1
  P  P12  1  0.488432  0.844122  0.933103  1
  P  P13  1  0.511568  0.344122  0.066897  1
  P  P14  1  0.981035  0.649171  0.433021  1
  P  P15  1  0.486256  0.846047  0.433601  1
  H  H16  1  0.741716  0.492262  0.508438  1
  H  H17  1  0.740394  0.493525  0.008780  1
  H  H18  1  0.259606  0.993525  0.991220  1
  H  H19  1  0.258284  0.992262  0.491562  1
  O  O20  1  0.189682  0.040993  0.592789  1
  O  O21  1  0.107475  0.669240  0.598863  1
  O  O22  1  0.067365  0.324426  0.635659  1
  O  O23  1  0.902838  0.051783  0.644920  1
  O  O24  1  0.688983  0.455056  0.594506  1
  O  O25  1  0.606788  0.827575  0.599635  1
  O  O26  1  0.567327  0.173305  0.637151  1
  O  O27  1  0.403418  0.447425  0.644825  1
  O  O28  1  0.100877  0.552878  0.856588  1
  O  O29  1  0.940478  0.823750  0.850467  1
  O  O30  1  0.889775  0.171009  0.903786  1
  O  O31  1  0.801383  0.562519  0.908620  1
  O  O32  1  0.603495  0.945204  0.858178  1
  O  O33  1  0.438083  0.676126  0.850351  1
  O  O34  1  0.198617  0.062519  0.091380  1
  O  O35  1  0.110225  0.671009  0.096214  1
  O  O36  1  0.391439  0.327878  0.902266  1
  O  O37  1  0.302866  0.937164  0.906224  1
  O  O38  1  0.059522  0.323750  0.149533  1
  O  O39  1  0.899123  0.052878  0.143412  1
  O  O40  1  0.697134  0.437164  0.093776  1
  O  O41  1  0.608561  0.827878  0.097734  1
  O  O42  1  0.561917  0.176126  0.149649  1
  O  O43  1  0.396505  0.445204  0.141822  1
  O  O44  1  0.097162  0.551783  0.355080  1
  O  O45  1  0.932635  0.824426  0.364341  1
  O  O46  1  0.892525  0.169240  0.401137  1
  O  O47  1  0.810318  0.540993  0.407211  1
  O  O48  1  0.596582  0.947425  0.355175  1
  O  O49  1  0.432673  0.673305  0.362849  1
  O  O50  1  0.393212  0.327575  0.400365  1
  O  O51  1  0.311017  0.955056  0.405494  1
