# generated using pymatgen
data_Li5La3(SbO6)2
_symmetry_space_group_name_H-M   'P 1'
_cell_length_a   11.23140963
_cell_length_b   11.24545598
_cell_length_c   11.24991179
_cell_angle_alpha   109.04060543
_cell_angle_beta   109.51986753
_cell_angle_gamma   109.68537176
_symmetry_Int_Tables_number   1
_chemical_formula_structural   Li5La3(SbO6)2
_chemical_formula_sum   'Li20 La12 Sb8 O48'
_cell_volume   1096.03306320
_cell_formula_units_Z   4
loop_
 _symmetry_equiv_pos_site_id
 _symmetry_equiv_pos_as_xyz
  1  'x, y, z'
loop_
 _atom_site_type_symbol
 _atom_site_label
 _atom_site_symmetry_multiplicity
 _atom_site_fract_x
 _atom_site_fract_y
 _atom_site_fract_z
 _atom_site_occupancy
  Li  Li0  1  0.892050  0.689926  0.440687  1
  Li  Li1  1  0.275152  0.105802  0.011687  1
  Li  Li2  1  0.077120  0.607796  0.320098  1
  Li  Li3  1  0.750406  0.813079  0.709080  1
  Li  Li4  1  0.756067  0.474932  0.083867  1
  Li  Li5  1  0.390310  0.959082  0.208536  1
  Li  Li6  1  0.307350  0.709363  0.252873  1
  Li  Li7  1  0.190792  0.441021  0.394699  1
  Li  Li8  1  0.463531  0.208380  0.896231  1
  Li  Li9  1  0.813649  0.569136  0.608616  1
  Li  Li10  1  0.543903  0.790465  0.099788  1
  Li  Li11  1  0.247785  0.541803  0.926654  1
  Li  Li12  1  0.253933  0.181887  0.287825  1
  Li  Li13  1  0.602976  0.020959  0.777445  1
  Li  Li14  1  0.710955  0.890361  0.965821  1
  Li  Li15  1  0.588325  0.260659  0.484526  1
  Li  Li16  1  0.925460  0.395383  0.683602  1
  Li  Li17  1  0.210653  0.243474  0.813078  1
  Li  Li18  1  0.112024  0.320281  0.576546  1
  Li  Li19  1  0.952198  0.056492  0.249657  1
  La  La20  1  0.249170  0.879457  0.627822  1
  La  La21  1  0.109192  0.866597  0.249766  1
  La  La22  1  0.617483  0.368568  0.251175  1
  La  La23  1  0.748924  0.615999  0.874625  1
  La  La24  1  0.125209  0.756529  0.877123  1
  La  La25  1  0.871083  0.249506  0.118609  1
  La  La26  1  0.627918  0.752187  0.378484  1
  La  La27  1  0.379445  0.248270  0.622694  1
  La  La28  1  0.250856  0.381773  0.128430  1
  La  La29  1  0.382975  0.632613  0.743239  1
  La  La30  1  0.878978  0.128899  0.748742  1
  La  La31  1  0.751005  0.119469  0.371921  1
  Sb  Sb32  1  0.999433  0.998548  0.501822  1
  Sb  Sb33  1  0.998724  0.998276  0.996226  1
  Sb  Sb34  1  0.496703  0.997816  0.501340  1
  Sb  Sb35  1  0.500256  0.502631  0.999275  1
  Sb  Sb36  1  0.999502  0.498161  0.996457  1
  Sb  Sb37  1  0.502679  0.001263  0.003679  1
  Sb  Sb38  1  0.500162  0.503662  0.499270  1
  Sb  Sb39  1  0.997312  0.497081  0.498726  1
  O  O40  1  0.676318  0.593938  0.477064  1
  O  O41  1  0.008565  0.682859  0.613479  1
  O  O42  1  0.417331  0.327474  0.303150  1
  O  O43  1  0.485630  0.888199  0.813677  1
  O  O44  1  0.028246  0.827183  0.420045  1
  O  O45  1  0.900471  0.886464  0.075646  1
  O  O46  1  0.666617  0.565457  0.191741  1
  O  O47  1  0.820212  0.011541  0.896280  1
  O  O48  1  0.622753  0.932634  0.604076  1
  O  O49  1  0.882301  0.481113  0.304896  1
  O  O50  1  0.393609  0.320249  0.011105  1
  O  O51  1  0.100959  0.125271  0.930378  1
  O  O52  1  0.289303  0.828128  0.410625  1
  O  O53  1  0.185879  0.613398  0.511398  1
  O  O54  1  0.178665  0.985047  0.096021  1
  O  O55  1  0.918345  0.608782  0.090613  1
  O  O56  1  0.587515  0.671545  0.699454  1
  O  O57  1  0.914971  0.797256  0.828919  1
  O  O58  1  0.577137  0.401856  0.889622  1
  O  O59  1  0.504616  0.891732  0.321777  1
  O  O60  1  0.312071  0.984428  0.886893  1
  O  O61  1  0.205215  0.089518  0.670420  1
  O  O62  1  0.173024  0.697436  0.080916  1
  O  O63  1  0.877515  0.905341  0.576442  1
  O  O64  1  0.617407  0.201597  0.031129  1
  O  O65  1  0.098223  0.481826  0.176638  1
  O  O66  1  0.406736  0.578189  0.378048  1
  O  O67  1  0.804841  0.927491  0.330106  1
  O  O68  1  0.836494  0.299191  0.922651  1
  O  O69  1  0.384455  0.805417  0.980414  1
  O  O70  1  0.916291  0.531774  0.827551  1
  O  O71  1  0.594480  0.422894  0.612689  1
  O  O72  1  0.424400  0.603638  0.111773  1
  O  O73  1  0.468549  0.081584  0.672912  1
  O  O74  1  0.085734  0.389855  0.906881  1
  O  O75  1  0.388345  0.085559  0.407174  1
  O  O76  1  0.115141  0.512127  0.690109  1
  O  O77  1  0.585540  0.672109  0.964812  1
  O  O78  1  0.690140  0.168363  0.563634  1
  O  O79  1  0.803803  0.382471  0.484473  1
  O  O80  1  0.321711  0.422018  0.805364  1
  O  O81  1  0.526239  0.111429  0.200273  1
  O  O82  1  0.985195  0.177273  0.598621  1
  O  O83  1  0.983483  0.306452  0.385611  1
  O  O84  1  0.325458  0.409496  0.522036  1
  O  O85  1  0.699935  0.022220  0.115723  1
  O  O86  1  0.112667  0.087109  0.414209  1
  O  O87  1  0.073815  0.189488  0.175799  1
