# generated using pymatgen
data_Lu6WO12
_symmetry_space_group_name_H-M   'P 1'
_cell_length_a   6.33958942
_cell_length_b   6.33958942
_cell_length_c   6.33958942
_cell_angle_alpha   98.74951924
_cell_angle_beta   98.74951924
_cell_angle_gamma   98.74951924
_symmetry_Int_Tables_number   1
_chemical_formula_structural   Lu6WO12
_chemical_formula_sum   'Lu6 W1 O12'
_cell_volume   244.85673492
_cell_formula_units_Z   1
loop_
 _symmetry_equiv_pos_site_id
 _symmetry_equiv_pos_as_xyz
  1  'x, y, z'
loop_
 _atom_site_type_symbol
 _atom_site_label
 _atom_site_symmetry_multiplicity
 _atom_site_fract_x
 _atom_site_fract_y
 _atom_site_fract_z
 _atom_site_occupancy
  Lu  Lu0  1  0.611340  0.319635  0.144301  1
  Lu  Lu1  1  0.680365  0.855699  0.388660  1
  Lu  Lu2  1  0.144301  0.611340  0.319635  1
  Lu  Lu3  1  0.855699  0.388660  0.680365  1
  Lu  Lu4  1  0.319635  0.144301  0.611340  1
  Lu  Lu5  1  0.388660  0.680365  0.855699  1
  W  W6  1  0.000000  0.000000  0.000000  1
  O  O7  1  0.698027  0.920626  0.035208  1
  O  O8  1  0.964792  0.301973  0.079374  1
  O  O9  1  0.428768  0.590419  0.177261  1
  O  O10  1  0.079374  0.964792  0.301973  1
  O  O11  1  0.822739  0.571232  0.409581  1
  O  O12  1  0.590419  0.177261  0.428768  1
  O  O13  1  0.409581  0.822739  0.571232  1
  O  O14  1  0.177261  0.428768  0.590419  1
  O  O15  1  0.920626  0.035208  0.698027  1
  O  O16  1  0.571232  0.409581  0.822739  1
  O  O17  1  0.035208  0.698027  0.920626  1
  O  O18  1  0.301973  0.079374  0.964792  1
