# generated using pymatgen
data_Fe3Co2Sn(PO4)6
_symmetry_space_group_name_H-M   'P 1'
_cell_length_a   8.51424474
_cell_length_b   8.51424474
_cell_length_c   8.51424474
_cell_angle_alpha   61.35709669
_cell_angle_beta   61.35709669
_cell_angle_gamma   61.35709669
_symmetry_Int_Tables_number   1
_chemical_formula_structural   Fe3Co2Sn(PO4)6
_chemical_formula_sum   'Fe3 Co2 Sn1 P6 O24'
_cell_volume   449.74747852
_cell_formula_units_Z   1
loop_
 _symmetry_equiv_pos_site_id
 _symmetry_equiv_pos_as_xyz
  1  'x, y, z'
loop_
 _atom_site_type_symbol
 _atom_site_label
 _atom_site_symmetry_multiplicity
 _atom_site_fract_x
 _atom_site_fract_y
 _atom_site_fract_z
 _atom_site_occupancy
  Fe  Fe0  1  0.645921  0.645921  0.645921  1
  Fe  Fe1  1  0.853785  0.853785  0.853785  1
  Fe  Fe2  1  0.355660  0.355660  0.355660  1
  Co  Co3  1  0.994334  0.994334  0.994334  1
  Co  Co4  1  0.500855  0.500855  0.500855  1
  Sn  Sn5  1  0.143471  0.143471  0.143471  1
  P  P6  1  0.951022  0.253039  0.549710  1
  P  P7  1  0.549710  0.951022  0.253039  1
  P  P8  1  0.253039  0.549710  0.951022  1
  P  P9  1  0.745933  0.457643  0.047475  1
  P  P10  1  0.457643  0.047475  0.745933  1
  P  P11  1  0.047475  0.745933  0.457643  1
  O  O12  1  0.501843  0.109967  0.319417  1
  O  O13  1  0.319417  0.501843  0.109967  1
  O  O14  1  0.109967  0.319417  0.501843  1
  O  O15  1  0.937883  0.093524  0.747291  1
  O  O16  1  0.985886  0.181583  0.396729  1
  O  O17  1  0.751954  0.408203  0.564332  1
  O  O18  1  0.747291  0.937883  0.093524  1
  O  O19  1  0.564332  0.751954  0.408203  1
  O  O20  1  0.820212  0.609449  0.005100  1
  O  O21  1  0.408203  0.564332  0.751954  1
  O  O22  1  0.904819  0.254974  0.059700  1
  O  O23  1  0.609449  0.005100  0.820212  1
  O  O24  1  0.396729  0.985886  0.181583  1
  O  O25  1  0.093524  0.747291  0.937883  1
  O  O26  1  0.591782  0.440981  0.247575  1
  O  O27  1  0.181583  0.396729  0.985886  1
  O  O28  1  0.440981  0.247575  0.591782  1
  O  O29  1  0.254974  0.059700  0.904819  1
  O  O30  1  0.247575  0.591782  0.440981  1
  O  O31  1  0.005100  0.820212  0.609449  1
  O  O32  1  0.059700  0.904819  0.254974  1
  O  O33  1  0.892681  0.677661  0.497597  1
  O  O34  1  0.677661  0.497597  0.892681  1
  O  O35  1  0.497597  0.892681  0.677661  1
