# generated using pymatgen
data_Li4V5Cu3O16
_symmetry_space_group_name_H-M   'P 1'
_cell_length_a   5.89772914
_cell_length_b   5.89772914
_cell_length_c   9.69993953
_cell_angle_alpha   87.27978033
_cell_angle_beta   92.72021967
_cell_angle_gamma   120.38994431
_symmetry_Int_Tables_number   1
_chemical_formula_structural   Li4V5Cu3O16
_chemical_formula_sum   'Li4 V5 Cu3 O16'
_cell_volume   290.60214783
_cell_formula_units_Z   1
loop_
 _symmetry_equiv_pos_site_id
 _symmetry_equiv_pos_as_xyz
  1  'x, y, z'
loop_
 _atom_site_type_symbol
 _atom_site_label
 _atom_site_symmetry_multiplicity
 _atom_site_fract_x
 _atom_site_fract_y
 _atom_site_fract_z
 _atom_site_occupancy
  Li  Li0  1  0.660101  0.339899  0.087901  1
  Li  Li1  1  0.002511  0.997489  0.009433  1
  Li  Li2  1  0.001028  0.998972  0.518125  1
  Li  Li3  1  0.340083  0.659917  0.587316  1
  V  V4  1  0.651029  0.851380  0.275173  1
  V  V5  1  0.641194  0.358806  0.511345  1
  V  V6  1  0.818116  0.181884  0.757746  1
  V  V7  1  0.339278  0.660722  0.000377  1
  V  V8  1  0.148620  0.348971  0.275173  1
  Cu  Cu9  1  0.827054  0.662242  0.802199  1
  Cu  Cu10  1  0.337758  0.172946  0.802199  1
  Cu  Cu11  1  0.170182  0.829818  0.294751  1
  O  O12  1  0.817388  0.656214  0.414760  1
  O  O13  1  0.527310  0.472690  0.641600  1
  O  O14  1  0.686593  0.313407  0.883639  1
  O  O15  1  0.990613  0.009387  0.715369  1
  O  O16  1  0.000467  0.999533  0.200421  1
  O  O17  1  0.343786  0.182612  0.414760  1
  O  O18  1  0.974634  0.456832  0.644292  1
  O  O19  1  0.543168  0.025366  0.644292  1
  O  O20  1  0.176319  0.823681  0.926382  1
  O  O21  1  0.839543  0.160457  0.394142  1
  O  O22  1  0.502882  0.969634  0.152008  1
  O  O23  1  0.030366  0.497118  0.152008  1
  O  O24  1  0.342879  0.657121  0.390804  1
  O  O25  1  0.644512  0.830969  0.915973  1
  O  O26  1  0.478978  0.521022  0.163379  1
  O  O27  1  0.169031  0.355488  0.915973  1
