# generated using pymatgen
data_Na5Ni9O16
_symmetry_space_group_name_H-M   'P 1'
_cell_length_a   5.17342319
_cell_length_b   11.59234534
_cell_length_c   5.47303111
_cell_angle_alpha   90.00000000
_cell_angle_beta   109.05802290
_cell_angle_gamma   90.00000000
_symmetry_Int_Tables_number   1
_chemical_formula_structural   Na5Ni9O16
_chemical_formula_sum   'Na5 Ni9 O16'
_cell_volume   310.23844261
_cell_formula_units_Z   1
loop_
 _symmetry_equiv_pos_site_id
 _symmetry_equiv_pos_as_xyz
  1  'x, y, z'
loop_
 _atom_site_type_symbol
 _atom_site_label
 _atom_site_symmetry_multiplicity
 _atom_site_fract_x
 _atom_site_fract_y
 _atom_site_fract_z
 _atom_site_occupancy
  Na  Na0  1  0.000000  0.256310  0.500000  1
  Na  Na1  1  0.000000  0.000000  0.500000  1
  Na  Na2  1  0.000000  0.743690  0.500000  1
  Na  Na3  1  0.500000  0.135627  0.500000  1
  Na  Na4  1  0.500000  0.864373  0.500000  1
  Ni  Ni5  1  0.000000  0.125520  0.000000  1
  Ni  Ni6  1  0.000000  0.621066  0.000000  1
  Ni  Ni7  1  0.000000  0.874480  0.000000  1
  Ni  Ni8  1  0.000000  0.378934  0.000000  1
  Ni  Ni9  1  0.500000  0.747915  0.000000  1
  Ni  Ni10  1  0.500000  0.500000  0.000000  1
  Ni  Ni11  1  0.500000  0.252085  0.000000  1
  Ni  Ni12  1  0.500000  0.000000  0.000000  1
  Ni  Ni13  1  0.000000  0.500000  0.500000  1
  O  O14  1  0.732365  0.878947  0.199425  1
  O  O15  1  0.732365  0.121053  0.199425  1
  O  O16  1  0.758685  0.614167  0.198644  1
  O  O17  1  0.758685  0.385833  0.198644  1
  O  O18  1  0.220000  0.000000  0.199478  1
  O  O19  1  0.208714  0.253597  0.191272  1
  O  O20  1  0.201144  0.500000  0.208116  1
  O  O21  1  0.208714  0.746403  0.191272  1
  O  O22  1  0.780000  0.000000  0.800522  1
  O  O23  1  0.791286  0.253597  0.808728  1
  O  O24  1  0.798856  0.500000  0.791884  1
  O  O25  1  0.791286  0.746403  0.808728  1
  O  O26  1  0.241315  0.614167  0.801356  1
  O  O27  1  0.241315  0.385833  0.801356  1
  O  O28  1  0.267635  0.878947  0.800575  1
  O  O29  1  0.267635  0.121053  0.800575  1
