# generated using pymatgen
data_Li12CoNi3P4(CO7)4
_symmetry_space_group_name_H-M   'P 1'
_cell_length_a   8.35023271
_cell_length_b   6.41612180
_cell_length_c   9.95830218
_cell_angle_alpha   90.00000000
_cell_angle_beta   94.67466583
_cell_angle_gamma   90.00000000
_symmetry_Int_Tables_number   1
_chemical_formula_structural   Li12CoNi3P4(CO7)4
_chemical_formula_sum   'Li12 Co1 Ni3 P4 C4 O28'
_cell_volume   531.75232673
_cell_formula_units_Z   1
loop_
 _symmetry_equiv_pos_site_id
 _symmetry_equiv_pos_as_xyz
  1  'x, y, z'
loop_
 _atom_site_type_symbol
 _atom_site_label
 _atom_site_symmetry_multiplicity
 _atom_site_fract_x
 _atom_site_fract_y
 _atom_site_fract_z
 _atom_site_occupancy
  Li  Li0  1  0.904085  0.000000  0.381371  1
  Li  Li1  1  0.904840  0.000000  0.881524  1
  Li  Li2  1  0.723699  0.228435  0.122906  1
  Li  Li3  1  0.723699  0.771565  0.122906  1
  Li  Li4  1  0.723749  0.227939  0.622977  1
  Li  Li5  1  0.723749  0.772061  0.622977  1
  Li  Li6  1  0.276233  0.729066  0.375794  1
  Li  Li7  1  0.276233  0.270934  0.375794  1
  Li  Li8  1  0.276022  0.728718  0.877571  1
  Li  Li9  1  0.276022  0.271282  0.877571  1
  Li  Li10  1  0.095538  0.500000  0.118526  1
  Li  Li11  1  0.095365  0.500000  0.618477  1
  Co  Co12  1  0.332979  0.000000  0.605066  1
  Ni  Ni13  1  0.667460  0.500000  0.395770  1
  Ni  Ni14  1  0.667475  0.500000  0.896408  1
  Ni  Ni15  1  0.333319  0.000000  0.103716  1
  P  P16  1  0.585976  0.000000  0.359288  1
  P  P17  1  0.586557  0.000000  0.861237  1
  P  P18  1  0.414871  0.500000  0.139730  1
  P  P19  1  0.414891  0.500000  0.639829  1
  C  C20  1  0.961521  0.500000  0.351839  1
  C  C21  1  0.961491  0.500000  0.851805  1
  C  C22  1  0.038722  0.000000  0.148247  1
  C  C23  1  0.035947  0.000000  0.648688  1
  O  O24  1  0.924021  0.500000  0.475482  1
  O  O25  1  0.890844  0.000000  0.178689  1
  O  O26  1  0.924200  0.500000  0.975402  1
  O  O27  1  0.845278  0.500000  0.256586  1
  O  O28  1  0.888252  0.000000  0.678997  1
  O  O29  1  0.845066  0.500000  0.756560  1
  O  O30  1  0.691400  0.187414  0.411390  1
  O  O31  1  0.691400  0.812586  0.411390  1
  O  O32  1  0.691538  0.187500  0.913095  1
  O  O33  1  0.691538  0.812500  0.913095  1
  O  O34  1  0.582705  0.500000  0.085629  1
  O  O35  1  0.563799  0.000000  0.201996  1
  O  O36  1  0.582212  0.500000  0.585074  1
  O  O37  1  0.565793  0.000000  0.703492  1
  O  O38  1  0.437489  0.500000  0.297017  1
  O  O39  1  0.417931  0.000000  0.413118  1
  O  O40  1  0.437471  0.500000  0.796648  1
  O  O41  1  0.417761  0.000000  0.913598  1
  O  O42  1  0.309026  0.312614  0.088149  1
  O  O43  1  0.309026  0.687386  0.088149  1
  O  O44  1  0.308554  0.687257  0.588166  1
  O  O45  1  0.308554  0.312743  0.588166  1
  O  O46  1  0.155177  0.000000  0.243507  1
  O  O47  1  0.109561  0.500000  0.321506  1
  O  O48  1  0.151910  0.000000  0.744320  1
  O  O49  1  0.076266  0.000000  0.024634  1
  O  O50  1  0.109530  0.500000  0.821219  1
  O  O51  1  0.073250  0.000000  0.524910  1
