# generated using pymatgen
data_Mn3FeO8
_symmetry_space_group_name_H-M   'P 1'
_cell_length_a   5.79830553
_cell_length_b   5.79830553
_cell_length_c   9.04087021
_cell_angle_alpha   90.00000000
_cell_angle_beta   90.00000000
_cell_angle_gamma   120.00000000
_symmetry_Int_Tables_number   1
_chemical_formula_structural   Mn3FeO8
_chemical_formula_sum   'Mn6 Fe2 O16'
_cell_volume   263.23465207
_cell_formula_units_Z   2
loop_
 _symmetry_equiv_pos_site_id
 _symmetry_equiv_pos_as_xyz
  1  'x, y, z'
loop_
 _atom_site_type_symbol
 _atom_site_label
 _atom_site_symmetry_multiplicity
 _atom_site_fract_x
 _atom_site_fract_y
 _atom_site_fract_z
 _atom_site_occupancy
  Mn  Mn0  1  0.167677  0.832323  0.211728  1
  Mn  Mn1  1  0.167677  0.335353  0.211728  1
  Mn  Mn2  1  0.664647  0.832323  0.211728  1
  Mn  Mn3  1  0.335353  0.167677  0.711728  1
  Mn  Mn4  1  0.832323  0.664647  0.711728  1
  Mn  Mn5  1  0.832323  0.167677  0.711728  1
  Fe  Fe6  1  0.333333  0.666667  0.494859  1
  Fe  Fe7  1  0.666667  0.333333  0.994859  1
  O  O8  1  0.163014  0.836986  0.601085  1
  O  O9  1  0.040683  0.520341  0.335097  1
  O  O10  1  0.333333  0.666667  0.102771  1
  O  O11  1  0.000000  0.000000  0.316726  1
  O  O12  1  0.000000  0.000000  0.816726  1
  O  O13  1  0.163014  0.326029  0.601085  1
  O  O14  1  0.479659  0.959317  0.335097  1
  O  O15  1  0.479659  0.520341  0.335097  1
  O  O16  1  0.326029  0.163014  0.101085  1
  O  O17  1  0.673971  0.836986  0.601085  1
  O  O18  1  0.520341  0.479659  0.835097  1
  O  O19  1  0.520341  0.040683  0.835097  1
  O  O20  1  0.666667  0.333333  0.602771  1
  O  O21  1  0.836986  0.673971  0.101085  1
  O  O22  1  0.959317  0.479659  0.835097  1
  O  O23  1  0.836986  0.163014  0.101085  1
