# generated using pymatgen
data_LiLa5Ti8O24
_symmetry_space_group_name_H-M   'P 1'
_cell_length_a   5.50806275
_cell_length_b   9.57214645
_cell_length_c   9.60376052
_cell_angle_alpha   109.86174420
_cell_angle_beta   90.40928986
_cell_angle_gamma   90.07365287
_symmetry_Int_Tables_number   1
_chemical_formula_structural   LiLa5Ti8O24
_chemical_formula_sum   'Li1 La5 Ti8 O24'
_cell_volume   476.21260074
_cell_formula_units_Z   1
loop_
 _symmetry_equiv_pos_site_id
 _symmetry_equiv_pos_as_xyz
  1  'x, y, z'
loop_
 _atom_site_type_symbol
 _atom_site_label
 _atom_site_symmetry_multiplicity
 _atom_site_fract_x
 _atom_site_fract_y
 _atom_site_fract_z
 _atom_site_occupancy
  Li  Li0  1  0.173913  0.112002  0.695839  1
  La  La1  1  0.252978  0.868688  0.873789  1
  La  La2  1  0.746882  0.625962  0.626125  1
  La  La3  1  0.257673  0.370616  0.376290  1
  La  La4  1  0.748971  0.122640  0.130537  1
  La  La5  1  0.254984  0.618808  0.119866  1
  Ti  Ti6  1  0.755866  0.236970  0.510842  1
  Ti  Ti7  1  0.736073  0.006283  0.743666  1
  Ti  Ti8  1  0.749428  0.503230  0.251577  1
  Ti  Ti9  1  0.753727  0.744508  0.003673  1
  Ti  Ti10  1  0.253946  0.482128  0.749056  1
  Ti  Ti11  1  0.254629  0.997124  0.265555  1
  Ti  Ti12  1  0.245519  0.760952  0.501030  1
  Ti  Ti13  1  0.248213  0.250527  0.997846  1
  O  O14  1  0.714716  0.854604  0.855631  1
  O  O15  1  0.481215  0.620757  0.894768  1
  O  O16  1  0.493036  0.888191  0.619833  1
  O  O17  1  0.290295  0.643304  0.642189  1
  O  O18  1  0.812617  0.137331  0.639701  1
  O  O19  1  0.789846  0.637895  0.137359  1
  O  O20  1  0.494124  0.113861  0.881228  1
  O  O21  1  0.505047  0.386739  0.613276  1
  O  O22  1  0.488316  0.878436  0.114573  1
  O  O23  1  0.006000  0.635093  0.871897  1
  O  O24  1  0.487963  0.615157  0.377708  1
  O  O25  1  0.006311  0.870304  0.638930  1
  O  O26  1  0.222735  0.845290  0.345446  1
  O  O27  1  0.221778  0.361026  0.862659  1
  O  O28  1  0.714044  0.357783  0.352343  1
  O  O29  1  0.483636  0.396578  0.119570  1
  O  O30  1  0.998423  0.603299  0.399342  1
  O  O31  1  0.498836  0.122117  0.383629  1
  O  O32  1  0.000380  0.897102  0.101943  1
  O  O33  1  0.002595  0.101406  0.896480  1
  O  O34  1  0.000252  0.400618  0.599340  1
  O  O35  1  0.291675  0.143305  0.141062  1
  O  O36  1  0.000521  0.138965  0.361348  1
  O  O37  1  0.007140  0.373204  0.136952  1
