# generated using pymatgen
data_Li9Mn12Ni3O32
_symmetry_space_group_name_H-M   'P 1'
_cell_length_a   8.29721745
_cell_length_b   8.29721745
_cell_length_c   8.26364762
_cell_angle_alpha   89.80161711
_cell_angle_beta   90.19838289
_cell_angle_gamma   89.88363730
_symmetry_Int_Tables_number   1
_chemical_formula_structural   Li9Mn12Ni3O32
_chemical_formula_sum   'Li9 Mn12 Ni3 O32'
_cell_volume   568.89304114
_cell_formula_units_Z   1
loop_
 _symmetry_equiv_pos_site_id
 _symmetry_equiv_pos_as_xyz
  1  'x, y, z'
loop_
 _atom_site_type_symbol
 _atom_site_label
 _atom_site_symmetry_multiplicity
 _atom_site_fract_x
 _atom_site_fract_y
 _atom_site_fract_z
 _atom_site_occupancy
  Li  Li0  1  0.007439  0.751837  0.127924  1
  Li  Li1  1  0.245476  0.999083  0.370316  1
  Li  Li2  1  0.745213  0.502718  0.377704  1
  Li  Li3  1  0.502718  0.745213  0.622296  1
  Li  Li4  1  0.999083  0.245476  0.629684  1
  Li  Li5  1  0.751837  0.007439  0.872076  1
  Li  Li6  1  0.252325  0.495952  0.880489  1
  Li  Li7  1  0.125837  0.125837  0.000000  1
  Li  Li8  1  0.495952  0.252325  0.119511  1
  Mn  Mn9  1  0.623202  0.877699  0.247846  1
  Mn  Mn10  1  0.874245  0.130490  0.249902  1
  Mn  Mn11  1  0.121827  0.373328  0.251574  1
  Mn  Mn12  1  0.621239  0.124986  0.497541  1
  Mn  Mn13  1  0.371226  0.371226  0.500000  1
  Mn  Mn14  1  0.124986  0.621239  0.502459  1
  Mn  Mn15  1  0.373328  0.121827  0.748426  1
  Mn  Mn16  1  0.130490  0.874245  0.750098  1
  Mn  Mn17  1  0.877699  0.623202  0.752154  1
  Mn  Mn18  1  0.376801  0.876694  0.995990  1
  Mn  Mn19  1  0.628028  0.628028  0.000000  1
  Mn  Mn20  1  0.876694  0.376801  0.004010  1
  Ni  Ni21  1  0.374344  0.624211  0.249236  1
  Ni  Ni22  1  0.876291  0.876291  0.500000  1
  Ni  Ni23  1  0.624211  0.374344  0.750764  1
  O  O24  1  0.393368  0.874961  0.227835  1
  O  O25  1  0.624525  0.648286  0.233831  1
  O  O26  1  0.884417  0.363750  0.241093  1
  O  O27  1  0.099324  0.144445  0.254420  1
  O  O28  1  0.861381  0.894381  0.267468  1
  O  O29  1  0.635713  0.112699  0.260962  1
  O  O30  1  0.351355  0.375212  0.266849  1
  O  O31  1  0.125524  0.607853  0.273071  1
  O  O32  1  0.629008  0.891210  0.480102  1
  O  O33  1  0.852137  0.120217  0.487039  1
  O  O34  1  0.135733  0.386435  0.491272  1
  O  O35  1  0.357003  0.602088  0.500209  1
  O  O36  1  0.602088  0.357003  0.499791  1
  O  O37  1  0.386435  0.135733  0.508728  1
  O  O38  1  0.120217  0.852137  0.512961  1
  O  O39  1  0.891210  0.629008  0.519898  1
  O  O40  1  0.607853  0.125524  0.726929  1
  O  O41  1  0.375212  0.351355  0.733151  1
  O  O42  1  0.112699  0.635713  0.739038  1
  O  O43  1  0.894381  0.861381  0.732532  1
  O  O44  1  0.144445  0.099324  0.745580  1
  O  O45  1  0.363750  0.884417  0.758907  1
  O  O46  1  0.648286  0.624525  0.766169  1
  O  O47  1  0.874961  0.393368  0.772165  1
  O  O48  1  0.378384  0.105004  0.974879  1
  O  O49  1  0.149144  0.871610  0.979395  1
  O  O50  1  0.864520  0.617174  0.987832  1
  O  O51  1  0.642203  0.399162  0.999951  1
  O  O52  1  0.399162  0.642203  0.000049  1
  O  O53  1  0.617174  0.864520  0.012168  1
  O  O54  1  0.871610  0.149144  0.020605  1
  O  O55  1  0.105004  0.378384  0.025121  1
