# generated using pymatgen
data_Li7FeP4O14F
_symmetry_space_group_name_H-M   'P 1'
_cell_length_a   6.37118570
_cell_length_b   6.37118570
_cell_length_c   14.62238105
_cell_angle_alpha   84.22333597
_cell_angle_beta   95.77666403
_cell_angle_gamma   101.29476900
_symmetry_Int_Tables_number   1
_chemical_formula_structural   Li7FeP4O14F
_chemical_formula_sum   'Li14 Fe2 P8 O28 F2'
_cell_volume   577.10428364
_cell_formula_units_Z   2
loop_
 _symmetry_equiv_pos_site_id
 _symmetry_equiv_pos_as_xyz
  1  'x, y, z'
loop_
 _atom_site_type_symbol
 _atom_site_label
 _atom_site_symmetry_multiplicity
 _atom_site_fract_x
 _atom_site_fract_y
 _atom_site_fract_z
 _atom_site_occupancy
  Li  Li0  1  0.988340  0.601885  0.177810  1
  Li  Li1  1  0.364981  0.173066  0.165647  1
  Li  Li2  1  0.398115  0.011660  0.677810  1
  Li  Li3  1  0.826934  0.635019  0.665647  1
  Li  Li4  1  0.104439  0.047107  0.506738  1
  Li  Li5  1  0.474339  0.671915  0.178657  1
  Li  Li6  1  0.952893  0.895561  0.006738  1
  Li  Li7  1  0.121001  0.418547  0.025397  1
  Li  Li8  1  0.328085  0.525661  0.678657  1
  Li  Li9  1  0.581453  0.878999  0.525397  1
  Li  Li10  1  0.474388  0.963868  0.012933  1
  Li  Li11  1  0.036132  0.525612  0.512933  1
  Li  Li12  1  0.306370  0.869988  0.341209  1
  Li  Li13  1  0.130012  0.693630  0.841209  1
  Fe  Fe14  1  0.721575  0.277083  0.343482  1
  Fe  Fe15  1  0.722917  0.278425  0.843482  1
  P  P16  1  0.861227  0.087845  0.169381  1
  P  P17  1  0.912155  0.138773  0.669381  1
  P  P18  1  0.621679  0.471629  0.017521  1
  P  P19  1  0.528371  0.378321  0.517521  1
  P  P20  1  0.839211  0.807583  0.343441  1
  P  P21  1  0.192417  0.160789  0.843441  1
  P  P22  1  0.251203  0.382709  0.344519  1
  P  P23  1  0.617291  0.748797  0.844519  1
  O  O24  1  0.703422  0.206057  0.205511  1
  O  O25  1  0.793943  0.296578  0.705511  1
  O  O26  1  0.856960  0.581082  0.040012  1
  O  O27  1  0.741819  0.383416  0.477717  1
  O  O28  1  0.418918  0.143040  0.540012  1
  O  O29  1  0.616584  0.258181  0.977717  1
  O  O30  1  0.374576  0.218053  0.315782  1
  O  O31  1  0.738901  0.607665  0.292531  1
  O  O32  1  0.459162  0.457519  0.089185  1
  O  O33  1  0.964029  0.960287  0.261314  1
  O  O34  1  0.781947  0.625424  0.815782  1
  O  O35  1  0.392335  0.261099  0.792531  1
  O  O36  1  0.542481  0.540838  0.589185  1
  O  O37  1  0.039713  0.035971  0.761314  1
  O  O38  1  0.059584  0.234402  0.133190  1
  O  O39  1  0.750479  0.918573  0.104915  1
  O  O40  1  0.383084  0.491939  0.434797  1
  O  O41  1  0.040661  0.274842  0.384890  1
  O  O42  1  0.765598  0.940416  0.633190  1
  O  O43  1  0.667788  0.915991  0.378942  1
  O  O44  1  0.081427  0.249521  0.604915  1
  O  O45  1  0.508061  0.616916  0.934797  1
  O  O46  1  0.239672  0.575944  0.273971  1
  O  O47  1  0.725158  0.959339  0.884890  1
  O  O48  1  0.084009  0.332212  0.878942  1
  O  O49  1  0.424056  0.760328  0.773971  1
  O  O50  1  0.028567  0.790451  0.416556  1
  O  O51  1  0.209549  0.971433  0.916556  1
  F  F52  1  0.292238  0.875175  0.116516  1
  F  F53  1  0.124825  0.707762  0.616516  1
