# generated using pymatgen
data_Sr(RhO2)2
_symmetry_space_group_name_H-M   'P 1'
_cell_length_a   5.44379577
_cell_length_b   6.28121132
_cell_length_c   11.37143720
_cell_angle_alpha   90.00000000
_cell_angle_beta   90.00000000
_cell_angle_gamma   90.00000000
_symmetry_Int_Tables_number   1
_chemical_formula_structural   Sr(RhO2)2
_chemical_formula_sum   'Sr4 Rh8 O16'
_cell_volume   388.83073456
_cell_formula_units_Z   4
loop_
 _symmetry_equiv_pos_site_id
 _symmetry_equiv_pos_as_xyz
  1  'x, y, z'
loop_
 _atom_site_type_symbol
 _atom_site_label
 _atom_site_symmetry_multiplicity
 _atom_site_fract_x
 _atom_site_fract_y
 _atom_site_fract_z
 _atom_site_occupancy
  Sr  Sr0  1  0.141541  0.000000  0.500000  1
  Sr  Sr1  1  0.465603  0.000000  0.000000  1
  Sr  Sr2  1  0.534397  0.500000  0.500000  1
  Sr  Sr3  1  0.858459  0.500000  0.000000  1
  Rh  Rh4  1  0.502134  0.000000  0.743927  1
  Rh  Rh5  1  0.502134  0.000000  0.256073  1
  Rh  Rh6  1  0.000000  0.750000  0.750000  1
  Rh  Rh7  1  0.000000  0.750000  0.250000  1
  Rh  Rh8  1  0.497866  0.500000  0.756073  1
  Rh  Rh9  1  0.497866  0.500000  0.243927  1
  Rh  Rh10  1  0.000000  0.250000  0.250000  1
  Rh  Rh11  1  0.000000  0.250000  0.750000  1
  O  O12  1  0.171274  0.000000  0.164168  1
  O  O13  1  0.836614  0.000000  0.657908  1
  O  O14  1  0.836614  0.000000  0.342092  1
  O  O15  1  0.171274  0.000000  0.835832  1
  O  O16  1  0.666011  0.753847  0.156037  1
  O  O17  1  0.333989  0.746153  0.343963  1
  O  O18  1  0.333989  0.746153  0.656037  1
  O  O19  1  0.666011  0.753847  0.843963  1
  O  O20  1  0.163386  0.500000  0.157908  1
  O  O21  1  0.163386  0.500000  0.842092  1
  O  O22  1  0.828726  0.500000  0.335832  1
  O  O23  1  0.828726  0.500000  0.664168  1
  O  O24  1  0.666011  0.246153  0.156037  1
  O  O25  1  0.333989  0.253847  0.343963  1
  O  O26  1  0.333989  0.253847  0.656037  1
  O  O27  1  0.666011  0.246153  0.843963  1
