# generated using pymatgen
data_Li4Cu(PO4)2
_symmetry_space_group_name_H-M   'P 1'
_cell_length_a   4.67916794
_cell_length_b   5.45298422
_cell_length_c   6.14052990
_cell_angle_alpha   96.49247095
_cell_angle_beta   93.53895111
_cell_angle_gamma   103.87448989
_symmetry_Int_Tables_number   1
_chemical_formula_structural   Li4Cu(PO4)2
_chemical_formula_sum   'Li4 Cu1 P2 O8'
_cell_volume   150.48902918
_cell_formula_units_Z   1
loop_
 _symmetry_equiv_pos_site_id
 _symmetry_equiv_pos_as_xyz
  1  'x, y, z'
loop_
 _atom_site_type_symbol
 _atom_site_label
 _atom_site_symmetry_multiplicity
 _atom_site_fract_x
 _atom_site_fract_y
 _atom_site_fract_z
 _atom_site_occupancy
  Li  Li0  1  0.153327  0.285008  0.576826  1
  Li  Li1  1  0.291094  0.577459  0.170271  1
  Li  Li2  1  0.708906  0.422541  0.829729  1
  Li  Li3  1  0.846673  0.714992  0.423174  1
  Cu  Cu4  1  0.000000  0.000000  0.000000  1
  P  P5  1  0.385138  0.787573  0.718772  1
  P  P6  1  0.614862  0.212427  0.281228  1
  O  O7  1  0.239163  0.573819  0.854080  1
  O  O8  1  0.268362  0.699693  0.475556  1
  O  O9  1  0.271440  0.181440  0.262354  1
  O  O10  1  0.316003  0.047929  0.802188  1
  O  O11  1  0.683997  0.952071  0.197812  1
  O  O12  1  0.728560  0.818560  0.737646  1
  O  O13  1  0.731638  0.300307  0.524444  1
  O  O14  1  0.760837  0.426181  0.145920  1
