# generated using pymatgen
data_Ti2(SO4)3
_symmetry_space_group_name_H-M   'P 1'
_cell_length_a   8.99880994
_cell_length_b   8.99880994
_cell_length_c   8.99880994
_cell_angle_alpha   56.97965652
_cell_angle_beta   56.97965652
_cell_angle_gamma   56.97965652
_symmetry_Int_Tables_number   1
_chemical_formula_structural   Ti2(SO4)3
_chemical_formula_sum   'Ti4 S6 O24'
_cell_volume   479.38780260
_cell_formula_units_Z   2
loop_
 _symmetry_equiv_pos_site_id
 _symmetry_equiv_pos_as_xyz
  1  'x, y, z'
loop_
 _atom_site_type_symbol
 _atom_site_label
 _atom_site_symmetry_multiplicity
 _atom_site_fract_x
 _atom_site_fract_y
 _atom_site_fract_z
 _atom_site_occupancy
  Ti  Ti0  1  0.855481  0.855481  0.855481  1
  Ti  Ti1  1  0.144519  0.144519  0.144519  1
  Ti  Ti2  1  0.648498  0.648498  0.648498  1
  Ti  Ti3  1  0.351502  0.351502  0.351502  1
  S  S4  1  0.037112  0.750667  0.461847  1
  S  S5  1  0.461847  0.037112  0.750667  1
  S  S6  1  0.750667  0.461847  0.037112  1
  S  S7  1  0.962888  0.249333  0.538153  1
  S  S8  1  0.538153  0.962888  0.249333  1
  S  S9  1  0.249333  0.538153  0.962888  1
  O  O10  1  0.009888  0.790293  0.616548  1
  O  O11  1  0.616548  0.009888  0.790293  1
  O  O12  1  0.790293  0.616548  0.009888  1
  O  O13  1  0.990112  0.209707  0.383452  1
  O  O14  1  0.383452  0.990112  0.209707  1
  O  O15  1  0.209707  0.383452  0.990112  1
  O  O16  1  0.855730  0.759938  0.485323  1
  O  O17  1  0.485323  0.855730  0.759938  1
  O  O18  1  0.759938  0.485323  0.855730  1
  O  O19  1  0.144270  0.240062  0.514677  1
  O  O20  1  0.514677  0.144270  0.240062  1
  O  O21  1  0.240062  0.514677  0.144270  1
  O  O22  1  0.099194  0.894286  0.277034  1
  O  O23  1  0.277034  0.099194  0.894286  1
  O  O24  1  0.894286  0.277034  0.099194  1
  O  O25  1  0.900806  0.105714  0.722966  1
  O  O26  1  0.722966  0.900806  0.105714  1
  O  O27  1  0.105714  0.722966  0.900806  1
  O  O28  1  0.182851  0.560044  0.467439  1
  O  O29  1  0.467439  0.182851  0.560044  1
  O  O30  1  0.560044  0.467439  0.182851  1
  O  O31  1  0.817149  0.439956  0.532561  1
  O  O32  1  0.532561  0.817149  0.439956  1
  O  O33  1  0.439956  0.532561  0.817149  1
