# generated using pymatgen
data_Li3Sb(PO4)2
_symmetry_space_group_name_H-M   'P 1'
_cell_length_a   8.74681424
_cell_length_b   8.74681424
_cell_length_c   7.22989995
_cell_angle_alpha   90.00000000
_cell_angle_beta   90.00000000
_cell_angle_gamma   120.00000000
_symmetry_Int_Tables_number   1
_chemical_formula_structural   Li3Sb(PO4)2
_chemical_formula_sum   'Li9 Sb3 P6 O24'
_cell_volume   479.03001408
_cell_formula_units_Z   3
loop_
 _symmetry_equiv_pos_site_id
 _symmetry_equiv_pos_as_xyz
  1  'x, y, z'
loop_
 _atom_site_type_symbol
 _atom_site_label
 _atom_site_symmetry_multiplicity
 _atom_site_fract_x
 _atom_site_fract_y
 _atom_site_fract_z
 _atom_site_occupancy
  Li  Li0  1  0.364697  0.051862  0.158329  1
  Li  Li1  1  0.948138  0.312836  0.158329  1
  Li  Li2  1  0.000000  0.000000  0.000000  1
  Li  Li3  1  0.333333  0.666667  0.024218  1
  Li  Li4  1  0.312836  0.364697  0.841671  1
  Li  Li5  1  0.687164  0.635303  0.158329  1
  Li  Li6  1  0.666667  0.333333  0.975782  1
  Li  Li7  1  0.051862  0.687164  0.841671  1
  Li  Li8  1  0.635303  0.948138  0.841671  1
  Sb  Sb9  1  0.000000  0.000000  0.500000  1
  Sb  Sb10  1  0.333333  0.666667  0.545491  1
  Sb  Sb11  1  0.666667  0.333333  0.454509  1
  P  P12  1  0.024829  0.688792  0.257360  1
  P  P13  1  0.311208  0.336037  0.257360  1
  P  P14  1  0.663963  0.975171  0.257360  1
  P  P15  1  0.336037  0.024829  0.742640  1
  P  P16  1  0.688792  0.663963  0.742640  1
  P  P17  1  0.975171  0.311208  0.742640  1
  O  O18  1  0.131815  0.928949  0.766822  1
  O  O19  1  0.156266  0.729789  0.097157  1
  O  O20  1  0.118907  0.734848  0.446640  1
  O  O21  1  0.393913  0.878446  0.754768  1
  O  O22  1  0.121554  0.515467  0.754768  1
  O  O23  1  0.071051  0.202866  0.766822  1
  O  O24  1  0.615942  0.881093  0.446640  1
  O  O25  1  0.202866  0.131815  0.233178  1
  O  O26  1  0.265152  0.384058  0.446640  1
  O  O27  1  0.270211  0.426477  0.097157  1
  O  O28  1  0.573523  0.843734  0.097157  1
  O  O29  1  0.484533  0.606087  0.754768  1
  O  O30  1  0.515467  0.393913  0.245232  1
  O  O31  1  0.426477  0.156266  0.902843  1
  O  O32  1  0.729789  0.573523  0.902843  1
  O  O33  1  0.734848  0.615942  0.553360  1
  O  O34  1  0.797134  0.868185  0.766822  1
  O  O35  1  0.384058  0.118907  0.553360  1
  O  O36  1  0.928949  0.797134  0.233178  1
  O  O37  1  0.878446  0.484533  0.245232  1
  O  O38  1  0.606087  0.121554  0.245232  1
  O  O39  1  0.881093  0.265152  0.553360  1
  O  O40  1  0.843734  0.270211  0.902843  1
  O  O41  1  0.868185  0.071051  0.233178  1
