# generated using pymatgen
data_Li2CuF5
_symmetry_space_group_name_H-M   'P 1'
_cell_length_a   5.02213122
_cell_length_b   5.63130382
_cell_length_c   7.49394088
_cell_angle_alpha   97.41396054
_cell_angle_beta   106.14392906
_cell_angle_gamma   115.16119915
_symmetry_Int_Tables_number   1
_chemical_formula_structural   Li2CuF5
_chemical_formula_sum   'Li4 Cu2 F10'
_cell_volume   176.65466335
_cell_formula_units_Z   2
loop_
 _symmetry_equiv_pos_site_id
 _symmetry_equiv_pos_as_xyz
  1  'x, y, z'
loop_
 _atom_site_type_symbol
 _atom_site_label
 _atom_site_symmetry_multiplicity
 _atom_site_fract_x
 _atom_site_fract_y
 _atom_site_fract_z
 _atom_site_occupancy
  Li  Li0  1  0.572672  0.953112  0.216110  1
  Li  Li1  1  0.131831  0.489320  0.760018  1
  Li  Li2  1  0.868169  0.510680  0.239982  1
  Li  Li3  1  0.427328  0.046888  0.783890  1
  Cu  Cu4  1  0.000000  0.000000  0.000000  1
  Cu  Cu5  1  0.500000  0.500000  0.500000  1
  F  F6  1  0.692343  0.303052  0.459815  1
  F  F7  1  0.877222  0.209723  0.846776  1
  F  F8  1  0.683134  0.711666  0.361543  1
  F  F9  1  0.985460  0.775834  0.773394  1
  F  F10  1  0.555685  0.779470  0.955907  1
  F  F11  1  0.444315  0.220530  0.044093  1
  F  F12  1  0.014540  0.224166  0.226606  1
  F  F13  1  0.316866  0.288334  0.638457  1
  F  F14  1  0.122778  0.790277  0.153224  1
  F  F15  1  0.307657  0.696948  0.540185  1
