# generated using pymatgen
data_NaLi5Mn2P2(CO7)2
_symmetry_space_group_name_H-M   'P 1'
_cell_length_a   6.63298603
_cell_length_b   8.65351659
_cell_length_c   9.98749927
_cell_angle_alpha   91.56300752
_cell_angle_beta   90.01335704
_cell_angle_gamma   90.43578803
_symmetry_Int_Tables_number   1
_chemical_formula_structural   NaLi5Mn2P2(CO7)2
_chemical_formula_sum   'Na2 Li10 Mn4 P4 C4 O28'
_cell_volume   573.03909628
_cell_formula_units_Z   2
loop_
 _symmetry_equiv_pos_site_id
 _symmetry_equiv_pos_as_xyz
  1  'x, y, z'
loop_
 _atom_site_type_symbol
 _atom_site_label
 _atom_site_symmetry_multiplicity
 _atom_site_fract_x
 _atom_site_fract_y
 _atom_site_fract_z
 _atom_site_occupancy
  Na  Na0  1  0.255121  0.085005  0.621634  1
  Na  Na1  1  0.997612  0.250806  0.876931  1
  Li  Li2  1  0.254684  0.077594  0.125310  1
  Li  Li3  1  0.018606  0.263651  0.379528  1
  Li  Li4  1  0.479779  0.265244  0.382125  1
  Li  Li5  1  0.481030  0.266677  0.886763  1
  Li  Li6  1  0.517187  0.739156  0.116955  1
  Li  Li7  1  0.982910  0.739500  0.115927  1
  Li  Li8  1  0.518965  0.734352  0.615386  1
  Li  Li9  1  0.981355  0.734901  0.615535  1
  Li  Li10  1  0.749312  0.916581  0.373477  1
  Li  Li11  1  0.741898  0.913893  0.876382  1
  Mn  Mn12  1  0.746370  0.356224  0.115704  1
  Mn  Mn13  1  0.749068  0.358136  0.609615  1
  Mn  Mn14  1  0.250531  0.645821  0.385475  1
  Mn  Mn15  1  0.249369  0.645549  0.890218  1
  P  P16  1  0.249759  0.405498  0.150698  1
  P  P17  1  0.254580  0.415353  0.645546  1
  P  P18  1  0.750440  0.593441  0.351817  1
  P  P19  1  0.745180  0.595958  0.854610  1
  C  C20  1  0.749196  0.041900  0.135206  1
  C  C21  1  0.748368  0.041918  0.632832  1
  C  C22  1  0.250211  0.951695  0.360357  1
  C  C23  1  0.258937  0.953719  0.869957  1
  O  O24  1  0.248481  0.101562  0.347474  1
  O  O25  1  0.278499  0.100885  0.852413  1
  O  O26  1  0.750151  0.088458  0.012746  1
  O  O27  1  0.749491  0.088935  0.510856  1
  O  O28  1  0.746300  0.141134  0.235020  1
  O  O29  1  0.745248  0.142345  0.732324  1
  O  O30  1  0.061049  0.312353  0.104409  1
  O  O31  1  0.431224  0.309486  0.097281  1
  O  O32  1  0.064582  0.322101  0.598391  1
  O  O33  1  0.435482  0.323172  0.586561  1
  O  O34  1  0.254842  0.413535  0.307648  1
  O  O35  1  0.750857  0.422456  0.397488  1
  O  O36  1  0.266901  0.418830  0.801773  1
  O  O37  1  0.732210  0.427523  0.903995  1
  O  O38  1  0.252229  0.575102  0.101911  1
  O  O39  1  0.749732  0.587530  0.195067  1
  O  O40  1  0.251058  0.585516  0.599915  1
  O  O41  1  0.748738  0.587061  0.697634  1
  O  O42  1  0.566976  0.687302  0.404675  1
  O  O43  1  0.935142  0.687683  0.405028  1
  O  O44  1  0.565900  0.697338  0.904290  1
  O  O45  1  0.933908  0.685297  0.907957  1
  O  O46  1  0.250598  0.862295  0.253469  1
  O  O47  1  0.247835  0.858381  0.767186  1
  O  O48  1  0.251785  0.890340  0.476762  1
  O  O49  1  0.249455  0.901241  0.990589  1
  O  O50  1  0.750654  0.894572  0.160385  1
  O  O51  1  0.750208  0.894999  0.658767  1
