# generated using pymatgen
data_ScBiO3
_symmetry_space_group_name_H-M   'P 1'
_cell_length_a   5.60061657
_cell_length_b   5.90965096
_cell_length_c   8.10409300
_cell_angle_alpha   90.00000000
_cell_angle_beta   90.00000000
_cell_angle_gamma   90.00000000
_symmetry_Int_Tables_number   1
_chemical_formula_structural   ScBiO3
_chemical_formula_sum   'Sc4 Bi4 O12'
_cell_volume   268.22675065
_cell_formula_units_Z   4
loop_
 _symmetry_equiv_pos_site_id
 _symmetry_equiv_pos_as_xyz
  1  'x, y, z'
loop_
 _atom_site_type_symbol
 _atom_site_label
 _atom_site_symmetry_multiplicity
 _atom_site_fract_x
 _atom_site_fract_y
 _atom_site_fract_z
 _atom_site_occupancy
  Sc  Sc0  1  0.000000  0.500000  0.000000  1
  Sc  Sc1  1  0.000000  0.500000  0.500000  1
  Sc  Sc2  1  0.500000  0.000000  0.000000  1
  Sc  Sc3  1  0.500000  0.000000  0.500000  1
  Bi  Bi4  1  0.010567  0.045605  0.250000  1
  Bi  Bi5  1  0.489433  0.545605  0.250000  1
  Bi  Bi6  1  0.510567  0.454395  0.750000  1
  Bi  Bi7  1  0.989433  0.954395  0.750000  1
  O  O8  1  0.115348  0.537089  0.750000  1
  O  O9  1  0.186475  0.806929  0.057716  1
  O  O10  1  0.186475  0.806929  0.442284  1
  O  O11  1  0.313525  0.306929  0.057716  1
  O  O12  1  0.313525  0.306929  0.442284  1
  O  O13  1  0.384652  0.037089  0.750000  1
  O  O14  1  0.615348  0.962911  0.250000  1
  O  O15  1  0.686475  0.693071  0.557716  1
  O  O16  1  0.686475  0.693071  0.942284  1
  O  O17  1  0.813525  0.193071  0.557716  1
  O  O18  1  0.813525  0.193071  0.942284  1
  O  O19  1  0.884652  0.462911  0.250000  1
