# generated using pymatgen
data_Na2O
_symmetry_space_group_name_H-M   'P 1'
_cell_length_a   3.68882446
_cell_length_b   5.11162531
_cell_length_c   5.40353169
_cell_angle_alpha   90.00000000
_cell_angle_beta   90.00000000
_cell_angle_gamma   90.00000000
_symmetry_Int_Tables_number   1
_chemical_formula_structural   Na2O
_chemical_formula_sum   'Na4 O2'
_cell_volume   101.88839091
_cell_formula_units_Z   2
loop_
 _symmetry_equiv_pos_site_id
 _symmetry_equiv_pos_as_xyz
  1  'x, y, z'
loop_
 _atom_site_type_symbol
 _atom_site_label
 _atom_site_symmetry_multiplicity
 _atom_site_fract_x
 _atom_site_fract_y
 _atom_site_fract_z
 _atom_site_occupancy
  Na  Na0  1  0.500000  0.175038  0.796346  1
  Na  Na1  1  0.000000  0.675038  0.703654  1
  Na  Na2  1  0.000000  0.324962  0.296346  1
  Na  Na3  1  0.500000  0.824962  0.203654  1
  O  O4  1  0.000000  0.000000  0.000000  1
  O  O5  1  0.500000  0.500000  0.500000  1
