# generated using pymatgen
data_Li5BiS4
_symmetry_space_group_name_H-M   'P 1'
_cell_length_a   7.90907731
_cell_length_b   7.90907731
_cell_length_c   7.90907731
_cell_angle_alpha   151.09897507
_cell_angle_beta   125.59815311
_cell_angle_gamma   62.77070364
_symmetry_Int_Tables_number   1
_chemical_formula_structural   Li5BiS4
_chemical_formula_sum   'Li5 Bi1 S4'
_cell_volume   192.70991712
_cell_formula_units_Z   1
loop_
 _symmetry_equiv_pos_site_id
 _symmetry_equiv_pos_as_xyz
  1  'x, y, z'
loop_
 _atom_site_type_symbol
 _atom_site_label
 _atom_site_symmetry_multiplicity
 _atom_site_fract_x
 _atom_site_fract_y
 _atom_site_fract_z
 _atom_site_occupancy
  Li  Li0  1  0.975118  0.180169  0.794949  1
  Li  Li1  1  0.385219  0.180169  0.205051  1
  Li  Li2  1  0.614781  0.819831  0.794949  1
  Li  Li3  1  0.024882  0.819831  0.205051  1
  Li  Li4  1  0.500000  0.500000  0.000000  1
  Bi  Bi5  1  0.000000  0.500000  0.500000  1
  S  S6  1  0.274853  0.000000  0.274853  1
  S  S7  1  0.213654  0.713654  0.500000  1
  S  S8  1  0.786346  0.286346  0.500000  1
  S  S9  1  0.725147  1.000000  0.725147  1
