# generated using pymatgen
data_Ta2CuO6
_symmetry_space_group_name_H-M   'P 1'
_cell_length_a   5.26957083
_cell_length_b   5.26957083
_cell_length_c   5.64067744
_cell_angle_alpha   61.11487859
_cell_angle_beta   118.88512141
_cell_angle_gamma   121.23481883
_symmetry_Int_Tables_number   1
_chemical_formula_structural   Ta2CuO6
_chemical_formula_sum   'Ta2 Cu1 O6'
_cell_volume   111.46494330
_cell_formula_units_Z   1
loop_
 _symmetry_equiv_pos_site_id
 _symmetry_equiv_pos_as_xyz
  1  'x, y, z'
loop_
 _atom_site_type_symbol
 _atom_site_label
 _atom_site_symmetry_multiplicity
 _atom_site_fract_x
 _atom_site_fract_y
 _atom_site_fract_z
 _atom_site_occupancy
  Ta  Ta0  1  0.995738  0.503953  0.238248  1
  Ta  Ta1  1  0.503953  0.995738  0.761752  1
  Cu  Cu2  1  0.766127  0.766127  0.500000  1
  O  O3  1  0.737449  0.117957  0.495827  1
  O  O4  1  0.117957  0.737449  0.504173  1
  O  O5  1  0.384503  0.384503  0.500000  1
  O  O6  1  0.655667  0.655667  0.000000  1
  O  O7  1  0.842953  0.239033  0.010219  1
  O  O8  1  0.239033  0.842953  0.989781  1
