# generated using pymatgen
data_Dy2Ge2O7
_symmetry_space_group_name_H-M   'P 1'
_cell_length_a   4.99722038
_cell_length_b   11.09518212
_cell_length_c   5.68545255
_cell_angle_alpha   90.00000000
_cell_angle_beta   95.82722948
_cell_angle_gamma   90.00000000
_symmetry_Int_Tables_number   1
_chemical_formula_structural   Dy2Ge2O7
_chemical_formula_sum   'Dy4 Ge4 O14'
_cell_volume   313.60138518
_cell_formula_units_Z   2
loop_
 _symmetry_equiv_pos_site_id
 _symmetry_equiv_pos_as_xyz
  1  'x, y, z'
loop_
 _atom_site_type_symbol
 _atom_site_label
 _atom_site_symmetry_multiplicity
 _atom_site_fract_x
 _atom_site_fract_y
 _atom_site_fract_z
 _atom_site_occupancy
  Dy  Dy0  1  0.111376  0.148967  0.901784  1
  Dy  Dy1  1  0.111376  0.351033  0.401784  1
  Dy  Dy2  1  0.888624  0.648967  0.598216  1
  Dy  Dy3  1  0.888624  0.851033  0.098216  1
  Ge  Ge4  1  0.359667  0.880791  0.653528  1
  Ge  Ge5  1  0.359667  0.619209  0.153528  1
  Ge  Ge6  1  0.640333  0.380791  0.846472  1
  Ge  Ge7  1  0.640333  0.119209  0.346472  1
  O  O8  1  0.113480  0.690244  0.956144  1
  O  O9  1  0.113480  0.809756  0.456144  1
  O  O10  1  0.200581  0.949321  0.885987  1
  O  O11  1  0.200581  0.550679  0.385987  1
  O  O12  1  0.373309  0.288435  0.727202  1
  O  O13  1  0.373309  0.211565  0.227202  1
  O  O14  1  0.500000  0.000000  0.500000  1
  O  O15  1  0.500000  0.500000  0.000000  1
  O  O16  1  0.626691  0.788435  0.772798  1
  O  O17  1  0.626691  0.711565  0.272798  1
  O  O18  1  0.799419  0.449321  0.614013  1
  O  O19  1  0.799419  0.050679  0.114013  1
  O  O20  1  0.886520  0.190244  0.543856  1
  O  O21  1  0.886520  0.309756  0.043856  1
