# generated using pymatgen
data_Li6Co3Ni5O16
_symmetry_space_group_name_H-M   'P 1'
_cell_length_a   5.72738458
_cell_length_b   5.72738458
_cell_length_c   9.25513608
_cell_angle_alpha   88.28268650
_cell_angle_beta   91.71731350
_cell_angle_gamma   121.64469131
_symmetry_Int_Tables_number   1
_chemical_formula_structural   Li6Co3Ni5O16
_chemical_formula_sum   'Li6 Co3 Ni5 O16'
_cell_volume   258.30411375
_cell_formula_units_Z   1
loop_
 _symmetry_equiv_pos_site_id
 _symmetry_equiv_pos_as_xyz
  1  'x, y, z'
loop_
 _atom_site_type_symbol
 _atom_site_label
 _atom_site_symmetry_multiplicity
 _atom_site_fract_x
 _atom_site_fract_y
 _atom_site_fract_z
 _atom_site_occupancy
  Li  Li0  1  0.168404  0.831596  0.449995  1
  Li  Li1  1  0.172805  0.336771  0.445886  1
  Li  Li2  1  0.663229  0.827195  0.445886  1
  Li  Li3  1  0.339941  0.175140  0.951066  1
  Li  Li4  1  0.824860  0.660059  0.951066  1
  Li  Li5  1  0.829779  0.170221  0.947018  1
  Co  Co6  1  0.165372  0.834628  0.711008  1
  Co  Co7  1  0.336404  0.171832  0.215608  1
  Co  Co8  1  0.828168  0.663596  0.215608  1
  Ni  Ni9  1  0.330213  0.669787  0.988716  1
  Ni  Ni10  1  0.169004  0.338746  0.714969  1
  Ni  Ni11  1  0.661254  0.830996  0.714969  1
  Ni  Ni12  1  0.672227  0.327773  0.485858  1
  Ni  Ni13  1  0.829443  0.170557  0.214263  1
  O  O14  1  0.152800  0.847200  0.107660  1
  O  O15  1  0.027987  0.531511  0.842849  1
  O  O16  1  0.468489  0.972013  0.842849  1
  O  O17  1  0.326606  0.673394  0.602687  1
  O  O18  1  0.157634  0.317724  0.097059  1
  O  O19  1  0.478862  0.521138  0.839077  1
  O  O20  1  0.328372  0.151310  0.596959  1
  O  O21  1  0.682276  0.842366  0.097059  1
  O  O22  1  0.515810  0.484190  0.330525  1
  O  O23  1  0.848690  0.671628  0.596959  1
  O  O24  1  0.511150  0.033589  0.334762  1
  O  O25  1  0.654450  0.345550  0.099603  1
  O  O26  1  0.966411  0.488850  0.334762  1
  O  O27  1  0.847468  0.152532  0.595844  1
  O  O28  1  0.006257  0.993743  0.819450  1
  O  O29  1  0.007172  0.992828  0.325067  1
