# generated using pymatgen
data_P6H24N6O19
_symmetry_space_group_name_H-M   'P 1'
_cell_length_a   9.36809005
_cell_length_b   9.36809005
_cell_length_c   9.36809005
_cell_angle_alpha   112.97901312
_cell_angle_beta   112.97901312
_cell_angle_gamma   112.97901312
_symmetry_Int_Tables_number   1
_chemical_formula_structural   P6H24N6O19
_chemical_formula_sum   'P6 H24 N6 O19'
_cell_volume   535.20890728
_cell_formula_units_Z   1
loop_
 _symmetry_equiv_pos_site_id
 _symmetry_equiv_pos_as_xyz
  1  'x, y, z'
loop_
 _atom_site_type_symbol
 _atom_site_label
 _atom_site_symmetry_multiplicity
 _atom_site_fract_x
 _atom_site_fract_y
 _atom_site_fract_z
 _atom_site_occupancy
  P  P0  1  0.215533  0.868823  0.121919  1
  P  P1  1  0.121919  0.215533  0.868823  1
  P  P2  1  0.868823  0.121919  0.215533  1
  P  P3  1  0.784467  0.131177  0.878081  1
  P  P4  1  0.878081  0.784467  0.131177  1
  P  P5  1  0.131177  0.878081  0.784467  1
  H  H6  1  0.283328  0.643093  0.872755  1
  H  H7  1  0.872755  0.283328  0.643093  1
  H  H8  1  0.643093  0.872755  0.283328  1
  H  H9  1  0.716672  0.356907  0.127245  1
  H  H10  1  0.127245  0.716672  0.356907  1
  H  H11  1  0.356907  0.127245  0.716672  1
  H  H12  1  0.192390  0.619971  0.229270  1
  H  H13  1  0.229270  0.192390  0.619971  1
  H  H14  1  0.619971  0.229270  0.192390  1
  H  H15  1  0.807610  0.380029  0.770730  1
  H  H16  1  0.770730  0.807610  0.380029  1
  H  H17  1  0.380029  0.770730  0.807610  1
  H  H18  1  0.517336  0.637563  0.217804  1
  H  H19  1  0.217804  0.517336  0.637563  1
  H  H20  1  0.637563  0.217804  0.517336  1
  H  H21  1  0.482664  0.362437  0.782196  1
  H  H22  1  0.782196  0.482664  0.362437  1
  H  H23  1  0.362437  0.782196  0.482664  1
  H  H24  1  0.542742  0.354276  0.148684  1
  H  H25  1  0.148684  0.542742  0.354276  1
  H  H26  1  0.354276  0.148684  0.542742  1
  H  H27  1  0.457258  0.645724  0.851316  1
  H  H28  1  0.851316  0.457258  0.645724  1
  H  H29  1  0.645724  0.851316  0.457258  1
  N  N30  1  0.641996  0.791214  0.333986  1
  N  N31  1  0.333986  0.641996  0.791214  1
  N  N32  1  0.791214  0.333986  0.641996  1
  N  N33  1  0.358004  0.208786  0.666014  1
  N  N34  1  0.666014  0.358004  0.208786  1
  N  N35  1  0.208786  0.666014  0.358004  1
  O  O36  1  0.361821  0.041380  0.345675  1
  O  O37  1  0.345675  0.361821  0.041380  1
  O  O38  1  0.041380  0.345675  0.361821  1
  O  O39  1  0.638179  0.958620  0.654325  1
  O  O40  1  0.654325  0.638179  0.958620  1
  O  O41  1  0.958620  0.654325  0.638179  1
  O  O42  1  0.224239  0.701052  0.043324  1
  O  O43  1  0.043324  0.224239  0.701052  1
  O  O44  1  0.701052  0.043324  0.224239  1
  O  O45  1  0.775761  0.298948  0.956676  1
  O  O46  1  0.956676  0.775761  0.298948  1
  O  O47  1  0.298948  0.956676  0.775761  1
  O  O48  1  0.983293  0.762610  0.031849  1
  O  O49  1  0.031849  0.983293  0.762610  1
  O  O50  1  0.762610  0.031849  0.983293  1
  O  O51  1  0.016707  0.237390  0.968151  1
  O  O52  1  0.968151  0.016707  0.237390  1
  O  O53  1  0.237390  0.968151  0.016707  1
  O  O54  1  0.500000  0.500000  0.500000  1
