# generated using pymatgen
data_Na3LiSbP2O9
_symmetry_space_group_name_H-M   'P 1'
_cell_length_a   7.32515620
_cell_length_b   9.49811183
_cell_length_c   12.72838055
_cell_angle_alpha   90.00000000
_cell_angle_beta   90.00000000
_cell_angle_gamma   90.00000000
_symmetry_Int_Tables_number   1
_chemical_formula_structural   Na3LiSbP2O9
_chemical_formula_sum   'Na12 Li4 Sb4 P8 O36'
_cell_volume   885.57902131
_cell_formula_units_Z   4
loop_
 _symmetry_equiv_pos_site_id
 _symmetry_equiv_pos_as_xyz
  1  'x, y, z'
loop_
 _atom_site_type_symbol
 _atom_site_label
 _atom_site_symmetry_multiplicity
 _atom_site_fract_x
 _atom_site_fract_y
 _atom_site_fract_z
 _atom_site_occupancy
  Na  Na0  1  0.857505  0.607646  0.350708  1
  Na  Na1  1  0.843036  0.741914  0.733936  1
  Na  Na2  1  0.764945  0.085104  0.998661  1
  Na  Na3  1  0.735055  0.914896  0.498661  1
  Na  Na4  1  0.656964  0.258086  0.233936  1
  Na  Na5  1  0.642495  0.392354  0.850708  1
  Na  Na6  1  0.357505  0.892354  0.649292  1
  Na  Na7  1  0.343036  0.758086  0.266064  1
  Na  Na8  1  0.264945  0.414896  0.001339  1
  Na  Na9  1  0.235055  0.585104  0.501339  1
  Na  Na10  1  0.156964  0.241914  0.766064  1
  Na  Na11  1  0.142495  0.107646  0.149292  1
  Li  Li12  1  0.903669  0.057481  0.334885  1
  Li  Li13  1  0.596331  0.942519  0.834885  1
  Li  Li14  1  0.403669  0.442519  0.665115  1
  Li  Li15  1  0.096331  0.557481  0.165115  1
  Sb  Sb16  1  0.982485  0.253772  0.503921  1
  Sb  Sb17  1  0.517515  0.746228  0.003921  1
  Sb  Sb18  1  0.482485  0.246228  0.496079  1
  Sb  Sb19  1  0.017515  0.753772  0.996079  1
  P  P20  1  0.779392  0.873579  0.209433  1
  P  P21  1  0.767240  0.459758  0.079128  1
  P  P22  1  0.732760  0.540242  0.579128  1
  P  P23  1  0.720608  0.126421  0.709433  1
  P  P24  1  0.279392  0.626421  0.790567  1
  P  P25  1  0.267240  0.040242  0.920872  1
  P  P26  1  0.232760  0.959758  0.420872  1
  P  P27  1  0.220608  0.373579  0.290567  1
  O  O28  1  0.942596  0.785120  0.161252  1
  O  O29  1  0.950399  0.526962  0.033924  1
  O  O30  1  0.905006  0.180946  0.660887  1
  O  O31  1  0.896836  0.470509  0.513671  1
  O  O32  1  0.811376  0.032559  0.186054  1
  O  O33  1  0.763333  0.810599  0.939049  1
  O  O34  1  0.757854  0.304018  0.052217  1
  O  O35  1  0.775829  0.850082  0.328062  1
  O  O36  1  0.743640  0.510768  0.697022  1
  O  O37  1  0.756360  0.489232  0.197022  1
  O  O38  1  0.724171  0.149918  0.828062  1
  O  O39  1  0.742146  0.695982  0.552217  1
  O  O40  1  0.736667  0.189401  0.439049  1
  O  O41  1  0.688624  0.967441  0.686054  1
  O  O42  1  0.603164  0.529491  0.013671  1
  O  O43  1  0.594994  0.819054  0.160887  1
  O  O44  1  0.549601  0.473038  0.533924  1
  O  O45  1  0.557404  0.214880  0.661252  1
  O  O46  1  0.442596  0.714880  0.838748  1
  O  O47  1  0.450399  0.973038  0.966076  1
  O  O48  1  0.405006  0.319054  0.339113  1
  O  O49  1  0.396836  0.029491  0.486329  1
  O  O50  1  0.311376  0.467441  0.813946  1
  O  O51  1  0.263333  0.689401  0.060951  1
  O  O52  1  0.257854  0.195982  0.947783  1
  O  O53  1  0.275829  0.649918  0.671938  1
  O  O54  1  0.243640  0.989232  0.302978  1
  O  O55  1  0.256360  0.010768  0.802978  1
  O  O56  1  0.224171  0.350082  0.171938  1
  O  O57  1  0.242146  0.804018  0.447783  1
  O  O58  1  0.236667  0.310599  0.560951  1
  O  O59  1  0.188624  0.532559  0.313946  1
  O  O60  1  0.103164  0.970509  0.986329  1
  O  O61  1  0.094994  0.680946  0.839113  1
  O  O62  1  0.049601  0.026962  0.466076  1
  O  O63  1  0.057404  0.285120  0.338748  1
