# generated using pymatgen
data_Li2ScPCO7
_symmetry_space_group_name_H-M   'P 1'
_cell_length_a   5.02280047
_cell_length_b   6.57745248
_cell_length_c   8.60386612
_cell_angle_alpha   90.00000000
_cell_angle_beta   90.95235519
_cell_angle_gamma   90.00000000
_symmetry_Int_Tables_number   1
_chemical_formula_structural   Li2ScPCO7
_chemical_formula_sum   'Li4 Sc2 P2 C2 O14'
_cell_volume   284.20865052
_cell_formula_units_Z   2
loop_
 _symmetry_equiv_pos_site_id
 _symmetry_equiv_pos_as_xyz
  1  'x, y, z'
loop_
 _atom_site_type_symbol
 _atom_site_label
 _atom_site_symmetry_multiplicity
 _atom_site_fract_x
 _atom_site_fract_y
 _atom_site_fract_z
 _atom_site_occupancy
  Li  Li0  1  0.775192  0.997668  0.218858  1
  Li  Li1  1  0.775192  0.502332  0.218858  1
  Li  Li2  1  0.224808  0.497668  0.781142  1
  Li  Li3  1  0.224808  0.002332  0.781142  1
  Sc  Sc4  1  0.224985  0.250000  0.350330  1
  Sc  Sc5  1  0.775015  0.750000  0.649670  1
  P  P6  1  0.286364  0.750000  0.420091  1
  P  P7  1  0.713636  0.250000  0.579909  1
  C  C8  1  0.263075  0.250000  0.052225  1
  C  C9  1  0.736925  0.750000  0.947775  1
  O  O10  1  0.706421  0.750000  0.094354  1
  O  O11  1  0.029909  0.250000  0.117877  1
  O  O12  1  0.468219  0.250000  0.151030  1
  O  O13  1  0.181880  0.939673  0.334446  1
  O  O14  1  0.181880  0.560327  0.334446  1
  O  O15  1  0.809029  0.250000  0.406899  1
  O  O16  1  0.596937  0.750000  0.427172  1
  O  O17  1  0.403063  0.250000  0.572828  1
  O  O18  1  0.190971  0.750000  0.593101  1
  O  O19  1  0.818120  0.439673  0.665554  1
  O  O20  1  0.818120  0.060327  0.665554  1
  O  O21  1  0.531781  0.750000  0.848970  1
  O  O22  1  0.970091  0.750000  0.882123  1
  O  O23  1  0.293579  0.250000  0.905646  1
