# generated using pymatgen
data_LiMn2F7
_symmetry_space_group_name_H-M   'P 1'
_cell_length_a   5.70450915
_cell_length_b   5.70450915
_cell_length_c   9.72529229
_cell_angle_alpha   82.32123764
_cell_angle_beta   97.67876236
_cell_angle_gamma   57.64771289
_symmetry_Int_Tables_number   1
_chemical_formula_structural   LiMn2F7
_chemical_formula_sum   'Li2 Mn4 F14'
_cell_volume   256.87675513
_cell_formula_units_Z   2
loop_
 _symmetry_equiv_pos_site_id
 _symmetry_equiv_pos_as_xyz
  1  'x, y, z'
loop_
 _atom_site_type_symbol
 _atom_site_label
 _atom_site_symmetry_multiplicity
 _atom_site_fract_x
 _atom_site_fract_y
 _atom_site_fract_z
 _atom_site_occupancy
  Li  Li0  1  0.899940  0.588284  0.837137  1
  Li  Li1  1  0.411716  0.100060  0.337137  1
  Mn  Mn2  1  0.776539  0.319112  0.423609  1
  Mn  Mn3  1  0.324646  0.747172  0.068639  1
  Mn  Mn4  1  0.680888  0.223461  0.923609  1
  Mn  Mn5  1  0.252828  0.675354  0.568639  1
  F  F6  1  0.064994  0.105729  0.594575  1
  F  F7  1  0.493762  0.440933  0.242571  1
  F  F8  1  0.726752  0.485407  0.006030  1
  F  F9  1  0.117470  0.057123  0.903291  1
  F  F10  1  0.633364  0.986648  0.832568  1
  F  F11  1  0.013352  0.366636  0.332568  1
  F  F12  1  0.514593  0.273248  0.506030  1
  F  F13  1  0.489472  0.739453  0.466213  1
  F  F14  1  0.047704  0.586595  0.667177  1
  F  F15  1  0.413405  0.952296  0.167177  1
  F  F16  1  0.894271  0.935006  0.094575  1
  F  F17  1  0.260547  0.510528  0.966213  1
  F  F18  1  0.559067  0.506238  0.742571  1
  F  F19  1  0.942877  0.882530  0.403291  1
