# generated using pymatgen
data_Li7Mn3(WO8)2
_symmetry_space_group_name_H-M   'P 1'
_cell_length_a   5.90760430
_cell_length_b   5.90760430
_cell_length_c   9.65178707
_cell_angle_alpha   89.83413963
_cell_angle_beta   90.16586037
_cell_angle_gamma   120.50936904
_symmetry_Int_Tables_number   1
_chemical_formula_structural   Li7Mn3(WO8)2
_chemical_formula_sum   'Li7 Mn3 W2 O16'
_cell_volume   290.20618485
_cell_formula_units_Z   1
loop_
 _symmetry_equiv_pos_site_id
 _symmetry_equiv_pos_as_xyz
  1  'x, y, z'
loop_
 _atom_site_type_symbol
 _atom_site_label
 _atom_site_symmetry_multiplicity
 _atom_site_fract_x
 _atom_site_fract_y
 _atom_site_fract_z
 _atom_site_occupancy
  Li  Li0  1  0.826738  0.664968  0.792521  1
  Li  Li1  1  0.673903  0.326097  0.096847  1
  Li  Li2  1  0.993046  0.006954  0.002315  1
  Li  Li3  1  0.998219  0.001781  0.515840  1
  Li  Li4  1  0.335032  0.173262  0.792521  1
  Li  Li5  1  0.170626  0.829374  0.284830  1
  Li  Li6  1  0.333791  0.666209  0.591589  1
  Mn  Mn7  1  0.821141  0.178859  0.767143  1
  Mn  Mn8  1  0.660094  0.836667  0.283398  1
  Mn  Mn9  1  0.163333  0.339906  0.283398  1
  W  W10  1  0.646839  0.353161  0.515041  1
  W  W11  1  0.328591  0.671409  0.007623  1
  O  O12  1  0.827956  0.662391  0.409840  1
  O  O13  1  0.517225  0.482775  0.643680  1
  O  O14  1  0.692338  0.307662  0.887992  1
  O  O15  1  0.983383  0.016617  0.707761  1
  O  O16  1  0.992955  0.007045  0.194792  1
  O  O17  1  0.337609  0.172044  0.409840  1
  O  O18  1  0.961435  0.461951  0.644394  1
  O  O19  1  0.538049  0.038565  0.644394  1
  O  O20  1  0.169072  0.830928  0.926690  1
  O  O21  1  0.834805  0.165195  0.396768  1
  O  O22  1  0.501418  0.956597  0.157717  1
  O  O23  1  0.043403  0.498582  0.157717  1
  O  O24  1  0.344828  0.655172  0.387914  1
  O  O25  1  0.649257  0.828332  0.911368  1
  O  O26  1  0.483450  0.516550  0.166877  1
  O  O27  1  0.171668  0.350743  0.911368  1
