# generated using pymatgen
data_Li5Cu5(SbO6)2
_symmetry_space_group_name_H-M   'P 1'
_cell_length_a   5.21098933
_cell_length_b   5.21098933
_cell_length_c   9.89194166
_cell_angle_alpha   88.76643600
_cell_angle_beta   91.23356400
_cell_angle_gamma   66.52418934
_symmetry_Int_Tables_number   1
_chemical_formula_structural   Li5Cu5(SbO6)2
_chemical_formula_sum   'Li5 Cu5 Sb2 O12'
_cell_volume   246.18669129
_cell_formula_units_Z   1
loop_
 _symmetry_equiv_pos_site_id
 _symmetry_equiv_pos_as_xyz
  1  'x, y, z'
loop_
 _atom_site_type_symbol
 _atom_site_label
 _atom_site_symmetry_multiplicity
 _atom_site_fract_x
 _atom_site_fract_y
 _atom_site_fract_z
 _atom_site_occupancy
  Li  Li0  1  0.678151  0.152975  0.257065  1
  Li  Li1  1  0.837402  0.321546  0.745619  1
  Li  Li2  1  0.089873  0.089873  0.500000  1
  Li  Li3  1  0.152975  0.678151  0.742935  1
  Li  Li4  1  0.321546  0.837402  0.254381  1
  Cu  Cu5  1  0.002118  0.493041  0.251986  1
  Cu  Cu6  1  0.409997  0.409997  0.500000  1
  Cu  Cu7  1  0.917491  0.917491  0.000000  1
  Cu  Cu8  1  0.590295  0.590295  0.000000  1
  Cu  Cu9  1  0.493041  0.002118  0.748014  1
  Sb  Sb10  1  0.750452  0.750452  0.500000  1
  Sb  Sb11  1  0.255203  0.255203  0.000000  1
  O  O12  1  0.433034  0.071195  0.401193  1
  O  O13  1  0.694489  0.465761  0.380125  1
  O  O14  1  0.932073  0.574256  0.901872  1
  O  O15  1  0.007772  0.795550  0.364090  1
  O  O16  1  0.521919  0.315120  0.873751  1
  O  O17  1  0.193967  0.996319  0.867765  1
  O  O18  1  0.795550  0.007772  0.635910  1
  O  O19  1  0.465761  0.694489  0.619875  1
  O  O20  1  0.996319  0.193967  0.132235  1
  O  O21  1  0.071195  0.433034  0.598807  1
  O  O22  1  0.315120  0.521919  0.126249  1
  O  O23  1  0.574256  0.932073  0.098128  1
