# generated using pymatgen
data_FeOF
_symmetry_space_group_name_H-M   'P 1'
_cell_length_a   9.46097333
_cell_length_b   3.08523331
_cell_length_c   14.24753002
_cell_angle_alpha   90.00000000
_cell_angle_beta   90.29495363
_cell_angle_gamma   90.00000000
_symmetry_Int_Tables_number   1
_chemical_formula_structural   FeOF
_chemical_formula_sum   'Fe12 O12 F12'
_cell_volume   415.87006076
_cell_formula_units_Z   12
loop_
 _symmetry_equiv_pos_site_id
 _symmetry_equiv_pos_as_xyz
  1  'x, y, z'
loop_
 _atom_site_type_symbol
 _atom_site_label
 _atom_site_symmetry_multiplicity
 _atom_site_fract_x
 _atom_site_fract_y
 _atom_site_fract_z
 _atom_site_occupancy
  Fe  Fe0  1  0.999583  0.000000  0.999239  1
  Fe  Fe1  1  0.980609  0.000000  0.668276  1
  Fe  Fe2  1  0.996823  0.000000  0.332988  1
  Fe  Fe3  1  0.743409  0.500000  0.817738  1
  Fe  Fe4  1  0.748245  0.500000  0.516520  1
  Fe  Fe5  1  0.778250  0.500000  0.166977  1
  Fe  Fe6  1  0.511631  0.000000  0.662784  1
  Fe  Fe7  1  0.484655  0.000000  0.998745  1
  Fe  Fe8  1  0.485540  0.000000  0.338197  1
  Fe  Fe9  1  0.247340  0.500000  0.848150  1
  Fe  Fe10  1  0.242001  0.500000  0.484322  1
  Fe  Fe11  1  0.280590  0.500000  0.167876  1
  O  O12  1  0.904033  0.500000  0.732893  1
  O  O13  1  0.905095  0.500000  0.064055  1
  O  O14  1  0.853561  0.000000  0.237832  1
  O  O15  1  0.848299  0.000000  0.564999  1
  O  O16  1  0.643554  0.000000  0.767824  1
  O  O17  1  0.590555  0.500000  0.596916  1
  O  O18  1  0.408239  0.500000  0.063488  1
  O  O19  1  0.407674  0.500000  0.403934  1
  O  O20  1  0.354470  0.000000  0.893306  1
  O  O21  1  0.351251  0.000000  0.234722  1
  O  O22  1  0.142636  0.000000  0.430360  1
  O  O23  1  0.094459  0.500000  0.935453  1
  F  F24  1  0.896862  0.500000  0.400069  1
  F  F25  1  0.838268  0.000000  0.896329  1
  F  F26  1  0.657127  0.000000  0.432393  1
  F  F27  1  0.655411  0.000000  0.105125  1
  F  F28  1  0.606696  0.500000  0.938123  1
  F  F29  1  0.602485  0.500000  0.271714  1
  F  F30  1  0.395299  0.500000  0.723188  1
  F  F31  1  0.336060  0.000000  0.564820  1
  F  F32  1  0.155377  0.000000  0.764013  1
  F  F33  1  0.157582  0.000000  0.108002  1
  F  F34  1  0.099133  0.500000  0.600502  1
  F  F35  1  0.097198  0.500000  0.268130  1
