# generated using pymatgen
data_Li3Ti2Co3O10
_symmetry_space_group_name_H-M   'P 1'
_cell_length_a   5.02551232
_cell_length_b   5.23650092
_cell_length_c   7.71184984
_cell_angle_alpha   73.87612891
_cell_angle_beta   74.70369153
_cell_angle_gamma   81.17194369
_symmetry_Int_Tables_number   1
_chemical_formula_structural   Li3Ti2Co3O10
_chemical_formula_sum   'Li3 Ti2 Co3 O10'
_cell_volume   187.35019794
_cell_formula_units_Z   1
loop_
 _symmetry_equiv_pos_site_id
 _symmetry_equiv_pos_as_xyz
  1  'x, y, z'
loop_
 _atom_site_type_symbol
 _atom_site_label
 _atom_site_symmetry_multiplicity
 _atom_site_fract_x
 _atom_site_fract_y
 _atom_site_fract_z
 _atom_site_occupancy
  Li  Li0  1  0.511709  0.775406  0.398142  1
  Li  Li1  1  0.000000  0.500000  0.500000  1
  Li  Li2  1  0.488291  0.224594  0.601858  1
  Ti  Ti3  1  0.026594  0.874956  0.688381  1
  Ti  Ti4  1  0.973406  0.125044  0.311619  1
  Co  Co5  1  0.500000  0.000000  0.000000  1
  Co  Co6  1  0.985496  0.309891  0.892903  1
  Co  Co7  1  0.014504  0.690109  0.107097  1
  O  O8  1  0.243824  0.974465  0.848992  1
  O  O9  1  0.783904  0.880070  0.528451  1
  O  O10  1  0.797206  0.679753  0.935401  1
  O  O11  1  0.245273  0.794746  0.225479  1
  O  O12  1  0.216627  0.553942  0.659416  1
  O  O13  1  0.783373  0.446058  0.340584  1
  O  O14  1  0.754727  0.205254  0.774521  1
  O  O15  1  0.202794  0.320247  0.064599  1
  O  O16  1  0.216096  0.119930  0.471549  1
  O  O17  1  0.756176  0.025535  0.151008  1
