# generated using pymatgen
data_NaFeCSO7
_symmetry_space_group_name_H-M   'P 1'
_cell_length_a   5.30385046
_cell_length_b   6.59241428
_cell_length_c   9.12618693
_cell_angle_alpha   90.00000000
_cell_angle_beta   91.89786604
_cell_angle_gamma   90.00000000
_symmetry_Int_Tables_number   1
_chemical_formula_structural   NaFeCSO7
_chemical_formula_sum   'Na2 Fe2 C2 S2 O14'
_cell_volume   318.92372251
_cell_formula_units_Z   2
loop_
 _symmetry_equiv_pos_site_id
 _symmetry_equiv_pos_as_xyz
  1  'x, y, z'
loop_
 _atom_site_type_symbol
 _atom_site_label
 _atom_site_symmetry_multiplicity
 _atom_site_fract_x
 _atom_site_fract_y
 _atom_site_fract_z
 _atom_site_occupancy
  Na  Na0  1  0.765977  0.511047  0.215763  1
  Na  Na1  1  0.234023  0.011047  0.784237  1
  Fe  Fe2  1  0.220849  0.230843  0.340719  1
  Fe  Fe3  1  0.779151  0.730843  0.659281  1
  C  C4  1  0.275190  0.260552  0.077869  1
  C  C5  1  0.724810  0.760552  0.922131  1
  S  S6  1  0.274307  0.744197  0.432416  1
  S  S7  1  0.725693  0.244197  0.567584  1
  O  O8  1  0.691855  0.754535  0.055436  1
  O  O9  1  0.052343  0.258322  0.141037  1
  O  O10  1  0.462035  0.264968  0.180799  1
  O  O11  1  0.217768  0.924181  0.339743  1
  O  O12  1  0.193916  0.562790  0.347481  1
  O  O13  1  0.861878  0.258090  0.427377  1
  O  O14  1  0.552610  0.732624  0.468240  1
  O  O15  1  0.447390  0.232624  0.531760  1
  O  O16  1  0.138122  0.758090  0.572623  1
  O  O17  1  0.806084  0.062790  0.652519  1
  O  O18  1  0.782232  0.424181  0.660257  1
  O  O19  1  0.537965  0.764968  0.819201  1
  O  O20  1  0.947657  0.758322  0.858963  1
  O  O21  1  0.308145  0.254535  0.944564  1
