# generated using pymatgen
data_Ba2LaCl7
_symmetry_space_group_name_H-M   'P 1'
_cell_length_a   9.21632714
_cell_length_b   9.21632714
_cell_length_c   10.16389991
_cell_angle_alpha   60.18044922
_cell_angle_beta   119.81955078
_cell_angle_gamma   127.39962456
_symmetry_Int_Tables_number   1
_chemical_formula_structural   Ba2LaCl7
_chemical_formula_sum   'Ba4 La2 Cl14'
_cell_volume   570.66225239
_cell_formula_units_Z   2
loop_
 _symmetry_equiv_pos_site_id
 _symmetry_equiv_pos_as_xyz
  1  'x, y, z'
loop_
 _atom_site_type_symbol
 _atom_site_label
 _atom_site_symmetry_multiplicity
 _atom_site_fract_x
 _atom_site_fract_y
 _atom_site_fract_z
 _atom_site_occupancy
  Ba  Ba0  1  0.307262  0.686151  0.213537  1
  Ba  Ba1  1  0.686151  0.307262  0.286463  1
  Ba  Ba2  1  0.313849  0.692738  0.713537  1
  Ba  Ba3  1  0.692738  0.313849  0.786463  1
  La  La4  1  0.988453  0.988453  0.250000  1
  La  La5  1  0.011547  0.011547  0.750000  1
  Cl  Cl6  1  0.686370  0.077046  0.141308  1
  Cl  Cl7  1  0.883100  0.619095  0.969468  1
  Cl  Cl8  1  0.619095  0.883100  0.530532  1
  Cl  Cl9  1  0.922954  0.313630  0.641308  1
  Cl  Cl10  1  0.067946  0.242289  0.418913  1
  Cl  Cl11  1  0.376329  0.376329  0.750000  1
  Cl  Cl12  1  0.757711  0.932054  0.918913  1
  Cl  Cl13  1  0.242289  0.067946  0.081087  1
  Cl  Cl14  1  0.623671  0.623671  0.250000  1
  Cl  Cl15  1  0.932054  0.757711  0.581087  1
  Cl  Cl16  1  0.077046  0.686370  0.358692  1
  Cl  Cl17  1  0.380905  0.116900  0.469468  1
  Cl  Cl18  1  0.116900  0.380905  0.030532  1
  Cl  Cl19  1  0.313630  0.922954  0.858692  1
