# generated using pymatgen
data_ErAlO3
_symmetry_space_group_name_H-M   'P 1'
_cell_length_a   5.17637779
_cell_length_b   5.37965550
_cell_length_c   7.40977449
_cell_angle_alpha   90.00000000
_cell_angle_beta   90.00000000
_cell_angle_gamma   90.00000000
_symmetry_Int_Tables_number   1
_chemical_formula_structural   ErAlO3
_chemical_formula_sum   'Er4 Al4 O12'
_cell_volume   206.34094792
_cell_formula_units_Z   4
loop_
 _symmetry_equiv_pos_site_id
 _symmetry_equiv_pos_as_xyz
  1  'x, y, z'
loop_
 _atom_site_type_symbol
 _atom_site_label
 _atom_site_symmetry_multiplicity
 _atom_site_fract_x
 _atom_site_fract_y
 _atom_site_fract_z
 _atom_site_occupancy
  Er  Er0  1  0.015467  0.940716  0.750000  1
  Er  Er1  1  0.484533  0.440716  0.750000  1
  Er  Er2  1  0.515467  0.559284  0.250000  1
  Er  Er3  1  0.984533  0.059284  0.250000  1
  Al  Al4  1  0.000000  0.500000  0.000000  1
  Al  Al5  1  0.000000  0.500000  0.500000  1
  Al  Al6  1  0.500000  0.000000  0.000000  1
  Al  Al7  1  0.500000  0.000000  0.500000  1
  O  O8  1  0.093972  0.472679  0.250000  1
  O  O9  1  0.203003  0.203916  0.549190  1
  O  O10  1  0.203003  0.203916  0.950810  1
  O  O11  1  0.296997  0.703916  0.950810  1
  O  O12  1  0.296997  0.703916  0.549190  1
  O  O13  1  0.406028  0.972679  0.250000  1
  O  O14  1  0.593972  0.027321  0.750000  1
  O  O15  1  0.703003  0.296084  0.049190  1
  O  O16  1  0.703003  0.296084  0.450810  1
  O  O17  1  0.796997  0.796084  0.049190  1
  O  O18  1  0.796997  0.796084  0.450810  1
  O  O19  1  0.906028  0.527321  0.750000  1
