# generated using pymatgen
data_BaYI5
_symmetry_space_group_name_H-M   'P 1'
_cell_length_a   8.62070327
_cell_length_b   8.62070327
_cell_length_c   11.89194001
_cell_angle_alpha   69.63154914
_cell_angle_beta   110.36845086
_cell_angle_gamma   109.62178779
_symmetry_Int_Tables_number   1
_chemical_formula_structural   BaYI5
_chemical_formula_sum   'Ba2 Y2 I10'
_cell_volume   753.17950789
_cell_formula_units_Z   2
loop_
 _symmetry_equiv_pos_site_id
 _symmetry_equiv_pos_as_xyz
  1  'x, y, z'
loop_
 _atom_site_type_symbol
 _atom_site_label
 _atom_site_symmetry_multiplicity
 _atom_site_fract_x
 _atom_site_fract_y
 _atom_site_fract_z
 _atom_site_occupancy
  Ba  Ba0  1  0.558717  0.558717  0.750000  1
  Ba  Ba1  1  0.441283  0.441283  0.250000  1
  Y  Y2  1  1.000000  0.000000  0.500000  1
  Y  Y3  1  0.000000  0.000000  0.000000  1
  I  I4  1  0.254075  0.787610  0.621731  1
  I  I5  1  0.316834  0.289461  0.970495  1
  I  I6  1  0.212390  0.745925  0.121731  1
  I  I7  1  0.920835  0.920835  0.750000  1
  I  I8  1  0.289461  0.316834  0.529505  1
  I  I9  1  0.710539  0.683166  0.470495  1
  I  I10  1  0.079165  0.079165  0.250000  1
  I  I11  1  0.787610  0.254075  0.878269  1
  I  I12  1  0.683166  0.710539  0.029505  1
  I  I13  1  0.745925  0.212390  0.378269  1
