# generated using pymatgen
data_YbNdO2
_symmetry_space_group_name_H-M   'P 1'
_cell_length_a   6.02129828
_cell_length_b   6.02129828
_cell_length_c   6.02129828
_cell_angle_alpha   131.90101568
_cell_angle_beta   131.90101568
_cell_angle_gamma   70.38540685
_symmetry_Int_Tables_number   1
_chemical_formula_structural   YbNdO2
_chemical_formula_sum   'Yb2 Nd2 O4'
_cell_volume   118.51636335
_cell_formula_units_Z   2
loop_
 _symmetry_equiv_pos_site_id
 _symmetry_equiv_pos_as_xyz
  1  'x, y, z'
loop_
 _atom_site_type_symbol
 _atom_site_label
 _atom_site_symmetry_multiplicity
 _atom_site_fract_x
 _atom_site_fract_y
 _atom_site_fract_z
 _atom_site_occupancy
  Yb  Yb0  1  0.000000  0.000000  0.000000  1
  Yb  Yb1  1  0.750000  0.250000  0.500000  1
  Nd  Nd2  1  0.250000  0.750000  0.500000  1
  Nd  Nd3  1  0.500000  0.500000  0.000000  1
  O  O4  1  0.241966  0.241966  0.000000  1
  O  O5  1  0.758034  0.758034  0.000000  1
  O  O6  1  0.508034  0.008034  0.500000  1
  O  O7  1  0.991966  0.491966  0.500000  1
