# generated using pymatgen
data_Li4Cr3FeO8
_symmetry_space_group_name_H-M   'P 1'
_cell_length_a   5.12262707
_cell_length_b   7.78269011
_cell_length_c   7.78321722
_cell_angle_alpha   81.64059212
_cell_angle_beta   83.70961640
_cell_angle_gamma   71.01635968
_symmetry_Int_Tables_number   1
_chemical_formula_structural   Li4Cr3FeO8
_chemical_formula_sum   'Li8 Cr6 Fe2 O16'
_cell_volume   289.66184578
_cell_formula_units_Z   2
loop_
 _symmetry_equiv_pos_site_id
 _symmetry_equiv_pos_as_xyz
  1  'x, y, z'
loop_
 _atom_site_type_symbol
 _atom_site_label
 _atom_site_symmetry_multiplicity
 _atom_site_fract_x
 _atom_site_fract_y
 _atom_site_fract_z
 _atom_site_occupancy
  Li  Li0  1  0.496435  0.564262  0.812417  1
  Li  Li1  1  0.497758  0.313544  0.563192  1
  Li  Li2  1  0.503565  0.435738  0.187583  1
  Li  Li3  1  0.501888  0.936428  0.688735  1
  Li  Li4  1  0.498112  0.063572  0.311265  1
  Li  Li5  1  0.502458  0.186271  0.939572  1
  Li  Li6  1  0.502242  0.686456  0.436808  1
  Li  Li7  1  0.497542  0.813729  0.060428  1
  Cr  Cr8  1  0.999642  0.247679  0.752582  1
  Cr  Cr9  1  0.000023  0.373938  0.374011  1
  Cr  Cr10  1  0.000000  0.500000  0.000000  1
  Cr  Cr11  1  0.000000  0.000000  0.500000  1
  Cr  Cr12  1  0.999977  0.626062  0.625989  1
  Cr  Cr13  1  0.000358  0.752321  0.247418  1
  Fe  Fe14  1  0.999895  0.123931  0.123949  1
  Fe  Fe15  1  0.000105  0.876069  0.876051  1
  O  O16  1  0.226592  0.410788  0.782587  1
  O  O17  1  0.774011  0.463082  0.593518  1
  O  O18  1  0.225989  0.536918  0.406482  1
  O  O19  1  0.775902  0.085475  0.720577  1
  O  O20  1  0.226553  0.161072  0.532714  1
  O  O21  1  0.223381  0.282635  0.155939  1
  O  O22  1  0.775840  0.211915  0.338550  1
  O  O23  1  0.224160  0.788085  0.661450  1
  O  O24  1  0.224098  0.914525  0.279423  1
  O  O25  1  0.775427  0.335777  0.970578  1
  O  O26  1  0.773447  0.838928  0.467286  1
  O  O27  1  0.221543  0.033729  0.911121  1
  O  O28  1  0.778457  0.966271  0.088879  1
  O  O29  1  0.224573  0.664223  0.029422  1
  O  O30  1  0.773408  0.589212  0.217413  1
  O  O31  1  0.776619  0.717365  0.844061  1
