# generated using pymatgen
data_BaBePO4F
_symmetry_space_group_name_H-M   'P 1'
_cell_length_a   4.93334910
_cell_length_b   4.93334910
_cell_length_c   9.14937105
_cell_angle_alpha   74.65341617
_cell_angle_beta   105.34658383
_cell_angle_gamma   89.88407635
_symmetry_Int_Tables_number   1
_chemical_formula_structural   BaBePO4F
_chemical_formula_sum   'Ba2 Be2 P2 O8 F2'
_cell_volume   206.45700074
_cell_formula_units_Z   2
loop_
 _symmetry_equiv_pos_site_id
 _symmetry_equiv_pos_as_xyz
  1  'x, y, z'
loop_
 _atom_site_type_symbol
 _atom_site_label
 _atom_site_symmetry_multiplicity
 _atom_site_fract_x
 _atom_site_fract_y
 _atom_site_fract_z
 _atom_site_occupancy
  Ba  Ba0  1  0.999488  0.251199  0.999396  1
  Ba  Ba1  1  0.748801  0.000512  0.499396  1
  Be  Be2  1  0.348975  0.418095  0.663538  1
  Be  Be3  1  0.581905  0.651025  0.163538  1
  P  P4  1  0.437711  0.833513  0.834493  1
  P  P5  1  0.166487  0.562289  0.334493  1
  O  O6  1  0.263955  0.090845  0.703018  1
  O  O7  1  0.395882  0.853029  0.994984  1
  O  O8  1  0.166932  0.249873  0.341022  1
  O  O9  1  0.313832  0.557614  0.801321  1
  O  O10  1  0.146971  0.604118  0.494984  1
  O  O11  1  0.750127  0.833068  0.841022  1
  O  O12  1  0.442386  0.686168  0.301321  1
  O  O13  1  0.909155  0.736045  0.203018  1
  F  F14  1  0.662997  0.424346  0.651798  1
  F  F15  1  0.575654  0.337003  0.151798  1
