# generated using pymatgen
data_Li2Ti7O15
_symmetry_space_group_name_H-M   'P 1'
_cell_length_a   9.24380004
_cell_length_b   9.24380004
_cell_length_c   9.55414279
_cell_angle_alpha   81.37627308
_cell_angle_beta   98.62372692
_cell_angle_gamma   161.38810809
_symmetry_Int_Tables_number   1
_chemical_formula_structural   Li2Ti7O15
_chemical_formula_sum   'Li2 Ti7 O15'
_cell_volume   257.52758689
_cell_formula_units_Z   1
loop_
 _symmetry_equiv_pos_site_id
 _symmetry_equiv_pos_as_xyz
  1  'x, y, z'
loop_
 _atom_site_type_symbol
 _atom_site_label
 _atom_site_symmetry_multiplicity
 _atom_site_fract_x
 _atom_site_fract_y
 _atom_site_fract_z
 _atom_site_occupancy
  Li  Li0  1  0.158903  0.841097  0.723544  1
  Li  Li1  1  0.841097  0.158903  0.276456  1
  Ti  Ti2  1  0.189383  0.810617  0.398977  1
  Ti  Ti3  1  0.317777  0.682223  0.948860  1
  Ti  Ti4  1  0.503848  0.496152  0.660596  1
  Ti  Ti5  1  0.496152  0.503848  0.339404  1
  Ti  Ti6  1  0.000000  0.000000  0.000000  1
  Ti  Ti7  1  0.682223  0.317777  0.051140  1
  Ti  Ti8  1  0.810617  0.189383  0.601023  1
  O  O9  1  0.012589  0.987411  0.210998  1
  O  O10  1  0.200595  0.799405  0.924737  1
  O  O11  1  0.187449  0.812551  0.184211  1
  O  O12  1  0.230594  0.769406  0.597130  1
  O  O13  1  0.374670  0.625330  0.607519  1
  O  O14  1  0.426799  0.573201  0.991739  1
  O  O15  1  0.402117  0.597883  0.302464  1
  O  O16  1  0.000000  1.000000  0.500000  1
  O  O17  1  0.597883  0.402117  0.697536  1
  O  O18  1  0.573201  0.426799  0.008261  1
  O  O19  1  0.625330  0.374670  0.392481  1
  O  O20  1  0.769406  0.230594  0.402870  1
  O  O21  1  0.812551  0.187449  0.815789  1
  O  O22  1  0.799405  0.200595  0.075263  1
  O  O23  1  0.987411  0.012589  0.789002  1
