# generated using pymatgen
data_LiFe2(BO3)2
_symmetry_space_group_name_H-M   'P 1'
_cell_length_a   5.24803281
_cell_length_b   9.11442729
_cell_length_c   11.33347558
_cell_angle_alpha   112.65621600
_cell_angle_beta   103.25333354
_cell_angle_gamma   89.57607159
_symmetry_Int_Tables_number   1
_chemical_formula_structural   LiFe2(BO3)2
_chemical_formula_sum   'Li4 Fe8 B8 O24'
_cell_volume   484.97472960
_cell_formula_units_Z   4
loop_
 _symmetry_equiv_pos_site_id
 _symmetry_equiv_pos_as_xyz
  1  'x, y, z'
loop_
 _atom_site_type_symbol
 _atom_site_label
 _atom_site_symmetry_multiplicity
 _atom_site_fract_x
 _atom_site_fract_y
 _atom_site_fract_z
 _atom_site_occupancy
  Li  Li0  1  0.030139  0.035279  0.410759  1
  Li  Li1  1  0.482567  0.507594  0.660655  1
  Li  Li2  1  0.526295  0.527786  0.395380  1
  Li  Li3  1  0.760706  0.747811  0.154902  1
  Fe  Fe4  1  0.035028  0.354156  0.381110  1
  Fe  Fe5  1  0.267535  0.934933  0.879195  1
  Fe  Fe6  1  0.489586  0.148640  0.634838  1
  Fe  Fe7  1  0.231294  0.559251  0.124504  1
  Fe  Fe8  1  0.763851  0.431581  0.878832  1
  Fe  Fe9  1  0.529012  0.847273  0.381705  1
  Fe  Fe10  1  0.968360  0.665419  0.632702  1
  Fe  Fe11  1  0.737953  0.073217  0.130932  1
  B  B12  1  0.017302  0.682387  0.369178  1
  B  B13  1  0.265314  0.607182  0.878798  1
  B  B14  1  0.468494  0.813295  0.627250  1
  B  B15  1  0.238126  0.892417  0.127737  1
  B  B16  1  0.524764  0.187087  0.379890  1
  B  B17  1  0.769421  0.100097  0.878602  1
  B  B18  1  0.984743  0.316179  0.623522  1
  B  B19  1  0.731888  0.403635  0.135238  1
  O  O20  1  0.023498  0.084331  0.877822  1
  O  O21  1  0.120707  0.723388  0.847636  1
  O  O22  1  0.151218  0.519816  0.935039  1
  O  O23  1  0.122529  0.182937  0.611555  1
  O  O24  1  0.080255  0.435274  0.593486  1
  O  O25  1  0.259483  0.844471  0.685873  1
  O  O26  1  0.256182  0.651643  0.331434  1
  O  O27  1  0.504875  0.580272  0.853236  1
  O  O28  1  0.623740  0.199854  0.826447  1
  O  O29  1  0.422081  0.078811  0.421608  1
  O  O30  1  0.411448  0.323175  0.386652  1
  O  O31  1  0.641740  0.018284  0.934743  1
  O  O32  1  0.370196  0.985850  0.084418  1
  O  O33  1  0.580501  0.671283  0.603009  1
  O  O34  1  0.555532  0.924658  0.584891  1
  O  O35  1  0.379870  0.779052  0.164260  1
  O  O36  1  0.482149  0.420612  0.147704  1
  O  O37  1  0.740883  0.326335  0.657229  1
  O  O38  1  0.757016  0.152462  0.332718  1
  O  O39  1  0.911017  0.582360  0.414467  1
  O  O40  1  0.892740  0.811963  0.356943  1
  O  O41  1  0.852523  0.508696  0.096211  1
  O  O42  1  0.872856  0.287108  0.166131  1
  O  O43  1  0.983377  0.913445  0.139244  1
