# generated using pymatgen
data_VAs2H4O9
_symmetry_space_group_name_H-M   'P 1'
_cell_length_a   9.28543667
_cell_length_b   9.28543667
_cell_length_c   8.53959139
_cell_angle_alpha   90.00000000
_cell_angle_beta   90.00000000
_cell_angle_gamma   90.00000000
_symmetry_Int_Tables_number   1
_chemical_formula_structural   VAs2H4O9
_chemical_formula_sum   'V4 As8 H16 O36'
_cell_volume   736.27788358
_cell_formula_units_Z   4
loop_
 _symmetry_equiv_pos_site_id
 _symmetry_equiv_pos_as_xyz
  1  'x, y, z'
loop_
 _atom_site_type_symbol
 _atom_site_label
 _atom_site_symmetry_multiplicity
 _atom_site_fract_x
 _atom_site_fract_y
 _atom_site_fract_z
 _atom_site_occupancy
  V  V0  1  0.000000  0.500000  0.303878  1
  V  V1  1  0.000000  0.500000  0.803878  1
  V  V2  1  0.500000  0.000000  0.696122  1
  V  V3  1  0.500000  0.000000  0.196122  1
  As  As4  1  0.215002  0.784998  0.250000  1
  As  As5  1  0.215002  0.215002  0.750000  1
  As  As6  1  0.784998  0.784998  0.750000  1
  As  As7  1  0.784998  0.215002  0.250000  1
  As  As8  1  0.284998  0.715002  0.750000  1
  As  As9  1  0.284998  0.284998  0.250000  1
  As  As10  1  0.715002  0.715002  0.250000  1
  As  As11  1  0.715002  0.284998  0.750000  1
  H  H12  1  0.038234  0.837211  0.429313  1
  H  H13  1  0.038234  0.162789  0.929313  1
  H  H14  1  0.961766  0.837211  0.929313  1
  H  H15  1  0.961766  0.162789  0.429313  1
  H  H16  1  0.337211  0.538234  0.929313  1
  H  H17  1  0.337211  0.461766  0.429313  1
  H  H18  1  0.662789  0.538234  0.429313  1
  H  H19  1  0.662789  0.461766  0.929313  1
  H  H20  1  0.461766  0.662789  0.570687  1
  H  H21  1  0.461766  0.337211  0.070687  1
  H  H22  1  0.538234  0.662789  0.070687  1
  H  H23  1  0.538234  0.337211  0.570687  1
  H  H24  1  0.162789  0.961766  0.070687  1
  H  H25  1  0.162789  0.038234  0.570687  1
  H  H26  1  0.837211  0.961766  0.570687  1
  H  H27  1  0.837211  0.038234  0.070687  1
  O  O28  1  0.138651  0.870984  0.415276  1
  O  O29  1  0.138651  0.129016  0.915276  1
  O  O30  1  0.861349  0.870984  0.915276  1
  O  O31  1  0.861349  0.129016  0.415276  1
  O  O32  1  0.370984  0.638651  0.915276  1
  O  O33  1  0.370984  0.361349  0.415276  1
  O  O34  1  0.629016  0.638651  0.415276  1
  O  O35  1  0.629016  0.361349  0.915276  1
  O  O36  1  0.361349  0.629016  0.584724  1
  O  O37  1  0.361349  0.370984  0.084724  1
  O  O38  1  0.638651  0.629016  0.084724  1
  O  O39  1  0.638651  0.370984  0.584724  1
  O  O40  1  0.129016  0.861349  0.084724  1
  O  O41  1  0.129016  0.138651  0.584724  1
  O  O42  1  0.870984  0.861349  0.584724  1
  O  O43  1  0.870984  0.138651  0.084724  1
  O  O44  1  0.183684  0.605304  0.254446  1
  O  O45  1  0.183684  0.394696  0.754446  1
  O  O46  1  0.816316  0.605304  0.754446  1
  O  O47  1  0.816316  0.394696  0.254446  1
  O  O48  1  0.105304  0.683684  0.754446  1
  O  O49  1  0.105304  0.316316  0.254446  1
  O  O50  1  0.894696  0.683684  0.254446  1
  O  O51  1  0.894696  0.316316  0.754446  1
  O  O52  1  0.316316  0.894696  0.745554  1
  O  O53  1  0.316316  0.105304  0.245554  1
  O  O54  1  0.683684  0.894696  0.245554  1
  O  O55  1  0.683684  0.105304  0.745554  1
  O  O56  1  0.394696  0.816316  0.245554  1
  O  O57  1  0.394696  0.183684  0.745554  1
  O  O58  1  0.605304  0.816316  0.745554  1
  O  O59  1  0.605304  0.183684  0.245554  1
  O  O60  1  0.000000  0.500000  0.496105  1
  O  O61  1  0.000000  0.500000  0.996105  1
  O  O62  1  0.500000  0.000000  0.503895  1
  O  O63  1  0.500000  0.000000  0.003895  1
