# generated using pymatgen
data_Ni6OF11
_symmetry_space_group_name_H-M   'P 1'
_cell_length_a   10.49597518
_cell_length_b   10.49597518
_cell_length_c   3.08490328
_cell_angle_alpha   90.00000000
_cell_angle_beta   90.00000000
_cell_angle_gamma   142.99249242
_symmetry_Int_Tables_number   1
_chemical_formula_structural   Ni6OF11
_chemical_formula_sum   'Ni6 O1 F11'
_cell_volume   204.56233592
_cell_formula_units_Z   1
loop_
 _symmetry_equiv_pos_site_id
 _symmetry_equiv_pos_as_xyz
  1  'x, y, z'
loop_
 _atom_site_type_symbol
 _atom_site_label
 _atom_site_symmetry_multiplicity
 _atom_site_fract_x
 _atom_site_fract_y
 _atom_site_fract_z
 _atom_site_occupancy
  Ni  Ni0  1  0.000613  0.999387  0.500000  1
  Ni  Ni1  1  0.497874  0.502126  0.000000  1
  Ni  Ni2  1  0.168296  0.831704  0.000000  1
  Ni  Ni3  1  0.337303  0.662697  0.500000  1
  Ni  Ni4  1  0.664952  0.335048  0.500000  1
  Ni  Ni5  1  0.832532  0.167468  0.000000  1
  O  O6  1  0.398415  0.601585  1.000000  1
  F  F7  1  0.066377  0.933623  0.000000  1
  F  F8  1  0.698005  0.698551  0.500000  1
  F  F9  1  0.637637  0.971132  0.500000  1
  F  F10  1  0.301449  0.301995  0.500000  1
  F  F11  1  0.970366  0.636153  0.500000  1
  F  F12  1  0.599392  0.400608  0.000000  1
  F  F13  1  0.269165  0.730835  0.000000  1
  F  F14  1  0.730963  0.269037  1.000000  1
  F  F15  1  0.028868  0.362363  0.500000  1
  F  F16  1  0.363847  0.029634  0.500000  1
  F  F17  1  0.934200  0.065800  0.000000  1
