# generated using pymatgen
data_Be(FeO2)2
_symmetry_space_group_name_H-M   'P 1'
_cell_length_a   4.64980841
_cell_length_b   5.87237444
_cell_length_c   10.05975990
_cell_angle_alpha   90.00000000
_cell_angle_beta   90.00000000
_cell_angle_gamma   90.00000000
_symmetry_Int_Tables_number   1
_chemical_formula_structural   Be(FeO2)2
_chemical_formula_sum   'Be4 Fe8 O16'
_cell_volume   274.68592961
_cell_formula_units_Z   4
loop_
 _symmetry_equiv_pos_site_id
 _symmetry_equiv_pos_as_xyz
  1  'x, y, z'
loop_
 _atom_site_type_symbol
 _atom_site_label
 _atom_site_symmetry_multiplicity
 _atom_site_fract_x
 _atom_site_fract_y
 _atom_site_fract_z
 _atom_site_occupancy
  Be  Be0  1  0.572385  0.750000  0.092307  1
  Be  Be1  1  0.927615  0.750000  0.592307  1
  Be  Be2  1  0.072385  0.250000  0.407693  1
  Be  Be3  1  0.427615  0.250000  0.907693  1
  Fe  Fe4  1  0.500000  0.500000  0.500000  1
  Fe  Fe5  1  0.500000  0.000000  0.500000  1
  Fe  Fe6  1  0.509749  0.250000  0.227009  1
  Fe  Fe7  1  0.990251  0.250000  0.727009  1
  Fe  Fe8  1  0.000000  0.000000  0.000000  1
  Fe  Fe9  1  0.000000  0.500000  0.000000  1
  Fe  Fe10  1  0.009749  0.750000  0.272991  1
  Fe  Fe11  1  0.490251  0.750000  0.772991  1
  O  O12  1  0.731684  0.750000  0.939910  1
  O  O13  1  0.734893  0.525879  0.162656  1
  O  O14  1  0.734893  0.974121  0.162656  1
  O  O15  1  0.728267  0.250000  0.408340  1
  O  O16  1  0.771733  0.250000  0.908340  1
  O  O17  1  0.765107  0.525879  0.662656  1
  O  O18  1  0.765107  0.974121  0.662656  1
  O  O19  1  0.768316  0.750000  0.439910  1
  O  O20  1  0.231684  0.250000  0.560090  1
  O  O21  1  0.234893  0.025879  0.337344  1
  O  O22  1  0.234893  0.474121  0.337344  1
  O  O23  1  0.228267  0.750000  0.091660  1
  O  O24  1  0.271733  0.750000  0.591660  1
  O  O25  1  0.265107  0.025879  0.837344  1
  O  O26  1  0.265107  0.474121  0.837344  1
  O  O27  1  0.268316  0.250000  0.060090  1
