# generated using pymatgen
data_Na3VO3
_symmetry_space_group_name_H-M   'P 1'
_cell_length_a   6.21757937
_cell_length_b   10.71551806
_cell_length_c   6.21801814
_cell_angle_alpha   90.00000000
_cell_angle_beta   91.25455195
_cell_angle_gamma   90.00000000
_symmetry_Int_Tables_number   1
_chemical_formula_structural   Na3VO3
_chemical_formula_sum   'Na12 V4 O12'
_cell_volume   414.17356714
_cell_formula_units_Z   4
loop_
 _symmetry_equiv_pos_site_id
 _symmetry_equiv_pos_as_xyz
  1  'x, y, z'
loop_
 _atom_site_type_symbol
 _atom_site_label
 _atom_site_symmetry_multiplicity
 _atom_site_fract_x
 _atom_site_fract_y
 _atom_site_fract_z
 _atom_site_occupancy
  Na  Na0  1  0.910079  0.222698  0.964772  1
  Na  Na1  1  0.861320  0.992755  0.650300  1
  Na  Na2  1  0.987522  0.716041  0.475080  1
  Na  Na3  1  0.410079  0.277302  0.964772  1
  Na  Na4  1  0.512478  0.216041  0.524920  1
  Na  Na5  1  0.361320  0.507245  0.650300  1
  Na  Na6  1  0.638680  0.492755  0.349700  1
  Na  Na7  1  0.487522  0.783959  0.475080  1
  Na  Na8  1  0.589921  0.722698  0.035228  1
  Na  Na9  1  0.012478  0.283959  0.524920  1
  Na  Na10  1  0.138680  0.007245  0.349700  1
  Na  Na11  1  0.089921  0.777302  0.035228  1
  V  V12  1  0.827170  0.505506  0.828528  1
  V  V13  1  0.327170  0.994494  0.828528  1
  V  V14  1  0.672830  0.005506  0.171472  1
  V  V15  1  0.172830  0.494494  0.171472  1
  O  O16  1  0.618973  0.069152  0.875642  1
  O  O17  1  0.697557  0.640394  0.682470  1
  O  O18  1  0.671946  0.368146  0.727140  1
  O  O19  1  0.828054  0.868146  0.272860  1
  O  O20  1  0.802443  0.140394  0.317530  1
  O  O21  1  0.881027  0.569152  0.124358  1
  O  O22  1  0.118973  0.430848  0.875642  1
  O  O23  1  0.197557  0.859606  0.682470  1
  O  O24  1  0.171946  0.131854  0.727140  1
  O  O25  1  0.328054  0.631854  0.272860  1
  O  O26  1  0.302443  0.359606  0.317530  1
  O  O27  1  0.381027  0.930848  0.124358  1
