# generated using pymatgen
data_Na5Bi2P(CO4)4
_symmetry_space_group_name_H-M   'P 1'
_cell_length_a   10.45678589
_cell_length_b   10.42886712
_cell_length_c   10.31305607
_cell_angle_alpha   60.54519818
_cell_angle_beta   60.27544078
_cell_angle_gamma   59.17936105
_symmetry_Int_Tables_number   1
_chemical_formula_structural   Na5Bi2P(CO4)4
_chemical_formula_sum   'Na10 Bi4 P2 C8 O32'
_cell_volume   795.00567261
_cell_formula_units_Z   2
loop_
 _symmetry_equiv_pos_site_id
 _symmetry_equiv_pos_as_xyz
  1  'x, y, z'
loop_
 _atom_site_type_symbol
 _atom_site_label
 _atom_site_symmetry_multiplicity
 _atom_site_fract_x
 _atom_site_fract_y
 _atom_site_fract_z
 _atom_site_occupancy
  Na  Na0  1  0.819238  0.424870  0.564890  1
  Na  Na1  1  0.685765  0.060860  0.824686  1
  Na  Na2  1  0.058997  0.685110  0.825130  1
  Na  Na3  1  0.060860  0.685765  0.428689  1
  Na  Na4  1  0.821311  0.425314  0.189140  1
  Na  Na5  1  0.424870  0.819238  0.191003  1
  Na  Na6  1  0.425314  0.821311  0.564235  1
  Na  Na7  1  0.682093  0.682093  0.817907  1
  Na  Na8  1  0.685110  0.058997  0.430762  1
  Na  Na9  1  0.432093  0.432093  0.567907  1
  Bi  Bi10  1  0.753647  0.241318  0.003632  1
  Bi  Bi11  1  0.246368  0.248597  0.496353  1
  Bi  Bi12  1  0.241318  0.753647  0.001403  1
  Bi  Bi13  1  0.248597  0.246368  0.008682  1
  P  P14  1  0.871679  0.871679  0.628321  1
  P  P15  1  0.621679  0.621679  0.378321  1
  C  C16  1  0.477767  0.084189  0.217448  1
  C  C17  1  0.084189  0.477767  0.220596  1
  C  C18  1  0.472271  0.470393  0.834115  1
  C  C19  1  0.470393  0.472271  0.223221  1
  C  C20  1  0.032552  0.029404  0.772233  1
  C  C21  1  0.029404  0.032552  0.165811  1
  C  C22  1  0.026779  0.415885  0.779607  1
  C  C23  1  0.415885  0.026779  0.777729  1
  O  O24  1  0.901629  0.150429  0.778922  1
  O  O25  1  0.361726  0.074661  0.211821  1
  O  O26  1  0.074661  0.361726  0.351792  1
  O  O27  1  0.037463  0.417171  0.646893  1
  O  O28  1  0.080979  0.471078  0.099571  1
  O  O29  1  0.810047  0.808779  0.567114  1
  O  O30  1  0.808779  0.810047  0.814060  1
  O  O31  1  0.598745  0.098430  0.091089  1
  O  O32  1  0.098430  0.598745  0.211736  1
  O  O33  1  0.352739  0.462065  0.353414  1
  O  O34  1  0.462065  0.352739  0.831781  1
  O  O35  1  0.801130  0.054321  0.572076  1
  O  O36  1  0.054321  0.801130  0.572473  1
  O  O37  1  0.038179  0.898208  0.888274  1
  O  O38  1  0.898208  0.038179  0.175339  1
  O  O39  1  0.351527  0.603107  0.832829  1
  O  O40  1  0.150429  0.901629  0.169021  1
  O  O41  1  0.458466  0.601337  0.104029  1
  O  O42  1  0.601337  0.458466  0.836168  1
  O  O43  1  0.435940  0.682886  0.441221  1
  O  O44  1  0.682886  0.435940  0.439953  1
  O  O45  1  0.038264  0.158911  0.151570  1
  O  O46  1  0.158911  0.038264  0.651255  1
  O  O47  1  0.896586  0.418219  0.897261  1
  O  O48  1  0.418219  0.896586  0.787935  1
  O  O49  1  0.677527  0.677924  0.195679  1
  O  O50  1  0.677924  0.677527  0.448870  1
  O  O51  1  0.417171  0.037463  0.898473  1
  O  O52  1  0.471078  0.080979  0.348371  1
  O  O53  1  0.413832  0.145971  0.648663  1
  O  O54  1  0.145971  0.413832  0.791534  1
  O  O55  1  0.603107  0.351527  0.212537  1
