# generated using pymatgen
data_Li4MnSi2O7
_symmetry_space_group_name_H-M   'P 1'
_cell_length_a   7.26531273
_cell_length_b   7.26531273
_cell_length_c   8.13421590
_cell_angle_alpha   85.11068565
_cell_angle_beta   94.88931435
_cell_angle_gamma   135.72020248
_symmetry_Int_Tables_number   1
_chemical_formula_structural   Li4MnSi2O7
_chemical_formula_sum   'Li8 Mn2 Si4 O14'
_cell_volume   298.49337060
_cell_formula_units_Z   2
loop_
 _symmetry_equiv_pos_site_id
 _symmetry_equiv_pos_as_xyz
  1  'x, y, z'
loop_
 _atom_site_type_symbol
 _atom_site_label
 _atom_site_symmetry_multiplicity
 _atom_site_fract_x
 _atom_site_fract_y
 _atom_site_fract_z
 _atom_site_occupancy
  Li  Li0  1  0.420485  0.263701  0.874640  1
  Li  Li1  1  0.736299  0.579515  0.374640  1
  Li  Li2  1  0.528583  0.116092  0.594192  1
  Li  Li3  1  0.883908  0.471417  0.094192  1
  Li  Li4  1  0.421904  0.869609  0.947000  1
  Li  Li5  1  0.130391  0.578096  0.447000  1
  Li  Li6  1  0.812767  0.803847  0.020312  1
  Li  Li7  1  0.196153  0.187233  0.520312  1
  Mn  Mn8  1  0.011547  0.309632  0.799227  1
  Mn  Mn9  1  0.690368  0.988453  0.299227  1
  Si  Si10  1  0.965056  0.695594  0.737043  1
  Si  Si11  1  0.304406  0.034944  0.237043  1
  Si  Si12  1  0.591277  0.738800  0.671098  1
  Si  Si13  1  0.261200  0.408723  0.171098  1
  O  O14  1  0.842237  0.789939  0.604532  1
  O  O15  1  0.210061  0.157763  0.104532  1
  O  O16  1  0.795322  0.572731  0.902981  1
  O  O17  1  0.427269  0.204678  0.402981  1
  O  O18  1  0.278511  0.952201  0.771405  1
  O  O19  1  0.047799  0.721489  0.271405  1
  O  O20  1  0.909134  0.467302  0.639832  1
  O  O21  1  0.532698  0.090866  0.139832  1
  O  O22  1  0.520281  0.851535  0.524849  1
  O  O23  1  0.148465  0.479719  0.024849  1
  O  O24  1  0.694854  0.908718  0.838101  1
  O  O25  1  0.091282  0.305146  0.338101  1
  O  O26  1  0.337569  0.420801  0.704468  1
  O  O27  1  0.579199  0.662431  0.204468  1
