# generated using pymatgen
data_KCoO2
_symmetry_space_group_name_H-M   'P 1'
_cell_length_a   6.49913954
_cell_length_b   6.49913954
_cell_length_c   7.88190764
_cell_angle_alpha   56.31901318
_cell_angle_beta   123.68098682
_cell_angle_gamma   151.11088977
_symmetry_Int_Tables_number   1
_chemical_formula_structural   KCoO2
_chemical_formula_sum   'K2 Co2 O4'
_cell_volume   131.85441851
_cell_formula_units_Z   2
loop_
 _symmetry_equiv_pos_site_id
 _symmetry_equiv_pos_as_xyz
  1  'x, y, z'
loop_
 _atom_site_type_symbol
 _atom_site_label
 _atom_site_symmetry_multiplicity
 _atom_site_fract_x
 _atom_site_fract_y
 _atom_site_fract_z
 _atom_site_occupancy
  K  K0  1  0.821449  0.178551  0.300519  1
  K  K1  1  0.178551  0.821449  0.699481  1
  Co  Co2  1  0.967895  0.032105  0.808906  1
  Co  Co3  1  0.032105  0.967895  0.191094  1
  O  O4  1  0.872531  0.127469  0.927502  1
  O  O5  1  0.553207  0.446793  0.329665  1
  O  O6  1  0.446793  0.553207  0.670335  1
  O  O7  1  0.127469  0.872531  0.072498  1
