# generated using pymatgen
data_Fe4OF7
_symmetry_space_group_name_H-M   'P 1'
_cell_length_a   6.50481743
_cell_length_b   4.80746739
_cell_length_c   9.61058619
_cell_angle_alpha   90.00000000
_cell_angle_beta   90.20687160
_cell_angle_gamma   90.00000000
_symmetry_Int_Tables_number   1
_chemical_formula_structural   Fe4OF7
_chemical_formula_sum   'Fe8 O2 F14'
_cell_volume   300.53738699
_cell_formula_units_Z   2
loop_
 _symmetry_equiv_pos_site_id
 _symmetry_equiv_pos_as_xyz
  1  'x, y, z'
loop_
 _atom_site_type_symbol
 _atom_site_label
 _atom_site_symmetry_multiplicity
 _atom_site_fract_x
 _atom_site_fract_y
 _atom_site_fract_z
 _atom_site_occupancy
  Fe  Fe0  1  0.394035  0.985562  0.365470  1
  Fe  Fe1  1  0.869541  0.986052  0.371477  1
  Fe  Fe2  1  0.376351  0.017256  0.867400  1
  Fe  Fe3  1  0.873001  0.001092  0.878432  1
  Fe  Fe4  1  0.605965  0.485562  0.634530  1
  Fe  Fe5  1  0.130459  0.486052  0.628523  1
  Fe  Fe6  1  0.623649  0.517256  0.132600  1
  Fe  Fe7  1  0.126999  0.501092  0.121568  1
  O  O8  1  0.611695  0.808395  0.282181  1
  O  O9  1  0.388305  0.308395  0.717819  1
  F  F10  1  0.630600  0.796839  0.770974  1
  F  F11  1  0.117501  0.802649  0.772160  1
  F  F12  1  0.142398  0.799705  0.277358  1
  F  F13  1  0.386343  0.714946  0.526542  1
  F  F14  1  0.860210  0.684550  0.532377  1
  F  F15  1  0.371717  0.705431  0.018367  1
  F  F16  1  0.876652  0.697522  0.023941  1
  F  F17  1  0.857602  0.299705  0.722642  1
  F  F18  1  0.369400  0.296839  0.229026  1
  F  F19  1  0.882499  0.302649  0.227840  1
  F  F20  1  0.123348  0.197522  0.976059  1
  F  F21  1  0.613657  0.214946  0.473458  1
  F  F22  1  0.139790  0.184550  0.467623  1
  F  F23  1  0.628283  0.205431  0.981633  1
