# generated using pymatgen
data_Mg(CoO2)2
_symmetry_space_group_name_H-M   'P 1'
_cell_length_a   4.86922796
_cell_length_b   5.61676534
_cell_length_c   10.02387833
_cell_angle_alpha   90.00000000
_cell_angle_beta   90.00000000
_cell_angle_gamma   90.00000000
_symmetry_Int_Tables_number   1
_chemical_formula_structural   Mg(CoO2)2
_chemical_formula_sum   'Mg4 Co8 O16'
_cell_volume   274.14616404
_cell_formula_units_Z   4
loop_
 _symmetry_equiv_pos_site_id
 _symmetry_equiv_pos_as_xyz
  1  'x, y, z'
loop_
 _atom_site_type_symbol
 _atom_site_label
 _atom_site_symmetry_multiplicity
 _atom_site_fract_x
 _atom_site_fract_y
 _atom_site_fract_z
 _atom_site_occupancy
  Mg  Mg0  1  0.354813  0.000000  0.500000  1
  Mg  Mg1  1  0.645187  0.500000  0.000000  1
  Mg  Mg2  1  0.030139  0.000000  0.000000  1
  Mg  Mg3  1  0.969861  0.500000  0.500000  1
  Co  Co4  1  0.008400  0.500000  0.240841  1
  Co  Co5  1  0.008400  0.500000  0.759159  1
  Co  Co6  1  0.991600  0.000000  0.259159  1
  Co  Co7  1  0.991600  0.000000  0.740841  1
  Co  Co8  1  0.500000  0.250000  0.250000  1
  Co  Co9  1  0.500000  0.750000  0.750000  1
  Co  Co10  1  0.500000  0.750000  0.250000  1
  Co  Co11  1  0.500000  0.250000  0.750000  1
  O  O12  1  0.349254  0.500000  0.145490  1
  O  O13  1  0.349254  0.500000  0.854510  1
  O  O14  1  0.650746  0.000000  0.354510  1
  O  O15  1  0.650746  0.000000  0.645490  1
  O  O16  1  0.684085  0.500000  0.346551  1
  O  O17  1  0.684085  0.500000  0.653449  1
  O  O18  1  0.315915  0.000000  0.153449  1
  O  O19  1  0.315915  0.000000  0.846551  1
  O  O20  1  0.166014  0.251607  0.358042  1
  O  O21  1  0.166014  0.748393  0.641958  1
  O  O22  1  0.833986  0.751607  0.141958  1
  O  O23  1  0.833986  0.248393  0.858042  1
  O  O24  1  0.833986  0.248393  0.141958  1
  O  O25  1  0.833986  0.751607  0.858042  1
  O  O26  1  0.166014  0.748393  0.358042  1
  O  O27  1  0.166014  0.251607  0.641958  1
