# generated using pymatgen
data_Dy2Ge2O7
_symmetry_space_group_name_H-M   'P 1'
_cell_length_a   6.81969293
_cell_length_b   6.84493374
_cell_length_c   12.42329238
_cell_angle_alpha   94.82047254
_cell_angle_beta   91.96564608
_cell_angle_gamma   91.85950538
_symmetry_Int_Tables_number   1
_chemical_formula_structural   Dy2Ge2O7
_chemical_formula_sum   'Dy8 Ge8 O28'
_cell_volume   577.16873333
_cell_formula_units_Z   4
loop_
 _symmetry_equiv_pos_site_id
 _symmetry_equiv_pos_as_xyz
  1  'x, y, z'
loop_
 _atom_site_type_symbol
 _atom_site_label
 _atom_site_symmetry_multiplicity
 _atom_site_fract_x
 _atom_site_fract_y
 _atom_site_fract_z
 _atom_site_occupancy
  Dy  Dy0  1  0.049241  0.332677  0.112356  1
  Dy  Dy1  1  0.111615  0.091192  0.357380  1
  Dy  Dy2  1  0.313841  0.833806  0.116502  1
  Dy  Dy3  1  0.375040  0.210621  0.631534  1
  Dy  Dy4  1  0.624960  0.789379  0.368466  1
  Dy  Dy5  1  0.686159  0.166194  0.883498  1
  Dy  Dy6  1  0.888385  0.908808  0.642620  1
  Dy  Dy7  1  0.950759  0.667323  0.887644  1
  Ge  Ge8  1  0.139021  0.622287  0.376882  1
  Ge  Ge9  1  0.166735  0.142844  0.885052  1
  Ge  Ge10  1  0.388590  0.723776  0.599787  1
  Ge  Ge11  1  0.514956  0.338118  0.166689  1
  Ge  Ge12  1  0.485044  0.661882  0.833311  1
  Ge  Ge13  1  0.611410  0.276224  0.400213  1
  Ge  Ge14  1  0.833265  0.857156  0.114948  1
  Ge  Ge15  1  0.860979  0.377713  0.623118  1
  O  O16  1  0.001902  0.665173  0.080902  1
  O  O17  1  0.989740  0.977103  0.815809  1
  O  O18  1  0.045844  0.217989  0.575953  1
  O  O19  1  0.065176  0.402615  0.302425  1
  O  O20  1  0.244026  0.094985  0.016048  1
  O  O21  1  0.223912  0.909999  0.626879  1
  O  O22  1  0.286391  0.794820  0.310465  1
  O  O23  1  0.298541  0.558582  0.485899  1
  O  O24  1  0.287634  0.714339  0.916184  1
  O  O25  1  0.367534  0.208287  0.811835  1
  O  O26  1  0.342136  0.496425  0.118093  1
  O  O27  1  0.392855  0.137394  0.221234  1
  O  O28  1  0.403081  0.157099  0.449606  1
  O  O29  1  0.396358  0.543896  0.696743  1
  O  O30  1  0.603642  0.456104  0.303257  1
  O  O31  1  0.596919  0.842901  0.550394  1
  O  O32  1  0.607145  0.862606  0.778766  1
  O  O33  1  0.657864  0.503575  0.881907  1
  O  O34  1  0.632466  0.791713  0.188165  1
  O  O35  1  0.712366  0.285661  0.083816  1
  O  O36  1  0.701459  0.441418  0.514101  1
  O  O37  1  0.713609  0.205180  0.689535  1
  O  O38  1  0.776088  0.090001  0.373121  1
  O  O39  1  0.755974  0.905015  0.983952  1
  O  O40  1  0.934824  0.597385  0.697575  1
  O  O41  1  0.954156  0.782011  0.424047  1
  O  O42  1  0.010260  0.022897  0.184191  1
  O  O43  1  0.998098  0.334827  0.919098  1
