# generated using pymatgen
data_V2OF5
_symmetry_space_group_name_H-M   'P 1'
_cell_length_a   5.26460783
_cell_length_b   5.43438079
_cell_length_c   12.95216476
_cell_angle_alpha   91.18251734
_cell_angle_beta   90.73763798
_cell_angle_gamma   118.88845046
_symmetry_Int_Tables_number   1
_chemical_formula_structural   V2OF5
_chemical_formula_sum   'V6 O3 F15'
_cell_volume   324.26859474
_cell_formula_units_Z   3
loop_
 _symmetry_equiv_pos_site_id
 _symmetry_equiv_pos_as_xyz
  1  'x, y, z'
loop_
 _atom_site_type_symbol
 _atom_site_label
 _atom_site_symmetry_multiplicity
 _atom_site_fract_x
 _atom_site_fract_y
 _atom_site_fract_z
 _atom_site_occupancy
  V  V0  1  0.663579  0.333047  0.330530  1
  V  V1  1  0.686128  0.361839  0.838743  1
  V  V2  1  0.349415  0.645522  0.169545  1
  V  V3  1  0.325842  0.686790  0.659364  1
  V  V4  1  0.003320  0.999654  0.501876  1
  V  V5  1  0.999687  0.988290  0.999081  1
  O  O6  1  0.899429  0.652354  0.911983  1
  O  O7  1  0.515185  0.473859  0.219979  1
  O  O8  1  0.202072  0.811230  0.564038  1
  F  F9  1  0.869573  0.139244  0.883758  1
  F  F10  1  0.936037  0.465173  0.718644  1
  F  F11  1  0.803306  0.201004  0.447226  1
  F  F12  1  0.733874  0.664840  0.419464  1
  F  F13  1  0.731717  0.872572  0.617607  1
  F  F14  1  0.397080  0.190871  0.947637  1
  F  F15  1  0.598455  0.798361  0.050576  1
  F  F16  1  0.460092  0.524786  0.774833  1
  F  F17  1  0.267128  0.124608  0.384101  1
  F  F18  1  0.598737  0.998983  0.246334  1
  F  F19  1  0.267136  0.345498  0.581559  1
  F  F20  1  0.417724  0.004936  0.756409  1
  F  F21  1  0.072194  0.330057  0.081870  1
  F  F22  1  0.062689  0.537234  0.280099  1
  F  F23  1  0.139603  0.849246  0.114741  1
