# generated using pymatgen
data_Li8Mn7Fe(BO3)8
_symmetry_space_group_name_H-M   'P 1'
_cell_length_a   5.28298252
_cell_length_b   6.06050715
_cell_length_c   17.71057316
_cell_angle_alpha   83.21340924
_cell_angle_beta   81.44886873
_cell_angle_gamma   66.57576182
_symmetry_Int_Tables_number   1
_chemical_formula_structural   Li8Mn7Fe(BO3)8
_chemical_formula_sum   'Li8 Mn7 Fe1 B8 O24'
_cell_volume   513.44156586
_cell_formula_units_Z   1
loop_
 _symmetry_equiv_pos_site_id
 _symmetry_equiv_pos_as_xyz
  1  'x, y, z'
loop_
 _atom_site_type_symbol
 _atom_site_label
 _atom_site_symmetry_multiplicity
 _atom_site_fract_x
 _atom_site_fract_y
 _atom_site_fract_z
 _atom_site_occupancy
  Li  Li0  1  0.097473  0.905241  0.767017  1
  Li  Li1  1  0.902762  0.594664  0.732891  1
  Li  Li2  1  0.402457  0.844902  0.482698  1
  Li  Li3  1  0.596731  0.656582  0.017467  1
  Li  Li4  1  0.403726  0.344194  0.983589  1
  Li  Li5  1  0.597281  0.155410  0.516933  1
  Li  Li6  1  0.099504  0.403325  0.266309  1
  Li  Li7  1  0.903837  0.094794  0.233014  1
  Mn  Mn8  1  0.547004  0.911992  0.853036  1
  Mn  Mn9  1  0.953341  0.837325  0.396919  1
  Mn  Mn10  1  0.953762  0.338141  0.896671  1
  Mn  Mn11  1  0.453469  0.587942  0.646758  1
  Mn  Mn12  1  0.547013  0.412343  0.352949  1
  Mn  Mn13  1  0.043165  0.667008  0.104316  1
  Mn  Mn14  1  0.046859  0.161716  0.603115  1
  Fe  Fe15  1  0.448597  0.090776  0.145401  1
  B  B16  1  0.940445  0.696134  0.566353  1
  B  B17  1  0.442621  0.946119  0.315421  1
  B  B18  1  0.059390  0.803142  0.933935  1
  B  B19  1  0.440736  0.446144  0.816336  1
  B  B20  1  0.558060  0.555351  0.183602  1
  B  B21  1  0.939153  0.194313  0.067206  1
  B  B22  1  0.559541  0.053733  0.683677  1
  B  B23  1  0.059464  0.303673  0.433642  1
  O  O24  1  0.729556  0.961182  0.741551  1
  O  O25  1  0.831150  0.743612  0.932756  1
  O  O26  1  0.331690  0.993385  0.682848  1
  O  O27  1  0.123070  0.951692  0.873764  1
  O  O28  1  0.770356  0.788751  0.508514  1
  O  O29  1  0.227827  0.709942  0.992112  1
  O  O30  1  0.877820  0.547412  0.626653  1
  O  O31  1  0.376380  0.799480  0.375904  1
  O  O32  1  0.668686  0.506451  0.817201  1
  O  O33  1  0.168362  0.756522  0.567180  1
  O  O34  1  0.621078  0.704882  0.123702  1
  O  O35  1  0.270538  0.538555  0.758544  1
  O  O36  1  0.729160  0.461262  0.241244  1
  O  O37  1  0.377984  0.297754  0.876796  1
  O  O38  1  0.831169  0.244053  0.432775  1
  O  O39  1  0.330764  0.494732  0.182509  1
  O  O40  1  0.622281  0.202421  0.623393  1
  O  O41  1  0.122992  0.451709  0.373237  1
  O  O42  1  0.773574  0.289931  0.008657  1
  O  O43  1  0.229300  0.211273  0.491558  1
  O  O44  1  0.867523  0.051008  0.127525  1
  O  O45  1  0.670385  0.006101  0.317184  1
  O  O46  1  0.174632  0.245561  0.068569  1
  O  O47  1  0.277332  0.037367  0.256570  1
