# generated using pymatgen
data_LiCoO2
_symmetry_space_group_name_H-M   'P 1'
_cell_length_a   2.93854969
_cell_length_b   2.93854969
_cell_length_c   9.85992540
_cell_angle_alpha   90.00000000
_cell_angle_beta   90.00000000
_cell_angle_gamma   120.00000000
_symmetry_Int_Tables_number   1
_chemical_formula_structural   LiCoO2
_chemical_formula_sum   'Li2 Co2 O4'
_cell_volume   73.73443173
_cell_formula_units_Z   2
loop_
 _symmetry_equiv_pos_site_id
 _symmetry_equiv_pos_as_xyz
  1  'x, y, z'
loop_
 _atom_site_type_symbol
 _atom_site_label
 _atom_site_symmetry_multiplicity
 _atom_site_fract_x
 _atom_site_fract_y
 _atom_site_fract_z
 _atom_site_occupancy
  Li  Li0  1  0.666667  0.333333  0.741792  1
  Li  Li1  1  0.333333  0.666667  0.241792  1
  Co  Co2  1  0.666667  0.333333  0.999487  1
  Co  Co3  1  0.333333  0.666667  0.499487  1
  O  O4  1  0.000000  0.000000  0.113233  1
  O  O5  1  0.000000  0.000000  0.613233  1
  O  O6  1  0.666667  0.333333  0.386557  1
  O  O7  1  0.333333  0.666667  0.886557  1
