# generated using pymatgen
data_Li5Ti4Co3O16
_symmetry_space_group_name_H-M   'P 1'
_cell_length_a   8.31615334
_cell_length_b   8.42403918
_cell_length_c   8.43526558
_cell_angle_alpha   90.44151588
_cell_angle_beta   90.24814441
_cell_angle_gamma   90.03426587
_symmetry_Int_Tables_number   1
_chemical_formula_structural   Li5Ti4Co3O16
_chemical_formula_sum   'Li10 Ti8 Co6 O32'
_cell_volume   590.91439948
_cell_formula_units_Z   2
loop_
 _symmetry_equiv_pos_site_id
 _symmetry_equiv_pos_as_xyz
  1  'x, y, z'
loop_
 _atom_site_type_symbol
 _atom_site_label
 _atom_site_symmetry_multiplicity
 _atom_site_fract_x
 _atom_site_fract_y
 _atom_site_fract_z
 _atom_site_occupancy
  Li  Li0  1  0.884868  0.121813  0.382130  1
  Li  Li1  1  0.755924  0.249463  0.750722  1
  Li  Li2  1  0.753887  0.749694  0.256900  1
  Li  Li3  1  0.623705  0.874446  0.873711  1
  Li  Li4  1  0.359825  0.377608  0.619389  1
  Li  Li5  1  0.360834  0.620420  0.379751  1
  Li  Li6  1  0.128858  0.378410  0.866658  1
  Li  Li7  1  0.127940  0.623792  0.133840  1
  Li  Li8  1  0.119096  0.137942  0.616738  1
  Li  Li9  1  0.119957  0.871451  0.372824  1
  Ti  Ti10  1  0.889256  0.384285  0.123586  1
  Ti  Ti11  1  0.877343  0.620048  0.881588  1
  Ti  Ti12  1  0.876908  0.896708  0.604190  1
  Ti  Ti13  1  0.633000  0.111392  0.120181  1
  Ti  Ti14  1  0.618804  0.376939  0.387485  1
  Ti  Ti15  1  0.611757  0.624086  0.621015  1
  Ti  Ti16  1  0.379559  0.130986  0.857986  1
  Ti  Ti17  1  0.374853  0.861620  0.134993  1
  Co  Co18  1  0.998165  0.500245  0.500289  1
  Co  Co19  1  0.496466  0.496225  0.997978  1
  Co  Co20  1  0.501723  0.997000  0.495511  1
  Co  Co21  1  0.253084  0.249222  0.249225  1
  Co  Co22  1  0.244719  0.753981  0.754762  1
  Co  Co23  1  0.006387  0.998039  0.996509  1
  O  O24  1  0.883174  0.395220  0.895593  1
  O  O25  1  0.883999  0.881888  0.393926  1
  O  O26  1  0.881025  0.106646  0.623181  1
  O  O27  1  0.879610  0.608914  0.108479  1
  O  O28  1  0.880702  0.865008  0.877187  1
  O  O29  1  0.860157  0.376341  0.360463  1
  O  O30  1  0.865469  0.133010  0.114622  1
  O  O31  1  0.861189  0.631372  0.640297  1
  O  O32  1  0.636223  0.363603  0.134013  1
  O  O33  1  0.633966  0.862531  0.621705  1
  O  O34  1  0.638203  0.621856  0.863772  1
  O  O35  1  0.619713  0.135486  0.359565  1
  O  O36  1  0.619448  0.391695  0.608041  1
  O  O37  1  0.606923  0.892720  0.122342  1
  O  O38  1  0.604445  0.119805  0.896037  1
  O  O39  1  0.615847  0.605061  0.395903  1
  O  O40  1  0.383095  0.116083  0.116648  1
  O  O41  1  0.385726  0.634642  0.636882  1
  O  O42  1  0.387677  0.371295  0.367267  1
  O  O43  1  0.368600  0.886214  0.886443  1
  O  O44  1  0.381649  0.640417  0.119279  1
  O  O45  1  0.380865  0.117939  0.640664  1
  O  O46  1  0.377278  0.357598  0.878338  1
  O  O47  1  0.374548  0.878008  0.355931  1
  O  O48  1  0.135951  0.121064  0.882347  1
  O  O49  1  0.118235  0.618570  0.380238  1
  O  O50  1  0.135740  0.881090  0.121118  1
  O  O51  1  0.117223  0.380134  0.620505  1
  O  O52  1  0.136804  0.131673  0.369984  1
  O  O53  1  0.115289  0.629035  0.869619  1
  O  O54  1  0.114381  0.371024  0.131305  1
  O  O55  1  0.119931  0.868204  0.630382  1
