# generated using pymatgen
data_Li4Cr3GaO8
_symmetry_space_group_name_H-M   'P 1'
_cell_length_a   5.14049412
_cell_length_b   5.92846109
_cell_length_c   10.68779064
_cell_angle_alpha   73.90526948
_cell_angle_beta   76.11000105
_cell_angle_gamma   73.23145855
_symmetry_Int_Tables_number   1
_chemical_formula_structural   Li4Cr3GaO8
_chemical_formula_sum   'Li8 Cr6 Ga2 O16'
_cell_volume   295.06810804
_cell_formula_units_Z   2
loop_
 _symmetry_equiv_pos_site_id
 _symmetry_equiv_pos_as_xyz
  1  'x, y, z'
loop_
 _atom_site_type_symbol
 _atom_site_label
 _atom_site_symmetry_multiplicity
 _atom_site_fract_x
 _atom_site_fract_y
 _atom_site_fract_z
 _atom_site_occupancy
  Li  Li0  1  0.000000  0.000000  0.500000  1
  Li  Li1  1  0.999988  0.624803  0.750141  1
  Li  Li2  1  0.000012  0.375197  0.249859  1
  Li  Li3  1  0.999973  0.750098  0.999890  1
  Li  Li4  1  0.000000  0.500000  0.500000  1
  Li  Li5  1  0.999493  0.125259  0.749945  1
  Li  Li6  1  0.000507  0.874741  0.250055  1
  Li  Li7  1  0.000027  0.249902  0.000110  1
  Cr  Cr8  1  0.500004  0.562311  0.125100  1
  Cr  Cr9  1  0.500195  0.312412  0.624827  1
  Cr  Cr10  1  0.499995  0.937478  0.874820  1
  Cr  Cr11  1  0.499805  0.687588  0.375173  1
  Cr  Cr12  1  0.500005  0.062522  0.125180  1
  Cr  Cr13  1  0.499996  0.437689  0.874900  1
  Ga  Ga14  1  0.499965  0.812709  0.624889  1
  Ga  Ga15  1  0.500035  0.187291  0.375111  1
  O  O16  1  0.275278  0.400948  0.060400  1
  O  O17  1  0.725958  0.223713  0.189616  1
  O  O18  1  0.273762  0.150657  0.560363  1
  O  O19  1  0.725640  0.973637  0.689358  1
  O  O20  1  0.724722  0.599052  0.939600  1
  O  O21  1  0.274042  0.776287  0.810384  1
  O  O22  1  0.274646  0.525944  0.310529  1
  O  O23  1  0.725405  0.348959  0.439386  1
  O  O24  1  0.275580  0.901072  0.060220  1
  O  O25  1  0.724351  0.723869  0.189767  1
  O  O26  1  0.274595  0.651041  0.560614  1
  O  O27  1  0.725354  0.474056  0.689471  1
  O  O28  1  0.275649  0.276131  0.810233  1
  O  O29  1  0.274360  0.026363  0.310642  1
  O  O30  1  0.724420  0.098928  0.939780  1
  O  O31  1  0.726238  0.849343  0.439637  1
