# generated using pymatgen
data_K3ZnPCO7
_symmetry_space_group_name_H-M   'P 1'
_cell_length_a   5.60628431
_cell_length_b   7.01203265
_cell_length_c   9.68220346
_cell_angle_alpha   90.00000000
_cell_angle_beta   90.63351952
_cell_angle_gamma   90.00000000
_symmetry_Int_Tables_number   1
_chemical_formula_structural   K3ZnPCO7
_chemical_formula_sum   'K6 Zn2 P2 C2 O14'
_cell_volume   380.59817721
_cell_formula_units_Z   2
loop_
 _symmetry_equiv_pos_site_id
 _symmetry_equiv_pos_as_xyz
  1  'x, y, z'
loop_
 _atom_site_type_symbol
 _atom_site_label
 _atom_site_symmetry_multiplicity
 _atom_site_fract_x
 _atom_site_fract_y
 _atom_site_fract_z
 _atom_site_occupancy
  K  K0  1  0.762467  0.250000  0.077896  1
  K  K1  1  0.258636  0.011101  0.272091  1
  K  K2  1  0.258636  0.488899  0.272091  1
  K  K3  1  0.741364  0.511101  0.727909  1
  K  K4  1  0.741364  0.988899  0.727909  1
  K  K5  1  0.237533  0.750000  0.922104  1
  Zn  Zn6  1  0.773988  0.750000  0.364785  1
  Zn  Zn7  1  0.226012  0.250000  0.635215  1
  P  P8  1  0.718586  0.250000  0.425868  1
  P  P9  1  0.281414  0.750000  0.574132  1
  C  C10  1  0.740590  0.750000  0.087242  1
  C  C11  1  0.259410  0.250000  0.912758  1
  O  O12  1  0.263763  0.250000  0.046764  1
  O  O13  1  0.942318  0.750000  0.155962  1
  O  O14  1  0.543590  0.750000  0.157936  1
  O  O15  1  0.759407  0.070081  0.333954  1
  O  O16  1  0.759407  0.429919  0.333954  1
  O  O17  1  0.452732  0.250000  0.475641  1
  O  O18  1  0.112332  0.750000  0.445949  1
  O  O19  1  0.887668  0.250000  0.554051  1
  O  O20  1  0.547268  0.750000  0.524359  1
  O  O21  1  0.240593  0.570081  0.666046  1
  O  O22  1  0.240593  0.929919  0.666046  1
  O  O23  1  0.456410  0.250000  0.842064  1
  O  O24  1  0.057682  0.250000  0.844038  1
  O  O25  1  0.736237  0.750000  0.953236  1
