# generated using pymatgen
data_LiP3(WO6)2
_symmetry_space_group_name_H-M   'P 1'
_cell_length_a   8.85683554
_cell_length_b   8.85683554
_cell_length_c   8.91294964
_cell_angle_alpha   60.37371081
_cell_angle_beta   119.62628919
_cell_angle_gamma   119.62874065
_symmetry_Int_Tables_number   1
_chemical_formula_structural   LiP3(WO6)2
_chemical_formula_sum   'Li2 P6 W4 O24'
_cell_volume   498.55288604
_cell_formula_units_Z   2
loop_
 _symmetry_equiv_pos_site_id
 _symmetry_equiv_pos_as_xyz
  1  'x, y, z'
loop_
 _atom_site_type_symbol
 _atom_site_label
 _atom_site_symmetry_multiplicity
 _atom_site_fract_x
 _atom_site_fract_y
 _atom_site_fract_z
 _atom_site_occupancy
  Li  Li0  1  0.603147  0.072588  0.757557  1
  Li  Li1  1  0.072588  0.603147  0.242443  1
  P  P2  1  0.540160  0.251374  0.998676  1
  P  P3  1  0.752874  0.460703  0.500761  1
  P  P4  1  0.037845  0.037845  0.500000  1
  P  P5  1  0.960248  0.960248  0.000000  1
  P  P6  1  0.251374  0.540160  0.001324  1
  P  P7  1  0.460703  0.752874  0.499239  1
  W  W8  1  0.857987  0.640163  0.824800  1
  W  W9  1  0.640163  0.857987  0.175200  1
  W  W10  1  0.357708  0.140948  0.325534  1
  W  W11  1  0.140948  0.357708  0.674466  1
  O  O12  1  0.875884  0.004845  0.326544  1
  O  O13  1  0.486676  0.797693  0.323319  1
  O  O14  1  0.720654  0.417127  0.995302  1
  O  O15  1  0.377857  0.296554  0.825445  1
  O  O16  1  0.060786  0.220722  0.503969  1
  O  O17  1  0.702361  0.619151  0.327306  1
  O  O18  1  0.797693  0.486676  0.676681  1
  O  O19  1  0.564851  0.090820  0.995835  1
  O  O20  1  0.594607  0.272851  0.506493  1
  O  O21  1  0.920278  0.447723  0.497299  1
  O  O22  1  0.004845  0.875884  0.673456  1
  O  O23  1  0.220722  0.060786  0.496031  1
  O  O24  1  0.773514  0.944464  0.991538  1
  O  O25  1  0.990004  0.115973  0.824570  1
  O  O26  1  0.090820  0.564851  0.004165  1
  O  O27  1  0.417127  0.720654  0.004698  1
  O  O28  1  0.447723  0.920278  0.502701  1
  O  O29  1  0.296554  0.377857  0.174555  1
  O  O30  1  0.204671  0.507486  0.827058  1
  O  O31  1  0.944464  0.773514  0.008462  1
  O  O32  1  0.619151  0.702361  0.672694  1
  O  O33  1  0.272851  0.594607  0.493507  1
  O  O34  1  0.507486  0.204671  0.172942  1
  O  O35  1  0.115973  0.990004  0.175430  1
