# generated using pymatgen
data_MnO2
_symmetry_space_group_name_H-M   'P 1'
_cell_length_a   5.84821900
_cell_length_b   5.84821900
_cell_length_c   28.63843154
_cell_angle_alpha   90.00000000
_cell_angle_beta   90.00000000
_cell_angle_gamma   120.00000000
_symmetry_Int_Tables_number   1
_chemical_formula_structural   MnO2
_chemical_formula_sum   'Mn24 O48'
_cell_volume   848.25634249
_cell_formula_units_Z   24
loop_
 _symmetry_equiv_pos_site_id
 _symmetry_equiv_pos_as_xyz
  1  'x, y, z'
loop_
 _atom_site_type_symbol
 _atom_site_label
 _atom_site_symmetry_multiplicity
 _atom_site_fract_x
 _atom_site_fract_y
 _atom_site_fract_z
 _atom_site_occupancy
  Mn  Mn0  1  0.828619  0.657238  0.083092  1
  Mn  Mn1  1  0.342762  0.171381  0.083092  1
  Mn  Mn2  1  0.828619  0.171381  0.083092  1
  Mn  Mn3  1  0.162862  0.325725  0.249314  1
  Mn  Mn4  1  0.674275  0.837138  0.249314  1
  Mn  Mn5  1  0.162862  0.837138  0.249314  1
  Mn  Mn6  1  0.499829  0.999659  0.416362  1
  Mn  Mn7  1  0.333333  0.666667  0.142051  1
  Mn  Mn8  1  0.333333  0.666667  0.332345  1
  Mn  Mn9  1  0.000341  0.500171  0.416362  1
  Mn  Mn10  1  0.833235  0.666471  0.583222  1
  Mn  Mn11  1  0.499829  0.500171  0.416362  1
  Mn  Mn12  1  0.333529  0.166765  0.583222  1
  Mn  Mn13  1  0.666667  0.333333  0.499729  1
  Mn  Mn14  1  0.166592  0.333183  0.749926  1
  Mn  Mn15  1  0.833235  0.166765  0.583222  1
  Mn  Mn16  1  0.000000  0.000000  0.666478  1
  Mn  Mn17  1  0.666817  0.833408  0.749926  1
  Mn  Mn18  1  0.166592  0.833408  0.749926  1
  Mn  Mn19  1  0.500241  0.000482  0.916703  1
  Mn  Mn20  1  0.999518  0.499759  0.916703  1
  Mn  Mn21  1  0.333333  0.666667  0.833235  1
  Mn  Mn22  1  0.500241  0.499759  0.916703  1
  Mn  Mn23  1  0.000000  0.000000  0.977900  1
  O  O24  1  0.513622  0.486378  0.049472  1
  O  O25  1  0.972756  0.486378  0.049472  1
  O  O26  1  0.666667  0.333333  0.118715  1
  O  O27  1  0.513622  0.027244  0.049472  1
  O  O28  1  0.155244  0.310489  0.120333  1
  O  O29  1  0.843626  0.156374  0.216327  1
  O  O30  1  0.000000  0.000000  0.048616  1
  O  O31  1  0.312749  0.156374  0.216327  1
  O  O32  1  0.000000  0.000000  0.284515  1
  O  O33  1  0.689511  0.844756  0.120333  1
  O  O34  1  0.843626  0.687251  0.216327  1
  O  O35  1  0.155244  0.844756  0.120333  1
  O  O36  1  0.187162  0.812838  0.377350  1
  O  O37  1  0.478271  0.956542  0.288322  1
  O  O38  1  0.333333  0.666667  0.450463  1
  O  O39  1  0.333333  0.666667  0.212579  1
  O  O40  1  0.625677  0.812838  0.377350  1
  O  O41  1  0.043458  0.521729  0.288322  1
  O  O42  1  0.187162  0.374323  0.377350  1
  O  O43  1  0.478271  0.521729  0.288322  1
  O  O44  1  0.812651  0.625302  0.455695  1
  O  O45  1  0.520457  0.479543  0.544242  1
  O  O46  1  0.666667  0.333333  0.382415  1
  O  O47  1  0.666667  0.333333  0.617292  1
  O  O48  1  0.959086  0.479543  0.544242  1
  O  O49  1  0.374698  0.187349  0.455695  1
  O  O50  1  0.520457  0.040914  0.544242  1
  O  O51  1  0.812651  0.187349  0.455695  1
  O  O52  1  0.146030  0.292060  0.622475  1
  O  O53  1  0.853803  0.146197  0.710937  1
  O  O54  1  0.000000  0.000000  0.549248  1
  O  O55  1  0.707940  0.853970  0.622475  1
  O  O56  1  0.292395  0.146197  0.710937  1
  O  O57  1  0.000000  0.000000  0.783990  1
  O  O58  1  0.146030  0.853970  0.622475  1
  O  O59  1  0.853803  0.707605  0.710937  1
  O  O60  1  0.187345  0.812655  0.877612  1
  O  O61  1  0.479377  0.958753  0.789175  1
  O  O62  1  0.333333  0.666667  0.951244  1
  O  O63  1  0.333333  0.666667  0.715949  1
  O  O64  1  0.041247  0.520623  0.789175  1
  O  O65  1  0.625309  0.812655  0.877612  1
  O  O66  1  0.479377  0.520623  0.789175  1
  O  O67  1  0.187345  0.374691  0.877612  1
  O  O68  1  0.822061  0.644122  0.952258  1
  O  O69  1  0.355878  0.177939  0.952258  1
  O  O70  1  0.666667  0.333333  0.883120  1
  O  O71  1  0.822061  0.177939  0.952258  1
