# generated using pymatgen
data_Fe4O7F
_symmetry_space_group_name_H-M   'P 1'
_cell_length_a   4.60668561
_cell_length_b   4.60668561
_cell_length_c   6.02737743
_cell_angle_alpha   90.00000000
_cell_angle_beta   90.00000000
_cell_angle_gamma   91.68060430
_symmetry_Int_Tables_number   1
_chemical_formula_structural   Fe4O7F
_chemical_formula_sum   'Fe4 O7 F1'
_cell_volume   127.85528440
_cell_formula_units_Z   1
loop_
 _symmetry_equiv_pos_site_id
 _symmetry_equiv_pos_as_xyz
  1  'x, y, z'
loop_
 _atom_site_type_symbol
 _atom_site_label
 _atom_site_symmetry_multiplicity
 _atom_site_fract_x
 _atom_site_fract_y
 _atom_site_fract_z
 _atom_site_occupancy
  Fe  Fe0  1  0.991901  0.008099  0.741485  1
  Fe  Fe1  1  0.991901  0.008099  0.258515  1
  Fe  Fe2  1  0.495703  0.504297  0.500000  1
  Fe  Fe3  1  0.519028  0.480972  1.000000  1
  O  O4  1  0.796821  0.203179  0.500000  1
  O  O5  1  0.816514  0.183486  1.000000  1
  O  O6  1  0.306968  0.306611  0.753452  1
  O  O7  1  0.306968  0.306611  0.246548  1
  O  O8  1  0.693389  0.693032  0.753452  1
  O  O9  1  0.693389  0.693032  0.246548  1
  O  O10  1  0.186490  0.813510  0.500000  1
  F  F11  1  0.200930  0.799070  1.000000  1
