# generated using pymatgen
data_Li3Ti2NiO6
_symmetry_space_group_name_H-M   'P 1'
_cell_length_a   6.60615843
_cell_length_b   6.60615843
_cell_length_c   6.01621484
_cell_angle_alpha   76.18722586
_cell_angle_beta   103.81277414
_cell_angle_gamma   154.36381821
_symmetry_Int_Tables_number   1
_chemical_formula_structural   Li3Ti2NiO6
_chemical_formula_sum   'Li3 Ti2 Ni1 O6'
_cell_volume   110.13823541
_cell_formula_units_Z   1
loop_
 _symmetry_equiv_pos_site_id
 _symmetry_equiv_pos_as_xyz
  1  'x, y, z'
loop_
 _atom_site_type_symbol
 _atom_site_label
 _atom_site_symmetry_multiplicity
 _atom_site_fract_x
 _atom_site_fract_y
 _atom_site_fract_z
 _atom_site_occupancy
  Li  Li0  1  0.000000  0.000000  0.000000  1
  Li  Li1  1  0.336069  0.663931  0.663851  1
  Li  Li2  1  0.663931  0.336069  0.336149  1
  Ti  Ti3  1  0.339072  0.660928  0.174315  1
  Ti  Ti4  1  0.660928  0.339072  0.825685  1
  Ni  Ni5  1  0.000000  1.000000  0.500000  1
  O  O6  1  0.832983  0.167017  0.402672  1
  O  O7  1  0.174026  0.825974  0.071329  1
  O  O8  1  0.167017  0.832983  0.597328  1
  O  O9  1  0.508180  0.491820  0.751205  1
  O  O10  1  0.491820  0.508180  0.248795  1
  O  O11  1  0.825974  0.174026  0.928671  1
