# generated using pymatgen
data_Pb2O3
_symmetry_space_group_name_H-M   'P 1'
_cell_length_a   3.57387152
_cell_length_b   5.77035774
_cell_length_c   7.42448879
_cell_angle_alpha   90.00000000
_cell_angle_beta   90.00000000
_cell_angle_gamma   90.00000000
_symmetry_Int_Tables_number   1
_chemical_formula_structural   Pb2O3
_chemical_formula_sum   'Pb4 O6'
_cell_volume   153.11164779
_cell_formula_units_Z   2
loop_
 _symmetry_equiv_pos_site_id
 _symmetry_equiv_pos_as_xyz
  1  'x, y, z'
loop_
 _atom_site_type_symbol
 _atom_site_label
 _atom_site_symmetry_multiplicity
 _atom_site_fract_x
 _atom_site_fract_y
 _atom_site_fract_z
 _atom_site_occupancy
  Pb  Pb0  1  0.500000  0.667576  0.101296  1
  Pb  Pb1  1  0.500000  0.143003  0.385231  1
  Pb  Pb2  1  0.000000  0.643003  0.614769  1
  Pb  Pb3  1  0.000000  0.167576  0.898704  1
  O  O4  1  0.000000  0.920649  0.139551  1
  O  O5  1  0.000000  0.423893  0.146900  1
  O  O6  1  0.500000  0.710878  0.409026  1
  O  O7  1  0.000000  0.210878  0.590974  1
  O  O8  1  0.500000  0.923893  0.853100  1
  O  O9  1  0.500000  0.420649  0.860449  1
