# generated using pymatgen
data_Na4FeO5
_symmetry_space_group_name_H-M   'P 1'
_cell_length_a   5.72460232
_cell_length_b   5.72460232
_cell_length_c   5.72460232
_cell_angle_alpha   99.17411623
_cell_angle_beta   99.17411623
_cell_angle_gamma   132.93197313
_symmetry_Int_Tables_number   1
_chemical_formula_structural   Na4FeO5
_chemical_formula_sum   'Na4 Fe1 O5'
_cell_volume   125.93002476
_cell_formula_units_Z   1
loop_
 _symmetry_equiv_pos_site_id
 _symmetry_equiv_pos_as_xyz
  1  'x, y, z'
loop_
 _atom_site_type_symbol
 _atom_site_label
 _atom_site_symmetry_multiplicity
 _atom_site_fract_x
 _atom_site_fract_y
 _atom_site_fract_z
 _atom_site_occupancy
  Na  Na0  1  0.599853  0.206956  0.806809  1
  Na  Na1  1  0.793044  0.599853  0.392897  1
  Na  Na2  1  0.206956  0.400147  0.607103  1
  Na  Na3  1  0.400147  0.793044  0.193191  1
  Fe  Fe4  1  0.000000  0.000000  0.000000  1
  O  O5  1  0.500000  0.500000  0.000000  1
  O  O6  1  0.068369  0.759940  0.828309  1
  O  O7  1  0.240060  0.068369  0.308430  1
  O  O8  1  0.759940  0.931631  0.691570  1
  O  O9  1  0.931631  0.240060  0.171691  1
