# generated using pymatgen
data_LiVF4
_symmetry_space_group_name_H-M   'P 1'
_cell_length_a   5.12204963
_cell_length_b   5.12204963
_cell_length_c   6.37776277
_cell_angle_alpha   90.00000000
_cell_angle_beta   90.00000000
_cell_angle_gamma   110.23347996
_symmetry_Int_Tables_number   1
_chemical_formula_structural   LiVF4
_chemical_formula_sum   'Li2 V2 F8'
_cell_volume   156.99778287
_cell_formula_units_Z   2
loop_
 _symmetry_equiv_pos_site_id
 _symmetry_equiv_pos_as_xyz
  1  'x, y, z'
loop_
 _atom_site_type_symbol
 _atom_site_label
 _atom_site_symmetry_multiplicity
 _atom_site_fract_x
 _atom_site_fract_y
 _atom_site_fract_z
 _atom_site_occupancy
  Li  Li0  1  0.357411  0.642589  0.750000  1
  Li  Li1  1  0.642589  0.357411  0.250000  1
  V  V2  1  0.000000  0.000000  0.000000  1
  V  V3  1  0.000000  0.000000  0.500000  1
  F  F4  1  0.233229  0.208524  0.250000  1
  F  F5  1  0.208524  0.233229  0.750000  1
  F  F6  1  0.225215  0.774785  0.517553  1
  F  F7  1  0.225215  0.774785  0.982447  1
  F  F8  1  0.774785  0.225215  0.017553  1
  F  F9  1  0.774785  0.225215  0.482447  1
  F  F10  1  0.791476  0.766771  0.250000  1
  F  F11  1  0.766771  0.791476  0.750000  1
