# generated using pymatgen
data_LiCuBO3
_symmetry_space_group_name_H-M   'P 1'
_cell_length_a   5.22302565
_cell_length_b   5.22302565
_cell_length_c   9.58791692
_cell_angle_alpha   88.98265716
_cell_angle_beta   91.01734284
_cell_angle_gamma   60.71845484
_symmetry_Int_Tables_number   1
_chemical_formula_structural   LiCuBO3
_chemical_formula_sum   'Li4 Cu4 B4 O12'
_cell_volume   227.99739977
_cell_formula_units_Z   4
loop_
 _symmetry_equiv_pos_site_id
 _symmetry_equiv_pos_as_xyz
  1  'x, y, z'
loop_
 _atom_site_type_symbol
 _atom_site_label
 _atom_site_symmetry_multiplicity
 _atom_site_fract_x
 _atom_site_fract_y
 _atom_site_fract_z
 _atom_site_occupancy
  Li  Li0  1  0.660994  0.341429  0.093017  1
  Li  Li1  1  0.658571  0.339006  0.593017  1
  Li  Li2  1  0.345257  0.673774  0.843474  1
  Li  Li3  1  0.326226  0.654743  0.343474  1
  Cu  Cu4  1  0.980551  0.669209  0.621034  1
  Cu  Cu5  1  0.675503  0.980849  0.870067  1
  Cu  Cu6  1  0.330791  0.019449  0.121034  1
  Cu  Cu7  1  0.019151  0.324497  0.370067  1
  B  B8  1  0.000638  0.661203  0.124914  1
  B  B9  1  0.659110  0.003334  0.374535  1
  B  B10  1  0.338797  0.999362  0.624914  1
  B  B11  1  0.996666  0.340890  0.874535  1
  O  O12  1  0.920540  0.746314  0.414058  1
  O  O13  1  0.965595  0.418569  0.165083  1
  O  O14  1  0.748762  0.918995  0.077702  1
  O  O15  1  0.729584  0.359554  0.885584  1
  O  O16  1  0.418752  0.971312  0.327787  1
  O  O17  1  0.640446  0.270416  0.385584  1
  O  O18  1  0.352781  0.733731  0.633561  1
  O  O19  1  0.581431  0.034405  0.665083  1
  O  O20  1  0.266269  0.647219  0.133561  1
  O  O21  1  0.253686  0.079460  0.914058  1
  O  O22  1  0.028688  0.581248  0.827787  1
  O  O23  1  0.081005  0.251238  0.577702  1
