# generated using pymatgen
data_KMgIn(MoO4)3
_symmetry_space_group_name_H-M   'P 1'
_cell_length_a   9.97016817
_cell_length_b   9.97016817
_cell_length_c   9.97016817
_cell_angle_alpha   58.21891733
_cell_angle_beta   58.21891733
_cell_angle_gamma   58.21891733
_symmetry_Int_Tables_number   1
_chemical_formula_structural   KMgIn(MoO4)3
_chemical_formula_sum   'K2 Mg2 In2 Mo6 O24'
_cell_volume   672.19963901
_cell_formula_units_Z   2
loop_
 _symmetry_equiv_pos_site_id
 _symmetry_equiv_pos_as_xyz
  1  'x, y, z'
loop_
 _atom_site_type_symbol
 _atom_site_label
 _atom_site_symmetry_multiplicity
 _atom_site_fract_x
 _atom_site_fract_y
 _atom_site_fract_z
 _atom_site_occupancy
  K  K0  1  0.500902  0.500902  0.500902  1
  K  K1  1  0.000902  0.000902  0.000902  1
  Mg  Mg2  1  0.143897  0.143897  0.143897  1
  Mg  Mg3  1  0.643897  0.643897  0.643897  1
  In  In4  1  0.355775  0.355775  0.355775  1
  In  In5  1  0.855775  0.855775  0.855775  1
  Mo  Mo6  1  0.034429  0.460800  0.752496  1
  Mo  Mo7  1  0.460800  0.752496  0.034429  1
  Mo  Mo8  1  0.252496  0.960800  0.534429  1
  Mo  Mo9  1  0.752496  0.034429  0.460800  1
  Mo  Mo10  1  0.534429  0.252496  0.960800  1
  Mo  Mo11  1  0.960800  0.534429  0.252496  1
  O  O12  1  0.007237  0.639762  0.778756  1
  O  O13  1  0.139762  0.507237  0.278756  1
  O  O14  1  0.063201  0.276969  0.932610  1
  O  O15  1  0.434833  0.571614  0.223938  1
  O  O16  1  0.276969  0.932610  0.063201  1
  O  O17  1  0.071614  0.934833  0.723938  1
  O  O18  1  0.495849  0.719958  0.856954  1
  O  O19  1  0.639762  0.778756  0.007237  1
  O  O20  1  0.223938  0.434833  0.571614  1
  O  O21  1  0.278756  0.139762  0.507237  1
  O  O22  1  0.219958  0.995849  0.356954  1
  O  O23  1  0.432610  0.776969  0.563201  1
  O  O24  1  0.571614  0.223938  0.434833  1
  O  O25  1  0.778756  0.007237  0.639762  1
  O  O26  1  0.719958  0.856954  0.495849  1
  O  O27  1  0.776969  0.563201  0.432610  1
  O  O28  1  0.356954  0.219958  0.995849  1
  O  O29  1  0.507237  0.278756  0.139762  1
  O  O30  1  0.932610  0.063201  0.276969  1
  O  O31  1  0.723938  0.071614  0.934833  1
  O  O32  1  0.563201  0.432610  0.776969  1
  O  O33  1  0.934833  0.723938  0.071614  1
  O  O34  1  0.856954  0.495849  0.719958  1
  O  O35  1  0.995849  0.356954  0.219958  1
