# generated using pymatgen
data_Co3OF5
_symmetry_space_group_name_H-M   'P 1'
_cell_length_a   10.29096264
_cell_length_b   10.29096264
_cell_length_c   3.12439634
_cell_angle_alpha   90.00000000
_cell_angle_beta   90.00000000
_cell_angle_gamma   141.84891028
_symmetry_Int_Tables_number   1
_chemical_formula_structural   Co3OF5
_chemical_formula_sum   'Co6 O2 F10'
_cell_volume   204.40050658
_cell_formula_units_Z   2
loop_
 _symmetry_equiv_pos_site_id
 _symmetry_equiv_pos_as_xyz
  1  'x, y, z'
loop_
 _atom_site_type_symbol
 _atom_site_label
 _atom_site_symmetry_multiplicity
 _atom_site_fract_x
 _atom_site_fract_y
 _atom_site_fract_z
 _atom_site_occupancy
  Co  Co0  1  0.000000  0.000000  0.000000  1
  Co  Co1  1  0.500000  0.500000  0.500000  1
  Co  Co2  1  0.652568  0.347432  1.000000  1
  Co  Co3  1  0.828497  0.171503  0.500000  1
  Co  Co4  1  0.171503  0.828497  0.500000  1
  Co  Co5  1  0.347432  0.652568  1.000000  1
  O  O6  1  0.593252  0.406748  0.500000  1
  O  O7  1  0.406748  0.593252  0.500000  1
  F  F8  1  0.693893  0.693893  0.000000  1
  F  F9  1  0.306107  0.306107  1.000000  1
  F  F10  1  0.970431  0.634047  0.000000  1
  F  F11  1  0.723784  0.276216  0.500000  1
  F  F12  1  0.067074  0.932926  0.500000  1
  F  F13  1  0.365953  0.029569  0.000000  1
  F  F14  1  0.634047  0.970431  0.000000  1
  F  F15  1  0.932926  0.067074  0.500000  1
  F  F16  1  0.276216  0.723784  0.500000  1
  F  F17  1  0.029569  0.365953  0.000000  1
