# generated using pymatgen
data_V2(OF)3
_symmetry_space_group_name_H-M   'P 1'
_cell_length_a   5.18563462
_cell_length_b   5.24131936
_cell_length_c   13.24656420
_cell_angle_alpha   89.13408646
_cell_angle_beta   89.16972465
_cell_angle_gamma   60.48746526
_symmetry_Int_Tables_number   1
_chemical_formula_structural   V2(OF)3
_chemical_formula_sum   'V6 O9 F9'
_cell_volume   313.27443395
_cell_formula_units_Z   3
loop_
 _symmetry_equiv_pos_site_id
 _symmetry_equiv_pos_as_xyz
  1  'x, y, z'
loop_
 _atom_site_type_symbol
 _atom_site_label
 _atom_site_symmetry_multiplicity
 _atom_site_fract_x
 _atom_site_fract_y
 _atom_site_fract_z
 _atom_site_occupancy
  V  V0  1  0.968973  0.037934  0.487163  1
  V  V1  1  0.985533  0.991572  0.004116  1
  V  V2  1  0.380322  0.339583  0.830900  1
  V  V3  1  0.683494  0.708059  0.669381  1
  V  V4  1  0.348459  0.339847  0.327859  1
  V  V5  1  0.639347  0.672032  0.158006  1
  O  O6  1  0.571312  0.993910  0.749885  1
  O  O7  1  0.669761  0.091503  0.422099  1
  O  O8  1  0.662861  0.241696  0.911375  1
  O  O9  1  0.905638  0.756251  0.587703  1
  O  O10  1  0.565114  0.422347  0.253446  1
  O  O11  1  0.425471  0.558959  0.748027  1
  O  O12  1  0.087909  0.237129  0.421085  1
  O  O13  1  0.775328  0.906202  0.082372  1
  O  O14  1  0.353637  0.748049  0.081866  1
  F  F15  1  0.989838  0.418327  0.750376  1
  F  F16  1  0.935447  0.328089  0.083885  1
  F  F17  1  0.764026  0.320338  0.587409  1
  F  F18  1  0.403270  0.000441  0.252041  1
  F  F19  1  0.981416  0.589203  0.253409  1
  F  F20  1  0.235680  0.082278  0.914561  1
  F  F21  1  0.245312  0.670718  0.423843  1
  F  F22  1  0.079318  0.651905  0.912251  1
  F  F23  1  0.342534  0.893630  0.586942  1
