# generated using pymatgen
data_Li5BiS4
_symmetry_space_group_name_H-M   'P 1'
_cell_length_a   7.36741226
_cell_length_b   7.36741226
_cell_length_c   7.79317388
_cell_angle_alpha   90.00000000
_cell_angle_beta   90.00000000
_cell_angle_gamma   117.41382336
_symmetry_Int_Tables_number   1
_chemical_formula_structural   Li5BiS4
_chemical_formula_sum   'Li10 Bi2 S8'
_cell_volume   375.50234103
_cell_formula_units_Z   2
loop_
 _symmetry_equiv_pos_site_id
 _symmetry_equiv_pos_as_xyz
  1  'x, y, z'
loop_
 _atom_site_type_symbol
 _atom_site_label
 _atom_site_symmetry_multiplicity
 _atom_site_fract_x
 _atom_site_fract_y
 _atom_site_fract_z
 _atom_site_occupancy
  Li  Li0  1  0.119346  0.239155  0.304599  1
  Li  Li1  1  0.239155  0.119346  0.804599  1
  Li  Li2  1  0.162403  0.420474  0.016845  1
  Li  Li3  1  0.420474  0.162403  0.516845  1
  Li  Li4  1  0.858005  0.141995  0.699528  1
  Li  Li5  1  0.141995  0.858005  0.199528  1
  Li  Li6  1  0.837597  0.579526  0.516845  1
  Li  Li7  1  0.579526  0.837597  0.016845  1
  Li  Li8  1  0.880654  0.760845  0.804599  1
  Li  Li9  1  0.760845  0.880654  0.304599  1
  Bi  Bi10  1  0.668060  0.331940  0.085098  1
  Bi  Bi11  1  0.331940  0.668060  0.585098  1
  S  S12  1  0.006232  0.500989  0.771784  1
  S  S13  1  0.500989  0.006232  0.271784  1
  S  S14  1  0.977564  0.022436  0.030843  1
  S  S15  1  0.022436  0.977564  0.530843  1
  S  S16  1  0.521810  0.478190  0.713774  1
  S  S17  1  0.478190  0.521810  0.213774  1
  S  S18  1  0.993768  0.499011  0.271784  1
  S  S19  1  0.499011  0.993768  0.771784  1
