# generated using pymatgen
data_Ca9La5Cl33
_symmetry_space_group_name_H-M   'P 1'
_cell_length_a   11.10640122
_cell_length_b   11.18086394
_cell_length_c   21.12025642
_cell_angle_alpha   99.29897941
_cell_angle_beta   100.50629513
_cell_angle_gamma   109.56803958
_symmetry_Int_Tables_number   1
_chemical_formula_structural   Ca9La5Cl33
_chemical_formula_sum   'Ca18 La10 Cl66'
_cell_volume   2358.57294027
_cell_formula_units_Z   2
loop_
 _symmetry_equiv_pos_site_id
 _symmetry_equiv_pos_as_xyz
  1  'x, y, z'
loop_
 _atom_site_type_symbol
 _atom_site_label
 _atom_site_symmetry_multiplicity
 _atom_site_fract_x
 _atom_site_fract_y
 _atom_site_fract_z
 _atom_site_occupancy
  Ca  Ca0  1  0.917762  0.238553  0.930088  1
  Ca  Ca1  1  0.319721  0.083739  0.972834  1
  Ca  Ca2  1  0.475263  0.021077  0.193198  1
  Ca  Ca3  1  0.869889  0.267788  0.336573  1
  Ca  Ca4  1  0.237213  0.141600  0.381049  1
  Ca  Ca5  1  0.686488  0.405044  0.539506  1
  Ca  Ca6  1  0.066113  0.252251  0.559872  1
  Ca  Ca7  1  0.763467  0.348119  0.119309  1
  Ca  Ca8  1  0.130019  0.205757  0.154254  1
  Ca  Ca9  1  0.869981  0.794243  0.845746  1
  Ca  Ca10  1  0.236533  0.651881  0.880691  1
  Ca  Ca11  1  0.933887  0.747749  0.440128  1
  Ca  Ca12  1  0.313512  0.594956  0.460494  1
  Ca  Ca13  1  0.762787  0.858400  0.618951  1
  Ca  Ca14  1  0.130111  0.732212  0.663427  1
  Ca  Ca15  1  0.524737  0.978923  0.806802  1
  Ca  Ca16  1  0.680279  0.916261  0.027166  1
  Ca  Ca17  1  0.082238  0.761447  0.069912  1
  La  La18  1  0.379601  0.044021  0.584887  1
  La  La19  1  0.173867  0.138887  0.765028  1
  La  La20  1  0.859535  0.354515  0.734436  1
  La  La21  1  0.630470  0.456730  0.928888  1
  La  La22  1  0.464330  0.545115  0.685269  1
  La  La23  1  0.535670  0.454885  0.314731  1
  La  La24  1  0.369530  0.543270  0.071112  1
  La  La25  1  0.140465  0.645485  0.265564  1
  La  La26  1  0.826133  0.861113  0.234972  1
  La  La27  1  0.620399  0.955979  0.415113  1
  Cl  Cl28  1  0.770148  0.138614  0.791933  1
  Cl  Cl29  1  0.935415  0.139955  0.669293  1
  Cl  Cl30  1  0.628468  0.198994  0.916019  1
  Cl  Cl31  1  0.732198  0.046605  0.193056  1
  Cl  Cl32  1  0.151080  0.996446  0.635146  1
  Cl  Cl33  1  0.050600  0.064839  0.877045  1
  Cl  Cl34  1  0.657460  0.192848  0.620011  1
  Cl  Cl35  1  0.449346  0.188480  0.739127  1
  Cl  Cl36  1  0.817195  0.229440  0.479594  1
  Cl  Cl37  1  0.597330  0.124496  0.330800  1
  Cl  Cl38  1  0.473636  0.122647  0.466467  1
  Cl  Cl39  1  0.150075  0.046915  0.485169  1
  Cl  Cl40  1  0.354794  0.282970  0.890060  1
  Cl  Cl41  1  0.884457  0.179551  0.058868  1
  Cl  Cl42  1  0.829321  0.460654  0.859691  1
  Cl  Cl43  1  0.557933  0.106308  0.070782  1
  Cl  Cl44  1  0.954521  0.440501  0.624275  1
  Cl  Cl45  1  0.249189  0.043144  0.093046  1
  Cl  Cl46  1  0.392756  0.306081  0.585994  1
  Cl  Cl47  1  0.972301  0.366634  0.220860  1
  Cl  Cl48  1  0.338351  0.192618  0.263331  1
  Cl  Cl49  1  0.661854  0.317787  0.233359  1
  Cl  Cl50  1  0.039174  0.131693  0.276511  1
  Cl  Cl51  1  0.233998  0.352098  0.700624  1
  Cl  Cl52  1  0.709093  0.504087  0.685448  1
  Cl  Cl53  1  0.088414  0.360648  0.827199  1
  Cl  Cl54  1  0.759600  0.464409  0.413816  1
  Cl  Cl55  1  0.586492  0.573888  0.821260  1
  Cl  Cl56  1  0.442227  0.387367  0.429277  1
  Cl  Cl57  1  0.812800  0.726867  0.972991  1
  Cl  Cl58  1  0.462325  0.613844  0.956272  1
  Cl  Cl59  1  0.119599  0.320257  0.436444  1
  Cl  Cl60  1  0.140167  0.535276  0.977783  1
  Cl  Cl61  1  0.859833  0.464724  0.022217  1
  Cl  Cl62  1  0.880401  0.679743  0.563556  1
  Cl  Cl63  1  0.537675  0.386156  0.043728  1
  Cl  Cl64  1  0.187200  0.273133  0.027009  1
  Cl  Cl65  1  0.557773  0.612633  0.570723  1
  Cl  Cl66  1  0.413508  0.426112  0.178740  1
  Cl  Cl67  1  0.240400  0.535591  0.586184  1
  Cl  Cl68  1  0.911586  0.639352  0.172801  1
  Cl  Cl69  1  0.290907  0.495913  0.314552  1
  Cl  Cl70  1  0.766002  0.647902  0.299376  1
  Cl  Cl71  1  0.960826  0.868307  0.723489  1
  Cl  Cl72  1  0.338146  0.682213  0.766641  1
  Cl  Cl73  1  0.661649  0.807382  0.736669  1
  Cl  Cl74  1  0.027699  0.633366  0.779140  1
  Cl  Cl75  1  0.607244  0.693919  0.414006  1
  Cl  Cl76  1  0.750811  0.956856  0.906954  1
  Cl  Cl77  1  0.045479  0.559499  0.375725  1
  Cl  Cl78  1  0.442067  0.893692  0.929218  1
  Cl  Cl79  1  0.170679  0.539346  0.140309  1
  Cl  Cl80  1  0.115543  0.820449  0.941132  1
  Cl  Cl81  1  0.645206  0.717030  0.109940  1
  Cl  Cl82  1  0.849925  0.953085  0.514831  1
  Cl  Cl83  1  0.526364  0.877353  0.533533  1
  Cl  Cl84  1  0.402670  0.875504  0.669200  1
  Cl  Cl85  1  0.182805  0.770560  0.520406  1
  Cl  Cl86  1  0.550654  0.811520  0.260873  1
  Cl  Cl87  1  0.342540  0.807152  0.379989  1
  Cl  Cl88  1  0.949400  0.935161  0.122955  1
  Cl  Cl89  1  0.848920  0.003554  0.364854  1
  Cl  Cl90  1  0.267802  0.953395  0.806944  1
  Cl  Cl91  1  0.371532  0.801006  0.083981  1
  Cl  Cl92  1  0.064585  0.860045  0.330707  1
  Cl  Cl93  1  0.229852  0.861386  0.208067  1
