# generated using pymatgen
data_LiCrP2O7
_symmetry_space_group_name_H-M   'P 1'
_cell_length_a   5.01099189
_cell_length_b   8.12415508
_cell_length_c   13.70880639
_cell_angle_alpha   90.00000000
_cell_angle_beta   107.13584422
_cell_angle_gamma   90.00000000
_symmetry_Int_Tables_number   1
_chemical_formula_structural   LiCrP2O7
_chemical_formula_sum   'Li4 Cr4 P8 O28'
_cell_volume   533.31245126
_cell_formula_units_Z   4
loop_
 _symmetry_equiv_pos_site_id
 _symmetry_equiv_pos_as_xyz
  1  'x, y, z'
loop_
 _atom_site_type_symbol
 _atom_site_label
 _atom_site_symmetry_multiplicity
 _atom_site_fract_x
 _atom_site_fract_y
 _atom_site_fract_z
 _atom_site_occupancy
  Li  Li0  1  0.546008  0.704329  0.744219  1
  Li  Li1  1  0.546008  0.795671  0.244219  1
  Li  Li2  1  0.453992  0.204329  0.755781  1
  Li  Li3  1  0.453992  0.295671  0.255781  1
  Cr  Cr4  1  0.141566  0.646317  0.370303  1
  Cr  Cr5  1  0.858434  0.146317  0.129697  1
  Cr  Cr6  1  0.858434  0.353683  0.629697  1
  Cr  Cr7  1  0.141566  0.853683  0.870303  1
  P  P8  1  0.775984  0.704744  0.522055  1
  P  P9  1  0.039803  0.458273  0.819296  1
  P  P10  1  0.224016  0.295256  0.477945  1
  P  P11  1  0.224016  0.204744  0.977945  1
  P  P12  1  0.960197  0.541727  0.180704  1
  P  P13  1  0.960197  0.958273  0.680704  1
  P  P14  1  0.039803  0.041727  0.319296  1
  P  P15  1  0.775984  0.795256  0.022055  1
  O  O16  1  0.274203  0.090307  0.895858  1
  O  O17  1  0.779869  0.147369  0.269030  1
  O  O18  1  0.053069  0.669439  0.501387  1
  O  O19  1  0.953732  0.866264  0.334995  1
  O  O20  1  0.725797  0.909693  0.104142  1
  O  O21  1  0.780738  0.942461  0.754952  1
  O  O22  1  0.779869  0.352631  0.769030  1
  O  O23  1  0.946931  0.330561  0.498613  1
  O  O24  1  0.467804  0.222552  0.075083  1
  O  O25  1  0.220131  0.647369  0.230970  1
  O  O26  1  0.532196  0.722552  0.424917  1
  O  O27  1  0.796374  0.609817  0.070433  1
  O  O28  1  0.953732  0.633736  0.834995  1
  O  O29  1  0.725797  0.590307  0.604142  1
  O  O30  1  0.219262  0.442461  0.745048  1
  O  O31  1  0.780738  0.557539  0.254952  1
  O  O32  1  0.219262  0.057539  0.245048  1
  O  O33  1  0.046268  0.366264  0.165005  1
  O  O34  1  0.203626  0.109817  0.429567  1
  O  O35  1  0.946931  0.169439  0.998613  1
  O  O36  1  0.467804  0.277448  0.575083  1
  O  O37  1  0.274203  0.409693  0.395858  1
  O  O38  1  0.053069  0.830561  0.001387  1
  O  O39  1  0.046268  0.133736  0.665005  1
  O  O40  1  0.532196  0.777448  0.924917  1
  O  O41  1  0.203626  0.390183  0.929567  1
  O  O42  1  0.796374  0.890183  0.570433  1
  O  O43  1  0.220131  0.852631  0.730970  1
