# generated using pymatgen
data_Li3V(CO3)3
_symmetry_space_group_name_H-M   'P 1'
_cell_length_a   5.97984727
_cell_length_b   5.97984727
_cell_length_c   10.22378468
_cell_angle_alpha   90.00000000
_cell_angle_beta   90.00000000
_cell_angle_gamma   103.11682176
_symmetry_Int_Tables_number   1
_chemical_formula_structural   Li3V(CO3)3
_chemical_formula_sum   'Li6 V2 C6 O18'
_cell_volume   356.04953899
_cell_formula_units_Z   2
loop_
 _symmetry_equiv_pos_site_id
 _symmetry_equiv_pos_as_xyz
  1  'x, y, z'
loop_
 _atom_site_type_symbol
 _atom_site_label
 _atom_site_symmetry_multiplicity
 _atom_site_fract_x
 _atom_site_fract_y
 _atom_site_fract_z
 _atom_site_occupancy
  Li  Li0  1  0.105550  0.105550  1.000000  1
  Li  Li1  1  0.357070  0.397931  0.250000  1
  Li  Li2  1  0.168186  0.724836  0.250000  1
  Li  Li3  1  0.105550  0.105550  0.500000  1
  Li  Li4  1  0.724836  0.168186  0.750000  1
  Li  Li5  1  0.397931  0.357070  0.750000  1
  V  V6  1  0.682656  0.112917  0.250000  1
  V  V7  1  0.112917  0.682656  0.750000  1
  C  C8  1  0.574254  0.159287  0.015995  1
  C  C9  1  0.742459  0.709284  0.250000  1
  C  C10  1  0.574254  0.159287  0.484005  1
  C  C11  1  0.159287  0.574254  0.515995  1
  C  C12  1  0.709284  0.742459  0.750000  1
  C  C13  1  0.159287  0.574254  0.984005  1
  O  O14  1  0.776122  0.132086  0.052967  1
  O  O15  1  0.429306  0.153840  0.115181  1
  O  O16  1  0.183846  0.517940  0.100669  1
  O  O17  1  0.765564  0.504057  0.250000  1
  O  O18  1  0.918244  0.889152  0.250000  1
  O  O19  1  0.542394  0.763106  0.250000  1
  O  O20  1  0.183846  0.517940  0.399331  1
  O  O21  1  0.429306  0.153840  0.384819  1
  O  O22  1  0.776122  0.132086  0.447033  1
  O  O23  1  0.132086  0.776122  0.552967  1
  O  O24  1  0.153840  0.429306  0.615181  1
  O  O25  1  0.517940  0.183846  0.600669  1
  O  O26  1  0.763106  0.542394  0.750000  1
  O  O27  1  0.504057  0.765564  0.750000  1
  O  O28  1  0.889152  0.918244  0.750000  1
  O  O29  1  0.517940  0.183846  0.899331  1
  O  O30  1  0.153840  0.429306  0.884819  1
  O  O31  1  0.132086  0.776122  0.947033  1
