# generated using pymatgen
data_LiVBO4
_symmetry_space_group_name_H-M   'P 1'
_cell_length_a   8.03759579
_cell_length_b   8.03759579
_cell_length_c   8.03759579
_cell_angle_alpha   106.60051898
_cell_angle_beta   106.60051898
_cell_angle_gamma   106.60051898
_symmetry_Int_Tables_number   1
_chemical_formula_structural   LiVBO4
_chemical_formula_sum   'Li6 V6 B6 O24'
_cell_volume   437.06517874
_cell_formula_units_Z   6
loop_
 _symmetry_equiv_pos_site_id
 _symmetry_equiv_pos_as_xyz
  1  'x, y, z'
loop_
 _atom_site_type_symbol
 _atom_site_label
 _atom_site_symmetry_multiplicity
 _atom_site_fract_x
 _atom_site_fract_y
 _atom_site_fract_z
 _atom_site_occupancy
  Li  Li0  1  0.236068  0.475562  0.084533  1
  Li  Li1  1  0.915467  0.763932  0.524438  1
  Li  Li2  1  0.524438  0.915467  0.763932  1
  Li  Li3  1  0.475562  0.084533  0.236068  1
  Li  Li4  1  0.084533  0.236068  0.475562  1
  Li  Li5  1  0.763932  0.524438  0.915467  1
  V  V6  1  0.702436  0.852508  0.137143  1
  V  V7  1  0.147492  0.862857  0.297564  1
  V  V8  1  0.862857  0.297564  0.147492  1
  V  V9  1  0.137143  0.702436  0.852508  1
  V  V10  1  0.852508  0.137143  0.702436  1
  V  V11  1  0.297564  0.147492  0.862857  1
  B  B12  1  0.545446  0.768760  0.383506  1
  B  B13  1  0.616494  0.454554  0.231240  1
  B  B14  1  0.231240  0.616494  0.454554  1
  B  B15  1  0.768760  0.383506  0.545446  1
  B  B16  1  0.383506  0.545446  0.768760  1
  B  B17  1  0.454554  0.231240  0.616494  1
  O  O18  1  0.951786  0.950983  0.293855  1
  O  O19  1  0.049017  0.706145  0.048214  1
  O  O20  1  0.548474  0.878734  0.262256  1
  O  O21  1  0.121266  0.737744  0.451526  1
  O  O22  1  0.654931  0.908448  0.586909  1
  O  O23  1  0.347528  0.664479  0.345499  1
  O  O24  1  0.737744  0.451526  0.121266  1
  O  O25  1  0.654501  0.652472  0.335521  1
  O  O26  1  0.413091  0.345069  0.091552  1
  O  O27  1  0.091552  0.413091  0.345069  1
  O  O28  1  0.335521  0.654501  0.652472  1
  O  O29  1  0.706145  0.048214  0.049017  1
  O  O30  1  0.293855  0.951786  0.950983  1
  O  O31  1  0.664479  0.345499  0.347528  1
  O  O32  1  0.908448  0.586909  0.654931  1
  O  O33  1  0.586909  0.654931  0.908448  1
  O  O34  1  0.345499  0.347528  0.664479  1
  O  O35  1  0.262256  0.548474  0.878734  1
  O  O36  1  0.652472  0.335521  0.654501  1
  O  O37  1  0.345069  0.091552  0.413091  1
  O  O38  1  0.878734  0.262256  0.548474  1
  O  O39  1  0.451526  0.121266  0.737744  1
  O  O40  1  0.950983  0.293855  0.951786  1
  O  O41  1  0.048214  0.049017  0.706145  1
