# generated using pymatgen
data_Li4Fe3SbO8
_symmetry_space_group_name_H-M   'P 1'
_cell_length_a   6.06105716
_cell_length_b   6.06105716
_cell_length_c   6.10102904
_cell_angle_alpha   61.01572280
_cell_angle_beta   118.98427720
_cell_angle_gamma   119.43736991
_symmetry_Int_Tables_number   1
_chemical_formula_structural   Li4Fe3SbO8
_chemical_formula_sum   'Li4 Fe3 Sb1 O8'
_cell_volume   161.56686339
_cell_formula_units_Z   1
loop_
 _symmetry_equiv_pos_site_id
 _symmetry_equiv_pos_as_xyz
  1  'x, y, z'
loop_
 _atom_site_type_symbol
 _atom_site_label
 _atom_site_symmetry_multiplicity
 _atom_site_fract_x
 _atom_site_fract_y
 _atom_site_fract_z
 _atom_site_occupancy
  Li  Li0  1  0.500000  0.500000  0.000000  1
  Li  Li1  1  0.000000  0.500000  0.500000  1
  Li  Li2  1  0.000000  0.000000  0.000000  1
  Li  Li3  1  0.500000  0.000000  0.500000  1
  Fe  Fe4  1  0.500000  0.000000  0.000000  1
  Fe  Fe5  1  0.500000  0.500000  0.500000  1
  Fe  Fe6  1  0.000000  0.500000  0.000000  1
  Sb  Sb7  1  0.000000  0.000000  0.500000  1
  O  O8  1  0.267272  0.732728  0.250413  1
  O  O9  1  0.754104  0.761677  0.727273  1
  O  O10  1  0.769068  0.230932  0.271694  1
  O  O11  1  0.732728  0.267272  0.749587  1
  O  O12  1  0.238323  0.245896  0.727273  1
  O  O13  1  0.245896  0.238323  0.272727  1
  O  O14  1  0.230932  0.769068  0.728306  1
  O  O15  1  0.761677  0.754104  0.272727  1
