# generated using pymatgen
data_KZn13
_symmetry_space_group_name_H-M   'P 1'
_cell_length_a   8.75387080
_cell_length_b   8.75387080
_cell_length_c   8.75387080
_cell_angle_alpha   60.00000000
_cell_angle_beta   60.00000000
_cell_angle_gamma   60.00000000
_symmetry_Int_Tables_number   1
_chemical_formula_structural   KZn13
_chemical_formula_sum   'K2 Zn26'
_cell_volume   474.33524855
_cell_formula_units_Z   2
loop_
 _symmetry_equiv_pos_site_id
 _symmetry_equiv_pos_as_xyz
  1  'x, y, z'
loop_
 _atom_site_type_symbol
 _atom_site_label
 _atom_site_symmetry_multiplicity
 _atom_site_fract_x
 _atom_site_fract_y
 _atom_site_fract_z
 _atom_site_occupancy
  K  K0  1  0.750000  0.750000  0.750000  1
  K  K1  1  0.250000  0.250000  0.250000  1
  Zn  Zn2  1  0.200600  0.439494  0.799400  1
  Zn  Zn3  1  0.939494  0.700600  0.299400  1
  Zn  Zn4  1  0.700600  0.939494  0.060506  1
  Zn  Zn5  1  0.060506  0.939494  0.299400  1
  Zn  Zn6  1  0.700600  0.299400  0.939494  1
  Zn  Zn7  1  0.060506  0.700600  0.939494  1
  Zn  Zn8  1  0.939494  0.299400  0.060506  1
  Zn  Zn9  1  0.799400  0.439494  0.560506  1
  Zn  Zn10  1  0.560506  0.439494  0.200600  1
  Zn  Zn11  1  0.799400  0.200600  0.439494  1
  Zn  Zn12  1  0.439494  0.799400  0.200600  1
  Zn  Zn13  1  0.200600  0.560506  0.439494  1
  Zn  Zn14  1  0.200600  0.799400  0.560506  1
  Zn  Zn15  1  0.560506  0.200600  0.799400  1
  Zn  Zn16  1  0.439494  0.560506  0.799400  1
  Zn  Zn17  1  0.299400  0.700600  0.060506  1
  Zn  Zn18  1  0.060506  0.299400  0.700600  1
  Zn  Zn19  1  0.299400  0.939494  0.700600  1
  Zn  Zn20  1  0.700600  0.060506  0.299400  1
  Zn  Zn21  1  0.299400  0.060506  0.939494  1
  Zn  Zn22  1  0.939494  0.060506  0.700600  1
  Zn  Zn23  1  0.439494  0.200600  0.560506  1
  Zn  Zn24  1  0.560506  0.799400  0.439494  1
  Zn  Zn25  1  0.799400  0.560506  0.200600  1
  Zn  Zn26  1  0.000000  0.000000  0.000000  1
  Zn  Zn27  1  0.500000  0.500000  0.500000  1
