# generated using pymatgen
data_Sr2Ti6N2O11
_symmetry_space_group_name_H-M   'P 1'
_cell_length_a   7.85204146
_cell_length_b   7.85204146
_cell_length_c   9.31133657
_cell_angle_alpha   82.48154904
_cell_angle_beta   97.51845096
_cell_angle_gamma   151.73737995
_symmetry_Int_Tables_number   1
_chemical_formula_structural   Sr2Ti6N2O11
_chemical_formula_sum   'Sr2 Ti6 N2 O11'
_cell_volume   269.35185716
_cell_formula_units_Z   1
loop_
 _symmetry_equiv_pos_site_id
 _symmetry_equiv_pos_as_xyz
  1  'x, y, z'
loop_
 _atom_site_type_symbol
 _atom_site_label
 _atom_site_symmetry_multiplicity
 _atom_site_fract_x
 _atom_site_fract_y
 _atom_site_fract_z
 _atom_site_occupancy
  Sr  Sr0  1  0.546727  0.453273  0.780199  1
  Sr  Sr1  1  0.450054  0.549946  0.230605  1
  Ti  Ti2  1  0.115210  0.884790  0.091410  1
  Ti  Ti3  1  0.167558  0.832442  0.437052  1
  Ti  Ti4  1  0.235665  0.764335  0.765045  1
  Ti  Ti5  1  0.755071  0.244929  0.223154  1
  Ti  Ti6  1  0.837798  0.162202  0.557157  1
  Ti  Ti7  1  0.883791  0.116209  0.911150  1
  N  N8  1  0.643763  0.356237  0.109607  1
  N  N9  1  0.998621  0.001379  0.998876  1
  O  O10  1  0.070014  0.929986  0.299273  1
  O  O11  1  0.127262  0.872738  0.614348  1
  O  O12  1  0.161198  0.838802  0.899235  1
  O  O13  1  0.702864  0.297136  0.428070  1
  O  O14  1  0.756648  0.243352  0.751500  1
  O  O15  1  0.246773  0.753227  0.255052  1
  O  O16  1  0.299589  0.700411  0.569475  1
  O  O17  1  0.357931  0.642069  0.879407  1
  O  O18  1  0.838189  0.161811  0.094034  1
  O  O19  1  0.882541  0.117459  0.389303  1
  O  O20  1  0.932211  0.067789  0.703538  1
