# generated using pymatgen
data_Li3CuF6
_symmetry_space_group_name_H-M   'P 1'
_cell_length_a   8.46315160
_cell_length_b   8.46315160
_cell_length_c   10.10373598
_cell_angle_alpha   86.18345937
_cell_angle_beta   93.81654063
_cell_angle_gamma   118.45857105
_symmetry_Int_Tables_number   1
_chemical_formula_structural   Li3CuF6
_chemical_formula_sum   'Li18 Cu6 F36'
_cell_volume   634.31942281
_cell_formula_units_Z   6
loop_
 _symmetry_equiv_pos_site_id
 _symmetry_equiv_pos_as_xyz
  1  'x, y, z'
loop_
 _atom_site_type_symbol
 _atom_site_label
 _atom_site_symmetry_multiplicity
 _atom_site_fract_x
 _atom_site_fract_y
 _atom_site_fract_z
 _atom_site_occupancy
  Li  Li0  1  0.940146  0.343020  0.567860  1
  Li  Li1  1  0.994391  0.711106  0.767467  1
  Li  Li2  1  0.656980  0.059854  0.067860  1
  Li  Li3  1  0.876038  0.542957  0.051555  1
  Li  Li4  1  0.457043  0.123962  0.551555  1
  Li  Li5  1  0.674806  0.629168  0.539182  1
  Li  Li6  1  0.812085  0.812085  0.250000  1
  Li  Li7  1  0.629168  0.674806  0.960818  1
  Li  Li8  1  0.711106  0.994391  0.732533  1
  Li  Li9  1  0.288894  0.005609  0.267467  1
  Li  Li10  1  0.370832  0.325194  0.039182  1
  Li  Li11  1  0.187915  0.187915  0.750000  1
  Li  Li12  1  0.325194  0.370832  0.460818  1
  Li  Li13  1  0.542957  0.876038  0.448445  1
  Li  Li14  1  0.123962  0.457043  0.948445  1
  Li  Li15  1  0.343020  0.940146  0.932140  1
  Li  Li16  1  0.005609  0.288894  0.232533  1
  Li  Li17  1  0.059854  0.656980  0.432140  1
  Cu  Cu18  1  0.000000  0.000000  0.000000  1
  Cu  Cu19  1  0.661083  0.334709  0.795652  1
  Cu  Cu20  1  0.000000  1.000000  0.500000  1
  Cu  Cu21  1  0.665291  0.338917  0.295652  1
  Cu  Cu22  1  0.334709  0.661083  0.704348  1
  Cu  Cu23  1  0.338917  0.665291  0.204348  1
  F  F24  1  0.936021  0.080878  0.834533  1
  F  F25  1  0.919122  0.063979  0.334533  1
  F  F26  1  0.890840  0.431183  0.889549  1
  F  F27  1  0.893600  0.416099  0.392506  1
  F  F28  1  0.730887  0.226328  0.662893  1
  F  F29  1  0.773672  0.269113  0.162893  1
  F  F30  1  0.914165  0.761473  0.936125  1
  F  F31  1  0.583901  0.106400  0.892506  1
  F  F32  1  0.759782  0.556946  0.695357  1
  F  F33  1  0.905782  0.762119  0.434532  1
  F  F34  1  0.568817  0.109160  0.389549  1
  F  F35  1  0.754205  0.565252  0.197126  1
  F  F36  1  0.587987  0.429828  0.933277  1
  F  F37  1  0.761473  0.914165  0.563875  1
  F  F38  1  0.434748  0.245794  0.697126  1
  F  F39  1  0.570172  0.412013  0.433277  1
  F  F40  1  0.762119  0.905782  0.065468  1
  F  F41  1  0.443054  0.240218  0.195357  1
  F  F42  1  0.556946  0.759782  0.804643  1
  F  F43  1  0.237881  0.094218  0.934532  1
  F  F44  1  0.429828  0.587987  0.566723  1
  F  F45  1  0.565252  0.754205  0.302874  1
  F  F46  1  0.238527  0.085835  0.436125  1
  F  F47  1  0.412013  0.570172  0.066723  1
  F  F48  1  0.245794  0.434748  0.802874  1
  F  F49  1  0.431183  0.890840  0.610451  1
  F  F50  1  0.094218  0.237881  0.565468  1
  F  F51  1  0.240218  0.443054  0.304643  1
  F  F52  1  0.416099  0.893600  0.107494  1
  F  F53  1  0.085835  0.238527  0.063875  1
  F  F54  1  0.226328  0.730887  0.837107  1
  F  F55  1  0.269113  0.773672  0.337107  1
  F  F56  1  0.106400  0.583901  0.607494  1
  F  F57  1  0.109160  0.568817  0.110451  1
  F  F58  1  0.080878  0.936021  0.665467  1
  F  F59  1  0.063979  0.919122  0.165467  1
