# generated using pymatgen
data_Li2V(PO4)2
_symmetry_space_group_name_H-M   'P 1'
_cell_length_a   4.89746649
_cell_length_b   17.38433149
_cell_length_c   6.59392297
_cell_angle_alpha   90.00000000
_cell_angle_beta   94.86504313
_cell_angle_gamma   90.00000000
_symmetry_Int_Tables_number   1
_chemical_formula_structural   Li2V(PO4)2
_chemical_formula_sum   'Li8 V4 P8 O32'
_cell_volume   559.37859855
_cell_formula_units_Z   4
loop_
 _symmetry_equiv_pos_site_id
 _symmetry_equiv_pos_as_xyz
  1  'x, y, z'
loop_
 _atom_site_type_symbol
 _atom_site_label
 _atom_site_symmetry_multiplicity
 _atom_site_fract_x
 _atom_site_fract_y
 _atom_site_fract_z
 _atom_site_occupancy
  Li  Li0  1  0.963323  0.379817  0.242404  1
  Li  Li1  1  0.466379  0.117032  0.762451  1
  Li  Li2  1  0.940373  0.195122  0.570412  1
  Li  Li3  1  0.036677  0.879817  0.757596  1
  Li  Li4  1  0.483942  0.444924  0.451569  1
  Li  Li5  1  0.533621  0.617032  0.237549  1
  Li  Li6  1  0.059627  0.695122  0.429588  1
  Li  Li7  1  0.516058  0.944924  0.548431  1
  V  V8  1  0.040167  0.870330  0.228247  1
  V  V9  1  0.959833  0.370330  0.771753  1
  V  V10  1  0.556977  0.627096  0.747264  1
  V  V11  1  0.443023  0.127096  0.252736  1
  P  P12  1  0.419561  0.286951  0.529048  1
  P  P13  1  0.580439  0.786951  0.470952  1
  P  P14  1  0.481762  0.463738  0.975401  1
  P  P15  1  0.981609  0.037092  0.475071  1
  P  P16  1  0.518238  0.963738  0.024599  1
  P  P17  1  0.916987  0.214096  0.029621  1
  P  P18  1  0.083013  0.714096  0.970379  1
  P  P19  1  0.018391  0.537092  0.524929  1
  O  O20  1  0.229109  0.191948  0.072030  1
  O  O21  1  0.121093  0.068032  0.667871  1
  O  O22  1  0.204179  0.676384  0.162262  1
  O  O23  1  0.532244  0.053829  0.045057  1
  O  O24  1  0.898591  0.304038  0.006518  1
  O  O25  1  0.770891  0.691948  0.927970  1
  O  O26  1  0.376554  0.930133  0.209364  1
  O  O27  1  0.308994  0.334572  0.351353  1
  O  O28  1  0.824552  0.935153  0.045711  1
  O  O29  1  0.227674  0.692039  0.775371  1
  O  O30  1  0.668768  0.061993  0.458613  1
  O  O31  1  0.735433  0.303747  0.576401  1
  O  O32  1  0.623446  0.430133  0.790636  1
  O  O33  1  0.024674  0.446532  0.537179  1
  O  O34  1  0.691006  0.834572  0.648647  1
  O  O35  1  0.118937  0.068292  0.286478  1
  O  O36  1  0.268653  0.304833  0.723892  1
  O  O37  1  0.467756  0.553829  0.954943  1
  O  O38  1  0.381096  0.940709  0.822032  1
  O  O39  1  0.975326  0.946532  0.462821  1
  O  O40  1  0.621348  0.697924  0.503935  1
  O  O41  1  0.881063  0.568292  0.713522  1
  O  O42  1  0.101409  0.804038  0.993482  1
  O  O43  1  0.264567  0.803747  0.423599  1
  O  O44  1  0.378652  0.197924  0.496065  1
  O  O45  1  0.618904  0.440709  0.177968  1
  O  O46  1  0.331232  0.561993  0.541387  1
  O  O47  1  0.731347  0.804833  0.276108  1
  O  O48  1  0.795821  0.176384  0.837738  1
  O  O49  1  0.175448  0.435153  0.954289  1
  O  O50  1  0.878907  0.568032  0.332129  1
  O  O51  1  0.772326  0.192039  0.224629  1
