# generated using pymatgen
data_Li4Cr3NiO8
_symmetry_space_group_name_H-M   'P 1'
_cell_length_a   5.11808844
_cell_length_b   7.78612356
_cell_length_c   7.79531758
_cell_angle_alpha   81.96622231
_cell_angle_beta   83.78186636
_cell_angle_gamma   71.10924237
_symmetry_Int_Tables_number   1
_chemical_formula_structural   Li4Cr3NiO8
_chemical_formula_sum   'Li8 Cr6 Ni2 O16'
_cell_volume   290.36727233
_cell_formula_units_Z   2
loop_
 _symmetry_equiv_pos_site_id
 _symmetry_equiv_pos_as_xyz
  1  'x, y, z'
loop_
 _atom_site_type_symbol
 _atom_site_label
 _atom_site_symmetry_multiplicity
 _atom_site_fract_x
 _atom_site_fract_y
 _atom_site_fract_z
 _atom_site_occupancy
  Li  Li0  1  0.996864  0.564479  0.815002  1
  Li  Li1  1  0.000821  0.310843  0.564252  1
  Li  Li2  1  0.003136  0.435521  0.184998  1
  Li  Li3  1  0.000251  0.937081  0.690645  1
  Li  Li4  1  0.999749  0.062919  0.309355  1
  Li  Li5  1  0.005121  0.184598  0.940460  1
  Li  Li6  1  0.999179  0.689157  0.435748  1
  Li  Li7  1  0.994879  0.815402  0.059540  1
  Cr  Cr8  1  0.498081  0.246699  0.754115  1
  Cr  Cr9  1  0.499962  0.374219  0.374254  1
  Cr  Cr10  1  0.500000  0.500000  0.000000  1
  Cr  Cr11  1  0.500000  0.000000  0.500000  1
  Cr  Cr12  1  0.500038  0.625781  0.625746  1
  Cr  Cr13  1  0.501919  0.753301  0.245885  1
  Ni  Ni14  1  0.500391  0.125242  0.125433  1
  Ni  Ni15  1  0.499609  0.874758  0.874567  1
  O  O16  1  0.722616  0.411846  0.782222  1
  O  O17  1  0.280480  0.461539  0.593125  1
  O  O18  1  0.719520  0.538461  0.406875  1
  O  O19  1  0.267380  0.096568  0.711552  1
  O  O20  1  0.723112  0.161855  0.532994  1
  O  O21  1  0.726392  0.290550  0.156119  1
  O  O22  1  0.273262  0.212340  0.347884  1
  O  O23  1  0.726738  0.787660  0.652116  1
  O  O24  1  0.732620  0.903432  0.288448  1
  O  O25  1  0.268452  0.345758  0.960876  1
  O  O26  1  0.276888  0.838145  0.467006  1
  O  O27  1  0.726375  0.040210  0.902609  1
  O  O28  1  0.273625  0.959790  0.097391  1
  O  O29  1  0.731548  0.654242  0.039124  1
  O  O30  1  0.277384  0.588154  0.217778  1
  O  O31  1  0.273608  0.709450  0.843881  1
