# generated using pymatgen
data_Sr3Ta2O8
_symmetry_space_group_name_H-M   'P 1'
_cell_length_a   6.98823584
_cell_length_b   6.98823584
_cell_length_c   9.43596405
_cell_angle_alpha   72.93312532
_cell_angle_beta   107.06687468
_cell_angle_gamma   97.56450113
_symmetry_Int_Tables_number   1
_chemical_formula_structural   Sr3Ta2O8
_chemical_formula_sum   'Sr6 Ta4 O16'
_cell_volume   420.59518013
_cell_formula_units_Z   2
loop_
 _symmetry_equiv_pos_site_id
 _symmetry_equiv_pos_as_xyz
  1  'x, y, z'
loop_
 _atom_site_type_symbol
 _atom_site_label
 _atom_site_symmetry_multiplicity
 _atom_site_fract_x
 _atom_site_fract_y
 _atom_site_fract_z
 _atom_site_occupancy
  Sr  Sr0  1  0.614561  0.262924  0.503197  1
  Sr  Sr1  1  0.723514  0.723514  0.250000  1
  Sr  Sr2  1  0.262924  0.614561  0.996803  1
  Sr  Sr3  1  0.737076  0.385439  0.003197  1
  Sr  Sr4  1  0.276486  0.276486  0.750000  1
  Sr  Sr5  1  0.385439  0.737076  0.496803  1
  Ta  Ta6  1  0.209056  0.070632  0.119652  1
  Ta  Ta7  1  0.929368  0.790944  0.619652  1
  Ta  Ta8  1  0.070632  0.209056  0.380348  1
  Ta  Ta9  1  0.790944  0.929368  0.880348  1
  O  O10  1  0.065032  0.297287  0.148688  1
  O  O11  1  0.702713  0.934968  0.648688  1
  O  O12  1  0.838781  0.366227  0.320474  1
  O  O13  1  0.390583  0.277292  0.035367  1
  O  O14  1  0.945410  0.898834  0.107633  1
  O  O15  1  0.633773  0.161219  0.820474  1
  O  O16  1  0.722708  0.609417  0.535367  1
  O  O17  1  0.898834  0.945410  0.392367  1
  O  O18  1  0.101166  0.054590  0.607633  1
  O  O19  1  0.277292  0.390583  0.464633  1
  O  O20  1  0.366227  0.838781  0.179526  1
  O  O21  1  0.054590  0.101166  0.892367  1
  O  O22  1  0.609417  0.722708  0.964633  1
  O  O23  1  0.161219  0.633773  0.679526  1
  O  O24  1  0.297287  0.065032  0.351312  1
  O  O25  1  0.934968  0.702713  0.851312  1
