# generated using pymatgen
data_Li2Ti3V3O12
_symmetry_space_group_name_H-M   'P 1'
_cell_length_a   5.19289413
_cell_length_b   6.08050676
_cell_length_c   7.98063156
_cell_angle_alpha   77.25769129
_cell_angle_beta   76.66266604
_cell_angle_gamma   73.43105167
_symmetry_Int_Tables_number   1
_chemical_formula_structural   Li2Ti3V3O12
_chemical_formula_sum   'Li2 Ti3 V3 O12'
_cell_volume   231.75491037
_cell_formula_units_Z   1
loop_
 _symmetry_equiv_pos_site_id
 _symmetry_equiv_pos_as_xyz
  1  'x, y, z'
loop_
 _atom_site_type_symbol
 _atom_site_label
 _atom_site_symmetry_multiplicity
 _atom_site_fract_x
 _atom_site_fract_y
 _atom_site_fract_z
 _atom_site_occupancy
  Li  Li0  1  0.500000  0.500000  0.500000  1
  Li  Li1  1  0.000000  0.000000  0.000000  1
  Ti  Ti2  1  0.502700  0.676957  0.835269  1
  Ti  Ti3  1  0.497300  0.323043  0.164731  1
  Ti  Ti4  1  0.500000  0.000000  0.500000  1
  V  V5  1  0.994214  0.836929  0.665522  1
  V  V6  1  0.000000  0.500000  0.000000  1
  V  V7  1  0.005786  0.163071  0.334478  1
  O  O8  1  0.762986  0.800184  0.905805  1
  O  O9  1  0.271298  0.966631  0.742430  1
  O  O10  1  0.712677  0.695014  0.598674  1
  O  O11  1  0.738373  0.361589  0.935603  1
  O  O12  1  0.246615  0.859012  0.436664  1
  O  O13  1  0.231855  0.531133  0.773707  1
  O  O14  1  0.768145  0.468867  0.226293  1
  O  O15  1  0.753385  0.140988  0.563336  1
  O  O16  1  0.261627  0.638411  0.064397  1
  O  O17  1  0.287323  0.304986  0.401326  1
  O  O18  1  0.728702  0.033369  0.257570  1
  O  O19  1  0.237014  0.199816  0.094195  1
