# generated using pymatgen
data_Ba8LiNb7O24
_symmetry_space_group_name_H-M   'P 1'
_cell_length_a   5.92238789
_cell_length_b   5.92238789
_cell_length_c   19.22246625
_cell_angle_alpha   90.00000000
_cell_angle_beta   90.00000000
_cell_angle_gamma   120.00000000
_symmetry_Int_Tables_number   1
_chemical_formula_structural   Ba8LiNb7O24
_chemical_formula_sum   'Ba8 Li1 Nb7 O24'
_cell_volume   583.89322496
_cell_formula_units_Z   1
loop_
 _symmetry_equiv_pos_site_id
 _symmetry_equiv_pos_as_xyz
  1  'x, y, z'
loop_
 _atom_site_type_symbol
 _atom_site_label
 _atom_site_symmetry_multiplicity
 _atom_site_fract_x
 _atom_site_fract_y
 _atom_site_fract_z
 _atom_site_occupancy
  Ba  Ba0  1  0.666667  0.333333  0.132153  1
  Ba  Ba1  1  0.666667  0.333333  0.752082  1
  Ba  Ba2  1  0.333333  0.666667  0.994208  1
  Ba  Ba3  1  0.666667  0.333333  0.365220  1
  Ba  Ba4  1  0.333333  0.666667  0.502177  1
  Ba  Ba5  1  0.000000  0.000000  0.249666  1
  Ba  Ba6  1  0.000000  0.000000  0.856797  1
  Ba  Ba7  1  0.000000  0.000000  0.634799  1
  Li  Li8  1  0.333333  0.666667  0.831427  1
  Nb  Nb9  1  0.666667  0.333333  0.560443  1
  Nb  Nb10  1  0.333333  0.666667  0.182460  1
  Nb  Nb11  1  0.333333  0.666667  0.317932  1
  Nb  Nb12  1  0.333333  0.666667  0.690021  1
  Nb  Nb13  1  0.666667  0.333333  0.934042  1
  Nb  Nb14  1  0.000000  0.000000  0.059901  1
  Nb  Nb15  1  0.000000  0.000000  0.439479  1
  O  O16  1  0.495099  0.504901  0.249809  1
  O  O17  1  0.331646  0.165823  0.003762  1
  O  O18  1  0.334383  0.167192  0.499152  1
  O  O19  1  0.501842  0.498158  0.620684  1
  O  O20  1  0.507027  0.492973  0.881140  1
  O  O21  1  0.501842  0.003683  0.620684  1
  O  O22  1  0.507027  0.014054  0.881140  1
  O  O23  1  0.495099  0.990198  0.249809  1
  O  O24  1  0.650481  0.825240  0.743498  1
  O  O25  1  0.996317  0.498158  0.620684  1
  O  O26  1  0.985946  0.492973  0.881140  1
  O  O27  1  0.834177  0.165823  0.003762  1
  O  O28  1  0.832808  0.167192  0.499152  1
  O  O29  1  0.672284  0.836142  0.124287  1
  O  O30  1  0.671096  0.835548  0.376737  1
  O  O31  1  0.009802  0.504901  0.249809  1
  O  O32  1  0.164452  0.328904  0.376737  1
  O  O33  1  0.834177  0.668354  0.003762  1
  O  O34  1  0.832808  0.665617  0.499152  1
  O  O35  1  0.163858  0.327716  0.124287  1
  O  O36  1  0.174760  0.349519  0.743498  1
  O  O37  1  0.163858  0.836142  0.124287  1
  O  O38  1  0.164452  0.835548  0.376737  1
  O  O39  1  0.174760  0.825240  0.743498  1
