# generated using pymatgen
data_Li10Mn3Cr3(FeO8)2
_symmetry_space_group_name_H-M   'P 1'
_cell_length_a   5.96645167
_cell_length_b   6.05571660
_cell_length_c   9.96310115
_cell_angle_alpha   91.30205381
_cell_angle_beta   90.59983868
_cell_angle_gamma   119.24064220
_symmetry_Int_Tables_number   1
_chemical_formula_structural   Li10Mn3Cr3(FeO8)2
_chemical_formula_sum   'Li10 Mn3 Cr3 Fe2 O16'
_cell_volume   313.93116731
_cell_formula_units_Z   1
loop_
 _symmetry_equiv_pos_site_id
 _symmetry_equiv_pos_as_xyz
  1  'x, y, z'
loop_
 _atom_site_type_symbol
 _atom_site_label
 _atom_site_symmetry_multiplicity
 _atom_site_fract_x
 _atom_site_fract_y
 _atom_site_fract_z
 _atom_site_occupancy
  Li  Li0  1  0.678289  0.325125  0.722034  1
  Li  Li1  1  0.821793  0.603301  0.936853  1
  Li  Li2  1  0.807530  0.199150  0.947310  1
  Li  Li3  1  0.394095  0.202327  0.939797  1
  Li  Li4  1  0.610866  0.822668  0.430728  1
  Li  Li5  1  0.307363  0.654339  0.220949  1
  Li  Li6  1  0.205361  0.403065  0.447255  1
  Li  Li7  1  0.988559  0.984688  0.017485  1
  Li  Li8  1  0.002464  0.005009  0.516822  1
  Li  Li9  1  0.191341  0.804050  0.439350  1
  Mn  Mn10  1  0.322309  0.164366  0.216747  1
  Mn  Mn11  1  0.177547  0.337572  0.716420  1
  Mn  Mn12  1  0.178698  0.830120  0.714323  1
  Cr  Cr13  1  0.816291  0.658962  0.213760  1
  Cr  Cr14  1  0.676279  0.832661  0.714551  1
  Cr  Cr15  1  0.817790  0.162705  0.214513  1
  Fe  Fe16  1  0.665352  0.345577  0.472107  1
  Fe  Fe17  1  0.339315  0.668096  0.973170  1
  O  O18  1  0.847587  0.160500  0.609072  1
  O  O19  1  0.973279  0.489319  0.332886  1
  O  O20  1  0.862820  0.688160  0.599204  1
  O  O21  1  0.495543  0.024373  0.328001  1
  O  O22  1  0.676238  0.338160  0.092134  1
  O  O23  1  0.493518  0.492989  0.324525  1
  O  O24  1  0.668513  0.835713  0.098151  1
  O  O25  1  0.333634  0.199799  0.588649  1
  O  O26  1  0.504063  0.508691  0.826094  1
  O  O27  1  0.957351  0.982670  0.331719  1
  O  O28  1  0.006213  0.967992  0.831148  1
  O  O29  1  0.146973  0.303539  0.103345  1
  O  O30  1  0.352511  0.700275  0.592071  1
  O  O31  1  0.497061  0.983643  0.829866  1
  O  O32  1  0.025295  0.482447  0.838035  1
  O  O33  1  0.149583  0.832434  0.106142  1
