# generated using pymatgen
data_Li3SbO3
_symmetry_space_group_name_H-M   'P 1'
_cell_length_a   7.54627106
_cell_length_b   7.54627106
_cell_length_c   7.54627106
_cell_angle_alpha   109.47122063
_cell_angle_beta   109.47122063
_cell_angle_gamma   109.47122063
_symmetry_Int_Tables_number   1
_chemical_formula_structural   Li3SbO3
_chemical_formula_sum   'Li12 Sb4 O12'
_cell_volume   330.80747358
_cell_formula_units_Z   4
loop_
 _symmetry_equiv_pos_site_id
 _symmetry_equiv_pos_as_xyz
  1  'x, y, z'
loop_
 _atom_site_type_symbol
 _atom_site_label
 _atom_site_symmetry_multiplicity
 _atom_site_fract_x
 _atom_site_fract_y
 _atom_site_fract_z
 _atom_site_occupancy
  Li  Li0  1  0.534310  0.289225  0.000000  1
  Li  Li1  1  0.534310  0.000000  0.289225  1
  Li  Li2  1  0.754914  0.465690  0.465690  1
  Li  Li3  1  0.289225  0.000000  0.534310  1
  Li  Li4  1  0.289225  0.534310  0.000000  1
  Li  Li5  1  0.710775  0.245086  0.710775  1
  Li  Li6  1  0.710775  0.710775  0.245086  1
  Li  Li7  1  0.465690  0.754914  0.465690  1
  Li  Li8  1  0.465690  0.465690  0.754914  1
  Li  Li9  1  0.000000  0.534310  0.289225  1
  Li  Li10  1  0.000000  0.289225  0.534310  1
  Li  Li11  1  0.245086  0.710775  0.710775  1
  Sb  Sb12  1  0.718452  0.000000  0.000000  1
  Sb  Sb13  1  0.281548  0.281548  0.281548  1
  Sb  Sb14  1  0.000000  0.718452  0.000000  1
  Sb  Sb15  1  0.000000  0.000000  0.718452  1
  O  O16  1  0.742723  0.237788  0.237788  1
  O  O17  1  0.762212  0.504936  0.000000  1
  O  O18  1  0.762212  0.000000  0.504936  1
  O  O19  1  0.495064  0.495064  0.257277  1
  O  O20  1  0.504936  0.762212  0.000000  1
  O  O21  1  0.495064  0.257277  0.495064  1
  O  O22  1  0.504936  0.000000  0.762212  1
  O  O23  1  0.257277  0.495064  0.495064  1
  O  O24  1  0.237788  0.237788  0.742723  1
  O  O25  1  0.237788  0.742723  0.237788  1
  O  O26  1  0.000000  0.504936  0.762212  1
  O  O27  1  0.000000  0.762212  0.504936  1
