# generated using pymatgen
data_LiV4CuO12
_symmetry_space_group_name_H-M   'P 1'
_cell_length_a   5.00377988
_cell_length_b   5.38938220
_cell_length_c   7.34331717
_cell_angle_alpha   84.54029901
_cell_angle_beta   89.83654664
_cell_angle_gamma   89.79128178
_symmetry_Int_Tables_number   1
_chemical_formula_structural   LiV4CuO12
_chemical_formula_sum   'Li1 V4 Cu1 O12'
_cell_volume   197.12898695
_cell_formula_units_Z   1
loop_
 _symmetry_equiv_pos_site_id
 _symmetry_equiv_pos_as_xyz
  1  'x, y, z'
loop_
 _atom_site_type_symbol
 _atom_site_label
 _atom_site_symmetry_multiplicity
 _atom_site_fract_x
 _atom_site_fract_y
 _atom_site_fract_z
 _atom_site_occupancy
  Li  Li0  1  0.497895  0.931465  0.210254  1
  V  V1  1  0.990270  0.985628  0.007035  1
  V  V2  1  0.506217  0.506512  0.491526  1
  V  V3  1  0.007187  0.985004  0.493402  1
  V  V4  1  0.491990  0.489281  0.994129  1
  Cu  Cu5  1  0.000576  0.405206  0.707289  1
  O  O6  1  0.707035  0.245775  0.579361  1
  O  O7  1  0.881771  0.034156  0.272108  1
  O  O8  1  0.696692  0.839730  0.973517  1
  O  O9  1  0.821044  0.718228  0.584138  1
  O  O10  1  0.203231  0.744293  0.067695  1
  O  O11  1  0.597934  0.537545  0.269968  1
  O  O12  1  0.356120  0.536357  0.770812  1
  O  O13  1  0.810955  0.356591  0.946135  1
  O  O14  1  0.194299  0.347172  0.476624  1
  O  O15  1  0.320697  0.233202  0.080103  1
  O  O16  1  0.103690  0.056201  0.769243  1
  O  O17  1  0.312396  0.848852  0.457261  1
