# generated using pymatgen
data_Fe3(OF2)2
_symmetry_space_group_name_H-M   'P 1'
_cell_length_a   5.72123069
_cell_length_b   5.72123069
_cell_length_c   7.24336533
_cell_angle_alpha   72.87716129
_cell_angle_beta   107.12283871
_cell_angle_gamma   104.05828940
_symmetry_Int_Tables_number   1
_chemical_formula_structural   Fe3(OF2)2
_chemical_formula_sum   'Fe6 O4 F8'
_cell_volume   213.34974101
_cell_formula_units_Z   2
loop_
 _symmetry_equiv_pos_site_id
 _symmetry_equiv_pos_as_xyz
  1  'x, y, z'
loop_
 _atom_site_type_symbol
 _atom_site_label
 _atom_site_symmetry_multiplicity
 _atom_site_fract_x
 _atom_site_fract_y
 _atom_site_fract_z
 _atom_site_occupancy
  Fe  Fe0  1  0.331906  0.668094  0.838253  1
  Fe  Fe1  1  0.647411  0.352589  0.672268  1
  Fe  Fe2  1  0.352589  0.647411  0.327732  1
  Fe  Fe3  1  0.668094  0.331906  0.161747  1
  Fe  Fe4  1  0.000000  0.000000  0.500000  1
  Fe  Fe5  1  0.000000  0.000000  0.000000  1
  O  O6  1  0.773152  0.226848  0.963715  1
  O  O7  1  0.424417  0.575583  0.626455  1
  O  O8  1  0.226848  0.773152  0.036285  1
  O  O9  1  0.575583  0.424417  0.373545  1
  F  F10  1  0.961786  0.630330  0.670904  1
  F  F11  1  0.630330  0.961786  0.329096  1
  F  F12  1  0.104504  0.895496  0.300330  1
  F  F13  1  0.895496  0.104504  0.699670  1
  F  F14  1  0.038214  0.369670  0.329096  1
  F  F15  1  0.369670  0.038214  0.670904  1
  F  F16  1  0.707062  0.707062  0.000000  1
  F  F17  1  0.292938  0.292938  0.000000  1
