# generated using pymatgen
data_Li3V(PO4)2
_symmetry_space_group_name_H-M   'P 1'
_cell_length_a   5.20662779
_cell_length_b   5.20662779
_cell_length_c   13.23153296
_cell_angle_alpha   83.08278067
_cell_angle_beta   96.91721933
_cell_angle_gamma   125.59325105
_symmetry_Int_Tables_number   1
_chemical_formula_structural   Li3V(PO4)2
_chemical_formula_sum   'Li6 V2 P4 O16'
_cell_volume   288.99177040
_cell_formula_units_Z   2
loop_
 _symmetry_equiv_pos_site_id
 _symmetry_equiv_pos_as_xyz
  1  'x, y, z'
loop_
 _atom_site_type_symbol
 _atom_site_label
 _atom_site_symmetry_multiplicity
 _atom_site_fract_x
 _atom_site_fract_y
 _atom_site_fract_z
 _atom_site_occupancy
  Li  Li0  1  0.700316  0.369781  0.647160  1
  Li  Li1  1  0.630219  0.299684  0.147160  1
  Li  Li2  1  0.369781  0.700316  0.852840  1
  Li  Li3  1  0.299684  0.630219  0.352840  1
  Li  Li4  1  0.055211  0.055211  0.750000  1
  Li  Li5  1  0.944789  0.944789  0.250000  1
  V  V6  1  0.000000  1.000000  0.500000  1
  V  V7  1  0.000000  0.000000  0.000000  1
  P  P8  1  0.679300  0.361936  0.884513  1
  P  P9  1  0.638064  0.320700  0.384513  1
  P  P10  1  0.361936  0.679300  0.615487  1
  P  P11  1  0.320700  0.638064  0.115487  1
  O  O12  1  0.822576  0.724956  0.868749  1
  O  O13  1  0.275044  0.177424  0.368749  1
  O  O14  1  0.449983  0.224071  0.972233  1
  O  O15  1  0.775929  0.550017  0.472233  1
  O  O16  1  0.500347  0.185149  0.787624  1
  O  O17  1  0.330334  0.961736  0.585486  1
  O  O18  1  0.814851  0.499653  0.287624  1
  O  O19  1  0.038264  0.669666  0.085486  1
  O  O20  1  0.961736  0.330334  0.914514  1
  O  O21  1  0.185149  0.500347  0.712376  1
  O  O22  1  0.669666  0.038264  0.414514  1
  O  O23  1  0.499653  0.814851  0.212376  1
  O  O24  1  0.224071  0.449983  0.527767  1
  O  O25  1  0.550017  0.775929  0.027767  1
  O  O26  1  0.724956  0.822576  0.631251  1
  O  O27  1  0.177424  0.275044  0.131251  1
