# generated using pymatgen
data_LiSb4P7O24
_symmetry_space_group_name_H-M   'P 1'
_cell_length_a   11.00679511
_cell_length_b   11.03401731
_cell_length_c   11.60972124
_cell_angle_alpha   108.34104883
_cell_angle_beta   112.60582289
_cell_angle_gamma   104.25126742
_symmetry_Int_Tables_number   1
_chemical_formula_structural   LiSb4P7O24
_chemical_formula_sum   'Li2 Sb8 P14 O48'
_cell_volume   1121.87018254
_cell_formula_units_Z   2
loop_
 _symmetry_equiv_pos_site_id
 _symmetry_equiv_pos_as_xyz
  1  'x, y, z'
loop_
 _atom_site_type_symbol
 _atom_site_label
 _atom_site_symmetry_multiplicity
 _atom_site_fract_x
 _atom_site_fract_y
 _atom_site_fract_z
 _atom_site_occupancy
  Li  Li0  1  0.588093  0.267029  0.627707  1
  Li  Li1  1  0.411907  0.732971  0.372293  1
  Sb  Sb2  1  0.501095  0.905820  0.746758  1
  Sb  Sb3  1  0.987140  0.356855  0.069995  1
  Sb  Sb4  1  0.523393  0.659738  0.889716  1
  Sb  Sb5  1  0.982711  0.807996  0.402021  1
  Sb  Sb6  1  0.017289  0.192004  0.597979  1
  Sb  Sb7  1  0.476607  0.340262  0.110284  1
  Sb  Sb8  1  0.012860  0.643145  0.930005  1
  Sb  Sb9  1  0.498905  0.094180  0.253242  1
  P  P10  1  0.785563  0.793718  0.763823  1
  P  P11  1  0.202298  0.618226  0.426125  1
  P  P12  1  0.211864  0.951200  0.278484  1
  P  P13  1  0.260679  0.043361  0.764730  1
  P  P14  1  0.255807  0.392950  0.515013  1
  P  P15  1  0.739760  0.166289  0.124076  1
  P  P16  1  0.739986  0.522803  0.050388  1
  P  P17  1  0.260014  0.477197  0.949612  1
  P  P18  1  0.260240  0.833711  0.875924  1
  P  P19  1  0.744193  0.607050  0.484987  1
  P  P20  1  0.739321  0.956639  0.235270  1
  P  P21  1  0.788136  0.048800  0.721516  1
  P  P22  1  0.797702  0.381774  0.573875  1
  P  P23  1  0.214437  0.206282  0.236177  1
  O  O24  1  0.843435  0.175710  0.859288  1
  O  O25  1  0.619860  0.974540  0.642298  1
  O  O26  1  0.653725  0.064528  0.967939  1
  O  O27  1  0.089044  0.222210  0.139375  1
  O  O28  1  0.361947  0.727533  0.507943  1
  O  O29  1  0.165545  0.547539  0.272738  1
  O  O30  1  0.664762  0.563827  0.932759  1
  O  O31  1  0.666602  0.792566  0.799002  1
  O  O32  1  0.190634  0.501411  0.482551  1
  O  O33  1  0.371966  0.020417  0.719119  1
  O  O34  1  0.295946  0.333010  0.393864  1
  O  O35  1  0.149654  0.063300  0.241635  1
  O  O36  1  0.158050  0.920405  0.372525  1
  O  O37  1  0.397515  0.467568  0.651683  1
  O  O38  1  0.840136  0.462981  0.013127  1
  O  O39  1  0.099353  0.678651  0.450466  1
  O  O40  1  0.871095  0.295017  0.162953  1
  O  O41  1  0.332025  0.177088  0.902099  1
  O  O42  1  0.190885  0.912483  0.789379  1
  O  O43  1  0.136405  0.273252  0.495343  1
  O  O44  1  0.131904  0.037404  0.645345  1
  O  O45  1  0.352588  0.785701  0.816760  1
  O  O46  1  0.382388  0.590978  0.957072  1
  O  O47  1  0.827049  0.651730  0.196681  1
  O  O48  1  0.172951  0.348270  0.803319  1
  O  O49  1  0.617612  0.409022  0.042928  1
  O  O50  1  0.647412  0.214299  0.183240  1
  O  O51  1  0.868096  0.962596  0.354655  1
  O  O52  1  0.863595  0.726748  0.504657  1
  O  O53  1  0.809115  0.087517  0.210621  1
  O  O54  1  0.667975  0.822912  0.097901  1
  O  O55  1  0.128905  0.704983  0.837047  1
  O  O56  1  0.900647  0.321349  0.549534  1
  O  O57  1  0.159864  0.537019  0.986873  1
  O  O58  1  0.602485  0.532432  0.348317  1
  O  O59  1  0.841950  0.079595  0.627475  1
  O  O60  1  0.850346  0.936700  0.758365  1
  O  O61  1  0.704054  0.666990  0.606136  1
  O  O62  1  0.628034  0.979583  0.280881  1
  O  O63  1  0.809366  0.498589  0.517449  1
  O  O64  1  0.333398  0.207434  0.200998  1
  O  O65  1  0.335238  0.436173  0.067241  1
  O  O66  1  0.834455  0.452461  0.727262  1
  O  O67  1  0.638053  0.272467  0.492057  1
  O  O68  1  0.910956  0.777790  0.860625  1
  O  O69  1  0.346275  0.935472  0.032061  1
  O  O70  1  0.380140  0.025460  0.357702  1
  O  O71  1  0.156565  0.824290  0.140712  1
