# generated using pymatgen
data_Co3OF5
_symmetry_space_group_name_H-M   'P 1'
_cell_length_a   4.69251752
_cell_length_b   5.69916605
_cell_length_c   7.84135275
_cell_angle_alpha   91.46677056
_cell_angle_beta   90.33302626
_cell_angle_gamma   90.36614889
_symmetry_Int_Tables_number   1
_chemical_formula_structural   Co3OF5
_chemical_formula_sum   'Co6 O2 F10'
_cell_volume   209.62798091
_cell_formula_units_Z   2
loop_
 _symmetry_equiv_pos_site_id
 _symmetry_equiv_pos_as_xyz
  1  'x, y, z'
loop_
 _atom_site_type_symbol
 _atom_site_label
 _atom_site_symmetry_multiplicity
 _atom_site_fract_x
 _atom_site_fract_y
 _atom_site_fract_z
 _atom_site_occupancy
  Co  Co0  1  0.490955  0.513834  0.001356  1
  Co  Co1  1  0.465837  0.824463  0.329575  1
  Co  Co2  1  0.509336  0.168799  0.670084  1
  Co  Co3  1  0.018053  0.677645  0.650082  1
  Co  Co4  1  0.014618  0.348845  0.332135  1
  Co  Co5  1  0.018135  0.979335  0.013528  1
  O  O6  1  0.206132  0.638673  0.425272  1
  O  O7  1  0.294172  0.794710  0.110748  1
  F  F8  1  0.195645  0.971229  0.772230  1
  F  F9  1  0.195129  0.288528  0.097470  1
  F  F10  1  0.306555  0.467442  0.769735  1
  F  F11  1  0.299391  0.134446  0.438949  1
  F  F12  1  0.681110  0.863432  0.555743  1
  F  F13  1  0.698048  0.529165  0.227784  1
  F  F14  1  0.706423  0.197074  0.908350  1
  F  F15  1  0.782973  0.024342  0.237068  1
  F  F16  1  0.805283  0.707127  0.893039  1
  F  F17  1  0.812204  0.370915  0.566853  1
