# generated using pymatgen
data_V6O5F19
_symmetry_space_group_name_H-M   'P 1'
_cell_length_a   5.38595683
_cell_length_b   5.55161111
_cell_length_c   14.99450861
_cell_angle_alpha   79.43885820
_cell_angle_beta   89.67589022
_cell_angle_gamma   88.28328728
_symmetry_Int_Tables_number   1
_chemical_formula_structural   V6O5F19
_chemical_formula_sum   'V6 O5 F19'
_cell_volume   440.55398791
_cell_formula_units_Z   1
loop_
 _symmetry_equiv_pos_site_id
 _symmetry_equiv_pos_as_xyz
  1  'x, y, z'
loop_
 _atom_site_type_symbol
 _atom_site_label
 _atom_site_symmetry_multiplicity
 _atom_site_fract_x
 _atom_site_fract_y
 _atom_site_fract_z
 _atom_site_occupancy
  V  V0  1  0.058161  0.981291  0.994359  1
  V  V1  1  0.455084  0.801552  0.329121  1
  V  V2  1  0.001126  0.693512  0.665942  1
  V  V3  1  0.565406  0.527133  0.006082  1
  V  V4  1  0.963240  0.289482  0.337408  1
  V  V5  1  0.482784  0.215828  0.665233  1
  O  O6  1  0.295020  0.797847  0.977152  1
  O  O7  1  0.227163  0.636962  0.310458  1
  O  O8  1  0.292202  0.457363  0.645807  1
  O  O9  1  0.794908  0.701124  0.023715  1
  O  O10  1  0.795241  0.050473  0.356790  1
  F  F11  1  0.208815  0.975090  0.645137  1
  F  F12  1  0.719538  0.876257  0.688422  1
  F  F13  1  0.055162  0.947587  0.113943  1
  F  F14  1  0.436172  0.805277  0.446980  1
  F  F15  1  0.076897  0.598446  0.781864  1
  F  F16  1  0.595803  0.885352  0.221179  1
  F  F17  1  0.935197  0.697968  0.550262  1
  F  F18  1  0.559988  0.547835  0.887032  1
  F  F19  1  0.203047  0.272663  0.974573  1
  F  F20  1  0.708612  0.533723  0.358657  1
  F  F21  1  0.767446  0.379035  0.688306  1
  F  F22  1  0.400422  0.464328  0.110203  1
  F  F23  1  0.093999  0.298353  0.445034  1
  F  F24  1  0.424927  0.097089  0.780709  1
  F  F25  1  0.927301  0.400880  0.219584  1
  F  F26  1  0.574578  0.191859  0.553782  1
  F  F27  1  0.896213  0.033043  0.889691  1
  F  F28  1  0.273434  0.119482  0.307798  1
  F  F29  1  0.712116  0.223167  0.024778  1
