# generated using pymatgen
data_H2CN2
_symmetry_space_group_name_H-M   'P 1'
_cell_length_a   6.75446970
_cell_length_b   6.95667761
_cell_length_c   9.18645975
_cell_angle_alpha   90.00000000
_cell_angle_beta   90.00000000
_cell_angle_gamma   90.00000000
_symmetry_Int_Tables_number   1
_chemical_formula_structural   H2CN2
_chemical_formula_sum   'H16 C8 N16'
_cell_volume   431.65950848
_cell_formula_units_Z   8
loop_
 _symmetry_equiv_pos_site_id
 _symmetry_equiv_pos_as_xyz
  1  'x, y, z'
loop_
 _atom_site_type_symbol
 _atom_site_label
 _atom_site_symmetry_multiplicity
 _atom_site_fract_x
 _atom_site_fract_y
 _atom_site_fract_z
 _atom_site_occupancy
  H  H0  1  0.900760  0.293077  0.483458  1
  H  H1  1  0.599240  0.793077  0.516542  1
  H  H2  1  0.400760  0.706923  0.016542  1
  H  H3  1  0.099240  0.206923  0.983458  1
  H  H4  1  0.099240  0.706923  0.516542  1
  H  H5  1  0.400760  0.206923  0.483458  1
  H  H6  1  0.599240  0.293077  0.983458  1
  H  H7  1  0.900760  0.793077  0.016542  1
  H  H8  1  0.718651  0.452127  0.411951  1
  H  H9  1  0.781349  0.952127  0.588049  1
  H  H10  1  0.218651  0.547873  0.088049  1
  H  H11  1  0.281349  0.047873  0.911951  1
  H  H12  1  0.281349  0.547873  0.588049  1
  H  H13  1  0.218651  0.047873  0.411951  1
  H  H14  1  0.781349  0.452127  0.911951  1
  H  H15  1  0.718651  0.952127  0.088049  1
  C  C16  1  0.918632  0.356924  0.268676  1
  C  C17  1  0.581368  0.856924  0.731324  1
  C  C18  1  0.418632  0.643076  0.231324  1
  C  C19  1  0.081368  0.143076  0.768676  1
  C  C20  1  0.081368  0.643076  0.731324  1
  C  C21  1  0.418632  0.143076  0.268676  1
  C  C22  1  0.581368  0.356924  0.768676  1
  C  C23  1  0.918632  0.856924  0.231324  1
  N  N24  1  0.829893  0.353802  0.395362  1
  N  N25  1  0.670107  0.853802  0.604638  1
  N  N26  1  0.329893  0.646198  0.104638  1
  N  N27  1  0.170107  0.146198  0.895362  1
  N  N28  1  0.170107  0.646198  0.604638  1
  N  N29  1  0.329893  0.146198  0.395362  1
  N  N30  1  0.670107  0.353802  0.895362  1
  N  N31  1  0.829893  0.853802  0.104638  1
  N  N32  1  0.990689  0.358866  0.151696  1
  N  N33  1  0.509311  0.858866  0.848304  1
  N  N34  1  0.490689  0.641134  0.348304  1
  N  N35  1  0.009311  0.141134  0.651696  1
  N  N36  1  0.009311  0.641134  0.848304  1
  N  N37  1  0.490689  0.141134  0.151696  1
  N  N38  1  0.509311  0.358866  0.651696  1
  N  N39  1  0.990689  0.858866  0.348304  1
