# generated using pymatgen
data_Li10FeCo9O20
_symmetry_space_group_name_H-M   'P 1'
_cell_length_a   5.00636672
_cell_length_b   7.61160663
_cell_length_c   9.81125381
_cell_angle_alpha   80.21382617
_cell_angle_beta   84.88144056
_cell_angle_gamma   71.29662198
_symmetry_Int_Tables_number   1
_chemical_formula_structural   Li10FeCo9O20
_chemical_formula_sum   'Li10 Fe1 Co9 O20'
_cell_volume   348.73444439
_cell_formula_units_Z   1
loop_
 _symmetry_equiv_pos_site_id
 _symmetry_equiv_pos_as_xyz
  1  'x, y, z'
loop_
 _atom_site_type_symbol
 _atom_site_label
 _atom_site_symmetry_multiplicity
 _atom_site_fract_x
 _atom_site_fract_y
 _atom_site_fract_z
 _atom_site_occupancy
  Li  Li0  1  0.600130  0.798004  0.997310  1
  Li  Li1  1  0.302357  0.900844  0.504433  1
  Li  Li2  1  0.896585  0.698223  0.500456  1
  Li  Li3  1  0.003229  0.002932  0.997884  1
  Li  Li4  1  0.199581  0.599882  0.998805  1
  Li  Li5  1  0.506890  0.501345  0.503515  1
  Li  Li6  1  0.798461  0.403923  0.997680  1
  Li  Li7  1  0.096517  0.298129  0.501126  1
  Li  Li8  1  0.690822  0.099987  0.503407  1
  Li  Li9  1  0.404477  0.196917  0.995544  1
  Fe  Fe10  1  0.948813  0.851536  0.749934  1
  Co  Co11  1  0.650591  0.947949  0.250267  1
  Co  Co12  1  0.251678  0.748440  0.248346  1
  Co  Co13  1  0.853818  0.549399  0.249011  1
  Co  Co14  1  0.453796  0.346985  0.250619  1
  Co  Co15  1  0.048067  0.154072  0.252320  1
  Co  Co16  1  0.548435  0.650295  0.749916  1
  Co  Co17  1  0.150472  0.449591  0.749561  1
  Co  Co18  1  0.751153  0.250295  0.750217  1
  Co  Co19  1  0.351080  0.048653  0.750309  1
  O  O20  1  0.969575  0.932186  0.366802  1
  O  O21  1  0.619767  0.872235  0.642602  1
  O  O22  1  0.323751  0.971720  0.133447  1
  O  O23  1  0.278918  0.826461  0.857578  1
  O  O24  1  0.925472  0.766585  0.133303  1
  O  O25  1  0.865131  0.632989  0.859903  1
  O  O26  1  0.592019  0.718171  0.361803  1
  O  O27  1  0.225557  0.677191  0.637975  1
  O  O28  1  0.814758  0.474438  0.639441  1
  O  O29  1  0.543013  0.571892  0.137510  1
  O  O30  1  0.484431  0.426606  0.860713  1
  O  O31  1  0.171755  0.527400  0.362469  1
  O  O32  1  0.772122  0.338025  0.365755  1
  O  O33  1  0.435131  0.264580  0.641042  1
  O  O34  1  0.077424  0.221616  0.859757  1
  O  O35  1  0.113075  0.373889  0.135378  1
  O  O36  1  0.672909  0.030278  0.857102  1
  O  O37  1  0.710233  0.177241  0.131760  1
  O  O38  1  0.372900  0.124069  0.371094  1
  O  O39  1  0.025126  0.075030  0.643911  1
