# generated using pymatgen
data_V2Cu(PO4)3
_symmetry_space_group_name_H-M   'P 1'
_cell_length_a   8.62611702
_cell_length_b   8.62611702
_cell_length_c   8.62611702
_cell_angle_alpha   59.85520953
_cell_angle_beta   59.85520953
_cell_angle_gamma   59.85520953
_symmetry_Int_Tables_number   1
_chemical_formula_structural   V2Cu(PO4)3
_chemical_formula_sum   'V4 Cu2 P6 O24'
_cell_volume   452.37824359
_cell_formula_units_Z   2
loop_
 _symmetry_equiv_pos_site_id
 _symmetry_equiv_pos_as_xyz
  1  'x, y, z'
loop_
 _atom_site_type_symbol
 _atom_site_label
 _atom_site_symmetry_multiplicity
 _atom_site_fract_x
 _atom_site_fract_y
 _atom_site_fract_z
 _atom_site_occupancy
  V  V0  1  0.857748  0.857748  0.857748  1
  V  V1  1  0.642252  0.642252  0.642252  1
  V  V2  1  0.357748  0.357748  0.357748  1
  V  V3  1  0.142252  0.142252  0.142252  1
  Cu  Cu4  1  0.000000  0.000000  0.000000  1
  Cu  Cu5  1  0.500000  0.500000  0.500000  1
  P  P6  1  0.250000  0.539989  0.960011  1
  P  P7  1  0.960011  0.250000  0.539989  1
  P  P8  1  0.539989  0.960011  0.250000  1
  P  P9  1  0.460011  0.039989  0.750000  1
  P  P10  1  0.039989  0.750000  0.460011  1
  P  P11  1  0.750000  0.460011  0.039989  1
  O  O12  1  0.697711  0.495983  0.875727  1
  O  O13  1  0.495983  0.875727  0.697711  1
  O  O14  1  0.082983  0.730784  0.941968  1
  O  O15  1  0.875727  0.697711  0.495983  1
  O  O16  1  0.197711  0.375727  0.995983  1
  O  O17  1  0.417017  0.558032  0.769216  1
  O  O18  1  0.941968  0.082983  0.730784  1
  O  O19  1  0.769216  0.417017  0.558032  1
  O  O20  1  0.624273  0.004017  0.802289  1
  O  O21  1  0.558032  0.769216  0.417017  1
  O  O22  1  0.269216  0.058032  0.917017  1
  O  O23  1  0.004017  0.802289  0.624273  1
  O  O24  1  0.995983  0.197711  0.375727  1
  O  O25  1  0.730784  0.941968  0.082983  1
  O  O26  1  0.441968  0.230784  0.582983  1
  O  O27  1  0.375727  0.995983  0.197711  1
  O  O28  1  0.230784  0.582983  0.441968  1
  O  O29  1  0.058032  0.917017  0.269216  1
  O  O30  1  0.582983  0.441968  0.230784  1
  O  O31  1  0.802289  0.624273  0.004017  1
  O  O32  1  0.124273  0.302289  0.504017  1
  O  O33  1  0.917017  0.269216  0.058032  1
  O  O34  1  0.504017  0.124273  0.302289  1
  O  O35  1  0.302289  0.504017  0.124273  1
