# generated using pymatgen
data_NaAlSi3O8
_symmetry_space_group_name_H-M   'P 1'
_cell_length_a   7.25554416
_cell_length_b   7.54510962
_cell_length_c   7.83334378
_cell_angle_alpha   114.78451377
_cell_angle_beta   107.07247652
_cell_angle_gamma   100.61040726
_symmetry_Int_Tables_number   1
_chemical_formula_structural   NaAlSi3O8
_chemical_formula_sum   'Na2 Al2 Si6 O16'
_cell_volume   348.07750667
_cell_formula_units_Z   2
loop_
 _symmetry_equiv_pos_site_id
 _symmetry_equiv_pos_as_xyz
  1  'x, y, z'
loop_
 _atom_site_type_symbol
 _atom_site_label
 _atom_site_symmetry_multiplicity
 _atom_site_fract_x
 _atom_site_fract_y
 _atom_site_fract_z
 _atom_site_occupancy
  Na  Na0  1  0.113032  0.975749  0.740381  1
  Na  Na1  1  0.886968  0.024251  0.259619  1
  Al  Al2  1  0.970931  0.342025  0.819691  1
  Al  Al3  1  0.029069  0.657975  0.180309  1
  Si  Si4  1  0.587723  0.639761  0.175483  1
  Si  Si5  1  0.412277  0.360239  0.824517  1
  Si  Si6  1  0.487797  0.222731  0.193720  1
  Si  Si7  1  0.512203  0.777269  0.806280  1
  Si  Si8  1  0.206513  0.764546  0.432218  1
  Si  Si9  1  0.793487  0.235454  0.567782  1
  O  O10  1  0.169105  0.266332  0.862577  1
  O  O11  1  0.830895  0.733668  0.137423  1
  O  O12  1  0.313449  0.996473  0.404574  1
  O  O13  1  0.686551  0.003527  0.595426  1
  O  O14  1  0.734788  0.228305  0.072905  1
  O  O15  1  0.265212  0.771695  0.927095  1
  O  O16  1  0.416482  0.702933  0.327138  1
  O  O17  1  0.583518  0.297067  0.672862  1
  O  O18  1  0.050923  0.609401  0.679044  1
  O  O19  1  0.949077  0.390599  0.320956  1
  O  O20  1  0.482756  0.386765  0.281248  1
  O  O21  1  0.517244  0.613235  0.718752  1
  O  O22  1  0.925295  0.219236  0.685457  1
  O  O23  1  0.074705  0.780764  0.314543  1
  O  O24  1  0.618778  0.738252  0.948418  1
  O  O25  1  0.381222  0.261748  0.051582  1
