# generated using pymatgen
data_V(CO3)2
_symmetry_space_group_name_H-M   'P 1'
_cell_length_a   7.13412587
_cell_length_b   7.60594273
_cell_length_c   9.23795775
_cell_angle_alpha   90.00000000
_cell_angle_beta   90.00000000
_cell_angle_gamma   90.00000000
_symmetry_Int_Tables_number   1
_chemical_formula_structural   V(CO3)2
_chemical_formula_sum   'V4 C8 O24'
_cell_volume   501.26777980
_cell_formula_units_Z   4
loop_
 _symmetry_equiv_pos_site_id
 _symmetry_equiv_pos_as_xyz
  1  'x, y, z'
loop_
 _atom_site_type_symbol
 _atom_site_label
 _atom_site_symmetry_multiplicity
 _atom_site_fract_x
 _atom_site_fract_y
 _atom_site_fract_z
 _atom_site_occupancy
  V  V0  1  0.736668  0.144524  0.370591  1
  V  V1  1  0.236668  0.355476  0.870591  1
  V  V2  1  0.763332  0.644524  0.370591  1
  V  V3  1  0.263332  0.855476  0.870591  1
  C  C4  1  0.075015  0.219468  0.594867  1
  C  C5  1  0.921325  0.246371  0.098824  1
  C  C6  1  0.421325  0.253629  0.598824  1
  C  C7  1  0.575015  0.280532  0.094867  1
  C  C8  1  0.424985  0.719468  0.594867  1
  C  C9  1  0.578675  0.746371  0.098824  1
  C  C10  1  0.078675  0.753629  0.598824  1
  C  C11  1  0.924985  0.780532  0.094867  1
  O  O12  1  0.286867  0.074433  0.868317  1
  O  O13  1  0.952324  0.154279  0.516206  1
  O  O14  1  0.925802  0.155138  0.213239  1
  O  O15  1  0.549549  0.205589  0.215827  1
  O  O16  1  0.565371  0.207272  0.532927  1
  O  O17  1  0.255580  0.196222  0.536629  1
  O  O18  1  0.755580  0.303778  0.036629  1
  O  O19  1  0.065371  0.292728  0.032927  1
  O  O20  1  0.049549  0.294411  0.715827  1
  O  O21  1  0.425802  0.344862  0.713239  1
  O  O22  1  0.452324  0.345721  0.016206  1
  O  O23  1  0.786867  0.425567  0.368317  1
  O  O24  1  0.213133  0.574433  0.868317  1
  O  O25  1  0.547676  0.654279  0.516206  1
  O  O26  1  0.574198  0.655138  0.213239  1
  O  O27  1  0.950451  0.705589  0.215827  1
  O  O28  1  0.934629  0.707272  0.532927  1
  O  O29  1  0.244420  0.696222  0.536629  1
  O  O30  1  0.744420  0.803778  0.036629  1
  O  O31  1  0.434629  0.792728  0.032927  1
  O  O32  1  0.450451  0.794411  0.715827  1
  O  O33  1  0.074198  0.844862  0.713239  1
  O  O34  1  0.047676  0.845721  0.016206  1
  O  O35  1  0.713133  0.925567  0.368317  1
