# generated using pymatgen
data_Ti2Mn3Fe3O16
_symmetry_space_group_name_H-M   'P 1'
_cell_length_a   5.90385699
_cell_length_b   5.90385699
_cell_length_c   9.03491634
_cell_angle_alpha   88.51468207
_cell_angle_beta   91.48531793
_cell_angle_gamma   120.45245034
_symmetry_Int_Tables_number   1
_chemical_formula_structural   Ti2Mn3Fe3O16
_chemical_formula_sum   'Ti2 Mn3 Fe3 O16'
_cell_volume   271.35295008
_cell_formula_units_Z   1
loop_
 _symmetry_equiv_pos_site_id
 _symmetry_equiv_pos_as_xyz
  1  'x, y, z'
loop_
 _atom_site_type_symbol
 _atom_site_label
 _atom_site_symmetry_multiplicity
 _atom_site_fract_x
 _atom_site_fract_y
 _atom_site_fract_z
 _atom_site_occupancy
  Ti  Ti0  1  0.673952  0.326048  0.500192  1
  Ti  Ti1  1  0.337537  0.662463  0.999143  1
  Mn  Mn2  1  0.828498  0.171502  0.786961  1
  Mn  Mn3  1  0.662949  0.831006  0.288177  1
  Mn  Mn4  1  0.168994  0.337051  0.288177  1
  Fe  Fe5  1  0.833654  0.669042  0.790117  1
  Fe  Fe6  1  0.330958  0.166346  0.790117  1
  Fe  Fe7  1  0.165127  0.834873  0.290741  1
  O  O8  1  0.829572  0.664098  0.400681  1
  O  O9  1  0.523797  0.476203  0.660637  1
  O  O10  1  0.671800  0.328200  0.899567  1
  O  O11  1  0.991495  0.008505  0.686210  1
  O  O12  1  0.992806  0.007194  0.185426  1
  O  O13  1  0.335902  0.170428  0.400681  1
  O  O14  1  0.954475  0.473369  0.660246  1
  O  O15  1  0.526631  0.045525  0.660246  1
  O  O16  1  0.167165  0.832835  0.901684  1
  O  O17  1  0.833109  0.166891  0.396107  1
  O  O18  1  0.477454  0.952455  0.163918  1
  O  O19  1  0.047545  0.522546  0.163918  1
  O  O20  1  0.340092  0.659908  0.399531  1
  O  O21  1  0.660170  0.836665  0.902086  1
  O  O22  1  0.478035  0.521965  0.167378  1
  O  O23  1  0.163335  0.339830  0.902086  1
