# generated using pymatgen
data_V6O11F
_symmetry_space_group_name_H-M   'P 1'
_cell_length_a   5.50719822
_cell_length_b   5.50719822
_cell_length_c   7.12327832
_cell_angle_alpha   71.99374237
_cell_angle_beta   108.00625763
_cell_angle_gamma   105.96125306
_symmetry_Int_Tables_number   1
_chemical_formula_structural   V6O11F
_chemical_formula_sum   'V6 O11 F1'
_cell_volume   191.51549669
_cell_formula_units_Z   1
loop_
 _symmetry_equiv_pos_site_id
 _symmetry_equiv_pos_as_xyz
  1  'x, y, z'
loop_
 _atom_site_type_symbol
 _atom_site_label
 _atom_site_symmetry_multiplicity
 _atom_site_fract_x
 _atom_site_fract_y
 _atom_site_fract_z
 _atom_site_occupancy
  V  V0  1  0.327765  0.327765  0.000000  1
  V  V1  1  0.682623  0.017306  0.828483  1
  V  V2  1  0.305270  0.305270  0.500000  1
  V  V3  1  0.669955  0.030332  0.317926  1
  V  V4  1  0.030332  0.669955  0.682074  1
  V  V5  1  0.017306  0.682623  0.171517  1
  O  O6  1  0.955997  0.301235  0.829149  1
  O  O7  1  0.764382  0.894102  0.128958  1
  O  O8  1  0.427128  0.237985  0.789696  1
  O  O9  1  0.098462  0.556939  0.470729  1
  O  O10  1  0.894102  0.764382  0.871042  1
  O  O11  1  0.237985  0.427128  0.210304  1
  O  O12  1  0.556939  0.098462  0.529271  1
  O  O13  1  0.711772  0.358337  0.173767  1
  O  O14  1  0.358337  0.711772  0.826233  1
  O  O15  1  0.021819  0.021819  0.500000  1
  O  O16  1  0.301235  0.955997  0.170851  1
  F  F17  1  0.638587  0.638587  0.500000  1
