# generated using pymatgen
data_SrH4(SO4)3
_symmetry_space_group_name_H-M   'P 1'
_cell_length_a   6.04084335
_cell_length_b   8.57448253
_cell_length_c   10.39035313
_cell_angle_alpha   81.46723394
_cell_angle_beta   83.52796836
_cell_angle_gamma   70.83111080
_symmetry_Int_Tables_number   1
_chemical_formula_structural   SrH4(SO4)3
_chemical_formula_sum   'Sr2 H8 S6 O24'
_cell_volume   501.54200212
_cell_formula_units_Z   2
loop_
 _symmetry_equiv_pos_site_id
 _symmetry_equiv_pos_as_xyz
  1  'x, y, z'
loop_
 _atom_site_type_symbol
 _atom_site_label
 _atom_site_symmetry_multiplicity
 _atom_site_fract_x
 _atom_site_fract_y
 _atom_site_fract_z
 _atom_site_occupancy
  Sr  Sr0  1  0.002160  0.761181  0.440634  1
  Sr  Sr1  1  0.997840  0.238819  0.559366  1
  H  H2  1  0.992632  0.522466  0.132974  1
  H  H3  1  0.243580  0.095851  0.131261  1
  H  H4  1  0.558965  0.279494  0.344823  1
  H  H5  1  0.499226  0.652319  0.084881  1
  H  H6  1  0.500774  0.347681  0.915119  1
  H  H7  1  0.441035  0.720506  0.655177  1
  H  H8  1  0.756420  0.904149  0.868739  1
  H  H9  1  0.007368  0.477534  0.867026  1
  S  S10  1  0.382178  0.045043  0.324045  1
  S  S11  1  0.123478  0.724221  0.064790  1
  S  S12  1  0.338091  0.492353  0.677920  1
  S  S13  1  0.661909  0.507647  0.322080  1
  S  S14  1  0.876522  0.275779  0.935210  1
  S  S15  1  0.617822  0.954957  0.675955  1
  O  O16  1  0.011316  0.205137  0.047218  1
  O  O17  1  0.151129  0.534154  0.098463  1
  O  O18  1  0.389734  0.027636  0.175747  1
  O  O19  1  0.043505  0.805497  0.181873  1
  O  O20  1  0.158372  0.471064  0.603631  1
  O  O21  1  0.343637  0.221589  0.341169  1
  O  O22  1  0.390824  0.065833  0.637744  1
  O  O23  1  0.286778  0.456332  0.820160  1
  O  O24  1  0.379748  0.714146  0.018265  1
  O  O25  1  0.180537  0.998724  0.393066  1
  O  O26  1  0.295153  0.685915  0.645211  1
  O  O27  1  0.420617  0.595039  0.362103  1
  O  O28  1  0.579383  0.404961  0.637897  1
  O  O29  1  0.704847  0.314085  0.354789  1
  O  O30  1  0.819463  0.001276  0.606934  1
  O  O31  1  0.620252  0.285854  0.981735  1
  O  O32  1  0.713222  0.543668  0.179840  1
  O  O33  1  0.609176  0.934167  0.362256  1
  O  O34  1  0.656363  0.778411  0.658831  1
  O  O35  1  0.841628  0.528936  0.396369  1
  O  O36  1  0.956495  0.194503  0.818127  1
  O  O37  1  0.610266  0.972364  0.824253  1
  O  O38  1  0.848871  0.465846  0.901537  1
  O  O39  1  0.988684  0.794863  0.952782  1
