# generated using pymatgen
data_Li2VOF4
_symmetry_space_group_name_H-M   'P 1'
_cell_length_a   5.78872830
_cell_length_b   5.78872830
_cell_length_c   7.05673852
_cell_angle_alpha   71.16171396
_cell_angle_beta   108.83828604
_cell_angle_gamma   127.74816002
_symmetry_Int_Tables_number   1
_chemical_formula_structural   Li2VOF4
_chemical_formula_sum   'Li4 V2 O2 F8'
_cell_volume   174.46591786
_cell_formula_units_Z   2
loop_
 _symmetry_equiv_pos_site_id
 _symmetry_equiv_pos_as_xyz
  1  'x, y, z'
loop_
 _atom_site_type_symbol
 _atom_site_label
 _atom_site_symmetry_multiplicity
 _atom_site_fract_x
 _atom_site_fract_y
 _atom_site_fract_z
 _atom_site_occupancy
  Li  Li0  1  0.359425  0.640585  0.253740  1
  Li  Li1  1  0.359415  0.640575  0.753740  1
  Li  Li2  1  0.653524  0.363535  0.242468  1
  Li  Li3  1  0.636465  0.346476  0.742468  1
  V  V4  1  0.984150  0.984044  0.523385  1
  V  V5  1  0.015956  0.015850  0.023385  1
  O  O6  1  0.147590  0.150463  0.245812  1
  O  O7  1  0.849537  0.852410  0.745812  1
  F  F8  1  0.593464  0.764324  0.036757  1
  F  F9  1  0.235676  0.406536  0.536757  1
  F  F10  1  0.665614  0.020274  0.352376  1
  F  F11  1  0.022297  0.666137  0.136070  1
  F  F12  1  0.979726  0.334386  0.852376  1
  F  F13  1  0.333863  0.977703  0.636070  1
  F  F14  1  0.764178  0.590321  0.455334  1
  F  F15  1  0.409679  0.235822  0.955334  1
