# generated using pymatgen
data_Li2Nb4ZnO12
_symmetry_space_group_name_H-M   'P 1'
_cell_length_a   5.24420334
_cell_length_b   5.61193764
_cell_length_c   7.69429216
_cell_angle_alpha   95.24515867
_cell_angle_beta   90.13903823
_cell_angle_gamma   90.19217145
_symmetry_Int_Tables_number   1
_chemical_formula_structural   Li2Nb4ZnO12
_chemical_formula_sum   'Li2 Nb4 Zn1 O12'
_cell_volume   225.49379478
_cell_formula_units_Z   1
loop_
 _symmetry_equiv_pos_site_id
 _symmetry_equiv_pos_as_xyz
  1  'x, y, z'
loop_
 _atom_site_type_symbol
 _atom_site_label
 _atom_site_symmetry_multiplicity
 _atom_site_fract_x
 _atom_site_fract_y
 _atom_site_fract_z
 _atom_site_occupancy
  Li  Li0  1  0.503322  0.944085  0.276582  1
  Li  Li1  1  0.997822  0.433102  0.785078  1
  Nb  Nb2  1  0.507570  0.501003  0.995030  1
  Nb  Nb3  1  0.497085  0.509479  0.509927  1
  Nb  Nb4  1  0.995801  0.004404  0.500798  1
  Nb  Nb5  1  0.006922  0.990019  0.992128  1
  Zn  Zn6  1  0.997659  0.440462  0.271700  1
  O  O7  1  0.817597  0.352040  0.539601  1
  O  O8  1  0.631455  0.542798  0.233930  1
  O  O9  1  0.685220  0.841303  0.525157  1
  O  O10  1  0.878530  0.054164  0.232016  1
  O  O11  1  0.814027  0.716371  0.918723  1
  O  O12  1  0.313887  0.847305  0.050279  1
  O  O13  1  0.705157  0.237891  0.925527  1
  O  O14  1  0.102896  0.049078  0.734782  1
  O  O15  1  0.184448  0.353036  0.045239  1
  O  O16  1  0.367068  0.530518  0.736312  1
  O  O17  1  0.304129  0.231269  0.415127  1
  O  O18  1  0.189403  0.719854  0.412973  1
