# generated using pymatgen
data_Li2Fe2Si2O7
_symmetry_space_group_name_H-M   'P 1'
_cell_length_a   4.93519476
_cell_length_b   4.93519476
_cell_length_c   13.30185855
_cell_angle_alpha   90.00000000
_cell_angle_beta   90.00000000
_cell_angle_gamma   118.11589713
_symmetry_Int_Tables_number   1
_chemical_formula_structural   Li2Fe2Si2O7
_chemical_formula_sum   'Li4 Fe4 Si4 O14'
_cell_volume   285.75089889
_cell_formula_units_Z   2
loop_
 _symmetry_equiv_pos_site_id
 _symmetry_equiv_pos_as_xyz
  1  'x, y, z'
loop_
 _atom_site_type_symbol
 _atom_site_label
 _atom_site_symmetry_multiplicity
 _atom_site_fract_x
 _atom_site_fract_y
 _atom_site_fract_z
 _atom_site_occupancy
  Li  Li0  1  0.345194  0.749004  0.583345  1
  Li  Li1  1  0.345194  0.749004  0.916655  1
  Li  Li2  1  0.749004  0.345194  0.416655  1
  Li  Li3  1  0.749004  0.345194  0.083345  1
  Fe  Fe4  1  0.038820  0.038820  0.000000  1
  Fe  Fe5  1  0.038820  0.038820  0.500000  1
  Fe  Fe6  1  0.024661  0.007781  0.250000  1
  Fe  Fe7  1  0.007781  0.024661  0.750000  1
  Si  Si8  1  0.402748  0.693172  0.362781  1
  Si  Si9  1  0.402748  0.693172  0.137219  1
  Si  Si10  1  0.693172  0.402748  0.637219  1
  Si  Si11  1  0.693172  0.402748  0.862781  1
  O  O12  1  0.131923  0.334733  0.134655  1
  O  O13  1  0.131923  0.334733  0.365345  1
  O  O14  1  0.372114  0.839134  0.250000  1
  O  O15  1  0.716905  0.745312  0.869548  1
  O  O16  1  0.716905  0.745312  0.630452  1
  O  O17  1  0.374837  0.919611  0.054701  1
  O  O18  1  0.374837  0.919611  0.445299  1
  O  O19  1  0.334733  0.131923  0.865345  1
  O  O20  1  0.334733  0.131923  0.634655  1
  O  O21  1  0.839134  0.372114  0.750000  1
  O  O22  1  0.745312  0.716905  0.369548  1
  O  O23  1  0.745312  0.716905  0.130452  1
  O  O24  1  0.919611  0.374837  0.554701  1
  O  O25  1  0.919611  0.374837  0.945299  1
