# generated using pymatgen
data_Li4Cr2Ni3Sb3O16
_symmetry_space_group_name_H-M   'P 1'
_cell_length_a   6.05092260
_cell_length_b   6.05092260
_cell_length_c   9.62392673
_cell_angle_alpha   88.67601629
_cell_angle_beta   91.32398371
_cell_angle_gamma   120.03631484
_symmetry_Int_Tables_number   1
_chemical_formula_structural   Li4Cr2Ni3Sb3O16
_chemical_formula_sum   'Li4 Cr2 Ni3 Sb3 O16'
_cell_volume   304.93868537
_cell_formula_units_Z   1
loop_
 _symmetry_equiv_pos_site_id
 _symmetry_equiv_pos_as_xyz
  1  'x, y, z'
loop_
 _atom_site_type_symbol
 _atom_site_label
 _atom_site_symmetry_multiplicity
 _atom_site_fract_x
 _atom_site_fract_y
 _atom_site_fract_z
 _atom_site_occupancy
  Li  Li0  1  0.333887  0.666113  0.120308  1
  Li  Li1  1  0.019518  0.980482  0.016007  1
  Li  Li2  1  0.011366  0.988634  0.493782  1
  Li  Li3  1  0.671773  0.328227  0.595864  1
  Cr  Cr4  1  0.325445  0.674555  0.504872  1
  Cr  Cr5  1  0.654083  0.345917  0.025330  1
  Ni  Ni6  1  0.168366  0.831634  0.784774  1
  Ni  Ni7  1  0.339368  0.172255  0.287636  1
  Ni  Ni8  1  0.827745  0.660632  0.287636  1
  Sb  Sb9  1  0.167715  0.337813  0.785262  1
  Sb  Sb10  1  0.662187  0.832285  0.785262  1
  Sb  Sb11  1  0.828420  0.171580  0.286263  1
  O  O12  1  0.153519  0.334244  0.403406  1
  O  O13  1  0.484176  0.515824  0.660953  1
  O  O14  1  0.337485  0.662515  0.898544  1
  O  O15  1  0.995970  0.004030  0.682248  1
  O  O16  1  0.998222  0.001778  0.198158  1
  O  O17  1  0.665756  0.846481  0.403406  1
  O  O18  1  0.038669  0.510299  0.658514  1
  O  O19  1  0.489701  0.961331  0.658514  1
  O  O20  1  0.839811  0.160189  0.896824  1
  O  O21  1  0.166785  0.833215  0.401420  1
  O  O22  1  0.526662  0.039683  0.152208  1
  O  O23  1  0.960317  0.473338  0.152208  1
  O  O24  1  0.667811  0.332189  0.393836  1
  O  O25  1  0.320492  0.173054  0.900497  1
  O  O26  1  0.518902  0.481098  0.157884  1
  O  O27  1  0.826946  0.679508  0.900497  1
