# generated using pymatgen
data_Li4Cr3Fe3(SbO8)2
_symmetry_space_group_name_H-M   'P 1'
_cell_length_a   5.95537542
_cell_length_b   5.95537542
_cell_length_c   9.65235876
_cell_angle_alpha   89.82331086
_cell_angle_beta   90.17668914
_cell_angle_gamma   119.85317224
_symmetry_Int_Tables_number   1
_chemical_formula_structural   Li4Cr3Fe3(SbO8)2
_chemical_formula_sum   'Li4 Cr3 Fe3 Sb2 O16'
_cell_volume   296.90688762
_cell_formula_units_Z   1
loop_
 _symmetry_equiv_pos_site_id
 _symmetry_equiv_pos_as_xyz
  1  'x, y, z'
loop_
 _atom_site_type_symbol
 _atom_site_label
 _atom_site_symmetry_multiplicity
 _atom_site_fract_x
 _atom_site_fract_y
 _atom_site_fract_z
 _atom_site_occupancy
  Li  Li0  1  0.334354  0.665646  0.907600  1
  Li  Li1  1  0.999518  0.000482  0.996597  1
  Li  Li2  1  0.998361  0.001639  0.498679  1
  Li  Li3  1  0.666707  0.333293  0.411722  1
  Cr  Cr4  1  0.171290  0.828710  0.220857  1
  Cr  Cr5  1  0.830170  0.660676  0.720888  1
  Cr  Cr6  1  0.339324  0.169830  0.720888  1
  Fe  Fe7  1  0.660658  0.828569  0.221656  1
  Fe  Fe8  1  0.171431  0.339342  0.221656  1
  Fe  Fe9  1  0.828368  0.171632  0.720797  1
  Sb  Sb10  1  0.331890  0.668110  0.498316  1
  Sb  Sb11  1  0.668447  0.331553  0.991747  1
  O  O12  1  0.669615  0.838609  0.603680  1
  O  O13  1  0.481409  0.518591  0.358103  1
  O  O14  1  0.335587  0.664413  0.113741  1
  O  O15  1  0.000375  0.999625  0.311535  1
  O  O16  1  0.994988  0.005012  0.810812  1
  O  O17  1  0.161391  0.330385  0.603680  1
  O  O18  1  0.478091  0.963703  0.353379  1
  O  O19  1  0.036297  0.521909  0.353379  1
  O  O20  1  0.164005  0.835995  0.604316  1
  O  O21  1  0.833835  0.166165  0.101918  1
  O  O22  1  0.964937  0.479470  0.848319  1
  O  O23  1  0.520530  0.035063  0.848319  1
  O  O24  1  0.835666  0.665533  0.100986  1
  O  O25  1  0.669818  0.330182  0.617862  1
  O  O26  1  0.518900  0.481100  0.849237  1
  O  O27  1  0.334467  0.164334  0.100986  1
