# generated using pymatgen
data_V6O7F5
_symmetry_space_group_name_H-M   'P 1'
_cell_length_a   4.72711641
_cell_length_b   5.60508235
_cell_length_c   7.75264220
_cell_angle_alpha   94.40350388
_cell_angle_beta   89.90831077
_cell_angle_gamma   91.43536061
_symmetry_Int_Tables_number   1
_chemical_formula_structural   V6O7F5
_chemical_formula_sum   'V6 O7 F5'
_cell_volume   204.74241005
_cell_formula_units_Z   1
loop_
 _symmetry_equiv_pos_site_id
 _symmetry_equiv_pos_as_xyz
  1  'x, y, z'
loop_
 _atom_site_type_symbol
 _atom_site_label
 _atom_site_symmetry_multiplicity
 _atom_site_fract_x
 _atom_site_fract_y
 _atom_site_fract_z
 _atom_site_occupancy
  V  V0  1  0.485213  0.846103  0.327423  1
  V  V1  1  0.541638  0.485453  0.993498  1
  V  V2  1  0.454518  0.188498  0.678142  1
  V  V3  1  0.010675  0.318282  0.327917  1
  V  V4  1  0.013856  0.661471  0.661883  1
  V  V5  1  0.990969  0.003591  0.014618  1
  O  O6  1  0.198881  0.373815  0.560498  1
  O  O7  1  0.197542  0.035315  0.239332  1
  O  O8  1  0.291770  0.196103  0.896232  1
  O  O9  1  0.310772  0.881261  0.573039  1
  O  O10  1  0.701418  0.455352  0.750615  1
  O  O11  1  0.694970  0.795456  0.102816  1
  O  O12  1  0.801140  0.299223  0.108827  1
  F  F13  1  0.200913  0.695448  0.901798  1
  F  F14  1  0.304970  0.531912  0.223618  1
  F  F15  1  0.695372  0.137271  0.444370  1
  F  F16  1  0.800758  0.963967  0.769816  1
  F  F17  1  0.804622  0.631479  0.425557  1
