# generated using pymatgen
data_Sb5O7F
_symmetry_space_group_name_H-M   'P 1'
_cell_length_a   14.44174060
_cell_length_b   14.44174060
_cell_length_c   14.44174060
_cell_angle_alpha   158.91200158
_cell_angle_beta   114.31233073
_cell_angle_gamma   69.83411046
_symmetry_Int_Tables_number   1
_chemical_formula_structural   Sb5O7F
_chemical_formula_sum   'Sb20 O28 F4'
_cell_volume   980.46451793
_cell_formula_units_Z   4
loop_
 _symmetry_equiv_pos_site_id
 _symmetry_equiv_pos_as_xyz
  1  'x, y, z'
loop_
 _atom_site_type_symbol
 _atom_site_label
 _atom_site_symmetry_multiplicity
 _atom_site_fract_x
 _atom_site_fract_y
 _atom_site_fract_z
 _atom_site_occupancy
  Sb  Sb0  1  0.774457  0.227019  0.115619  1
  Sb  Sb1  1  0.888601  0.841163  0.615619  1
  Sb  Sb2  1  0.725543  0.341163  0.952562  1
  Sb  Sb3  1  0.611399  0.727019  0.452562  1
  Sb  Sb4  1  0.489268  0.003806  0.855732  1
  Sb  Sb5  1  0.351925  0.496194  0.485462  1
  Sb  Sb6  1  0.989268  0.633536  0.985462  1
  Sb  Sb7  1  0.851925  0.866464  0.355732  1
  Sb  Sb8  1  0.548233  0.798233  0.250000  1
  Sb  Sb9  1  0.048233  0.298233  0.250000  1
  Sb  Sb10  1  0.951767  0.701767  0.750000  1
  Sb  Sb11  1  0.451767  0.201767  0.750000  1
  Sb  Sb12  1  0.148075  0.133536  0.644268  1
  Sb  Sb13  1  0.510732  0.996194  0.144268  1
  Sb  Sb14  1  0.010732  0.366464  0.014538  1
  Sb  Sb15  1  0.648075  0.503806  0.514538  1
  Sb  Sb16  1  0.274457  0.658837  0.047438  1
  Sb  Sb17  1  0.388601  0.272981  0.547438  1
  Sb  Sb18  1  0.111399  0.158837  0.384381  1
  Sb  Sb19  1  0.225543  0.772981  0.884381  1
  O  O20  1  0.915709  0.471317  0.395400  1
  O  O21  1  0.924084  0.979691  0.895400  1
  O  O22  1  0.921248  0.251146  0.977714  1
  O  O23  1  0.726568  0.556466  0.477714  1
  O  O24  1  0.595644  0.137372  0.118592  1
  O  O25  1  0.981220  0.022948  0.618592  1
  O  O26  1  0.750000  0.956606  0.706606  1
  O  O27  1  0.750000  0.456606  0.206606  1
  O  O28  1  0.518780  0.637372  0.541728  1
  O  O29  1  0.904356  0.522948  0.041728  1
  O  O30  1  0.578752  0.056466  0.829898  1
  O  O31  1  0.773432  0.751146  0.329898  1
  O  O32  1  0.584291  0.479691  0.055607  1
  O  O33  1  0.575916  0.971317  0.555607  1
  O  O34  1  0.424084  0.028683  0.444393  1
  O  O35  1  0.415709  0.520309  0.944393  1
  O  O36  1  0.226568  0.248854  0.670102  1
  O  O37  1  0.421248  0.943534  0.170102  1
  O  O38  1  0.481220  0.362628  0.458272  1
  O  O39  1  0.095644  0.477052  0.958272  1
  O  O40  1  0.250000  0.043394  0.293394  1
  O  O41  1  0.250000  0.543394  0.793394  1
  O  O42  1  0.018780  0.977052  0.381408  1
  O  O43  1  0.404356  0.862628  0.881408  1
  O  O44  1  0.273432  0.443534  0.522286  1
  O  O45  1  0.078752  0.748854  0.022286  1
  O  O46  1  0.084291  0.528683  0.604600  1
  O  O47  1  0.075916  0.020309  0.104600  1
  F  F48  1  0.596383  0.346383  0.750000  1
  F  F49  1  0.096383  0.846383  0.750000  1
  F  F50  1  0.903617  0.153617  0.250000  1
  F  F51  1  0.403617  0.653617  0.250000  1
