# generated using pymatgen
data_LiMnVP2(HO5)2
_symmetry_space_group_name_H-M   'P 1'
_cell_length_a   5.24430383
_cell_length_b   7.35176152
_cell_length_c   10.12545207
_cell_angle_alpha   103.31880866
_cell_angle_beta   99.32007804
_cell_angle_gamma   103.92782959
_symmetry_Int_Tables_number   1
_chemical_formula_structural   LiMnVP2(HO5)2
_chemical_formula_sum   'Li2 Mn2 V2 P4 H4 O20'
_cell_volume   358.81629964
_cell_formula_units_Z   2
loop_
 _symmetry_equiv_pos_site_id
 _symmetry_equiv_pos_as_xyz
  1  'x, y, z'
loop_
 _atom_site_type_symbol
 _atom_site_label
 _atom_site_symmetry_multiplicity
 _atom_site_fract_x
 _atom_site_fract_y
 _atom_site_fract_z
 _atom_site_occupancy
  Li  Li0  1  0.353902  0.129233  0.278669  1
  Li  Li1  1  0.646098  0.870767  0.721331  1
  Mn  Mn2  1  0.000000  0.000000  0.000000  1
  Mn  Mn3  1  0.500000  0.500000  0.500000  1
  V  V4  1  0.748290  0.743450  0.249869  1
  V  V5  1  0.251710  0.256550  0.750131  1
  P  P6  1  0.617579  0.287582  0.062423  1
  P  P7  1  0.887902  0.204569  0.436603  1
  P  P8  1  0.112098  0.795431  0.563397  1
  P  P9  1  0.382421  0.712418  0.937577  1
  H  H10  1  0.150362  0.794938  0.141517  1
  H  H11  1  0.328925  0.679033  0.346953  1
  H  H12  1  0.671075  0.320967  0.653047  1
  H  H13  1  0.849638  0.205062  0.858483  1
  O  O14  1  0.801495  0.159145  0.088751  1
  O  O15  1  0.359530  0.222936  0.111505  1
  O  O16  1  0.436455  0.720047  0.095446  1
  O  O17  1  0.776936  0.503583  0.149875  1
  O  O18  1  0.154026  0.259946  0.393593  1
  O  O19  1  0.032364  0.880611  0.163141  1
  O  O20  1  0.707425  0.336077  0.408596  1
  O  O21  1  0.481425  0.620634  0.344600  1
  O  O22  1  0.289062  0.005100  0.654169  1
  O  O23  1  0.065450  0.784540  0.404334  1
  O  O24  1  0.934550  0.215460  0.595666  1
  O  O25  1  0.710938  0.994900  0.345831  1
  O  O26  1  0.518575  0.379366  0.655400  1
  O  O27  1  0.292575  0.663923  0.591404  1
  O  O28  1  0.967636  0.119389  0.836859  1
  O  O29  1  0.845974  0.740054  0.606407  1
  O  O30  1  0.223064  0.496417  0.850125  1
  O  O31  1  0.563545  0.279953  0.904554  1
  O  O32  1  0.640470  0.777064  0.888495  1
  O  O33  1  0.198505  0.840855  0.911249  1
