# generated using pymatgen
data_Na4Co2O5
_symmetry_space_group_name_H-M   'P 1'
_cell_length_a   9.09549058
_cell_length_b   5.74818420
_cell_length_c   12.68343090
_cell_angle_alpha   90.00000000
_cell_angle_beta   116.71289596
_cell_angle_gamma   90.00000000
_symmetry_Int_Tables_number   1
_chemical_formula_structural   Na4Co2O5
_chemical_formula_sum   'Na16 Co8 O20'
_cell_volume   592.34730201
_cell_formula_units_Z   4
loop_
 _symmetry_equiv_pos_site_id
 _symmetry_equiv_pos_as_xyz
  1  'x, y, z'
loop_
 _atom_site_type_symbol
 _atom_site_label
 _atom_site_symmetry_multiplicity
 _atom_site_fract_x
 _atom_site_fract_y
 _atom_site_fract_z
 _atom_site_occupancy
  Na  Na0  1  0.199095  0.928901  0.037886  1
  Na  Na1  1  0.705299  0.586263  0.040457  1
  Na  Na2  1  0.609165  0.119761  0.130788  1
  Na  Na3  1  0.125075  0.372186  0.140117  1
  Na  Na4  1  0.390835  0.619761  0.369212  1
  Na  Na5  1  0.874925  0.872186  0.359883  1
  Na  Na6  1  0.800905  0.428901  0.462114  1
  Na  Na7  1  0.705299  0.913737  0.540457  1
  Na  Na8  1  0.294701  0.086263  0.459543  1
  Na  Na9  1  0.199095  0.571099  0.537886  1
  Na  Na10  1  0.125075  0.127814  0.640117  1
  Na  Na11  1  0.609165  0.380239  0.630788  1
  Na  Na12  1  0.874925  0.627814  0.859883  1
  Na  Na13  1  0.390835  0.880239  0.869212  1
  Na  Na14  1  0.294701  0.413737  0.959543  1
  Na  Na15  1  0.800905  0.071099  0.962114  1
  Co  Co16  1  0.536081  0.612635  0.193618  1
  Co  Co17  1  0.463919  0.112635  0.306382  1
  Co  Co18  1  0.047288  0.839874  0.201316  1
  Co  Co19  1  0.952712  0.339874  0.298684  1
  Co  Co20  1  0.047288  0.660126  0.701316  1
  Co  Co21  1  0.952712  0.160126  0.798684  1
  Co  Co22  1  0.536081  0.887365  0.693618  1
  Co  Co23  1  0.463919  0.387365  0.806382  1
  O  O24  1  0.451791  0.768479  0.057096  1
  O  O25  1  0.413191  0.344542  0.180381  1
  O  O26  1  0.961682  0.738900  0.051911  1
  O  O27  1  0.893717  0.086063  0.193683  1
  O  O28  1  0.754800  0.510508  0.242807  1
  O  O29  1  0.586809  0.844542  0.319619  1
  O  O30  1  0.245200  0.010508  0.257193  1
  O  O31  1  0.106283  0.586063  0.306317  1
  O  O32  1  0.548209  0.268479  0.442904  1
  O  O33  1  0.038318  0.238900  0.448089  1
  O  O34  1  0.961682  0.761100  0.551911  1
  O  O35  1  0.451791  0.731521  0.557096  1
  O  O36  1  0.893717  0.413937  0.693683  1
  O  O37  1  0.754800  0.989492  0.742807  1
  O  O38  1  0.413191  0.155458  0.680381  1
  O  O39  1  0.245200  0.489492  0.757193  1
  O  O40  1  0.106283  0.913937  0.806317  1
  O  O41  1  0.038318  0.261100  0.948089  1
  O  O42  1  0.586809  0.655458  0.819619  1
  O  O43  1  0.548209  0.231521  0.942904  1
