# generated using pymatgen
data_YZr4O9
_symmetry_space_group_name_H-M   'P 1'
_cell_length_a   5.25440534
_cell_length_b   6.16812774
_cell_length_c   6.35802281
_cell_angle_alpha   80.71773264
_cell_angle_beta   68.93217699
_cell_angle_gamma   67.64099396
_symmetry_Int_Tables_number   1
_chemical_formula_structural   YZr4O9
_chemical_formula_sum   'Y1 Zr4 O9'
_cell_volume   177.75986916
_cell_formula_units_Z   1
loop_
 _symmetry_equiv_pos_site_id
 _symmetry_equiv_pos_as_xyz
  1  'x, y, z'
loop_
 _atom_site_type_symbol
 _atom_site_label
 _atom_site_symmetry_multiplicity
 _atom_site_fract_x
 _atom_site_fract_y
 _atom_site_fract_z
 _atom_site_occupancy
  Y  Y0  1  0.187386  0.367289  0.209252  1
  Zr  Zr1  1  0.432376  0.799026  0.421366  1
  Zr  Zr2  1  0.942284  0.027513  0.003955  1
  Zr  Zr3  1  0.834984  0.612385  0.760431  1
  Zr  Zr4  1  0.548073  0.216410  0.638398  1
  O  O5  1  0.834716  0.712122  0.090078  1
  O  O6  1  0.758802  0.464266  0.499187  1
  O  O7  1  0.582676  0.106192  0.327834  1
  O  O8  1  0.929140  0.949694  0.686374  1
  O  O9  1  0.426924  0.866545  0.748427  1
  O  O10  1  0.183007  0.994714  0.216893  1
  O  O11  1  0.241486  0.532805  0.489085  1
  O  O12  1  0.136460  0.305238  0.877598  1
  O  O13  1  0.611684  0.345799  0.931123  1
