# generated using pymatgen
data_VF5
_symmetry_space_group_name_H-M   'P 1'
_cell_length_a   5.36012910
_cell_length_b   9.20160759
_cell_length_c   9.54081968
_cell_angle_alpha   90.00000000
_cell_angle_beta   119.84388088
_cell_angle_gamma   90.00000000
_symmetry_Int_Tables_number   1
_chemical_formula_structural   VF5
_chemical_formula_sum   'V4 F20'
_cell_volume   408.16554884
_cell_formula_units_Z   4
loop_
 _symmetry_equiv_pos_site_id
 _symmetry_equiv_pos_as_xyz
  1  'x, y, z'
loop_
 _atom_site_type_symbol
 _atom_site_label
 _atom_site_symmetry_multiplicity
 _atom_site_fract_x
 _atom_site_fract_y
 _atom_site_fract_z
 _atom_site_occupancy
  V  V0  1  0.499991  0.877038  0.377503  1
  V  V1  1  0.500009  0.377038  0.122497  1
  V  V2  1  0.499991  0.622962  0.877503  1
  V  V3  1  0.500009  0.122962  0.622497  1
  F  F4  1  0.526945  0.248690  0.489747  1
  F  F5  1  0.219456  0.285152  0.125052  1
  F  F6  1  0.811723  0.187884  0.789303  1
  F  F7  1  0.754210  0.988985  0.573408  1
  F  F8  1  0.475716  0.528149  0.230629  1
  F  F9  1  0.524284  0.028149  0.269371  1
  F  F10  1  0.245790  0.488985  0.926592  1
  F  F11  1  0.780544  0.785152  0.374948  1
  F  F12  1  0.188277  0.687884  0.710697  1
  F  F13  1  0.473055  0.748690  0.010253  1
  F  F14  1  0.526945  0.251310  0.989747  1
  F  F15  1  0.811723  0.312116  0.289303  1
  F  F16  1  0.219456  0.214848  0.625052  1
  F  F17  1  0.754210  0.511015  0.073408  1
  F  F18  1  0.475716  0.971851  0.730629  1
  F  F19  1  0.524284  0.471851  0.769371  1
  F  F20  1  0.245790  0.011015  0.426592  1
  F  F21  1  0.188277  0.812116  0.210697  1
  F  F22  1  0.780544  0.714848  0.874948  1
  F  F23  1  0.473055  0.751310  0.510253  1
