# generated using pymatgen
data_Na2SiBSbO7
_symmetry_space_group_name_H-M   'P 1'
_cell_length_a   5.44211229
_cell_length_b   6.63995129
_cell_length_c   9.38537877
_cell_angle_alpha   90.00000000
_cell_angle_beta   93.12390343
_cell_angle_gamma   90.00000000
_symmetry_Int_Tables_number   1
_chemical_formula_structural   Na2SiBSbO7
_chemical_formula_sum   'Na4 Si2 B2 Sb2 O14'
_cell_volume   338.64008491
_cell_formula_units_Z   2
loop_
 _symmetry_equiv_pos_site_id
 _symmetry_equiv_pos_as_xyz
  1  'x, y, z'
loop_
 _atom_site_type_symbol
 _atom_site_label
 _atom_site_symmetry_multiplicity
 _atom_site_fract_x
 _atom_site_fract_y
 _atom_site_fract_z
 _atom_site_occupancy
  Na  Na0  1  0.762114  0.005259  0.196011  1
  Na  Na1  1  0.762114  0.494741  0.196011  1
  Na  Na2  1  0.237886  0.505259  0.803989  1
  Na  Na3  1  0.237886  0.994741  0.803989  1
  Si  Si4  1  0.268779  0.750000  0.436125  1
  Si  Si5  1  0.731221  0.250000  0.563875  1
  B  B6  1  0.278666  0.250000  0.079009  1
  B  B7  1  0.721334  0.750000  0.920991  1
  Sb  Sb8  1  0.216899  0.250000  0.344652  1
  Sb  Sb9  1  0.783101  0.750000  0.655348  1
  O  O10  1  0.682339  0.750000  0.056668  1
  O  O11  1  0.048438  0.250000  0.146615  1
  O  O12  1  0.468347  0.250000  0.194869  1
  O  O13  1  0.193662  0.947502  0.338728  1
  O  O14  1  0.193662  0.552498  0.338728  1
  O  O15  1  0.876645  0.250000  0.414394  1
  O  O16  1  0.570978  0.750000  0.476509  1
  O  O17  1  0.429022  0.250000  0.523491  1
  O  O18  1  0.123355  0.750000  0.585606  1
  O  O19  1  0.806338  0.447502  0.661272  1
  O  O20  1  0.806338  0.052498  0.661272  1
  O  O21  1  0.531653  0.750000  0.805131  1
  O  O22  1  0.951562  0.750000  0.853385  1
  O  O23  1  0.317661  0.250000  0.943332  1
