# generated using pymatgen
data_Li2MnOF3
_symmetry_space_group_name_H-M   'P 1'
_cell_length_a   5.71143111
_cell_length_b   5.71143111
_cell_length_c   5.26491894
_cell_angle_alpha   89.32741765
_cell_angle_beta   90.67258235
_cell_angle_gamma   118.79619019
_symmetry_Int_Tables_number   1
_chemical_formula_structural   Li2MnOF3
_chemical_formula_sum   'Li4 Mn2 O2 F6'
_cell_volume   150.49191887
_cell_formula_units_Z   2
loop_
 _symmetry_equiv_pos_site_id
 _symmetry_equiv_pos_as_xyz
  1  'x, y, z'
loop_
 _atom_site_type_symbol
 _atom_site_label
 _atom_site_symmetry_multiplicity
 _atom_site_fract_x
 _atom_site_fract_y
 _atom_site_fract_z
 _atom_site_occupancy
  Li  Li0  1  0.965548  0.334349  0.006266  1
  Li  Li1  1  0.659479  0.072062  0.527197  1
  Li  Li2  1  0.334349  0.965548  0.993734  1
  Li  Li3  1  0.072062  0.659479  0.472803  1
  Mn  Mn4  1  0.614141  0.614141  0.000000  1
  Mn  Mn5  1  0.366549  0.366549  0.500000  1
  O  O6  1  0.487658  0.293960  0.192706  1
  O  O7  1  0.293960  0.487658  0.807294  1
  F  F8  1  0.983559  0.721062  0.125343  1
  F  F9  1  0.280247  0.999394  0.636884  1
  F  F10  1  0.745995  0.475996  0.666704  1
  F  F11  1  0.475996  0.745995  0.333296  1
  F  F12  1  0.721062  0.983559  0.874657  1
  F  F13  1  0.999394  0.280247  0.363116  1
