# generated using pymatgen
data_Li4Ti3Cr5O16
_symmetry_space_group_name_H-M   'P 1'
_cell_length_a   5.89458216
_cell_length_b   5.89458216
_cell_length_c   9.54893010
_cell_angle_alpha   89.79323682
_cell_angle_beta   90.20676318
_cell_angle_gamma   119.70618165
_symmetry_Int_Tables_number   1
_chemical_formula_structural   Li4Ti3Cr5O16
_chemical_formula_sum   'Li4 Ti3 Cr5 O16'
_cell_volume   288.18132568
_cell_formula_units_Z   1
loop_
 _symmetry_equiv_pos_site_id
 _symmetry_equiv_pos_as_xyz
  1  'x, y, z'
loop_
 _atom_site_type_symbol
 _atom_site_label
 _atom_site_symmetry_multiplicity
 _atom_site_fract_x
 _atom_site_fract_y
 _atom_site_fract_z
 _atom_site_occupancy
  Li  Li0  1  0.333244  0.666756  0.109669  1
  Li  Li1  1  0.003832  0.996168  0.005255  1
  Li  Li2  1  0.999582  0.000418  0.501570  1
  Li  Li3  1  0.666863  0.333137  0.606576  1
  Ti  Ti4  1  0.168257  0.337363  0.786377  1
  Ti  Ti5  1  0.662637  0.831743  0.786377  1
  Ti  Ti6  1  0.829445  0.170555  0.283129  1
  Cr  Cr7  1  0.332644  0.667356  0.514049  1
  Cr  Cr8  1  0.170500  0.829500  0.786319  1
  Cr  Cr9  1  0.663827  0.336173  0.016262  1
  Cr  Cr10  1  0.338657  0.169684  0.289747  1
  Cr  Cr11  1  0.830316  0.661343  0.289747  1
  O  O12  1  0.162503  0.329989  0.397343  1
  O  O13  1  0.479196  0.520804  0.661138  1
  O  O14  1  0.338451  0.661549  0.896898  1
  O  O15  1  0.998265  0.001735  0.688087  1
  O  O16  1  0.998889  0.001111  0.191053  1
  O  O17  1  0.670011  0.837497  0.397343  1
  O  O18  1  0.040788  0.516625  0.659328  1
  O  O19  1  0.483375  0.959212  0.659328  1
  O  O20  1  0.834910  0.165090  0.895273  1
  O  O21  1  0.165341  0.834659  0.395017  1
  O  O22  1  0.521911  0.040795  0.159990  1
  O  O23  1  0.959205  0.478089  0.159990  1
  O  O24  1  0.670832  0.329168  0.397959  1
  O  O25  1  0.326801  0.171314  0.897089  1
  O  O26  1  0.521270  0.478730  0.164208  1
  O  O27  1  0.828686  0.673199  0.897089  1
