# generated using pymatgen
data_AlFeO3
_symmetry_space_group_name_H-M   'P 1'
_cell_length_a   4.88329947
_cell_length_b   5.12029350
_cell_length_c   7.36897441
_cell_angle_alpha   90.00000000
_cell_angle_beta   90.00000000
_cell_angle_gamma   90.00000000
_symmetry_Int_Tables_number   1
_chemical_formula_structural   AlFeO3
_chemical_formula_sum   'Al4 Fe4 O12'
_cell_volume   184.25329478
_cell_formula_units_Z   4
loop_
 _symmetry_equiv_pos_site_id
 _symmetry_equiv_pos_as_xyz
  1  'x, y, z'
loop_
 _atom_site_type_symbol
 _atom_site_label
 _atom_site_symmetry_multiplicity
 _atom_site_fract_x
 _atom_site_fract_y
 _atom_site_fract_z
 _atom_site_occupancy
  Al  Al0  1  0.000000  0.500000  0.000000  1
  Al  Al1  1  0.000000  0.500000  0.500000  1
  Al  Al2  1  0.500000  0.000000  0.000000  1
  Al  Al3  1  0.500000  0.000000  0.500000  1
  Fe  Fe4  1  0.023633  0.941666  0.750000  1
  Fe  Fe5  1  0.476367  0.441666  0.750000  1
  Fe  Fe6  1  0.523633  0.558334  0.250000  1
  Fe  Fe7  1  0.976367  0.058334  0.250000  1
  O  O8  1  0.135168  0.438709  0.250000  1
  O  O9  1  0.189290  0.193520  0.570722  1
  O  O10  1  0.189290  0.193520  0.929278  1
  O  O11  1  0.310710  0.693520  0.929278  1
  O  O12  1  0.310710  0.693520  0.570722  1
  O  O13  1  0.364832  0.938709  0.250000  1
  O  O14  1  0.635168  0.061291  0.750000  1
  O  O15  1  0.689290  0.306480  0.070722  1
  O  O16  1  0.689290  0.306480  0.429278  1
  O  O17  1  0.810710  0.806480  0.070722  1
  O  O18  1  0.810710  0.806480  0.429278  1
  O  O19  1  0.864832  0.561291  0.750000  1
