# generated using pymatgen
data_Li5Mn2Fe3O10
_symmetry_space_group_name_H-M   'P 1'
_cell_length_a   5.16497889
_cell_length_b   5.17238402
_cell_length_c   7.78035475
_cell_angle_alpha   71.50042299
_cell_angle_beta   71.58530466
_cell_angle_gamma   80.55961544
_symmetry_Int_Tables_number   1
_chemical_formula_structural   Li5Mn2Fe3O10
_chemical_formula_sum   'Li5 Mn2 Fe3 O10'
_cell_volume   186.54971765
_cell_formula_units_Z   1
loop_
 _symmetry_equiv_pos_site_id
 _symmetry_equiv_pos_as_xyz
  1  'x, y, z'
loop_
 _atom_site_type_symbol
 _atom_site_label
 _atom_site_symmetry_multiplicity
 _atom_site_fract_x
 _atom_site_fract_y
 _atom_site_fract_z
 _atom_site_occupancy
  Li  Li0  1  0.488606  0.785824  0.409303  1
  Li  Li1  1  0.513016  0.619883  0.777533  1
  Li  Li2  1  0.000000  0.500000  0.500000  1
  Li  Li3  1  0.486984  0.380117  0.222467  1
  Li  Li4  1  0.511394  0.214176  0.590697  1
  Mn  Mn5  1  0.004218  0.904665  0.692990  1
  Mn  Mn6  1  0.995782  0.095335  0.307010  1
  Fe  Fe7  1  0.500000  0.000000  0.000000  1
  Fe  Fe8  1  0.003464  0.314577  0.895030  1
  Fe  Fe9  1  0.996536  0.685423  0.104970  1
  O  O10  1  0.226899  0.946768  0.845272  1
  O  O11  1  0.764459  0.668787  0.926629  1
  O  O12  1  0.781358  0.869781  0.540252  1
  O  O13  1  0.233962  0.775700  0.247688  1
  O  O14  1  0.232101  0.571234  0.662088  1
  O  O15  1  0.767899  0.428766  0.337912  1
  O  O16  1  0.766038  0.224300  0.752312  1
  O  O17  1  0.218642  0.130219  0.459748  1
  O  O18  1  0.235541  0.331213  0.073371  1
  O  O19  1  0.773101  0.053232  0.154728  1
