# generated using pymatgen
data_Li5V3Cr2O10
_symmetry_space_group_name_H-M   'P 1'
_cell_length_a   5.12399228
_cell_length_b   5.18495757
_cell_length_c   7.89571744
_cell_angle_alpha   71.42711366
_cell_angle_beta   71.55671752
_cell_angle_gamma   80.13418676
_symmetry_Int_Tables_number   1
_chemical_formula_structural   Li5V3Cr2O10
_chemical_formula_sum   'Li5 V3 Cr2 O10'
_cell_volume   188.05076048
_cell_formula_units_Z   1
loop_
 _symmetry_equiv_pos_site_id
 _symmetry_equiv_pos_as_xyz
  1  'x, y, z'
loop_
 _atom_site_type_symbol
 _atom_site_label
 _atom_site_symmetry_multiplicity
 _atom_site_fract_x
 _atom_site_fract_y
 _atom_site_fract_z
 _atom_site_occupancy
  Li  Li0  1  0.496199  0.784866  0.416233  1
  Li  Li1  1  0.517776  0.617401  0.770416  1
  Li  Li2  1  0.000000  0.500000  0.500000  1
  Li  Li3  1  0.482224  0.382599  0.229584  1
  Li  Li4  1  0.503801  0.215134  0.583767  1
  V  V5  1  0.500000  0.000000  0.000000  1
  V  V6  1  0.001808  0.310822  0.889349  1
  V  V7  1  0.998192  0.689178  0.110651  1
  Cr  Cr8  1  0.007115  0.903750  0.690401  1
  Cr  Cr9  1  0.992885  0.096250  0.309599  1
  O  O10  1  0.237432  0.946151  0.861389  1
  O  O11  1  0.766102  0.673833  0.942137  1
  O  O12  1  0.770087  0.866330  0.545384  1
  O  O13  1  0.244734  0.766607  0.235653  1
  O  O14  1  0.228748  0.551024  0.667673  1
  O  O15  1  0.771252  0.448976  0.332327  1
  O  O16  1  0.755266  0.233393  0.764347  1
  O  O17  1  0.229913  0.133670  0.454616  1
  O  O18  1  0.233898  0.326167  0.057863  1
  O  O19  1  0.762568  0.053849  0.138611  1
