# generated using pymatgen
data_Li3V2(OF)3
_symmetry_space_group_name_H-M   'P 1'
_cell_length_a   13.58264700
_cell_length_b   13.58264700
_cell_length_c   13.58264700
_cell_angle_alpha   13.81584096
_cell_angle_beta   13.81584096
_cell_angle_gamma   13.81584096
_symmetry_Int_Tables_number   1
_chemical_formula_structural   Li3V2(OF)3
_chemical_formula_sum   'Li3 V2 O3 F3'
_cell_volume   124.35369774
_cell_formula_units_Z   1
loop_
 _symmetry_equiv_pos_site_id
 _symmetry_equiv_pos_as_xyz
  1  'x, y, z'
loop_
 _atom_site_type_symbol
 _atom_site_label
 _atom_site_symmetry_multiplicity
 _atom_site_fract_x
 _atom_site_fract_y
 _atom_site_fract_z
 _atom_site_occupancy
  Li  Li0  1  0.143881  0.143881  0.143881  1
  Li  Li1  1  0.263478  0.263478  0.263478  1
  Li  Li2  1  0.870254  0.870254  0.870254  1
  V  V3  1  0.000664  0.000664  0.000664  1
  V  V4  1  0.742777  0.742777  0.742777  1
  O  O5  1  0.085719  0.085719  0.085719  1
  O  O6  1  0.313423  0.313423  0.313423  1
  O  O7  1  0.695273  0.695273  0.695273  1
  F  F8  1  0.191220  0.191220  0.191220  1
  F  F9  1  0.799151  0.799151  0.799151  1
  F  F10  1  0.917404  0.917404  0.917404  1
