# generated using pymatgen
data_CoO2
_symmetry_space_group_name_H-M   'P 1'
_cell_length_a   10.51260667
_cell_length_b   10.51260667
_cell_length_c   10.51260667
_cell_angle_alpha   15.44569573
_cell_angle_beta   15.44569573
_cell_angle_gamma   15.44569573
_symmetry_Int_Tables_number   1
_chemical_formula_structural   CoO2
_chemical_formula_sum   'Co2 O4'
_cell_volume   71.79719309
_cell_formula_units_Z   2
loop_
 _symmetry_equiv_pos_site_id
 _symmetry_equiv_pos_as_xyz
  1  'x, y, z'
loop_
 _atom_site_type_symbol
 _atom_site_label
 _atom_site_symmetry_multiplicity
 _atom_site_fract_x
 _atom_site_fract_y
 _atom_site_fract_z
 _atom_site_occupancy
  Co  Co0  1  0.500000  0.500000  0.500000  1
  Co  Co1  1  0.000000  0.000000  0.000000  1
  O  O2  1  0.863553  0.863553  0.863553  1
  O  O3  1  0.302706  0.302706  0.302706  1
  O  O4  1  0.697294  0.697294  0.697294  1
  O  O5  1  0.136447  0.136447  0.136447  1
