# generated using pymatgen
data_CaTi2(HO3)2
_symmetry_space_group_name_H-M   'P 1'
_cell_length_a   4.97458513
_cell_length_b   12.20023354
_cell_length_c   16.06461551
_cell_angle_alpha   90.00000000
_cell_angle_beta   98.94748437
_cell_angle_gamma   90.00000000
_symmetry_Int_Tables_number   1
_chemical_formula_structural   CaTi2(HO3)2
_chemical_formula_sum   'Ca8 Ti16 H16 O48'
_cell_volume   963.11497008
_cell_formula_units_Z   8
loop_
 _symmetry_equiv_pos_site_id
 _symmetry_equiv_pos_as_xyz
  1  'x, y, z'
loop_
 _atom_site_type_symbol
 _atom_site_label
 _atom_site_symmetry_multiplicity
 _atom_site_fract_x
 _atom_site_fract_y
 _atom_site_fract_z
 _atom_site_occupancy
  Ca  Ca0  1  0.786487  0.450403  0.259749  1
  Ca  Ca1  1  0.786487  0.049597  0.759749  1
  Ca  Ca2  1  0.213513  0.549597  0.740251  1
  Ca  Ca3  1  0.213513  0.950403  0.240251  1
  Ca  Ca4  1  0.211842  0.811800  0.622340  1
  Ca  Ca5  1  0.211842  0.688200  0.122340  1
  Ca  Ca6  1  0.788158  0.188200  0.377660  1
  Ca  Ca7  1  0.788158  0.311800  0.877660  1
  Ti  Ti8  1  0.370779  0.196492  0.542378  1
  Ti  Ti9  1  0.370779  0.303508  0.042378  1
  Ti  Ti10  1  0.629221  0.803508  0.457622  1
  Ti  Ti11  1  0.629221  0.696492  0.957622  1
  Ti  Ti12  1  0.786581  0.012379  0.560712  1
  Ti  Ti13  1  0.786581  0.487621  0.060712  1
  Ti  Ti14  1  0.213419  0.987621  0.439288  1
  Ti  Ti15  1  0.213419  0.512379  0.939288  1
  Ti  Ti16  1  0.406074  0.409953  0.427330  1
  Ti  Ti17  1  0.406074  0.090047  0.927330  1
  Ti  Ti18  1  0.593926  0.590047  0.572670  1
  Ti  Ti19  1  0.593926  0.909953  0.072670  1
  Ti  Ti20  1  0.036438  0.612374  0.451402  1
  Ti  Ti21  1  0.036438  0.887626  0.951402  1
  Ti  Ti22  1  0.963562  0.387626  0.548598  1
  Ti  Ti23  1  0.963562  0.112374  0.048598  1
  H  H24  1  0.785076  0.704232  0.710492  1
  H  H25  1  0.785076  0.795768  0.210492  1
  H  H26  1  0.214924  0.295768  0.289508  1
  H  H27  1  0.214924  0.204232  0.789508  1
  H  H28  1  0.349930  0.584533  0.297581  1
  H  H29  1  0.349930  0.915467  0.797581  1
  H  H30  1  0.650070  0.415467  0.702419  1
  H  H31  1  0.650070  0.084533  0.202419  1
  H  H32  1  0.970057  0.748335  0.793827  1
  H  H33  1  0.970057  0.751665  0.293827  1
  H  H34  1  0.029943  0.251665  0.206173  1
  H  H35  1  0.029943  0.248335  0.706173  1
  H  H36  1  0.601683  0.663161  0.298744  1
  H  H37  1  0.601683  0.836839  0.798744  1
  H  H38  1  0.398317  0.336839  0.701256  1
  H  H39  1  0.398317  0.163161  0.201256  1
  O  O40  1  0.497398  0.902583  0.540106  1
  O  O41  1  0.497398  0.597417  0.040106  1
  O  O42  1  0.502602  0.097417  0.459894  1
  O  O43  1  0.502602  0.402583  0.959894  1
  O  O44  1  0.125328  0.312541  0.452616  1
  O  O45  1  0.125328  0.187459  0.952616  1
  O  O46  1  0.874672  0.687459  0.547384  1
  O  O47  1  0.874672  0.812541  0.047384  1
  O  O48  1  0.369016  0.692261  0.483996  1
  O  O49  1  0.369016  0.807739  0.983996  1
  O  O50  1  0.630984  0.307739  0.516004  1
  O  O51  1  0.630984  0.192261  0.016004  1
  O  O52  1  0.737548  0.503301  0.464943  1
  O  O53  1  0.737548  0.996699  0.964943  1
  O  O54  1  0.262452  0.496699  0.535057  1
  O  O55  1  0.262452  0.003301  0.035057  1
  O  O56  1  0.055558  0.101113  0.512477  1
  O  O57  1  0.055558  0.398887  0.012477  1
  O  O58  1  0.944442  0.898887  0.487523  1
  O  O59  1  0.944442  0.601113  0.987523  1
  O  O60  1  0.826638  0.712138  0.382188  1
  O  O61  1  0.826638  0.787862  0.882188  1
  O  O62  1  0.173362  0.287862  0.617812  1
  O  O63  1  0.173362  0.212138  0.117812  1
  O  O64  1  0.163457  0.520527  0.367050  1
  O  O65  1  0.163457  0.979473  0.867050  1
  O  O66  1  0.836543  0.479473  0.632950  1
  O  O67  1  0.836543  0.020527  0.132950  1
  O  O68  1  0.513404  0.345290  0.337650  1
  O  O69  1  0.513404  0.154710  0.837650  1
  O  O70  1  0.486596  0.654710  0.662350  1
  O  O71  1  0.486596  0.845290  0.162350  1
  O  O72  1  0.979315  0.723558  0.735118  1
  O  O73  1  0.979315  0.776442  0.235118  1
  O  O74  1  0.020685  0.276442  0.264882  1
  O  O75  1  0.020685  0.223558  0.764882  1
  O  O76  1  0.482688  0.611520  0.260900  1
  O  O77  1  0.482688  0.888480  0.760900  1
  O  O78  1  0.517312  0.388480  0.739100  1
  O  O79  1  0.517312  0.111520  0.239100  1
  O  O80  1  0.974441  0.964415  0.655796  1
  O  O81  1  0.974441  0.535585  0.155796  1
  O  O82  1  0.025559  0.035585  0.344204  1
  O  O83  1  0.025559  0.464415  0.844204  1
  O  O84  1  0.592087  0.120266  0.623698  1
  O  O85  1  0.592087  0.379734  0.123698  1
  O  O86  1  0.407913  0.879734  0.376302  1
  O  O87  1  0.407913  0.620267  0.876302  1
