# generated using pymatgen
data_Mn21O40
_symmetry_space_group_name_H-M   'P 1'
_cell_length_a   10.16554974
_cell_length_b   10.16554974
_cell_length_c   10.16554974
_cell_angle_alpha   99.71784031
_cell_angle_beta   99.71784031
_cell_angle_gamma   131.48373549
_symmetry_Int_Tables_number   1
_chemical_formula_structural   Mn21O40
_chemical_formula_sum   'Mn21 O40'
_cell_volume   717.48285467
_cell_formula_units_Z   1
loop_
 _symmetry_equiv_pos_site_id
 _symmetry_equiv_pos_as_xyz
  1  'x, y, z'
loop_
 _atom_site_type_symbol
 _atom_site_label
 _atom_site_symmetry_multiplicity
 _atom_site_fract_x
 _atom_site_fract_y
 _atom_site_fract_z
 _atom_site_occupancy
  Mn  Mn0  1  0.972573  0.827675  0.551319  1
  Mn  Mn1  1  0.576114  0.524846  0.349672  1
  Mn  Mn2  1  0.770225  0.421637  0.449590  1
  Mn  Mn3  1  0.972047  0.320635  0.550410  1
  Mn  Mn4  1  0.250000  0.750000  0.500000  1
  Mn  Mn5  1  0.578363  0.027953  0.348588  1
  Mn  Mn6  1  0.276356  0.421254  0.448681  1
  Mn  Mn7  1  0.871032  0.624101  0.245898  1
  Mn  Mn8  1  0.375899  0.621797  0.246930  1
  Mn  Mn9  1  0.172325  0.723644  0.144897  1
  Mn  Mn10  1  0.974452  0.825012  0.048758  1
  Mn  Mn11  1  0.074306  0.025548  0.850560  1
  Mn  Mn12  1  0.174988  0.223747  0.149440  1
  Mn  Mn13  1  0.475154  0.824826  0.051267  1
  Mn  Mn14  1  0.773558  0.423886  0.948733  1
  Mn  Mn15  1  0.578746  0.027427  0.855103  1
  Mn  Mn16  1  0.374867  0.128968  0.753070  1
  Mn  Mn17  1  0.776253  0.925694  0.951242  1
  Mn  Mn18  1  0.378203  0.625133  0.754102  1
  Mn  Mn19  1  0.679365  0.229775  0.651412  1
  Mn  Mn20  1  0.175174  0.226442  0.650328  1
  O  O21  1  0.214737  0.071157  0.569081  1
  O  O22  1  0.734369  0.579571  0.531882  1
  O  O23  1  0.905429  0.449391  0.631835  1
  O  O24  1  0.550609  0.182443  0.456037  1
  O  O25  1  0.726406  0.094571  0.543963  1
  O  O26  1  0.819712  0.752902  0.355586  1
  O  O27  1  0.397316  0.464125  0.644414  1
  O  O28  1  0.222848  0.553369  0.556371  1
  O  O29  1  0.996998  0.666477  0.443629  1
  O  O30  1  0.329909  0.295379  0.343281  1
  O  O31  1  0.646319  0.402929  0.267326  1
  O  O32  1  0.047689  0.202487  0.468118  1
  O  O33  1  0.817557  0.273594  0.368165  1
  O  O34  1  0.502076  0.645656  0.430919  1
  O  O35  1  0.935646  0.979159  0.132212  1
  O  O36  1  0.333523  0.777152  0.330521  1
  O  O37  1  0.102191  0.845921  0.230609  1
  O  O38  1  0.196566  0.064354  0.043513  1
  O  O39  1  0.154079  0.384688  0.256269  1
  O  O40  1  0.928843  0.497924  0.143580  1
  O  O41  1  0.751233  0.584868  0.053942  1
  O  O42  1  0.420429  0.952311  0.154798  1
  O  O43  1  0.597071  0.864397  0.243390  1
  O  O44  1  0.846947  0.803434  0.867788  1
  O  O45  1  0.415132  0.469074  0.166366  1
  O  O46  1  0.247098  0.602684  0.066809  1
  O  O47  1  0.013372  0.670091  0.965471  1
  O  O48  1  0.535875  0.180288  0.933191  1
  O  O49  1  0.302708  0.248767  0.833634  1
  O  O50  1  0.704621  0.047901  0.034529  1
  O  O51  1  0.020841  0.153053  0.956487  1
  O  O52  1  0.621007  0.353681  0.756610  1
  O  O53  1  0.530926  0.697292  0.946058  1
  O  O54  1  0.354344  0.785263  0.856420  1
  O  O55  1  0.797513  0.265631  0.845202  1
  O  O56  1  0.128418  0.897809  0.743731  1
  O  O57  1  0.952099  0.986628  0.656719  1
  O  O58  1  0.446631  0.003002  0.669479  1
  O  O59  1  0.615312  0.871582  0.769391  1
  O  O60  1  0.135603  0.378993  0.732674  1
