# generated using pymatgen
data_RbLi2Co2(BO3)3
_symmetry_space_group_name_H-M   'P 1'
_cell_length_a   6.39371685
_cell_length_b   5.04354002
_cell_length_c   12.93604934
_cell_angle_alpha   90.00000000
_cell_angle_beta   91.33172803
_cell_angle_gamma   90.00000000
_symmetry_Int_Tables_number   1
_chemical_formula_structural   RbLi2Co2(BO3)3
_chemical_formula_sum   'Rb2 Li4 Co4 B6 O18'
_cell_volume   417.03567877
_cell_formula_units_Z   2
loop_
 _symmetry_equiv_pos_site_id
 _symmetry_equiv_pos_as_xyz
  1  'x, y, z'
loop_
 _atom_site_type_symbol
 _atom_site_label
 _atom_site_symmetry_multiplicity
 _atom_site_fract_x
 _atom_site_fract_y
 _atom_site_fract_z
 _atom_site_occupancy
  Rb  Rb0  1  0.000000  0.790793  0.750000  1
  Rb  Rb1  1  0.000000  0.209207  0.250000  1
  Li  Li2  1  0.496834  0.826080  0.866557  1
  Li  Li3  1  0.503166  0.826080  0.633443  1
  Li  Li4  1  0.496834  0.173920  0.366557  1
  Li  Li5  1  0.503166  0.173920  0.133443  1
  Co  Co6  1  0.235132  0.315943  0.565508  1
  Co  Co7  1  0.235132  0.684057  0.065508  1
  Co  Co8  1  0.764868  0.315943  0.934492  1
  Co  Co9  1  0.764868  0.684057  0.434492  1
  B  B10  1  0.193443  0.182563  0.958365  1
  B  B11  1  0.193443  0.817437  0.458365  1
  B  B12  1  0.500000  0.332993  0.750000  1
  B  B13  1  0.500000  0.667007  0.250000  1
  B  B14  1  0.806557  0.182563  0.541635  1
  B  B15  1  0.806557  0.817437  0.041635  1
  O  O16  1  0.043441  0.297207  0.893912  1
  O  O17  1  0.043441  0.702793  0.393912  1
  O  O18  1  0.244226  0.915679  0.949037  1
  O  O19  1  0.244226  0.084321  0.449037  1
  O  O20  1  0.295605  0.669534  0.534074  1
  O  O21  1  0.295605  0.330466  0.034074  1
  O  O22  1  0.402129  0.178883  0.671607  1
  O  O23  1  0.402129  0.821117  0.171607  1
  O  O24  1  0.500000  0.598860  0.750000  1
  O  O25  1  0.500000  0.401140  0.250000  1
  O  O26  1  0.597871  0.178883  0.828393  1
  O  O27  1  0.597871  0.821117  0.328393  1
  O  O28  1  0.704395  0.669534  0.965926  1
  O  O29  1  0.704395  0.330466  0.465926  1
  O  O30  1  0.755774  0.915679  0.550963  1
  O  O31  1  0.755774  0.084321  0.050963  1
  O  O32  1  0.956559  0.297207  0.606088  1
  O  O33  1  0.956559  0.702793  0.106088  1
