# generated using pymatgen
data_NaMn(HO)3
_symmetry_space_group_name_H-M   'P 1'
_cell_length_a   11.51348224
_cell_length_b   11.51348224
_cell_length_c   6.05686358
_cell_angle_alpha   90.00000000
_cell_angle_beta   90.00000000
_cell_angle_gamma   90.00000000
_symmetry_Int_Tables_number   1
_chemical_formula_structural   NaMn(HO)3
_chemical_formula_sum   'Na8 Mn8 H24 O24'
_cell_volume   802.89949145
_cell_formula_units_Z   8
loop_
 _symmetry_equiv_pos_site_id
 _symmetry_equiv_pos_as_xyz
  1  'x, y, z'
loop_
 _atom_site_type_symbol
 _atom_site_label
 _atom_site_symmetry_multiplicity
 _atom_site_fract_x
 _atom_site_fract_y
 _atom_site_fract_z
 _atom_site_occupancy
  Na  Na0  1  0.117590  0.063829  0.555109  1
  Na  Na1  1  0.936171  0.117590  0.055109  1
  Na  Na2  1  0.436171  0.382410  0.055109  1
  Na  Na3  1  0.617590  0.436171  0.555109  1
  Na  Na4  1  0.382410  0.563829  0.555109  1
  Na  Na5  1  0.563829  0.617590  0.055109  1
  Na  Na6  1  0.063829  0.882410  0.055109  1
  Na  Na7  1  0.882410  0.936171  0.555109  1
  Mn  Mn8  1  0.289630  0.071121  0.025705  1
  Mn  Mn9  1  0.428879  0.210370  0.525705  1
  Mn  Mn10  1  0.928879  0.289630  0.525705  1
  Mn  Mn11  1  0.789630  0.428879  0.025705  1
  Mn  Mn12  1  0.210370  0.571121  0.025705  1
  Mn  Mn13  1  0.071121  0.710370  0.525705  1
  Mn  Mn14  1  0.571121  0.789630  0.525705  1
  Mn  Mn15  1  0.710370  0.928879  0.025705  1
  H  H16  1  0.758106  0.785374  0.700628  1
  H  H17  1  0.623357  0.152249  0.346407  1
  H  H18  1  0.838681  0.123130  0.736072  1
  H  H19  1  0.714626  0.741894  0.200628  1
  H  H20  1  0.652249  0.123357  0.846407  1
  H  H21  1  0.123130  0.161319  0.236072  1
  H  H22  1  0.623130  0.338681  0.236072  1
  H  H23  1  0.152249  0.376643  0.846407  1
  H  H24  1  0.214626  0.758106  0.200628  1
  H  H25  1  0.338681  0.376870  0.736072  1
  H  H26  1  0.123357  0.347751  0.346407  1
  H  H27  1  0.258106  0.714626  0.700628  1
  H  H28  1  0.741894  0.285374  0.700628  1
  H  H29  1  0.876643  0.652249  0.346407  1
  H  H30  1  0.661319  0.623130  0.736072  1
  H  H31  1  0.785374  0.241894  0.200628  1
  H  H32  1  0.847751  0.623357  0.846407  1
  H  H33  1  0.376870  0.661319  0.236072  1
  H  H34  1  0.876870  0.838681  0.236072  1
  H  H35  1  0.347751  0.876643  0.846407  1
  H  H36  1  0.285374  0.258106  0.200628  1
  H  H37  1  0.161319  0.876870  0.736072  1
  H  H38  1  0.376643  0.847751  0.346407  1
  H  H39  1  0.241894  0.214626  0.700628  1
  O  O40  1  0.857720  0.287675  0.203500  1
  O  O41  1  0.124447  0.083598  0.167698  1
  O  O42  1  0.708637  0.101747  0.959038  1
  O  O43  1  0.916402  0.124447  0.667698  1
  O  O44  1  0.212325  0.642280  0.703500  1
  O  O45  1  0.601747  0.208637  0.459038  1
  O  O46  1  0.101747  0.291363  0.459038  1
  O  O47  1  0.712325  0.857720  0.703500  1
  O  O48  1  0.416402  0.375553  0.667698  1
  O  O49  1  0.208637  0.398253  0.959038  1
  O  O50  1  0.624447  0.416402  0.167698  1
  O  O51  1  0.357720  0.212325  0.203500  1
  O  O52  1  0.642280  0.787675  0.203500  1
  O  O53  1  0.375553  0.583598  0.167698  1
  O  O54  1  0.791363  0.601747  0.959038  1
  O  O55  1  0.583598  0.624447  0.667698  1
  O  O56  1  0.287675  0.142280  0.703500  1
  O  O57  1  0.898253  0.708637  0.459038  1
  O  O58  1  0.398253  0.791363  0.459038  1
  O  O59  1  0.787675  0.357720  0.703500  1
  O  O60  1  0.083598  0.875553  0.667698  1
  O  O61  1  0.291363  0.898253  0.959038  1
  O  O62  1  0.875553  0.916402  0.167698  1
  O  O63  1  0.142280  0.712325  0.203500  1
