# generated using pymatgen
data_Li2VCrP2(HO5)2
_symmetry_space_group_name_H-M   'P 1'
_cell_length_a   5.41342288
_cell_length_b   7.36308288
_cell_length_c   14.31623025
_cell_angle_alpha   93.55210427
_cell_angle_beta   94.84129058
_cell_angle_gamma   106.32025169
_symmetry_Int_Tables_number   1
_chemical_formula_structural   Li2VCrP2(HO5)2
_chemical_formula_sum   'Li6 V3 Cr3 P6 H6 O30'
_cell_volume   543.49612914
_cell_formula_units_Z   3
loop_
 _symmetry_equiv_pos_site_id
 _symmetry_equiv_pos_as_xyz
  1  'x, y, z'
loop_
 _atom_site_type_symbol
 _atom_site_label
 _atom_site_symmetry_multiplicity
 _atom_site_fract_x
 _atom_site_fract_y
 _atom_site_fract_z
 _atom_site_occupancy
  Li  Li0  1  0.684737  0.259710  0.082007  1
  Li  Li1  1  0.648780  0.073614  0.251149  1
  Li  Li2  1  0.351220  0.926386  0.748851  1
  Li  Li3  1  0.315263  0.740290  0.917993  1
  Li  Li4  1  0.017985  0.592565  0.415584  1
  Li  Li5  1  0.982015  0.407435  0.584416  1
  V  V6  1  0.833128  0.833163  0.833389  1
  V  V7  1  0.500000  0.000000  0.500000  1
  V  V8  1  0.166872  0.166837  0.166611  1
  Cr  Cr9  1  0.833744  0.333460  0.833277  1
  Cr  Cr10  1  0.500000  0.500000  0.500000  1
  Cr  Cr11  1  0.166256  0.666540  0.166723  1
  P  P12  1  0.635445  0.507928  0.274498  1
  P  P13  1  0.696968  0.825232  0.059707  1
  P  P14  1  0.303032  0.174768  0.940293  1
  P  P15  1  0.364555  0.492072  0.725502  1
  P  P16  1  0.967865  0.839365  0.607489  1
  P  P17  1  0.032135  0.160635  0.392511  1
  H  H18  1  0.771974  0.053994  0.713254  1
  H  H19  1  0.562159  0.282798  0.619983  1
  H  H20  1  0.228026  0.946006  0.286746  1
  H  H21  1  0.437841  0.717202  0.380017  1
  H  H22  1  0.104742  0.387185  0.046474  1
  H  H23  1  0.895258  0.612815  0.953526  1
  O  O24  1  0.702484  0.883102  0.957539  1
  O  O25  1  0.788630  0.008998  0.129504  1
  O  O26  1  0.796713  0.972645  0.591632  1
  O  O27  1  0.742539  0.056499  0.398910  1
  O  O28  1  0.732555  0.056787  0.779670  1
  O  O29  1  0.592572  0.277237  0.934682  1
  O  O30  1  0.544701  0.324294  0.204458  1
  O  O31  1  0.628368  0.449287  0.376720  1
  O  O32  1  0.603303  0.280499  0.553855  1
  O  O33  1  0.211370  0.991002  0.870496  1
  O  O34  1  0.297516  0.116898  0.042461  1
  O  O35  1  0.267445  0.943213  0.220330  1
  O  O36  1  0.538798  0.360566  0.742322  1
  O  O37  1  0.461202  0.639434  0.257678  1
  O  O38  1  0.257461  0.943501  0.601090  1
  O  O39  1  0.407428  0.722763  0.065318  1
  O  O40  1  0.203287  0.027355  0.408368  1
  O  O41  1  0.128087  0.306071  0.924180  1
  O  O42  1  0.396697  0.719501  0.446145  1
  O  O43  1  0.371632  0.550713  0.623280  1
  O  O44  1  0.455299  0.675706  0.795542  1
  O  O45  1  0.065931  0.390069  0.112931  1
  O  O46  1  0.036104  0.217885  0.290414  1
  O  O47  1  0.123379  0.343131  0.462791  1
  O  O48  1  0.074990  0.389941  0.731353  1
  O  O49  1  0.934069  0.609931  0.887069  1
  O  O50  1  0.925010  0.610059  0.268647  1
  O  O51  1  0.871913  0.693929  0.075820  1
  O  O52  1  0.876621  0.656869  0.537209  1
  O  O53  1  0.963896  0.782115  0.709586  1
