# generated using pymatgen
data_Li4Sb2C4SO16
_symmetry_space_group_name_H-M   'P 1'
_cell_length_a   9.58041892
_cell_length_b   9.70195485
_cell_length_c   9.81322722
_cell_angle_alpha   115.58217066
_cell_angle_beta   116.77209739
_cell_angle_gamma   94.16677351
_symmetry_Int_Tables_number   1
_chemical_formula_structural   Li4Sb2C4SO16
_chemical_formula_sum   'Li8 Sb4 C8 S2 O32'
_cell_volume   692.91748344
_cell_formula_units_Z   2
loop_
 _symmetry_equiv_pos_site_id
 _symmetry_equiv_pos_as_xyz
  1  'x, y, z'
loop_
 _atom_site_type_symbol
 _atom_site_label
 _atom_site_symmetry_multiplicity
 _atom_site_fract_x
 _atom_site_fract_y
 _atom_site_fract_z
 _atom_site_occupancy
  Li  Li0  1  0.825003  0.070477  0.750016  1
  Li  Li1  1  0.852780  0.080173  0.141071  1
  Li  Li2  1  0.431837  0.064335  0.777919  1
  Li  Li3  1  0.545312  0.268768  0.194261  1
  Li  Li4  1  0.831853  0.701161  0.772397  1
  Li  Li5  1  0.404227  0.625995  0.664283  1
  Li  Li6  1  0.558614  0.939045  0.267083  1
  Li  Li7  1  0.199114  0.909138  0.235248  1
  Sb  Sb8  1  0.990947  0.511078  0.498221  1
  Sb  Sb9  1  0.986847  0.489606  0.987805  1
  Sb  Sb10  1  0.507937  0.507591  0.018818  1
  Sb  Sb11  1  0.024415  0.991193  0.506576  1
  C  C12  1  0.838394  0.273663  0.575813  1
  C  C13  1  0.757987  0.310298  0.052702  1
  C  C14  1  0.798382  0.744191  0.066646  1
  C  C15  1  0.742473  0.698219  0.436839  1
  C  C16  1  0.224461  0.303961  0.568756  1
  C  C17  1  0.209766  0.246289  0.909199  1
  C  C18  1  0.215281  0.677441  0.918963  1
  C  C19  1  0.200407  0.762271  0.456735  1
  S  S20  1  0.386144  0.128045  0.265993  1
  S  S21  1  0.631713  0.884267  0.771499  1
  O  O22  1  0.815783  0.136704  0.453864  1
  O  O23  1  0.886653  0.305987  0.039537  1
  O  O24  1  0.841533  0.288017  0.717425  1
  O  O25  1  0.735653  0.261954  0.146064  1
  O  O26  1  0.855939  0.406098  0.569736  1
  O  O27  1  0.441093  0.060979  0.387709  1
  O  O28  1  0.451072  0.056245  0.144913  1
  O  O29  1  0.651008  0.362772  0.961846  1
  O  O30  1  0.801766  0.629449  0.936014  1
  O  O31  1  0.857487  0.689754  0.570123  1
  O  O32  1  0.201943  0.069962  0.164745  1
  O  O33  1  0.459314  0.305873  0.358855  1
  O  O34  1  0.222019  0.175260  0.588422  1
  O  O35  1  0.353278  0.232804  0.950279  1
  O  O36  1  0.658155  0.555488  0.280634  1
  O  O37  1  0.898798  0.888775  0.163493  1
  O  O38  1  0.361153  0.416069  0.662175  1
  O  O39  1  0.072846  0.122373  0.769978  1
  O  O40  1  0.687612  0.712545  0.103500  1
  O  O41  1  0.719820  0.828122  0.453224  1
  O  O42  1  0.593141  0.708621  0.649775  1
  O  O43  1  0.818101  0.958139  0.888358  1
  O  O44  1  0.196124  0.383428  0.997771  1
  O  O45  1  0.083426  0.303800  0.456283  1
  O  O46  1  0.358740  0.719990  0.051590  1
  O  O47  1  0.556967  0.902260  0.879782  1
  O  O48  1  0.570545  0.973862  0.677554  1
  O  O49  1  0.228784  0.641253  0.468126  1
  O  O50  1  0.195940  0.633770  0.760966  1
  O  O51  1  0.146361  0.768806  0.314338  1
  O  O52  1  0.084187  0.672052  0.929983  1
  O  O53  1  0.214415  0.891582  0.599637  1
