# generated using pymatgen
data_Li5V2Ni3O10
_symmetry_space_group_name_H-M   'P 1'
_cell_length_a   5.10362721
_cell_length_b   5.13280390
_cell_length_c   7.72626403
_cell_angle_alpha   70.86446239
_cell_angle_beta   71.42592569
_cell_angle_gamma   79.32198043
_symmetry_Int_Tables_number   1
_chemical_formula_structural   Li5V2Ni3O10
_chemical_formula_sum   'Li5 V2 Ni3 O10'
_cell_volume   180.51289046
_cell_formula_units_Z   1
loop_
 _symmetry_equiv_pos_site_id
 _symmetry_equiv_pos_as_xyz
  1  'x, y, z'
loop_
 _atom_site_type_symbol
 _atom_site_label
 _atom_site_symmetry_multiplicity
 _atom_site_fract_x
 _atom_site_fract_y
 _atom_site_fract_z
 _atom_site_occupancy
  Li  Li0  1  0.212844  0.494574  0.603750  1
  Li  Li1  1  0.404690  0.494462  0.200739  1
  Li  Li2  1  0.500000  0.000000  0.500000  1
  Li  Li3  1  0.595310  0.505538  0.799261  1
  Li  Li4  1  0.787156  0.505426  0.396250  1
  V  V5  1  0.097127  0.983633  0.312803  1
  V  V6  1  0.902873  0.016367  0.687197  1
  Ni  Ni7  1  0.000000  0.500000  0.000000  1
  Ni  Ni8  1  0.696570  0.005601  0.100241  1
  Ni  Ni9  1  0.303430  0.994399  0.899759  1
  O  O10  1  0.049501  0.766518  0.158512  1
  O  O11  1  0.329918  0.232405  0.065485  1
  O  O12  1  0.137236  0.227700  0.456116  1
  O  O13  1  0.218653  0.764079  0.750533  1
  O  O14  1  0.420671  0.773305  0.345472  1
  O  O15  1  0.579329  0.226695  0.654528  1
  O  O16  1  0.781347  0.235921  0.249467  1
  O  O17  1  0.862764  0.772300  0.543884  1
  O  O18  1  0.670082  0.767595  0.934515  1
  O  O19  1  0.950499  0.233482  0.841488  1
