# generated using pymatgen
data_Li5Ti3Mn2(PO4)6
_symmetry_space_group_name_H-M   'P 1'
_cell_length_a   8.52967880
_cell_length_b   8.60783566
_cell_length_c   8.61100229
_cell_angle_alpha   62.61957970
_cell_angle_beta   63.04281099
_cell_angle_gamma   63.08521665
_symmetry_Int_Tables_number   1
_chemical_formula_structural   Li5Ti3Mn2(PO4)6
_chemical_formula_sum   'Li5 Ti3 Mn2 P6 O24'
_cell_volume   476.00060708
_cell_formula_units_Z   1
loop_
 _symmetry_equiv_pos_site_id
 _symmetry_equiv_pos_as_xyz
  1  'x, y, z'
loop_
 _atom_site_type_symbol
 _atom_site_label
 _atom_site_symmetry_multiplicity
 _atom_site_fract_x
 _atom_site_fract_y
 _atom_site_fract_z
 _atom_site_occupancy
  Li  Li0  1  0.243638  0.644555  0.857880  1
  Li  Li1  1  0.805403  0.333034  0.147578  1
  Li  Li2  1  0.333183  0.145829  0.807433  1
  Li  Li3  1  0.146401  0.805801  0.334655  1
  Li  Li4  1  0.158164  0.157477  0.163596  1
  Ti  Ti5  1  0.851692  0.856671  0.852448  1
  Ti  Ti6  1  0.645179  0.644836  0.642462  1
  Ti  Ti7  1  0.352070  0.347220  0.351159  1
  Mn  Mn8  1  0.991258  0.008714  0.002611  1
  Mn  Mn9  1  0.514325  0.500476  0.494284  1
  P  P10  1  0.746184  0.042580  0.455804  1
  P  P11  1  0.448956  0.745043  0.041714  1
  P  P12  1  0.049252  0.456525  0.746862  1
  P  P13  1  0.949159  0.549033  0.245722  1
  P  P14  1  0.548937  0.244014  0.948905  1
  P  P15  1  0.245462  0.946934  0.549894  1
  O  O16  1  0.889356  0.514591  0.676538  1
  O  O17  1  0.665954  0.893204  0.505274  1
  O  O18  1  0.950568  0.735903  0.082296  1
  O  O19  1  0.477649  0.674326  0.892924  1
  O  O20  1  0.969932  0.396678  0.188368  1
  O  O21  1  0.759564  0.580693  0.400663  1
  O  O22  1  0.742172  0.092718  0.930110  1
  O  O23  1  0.561891  0.410293  0.762922  1
  O  O24  1  0.813895  0.006764  0.609985  1
  O  O25  1  0.398030  0.751487  0.581689  1
  O  O26  1  0.900658  0.051691  0.266759  1
  O  O27  1  0.614002  0.804343  0.996417  1
  O  O28  1  0.394460  0.183125  0.975244  1
  O  O29  1  0.096370  0.925245  0.747222  1
  O  O30  1  0.597630  0.240426  0.428893  1
  O  O31  1  0.184261  0.971060  0.398876  1
  O  O32  1  0.431213  0.593600  0.237996  1
  O  O33  1  0.261346  0.901662  0.056941  1
  O  O34  1  0.244760  0.424713  0.595621  1
  O  O35  1  0.031850  0.608948  0.807515  1
  O  O36  1  0.513062  0.304954  0.109913  1
  O  O37  1  0.051268  0.268748  0.903151  1
  O  O38  1  0.309106  0.105535  0.514475  1
  O  O39  1  0.111741  0.507554  0.310199  1
