# generated using pymatgen
data_Cu8O7
_symmetry_space_group_name_H-M   'P 1'
_cell_length_a   6.45324612
_cell_length_b   6.45324612
_cell_length_c   5.89984455
_cell_angle_alpha   63.51024410
_cell_angle_beta   116.48975590
_cell_angle_gamma   125.75449521
_symmetry_Int_Tables_number   1
_chemical_formula_structural   Cu8O7
_chemical_formula_sum   'Cu8 O7'
_cell_volume   172.54333426
_cell_formula_units_Z   1
loop_
 _symmetry_equiv_pos_site_id
 _symmetry_equiv_pos_as_xyz
  1  'x, y, z'
loop_
 _atom_site_type_symbol
 _atom_site_label
 _atom_site_symmetry_multiplicity
 _atom_site_fract_x
 _atom_site_fract_y
 _atom_site_fract_z
 _atom_site_occupancy
  Cu  Cu0  1  0.002236  0.997764  0.992060  1
  Cu  Cu1  1  0.509148  0.490852  0.028533  1
  Cu  Cu2  1  0.500652  0.992420  0.000827  1
  Cu  Cu3  1  0.007580  0.499348  0.000827  1
  Cu  Cu4  1  0.744341  0.255659  0.500868  1
  Cu  Cu5  1  0.265311  0.734689  0.500126  1
  Cu  Cu6  1  0.264167  0.241668  0.485148  1
  Cu  Cu7  1  0.758332  0.735833  0.485148  1
  O  O8  1  0.810932  0.189068  0.870105  1
  O  O9  1  0.321231  0.678769  0.870093  1
  O  O10  1  0.193930  0.806070  0.126260  1
  O  O11  1  0.071765  0.928235  0.369514  1
  O  O12  1  0.691791  0.308209  0.141904  1
  O  O13  1  0.946083  0.053917  0.632506  1
  O  O14  1  0.452365  0.547635  0.594557  1
