# generated using pymatgen
data_VAg2O3F
_symmetry_space_group_name_H-M   'P 1'
_cell_length_a   5.70818747
_cell_length_b   10.62738203
_cell_length_c   13.93493038
_cell_angle_alpha   90.00000000
_cell_angle_beta   114.09843222
_cell_angle_gamma   90.00000000
_symmetry_Int_Tables_number   1
_chemical_formula_structural   VAg2O3F
_chemical_formula_sum   'V8 Ag16 O24 F8'
_cell_volume   771.66096502
_cell_formula_units_Z   8
loop_
 _symmetry_equiv_pos_site_id
 _symmetry_equiv_pos_as_xyz
  1  'x, y, z'
loop_
 _atom_site_type_symbol
 _atom_site_label
 _atom_site_symmetry_multiplicity
 _atom_site_fract_x
 _atom_site_fract_y
 _atom_site_fract_z
 _atom_site_occupancy
  V  V0  1  0.127097  0.231620  0.414025  1
  V  V1  1  0.939478  0.484483  0.714457  1
  V  V2  1  0.127097  0.268380  0.914025  1
  V  V3  1  0.060522  0.515517  0.285543  1
  V  V4  1  0.939478  0.015517  0.214457  1
  V  V5  1  0.872903  0.768380  0.585975  1
  V  V6  1  0.872903  0.731620  0.085975  1
  V  V7  1  0.060522  0.984483  0.785543  1
  Ag  Ag8  1  0.666919  0.053234  0.935216  1
  Ag  Ag9  1  0.645329  0.026516  0.403466  1
  Ag  Ag10  1  0.333081  0.946766  0.064784  1
  Ag  Ag11  1  0.779225  0.296203  0.083049  1
  Ag  Ag12  1  0.220775  0.796203  0.416951  1
  Ag  Ag13  1  0.421673  0.245129  0.224011  1
  Ag  Ag14  1  0.578327  0.745129  0.275989  1
  Ag  Ag15  1  0.421673  0.254871  0.724011  1
  Ag  Ag16  1  0.220775  0.703797  0.916951  1
  Ag  Ag17  1  0.354671  0.526516  0.096534  1
  Ag  Ag18  1  0.333081  0.553234  0.564784  1
  Ag  Ag19  1  0.666919  0.446766  0.435216  1
  Ag  Ag20  1  0.779225  0.203797  0.583049  1
  Ag  Ag21  1  0.354671  0.973484  0.596534  1
  Ag  Ag22  1  0.645329  0.473484  0.903466  1
  Ag  Ag23  1  0.578327  0.754871  0.775989  1
  O  O24  1  0.330556  0.606266  0.334311  1
  O  O25  1  0.656832  0.831895  0.468523  1
  O  O26  1  0.330556  0.893734  0.834311  1
  O  O27  1  0.208465  0.108910  0.902700  1
  O  O28  1  0.656832  0.668105  0.968523  1
  O  O29  1  0.791535  0.891090  0.097300  1
  O  O30  1  0.104792  0.425800  0.191904  1
  O  O31  1  0.843096  0.646576  0.191115  1
  O  O32  1  0.343168  0.331895  0.031477  1
  O  O33  1  0.843096  0.853424  0.691115  1
  O  O34  1  0.895208  0.925800  0.308096  1
  O  O35  1  0.104792  0.074200  0.691904  1
  O  O36  1  0.895208  0.574200  0.808096  1
  O  O37  1  0.791535  0.608910  0.597300  1
  O  O38  1  0.815916  0.218696  0.406057  1
  O  O39  1  0.208465  0.391090  0.402700  1
  O  O40  1  0.669444  0.106266  0.165689  1
  O  O41  1  0.156904  0.353424  0.808885  1
  O  O42  1  0.669444  0.393734  0.665689  1
  O  O43  1  0.343168  0.168105  0.531477  1
  O  O44  1  0.815916  0.281304  0.906057  1
  O  O45  1  0.184084  0.718696  0.093943  1
  O  O46  1  0.184084  0.781304  0.593943  1
  O  O47  1  0.156904  0.146576  0.308885  1
  F  F48  1  0.283791  0.931344  0.243894  1
  F  F49  1  0.944494  0.602099  0.397031  1
  F  F50  1  0.944494  0.897901  0.897031  1
  F  F51  1  0.283791  0.568656  0.743894  1
  F  F52  1  0.716209  0.431344  0.256106  1
  F  F53  1  0.055506  0.397901  0.602969  1
  F  F54  1  0.716209  0.068656  0.756106  1
  F  F55  1  0.055506  0.102099  0.102969  1
