# generated using pymatgen
data_Fe3(OF2)2
_symmetry_space_group_name_H-M   'P 1'
_cell_length_a   4.75339961
_cell_length_b   5.72249561
_cell_length_c   7.92838041
_cell_angle_alpha   93.88185173
_cell_angle_beta   90.33806255
_cell_angle_gamma   90.70071148
_symmetry_Int_Tables_number   1
_chemical_formula_structural   Fe3(OF2)2
_chemical_formula_sum   'Fe6 O4 F8'
_cell_volume   215.14655857
_cell_formula_units_Z   2
loop_
 _symmetry_equiv_pos_site_id
 _symmetry_equiv_pos_as_xyz
  1  'x, y, z'
loop_
 _atom_site_type_symbol
 _atom_site_label
 _atom_site_symmetry_multiplicity
 _atom_site_fract_x
 _atom_site_fract_y
 _atom_site_fract_z
 _atom_site_occupancy
  Fe  Fe0  1  0.451166  0.670358  0.186843  1
  Fe  Fe1  1  0.548834  0.329642  0.813157  1
  Fe  Fe2  1  0.500000  0.000000  0.500000  1
  Fe  Fe3  1  0.997871  0.146766  0.142842  1
  Fe  Fe4  1  0.000000  0.500000  0.500000  1
  Fe  Fe5  1  0.002129  0.853234  0.857158  1
  O  O6  1  0.209075  0.863582  0.070593  1
  O  O7  1  0.293460  0.687852  0.406553  1
  O  O8  1  0.706540  0.312148  0.593447  1
  O  O9  1  0.790925  0.136418  0.929407  1
  F  F10  1  0.184949  0.205656  0.389092  1
  F  F11  1  0.202104  0.534634  0.737892  1
  F  F12  1  0.292191  0.051210  0.736867  1
  F  F13  1  0.308032  0.371906  0.064870  1
  F  F14  1  0.707809  0.948790  0.263133  1
  F  F15  1  0.691968  0.628094  0.935130  1
  F  F16  1  0.815051  0.794344  0.610908  1
  F  F17  1  0.797896  0.465366  0.262108  1
