# generated using pymatgen
data_BaLaI5
_symmetry_space_group_name_H-M   'P 1'
_cell_length_a   6.46101555
_cell_length_b   8.01315430
_cell_length_c   11.65940798
_cell_angle_alpha   89.06800825
_cell_angle_beta   105.84179343
_cell_angle_gamma   93.92154234
_symmetry_Int_Tables_number   1
_chemical_formula_structural   BaLaI5
_chemical_formula_sum   'Ba2 La2 I10'
_cell_volume   579.35545644
_cell_formula_units_Z   2
loop_
 _symmetry_equiv_pos_site_id
 _symmetry_equiv_pos_as_xyz
  1  'x, y, z'
loop_
 _atom_site_type_symbol
 _atom_site_label
 _atom_site_symmetry_multiplicity
 _atom_site_fract_x
 _atom_site_fract_y
 _atom_site_fract_z
 _atom_site_occupancy
  Ba  Ba0  1  0.670721  0.246415  0.348625  1
  Ba  Ba1  1  0.332518  0.744865  0.652438  1
  La  La2  1  0.921772  0.251343  0.843629  1
  La  La3  1  0.078516  0.752483  0.156976  1
  I  I4  1  0.281587  0.104898  0.070257  1
  I  I5  1  0.815385  0.994000  0.616117  1
  I  I6  1  0.629143  0.756557  0.260726  1
  I  I7  1  0.805988  0.506702  0.614581  1
  I  I8  1  0.212907  0.603138  0.930007  1
  I  I9  1  0.785476  0.402086  0.069564  1
  I  I10  1  0.193894  0.492533  0.383026  1
  I  I11  1  0.372806  0.253057  0.739370  1
  I  I12  1  0.190852  0.004740  0.388063  1
  I  I13  1  0.718838  0.898781  0.930072  1
