# generated using pymatgen
data_Li7Sb2S
_symmetry_space_group_name_H-M   'P 1'
_cell_length_a   5.94165424
_cell_length_b   13.98520956
_cell_length_c   9.39702526
_cell_angle_alpha   90.00000000
_cell_angle_beta   90.11586682
_cell_angle_gamma   90.00000000
_symmetry_Int_Tables_number   1
_chemical_formula_structural   Li7Sb2S
_chemical_formula_sum   'Li28 Sb8 S4'
_cell_volume   780.84684469
_cell_formula_units_Z   4
loop_
 _symmetry_equiv_pos_site_id
 _symmetry_equiv_pos_as_xyz
  1  'x, y, z'
loop_
 _atom_site_type_symbol
 _atom_site_label
 _atom_site_symmetry_multiplicity
 _atom_site_fract_x
 _atom_site_fract_y
 _atom_site_fract_z
 _atom_site_occupancy
  Li  Li0  1  0.273140  0.148623  0.953844  1
  Li  Li1  1  0.002293  0.394096  0.919740  1
  Li  Li2  1  0.491491  0.396081  0.908683  1
  Li  Li3  1  0.153346  0.919732  0.862387  1
  Li  Li4  1  0.509886  0.745622  0.812974  1
  Li  Li5  1  0.994936  0.736753  0.811516  1
  Li  Li6  1  0.729017  0.050024  0.769913  1
  Li  Li7  1  0.270983  0.550024  0.730087  1
  Li  Li8  1  0.005064  0.236753  0.688484  1
  Li  Li9  1  0.490114  0.245622  0.687026  1
  Li  Li10  1  0.846654  0.419732  0.637613  1
  Li  Li11  1  0.508509  0.896081  0.591317  1
  Li  Li12  1  0.997707  0.894096  0.580260  1
  Li  Li13  1  0.726860  0.648623  0.546156  1
  Li  Li14  1  0.273140  0.351377  0.453844  1
  Li  Li15  1  0.002293  0.105904  0.419740  1
  Li  Li16  1  0.491491  0.103919  0.408683  1
  Li  Li17  1  0.153346  0.580268  0.362387  1
  Li  Li18  1  0.509886  0.754378  0.312974  1
  Li  Li19  1  0.994936  0.763247  0.311516  1
  Li  Li20  1  0.729017  0.449976  0.269913  1
  Li  Li21  1  0.270983  0.949976  0.230087  1
  Li  Li22  1  0.005064  0.263247  0.188484  1
  Li  Li23  1  0.490114  0.254378  0.187026  1
  Li  Li24  1  0.846654  0.080268  0.137613  1
  Li  Li25  1  0.508509  0.603919  0.091317  1
  Li  Li26  1  0.997707  0.605904  0.080260  1
  Li  Li27  1  0.726860  0.851377  0.046156  1
  Sb  Sb28  1  0.744733  0.221893  0.937316  1
  Sb  Sb29  1  0.747940  0.566044  0.831129  1
  Sb  Sb30  1  0.252060  0.066044  0.668871  1
  Sb  Sb31  1  0.255267  0.721893  0.562684  1
  Sb  Sb32  1  0.744733  0.278107  0.437316  1
  Sb  Sb33  1  0.747940  0.933956  0.331129  1
  Sb  Sb34  1  0.252060  0.433956  0.168871  1
  Sb  Sb35  1  0.255267  0.778107  0.062684  1
  S  S36  1  0.767941  0.880211  0.794242  1
  S  S37  1  0.232059  0.380211  0.705758  1
  S  S38  1  0.767941  0.619789  0.294242  1
  S  S39  1  0.232059  0.119789  0.205758  1
