# generated using pymatgen
data_Li3SbS4
_symmetry_space_group_name_H-M   'P 1'
_cell_length_a   6.47720987
_cell_length_b   6.92094730
_cell_length_c   8.02942046
_cell_angle_alpha   90.00000000
_cell_angle_beta   90.00000000
_cell_angle_gamma   90.00000000
_symmetry_Int_Tables_number   1
_chemical_formula_structural   Li3SbS4
_chemical_formula_sum   'Li6 Sb2 S8'
_cell_volume   359.94629827
_cell_formula_units_Z   2
loop_
 _symmetry_equiv_pos_site_id
 _symmetry_equiv_pos_as_xyz
  1  'x, y, z'
loop_
 _atom_site_type_symbol
 _atom_site_label
 _atom_site_symmetry_multiplicity
 _atom_site_fract_x
 _atom_site_fract_y
 _atom_site_fract_z
 _atom_site_occupancy
  Li  Li0  1  0.497039  0.846507  0.000000  1
  Li  Li1  1  0.003147  0.675717  0.246291  1
  Li  Li2  1  0.503147  0.324283  0.253709  1
  Li  Li3  1  0.997039  0.153493  0.500000  1
  Li  Li4  1  0.503147  0.324283  0.746291  1
  Li  Li5  1  0.003147  0.675717  0.753709  1
  Sb  Sb6  1  0.004472  0.173696  0.000000  1
  Sb  Sb7  1  0.504472  0.826304  0.500000  1
  S  S8  1  0.880467  0.852060  0.000000  1
  S  S9  1  0.370713  0.180137  0.000000  1
  S  S10  1  0.884957  0.335098  0.241627  1
  S  S11  1  0.384957  0.664902  0.258373  1
  S  S12  1  0.870713  0.819863  0.500000  1
  S  S13  1  0.380467  0.147940  0.500000  1
  S  S14  1  0.384957  0.664902  0.741627  1
  S  S15  1  0.884957  0.335098  0.758373  1
