# generated using pymatgen
data_LiTi3Sb(PO4)6
_symmetry_space_group_name_H-M   'P 1'
_cell_length_a   8.83051545
_cell_length_b   8.83051545
_cell_length_c   8.83051545
_cell_angle_alpha   58.50240113
_cell_angle_beta   58.50240113
_cell_angle_gamma   58.50240113
_symmetry_Int_Tables_number   1
_chemical_formula_structural   LiTi3Sb(PO4)6
_chemical_formula_sum   'Li1 Ti3 Sb1 P6 O24'
_cell_volume   470.22325765
_cell_formula_units_Z   1
loop_
 _symmetry_equiv_pos_site_id
 _symmetry_equiv_pos_as_xyz
  1  'x, y, z'
loop_
 _atom_site_type_symbol
 _atom_site_label
 _atom_site_symmetry_multiplicity
 _atom_site_fract_x
 _atom_site_fract_y
 _atom_site_fract_z
 _atom_site_occupancy
  Li  Li0  1  0.996390  0.996390  0.996390  1
  Ti  Ti1  1  0.855669  0.855669  0.855669  1
  Ti  Ti2  1  0.640200  0.640200  0.640200  1
  Ti  Ti3  1  0.360716  0.360716  0.360716  1
  Sb  Sb4  1  0.145344  0.145344  0.145344  1
  P  P5  1  0.250226  0.541046  0.965573  1
  P  P6  1  0.965573  0.250226  0.541046  1
  P  P7  1  0.541046  0.965573  0.250226  1
  P  P8  1  0.463970  0.033115  0.750365  1
  P  P9  1  0.033115  0.750365  0.463970  1
  P  P10  1  0.750365  0.463970  0.033115  1
  O  O11  1  0.722798  0.493938  0.862097  1
  O  O12  1  0.493938  0.862097  0.722798  1
  O  O13  1  0.076398  0.722920  0.940552  1
  O  O14  1  0.862097  0.722798  0.493938  1
  O  O15  1  0.422516  0.564824  0.786275  1
  O  O16  1  0.221851  0.370691  0.981763  1
  O  O17  1  0.940552  0.076398  0.722920  1
  O  O18  1  0.786275  0.422516  0.564824  1
  O  O19  1  0.564824  0.786275  0.422516  1
  O  O20  1  0.629854  0.003560  0.789973  1
  O  O21  1  0.273445  0.057171  0.925309  1
  O  O22  1  0.003560  0.789973  0.629854  1
  O  O23  1  0.981763  0.221851  0.370691  1
  O  O24  1  0.722920  0.940552  0.076398  1
  O  O25  1  0.370691  0.981763  0.221851  1
  O  O26  1  0.435840  0.214390  0.580223  1
  O  O27  1  0.214390  0.580223  0.435840  1
  O  O28  1  0.057171  0.925309  0.273445  1
  O  O29  1  0.789973  0.629854  0.003560  1
  O  O30  1  0.580223  0.435840  0.214390  1
  O  O31  1  0.139806  0.278913  0.502277  1
  O  O32  1  0.925309  0.273445  0.057171  1
  O  O33  1  0.502277  0.139806  0.278913  1
  O  O34  1  0.278913  0.502277  0.139806  1
