# generated using pymatgen
data_Li4Mn3Cr5O16
_symmetry_space_group_name_H-M   'P 1'
_cell_length_a   5.85193162
_cell_length_b   5.85193162
_cell_length_c   9.45069622
_cell_angle_alpha   89.54695913
_cell_angle_beta   90.45304087
_cell_angle_gamma   120.06369566
_symmetry_Int_Tables_number   1
_chemical_formula_structural   Li4Mn3Cr5O16
_chemical_formula_sum   'Li4 Mn3 Cr5 O16'
_cell_volume   280.08878848
_cell_formula_units_Z   1
loop_
 _symmetry_equiv_pos_site_id
 _symmetry_equiv_pos_as_xyz
  1  'x, y, z'
loop_
 _atom_site_type_symbol
 _atom_site_label
 _atom_site_symmetry_multiplicity
 _atom_site_fract_x
 _atom_site_fract_y
 _atom_site_fract_z
 _atom_site_occupancy
  Li  Li0  1  0.670248  0.329752  0.107656  1
  Li  Li1  1  0.996811  0.003189  0.001251  1
  Li  Li2  1  0.999295  0.000705  0.503886  1
  Li  Li3  1  0.335731  0.664269  0.608454  1
  Mn  Mn4  1  0.829860  0.170140  0.784722  1
  Mn  Mn5  1  0.661959  0.830709  0.285566  1
  Mn  Mn6  1  0.169291  0.338041  0.285566  1
  Cr  Cr7  1  0.830294  0.662348  0.788841  1
  Cr  Cr8  1  0.663256  0.336744  0.513397  1
  Cr  Cr9  1  0.337652  0.169706  0.788841  1
  Cr  Cr10  1  0.168851  0.831149  0.286092  1
  Cr  Cr11  1  0.331708  0.668292  0.013862  1
  O  O12  1  0.832480  0.677404  0.399497  1
  O  O13  1  0.520708  0.479292  0.661298  1
  O  O14  1  0.672654  0.327346  0.896095  1
  O  O15  1  0.995037  0.004963  0.689986  1
  O  O16  1  0.995120  0.004880  0.188470  1
  O  O17  1  0.322596  0.167520  0.399497  1
  O  O18  1  0.961619  0.478258  0.661701  1
  O  O19  1  0.521742  0.038381  0.661701  1
  O  O20  1  0.164341  0.835659  0.896786  1
  O  O21  1  0.837680  0.162320  0.396175  1
  O  O22  1  0.486502  0.960535  0.160670  1
  O  O23  1  0.039465  0.513498  0.160670  1
  O  O24  1  0.338907  0.661093  0.392303  1
  O  O25  1  0.672081  0.837369  0.898081  1
  O  O26  1  0.481889  0.518111  0.162965  1
  O  O27  1  0.162631  0.327919  0.898081  1
