# generated using pymatgen
data_V4FeO12
_symmetry_space_group_name_H-M   'P 1'
_cell_length_a   6.77157626
_cell_length_b   6.77157626
_cell_length_c   6.05675684
_cell_angle_alpha   74.91406416
_cell_angle_beta   105.08593584
_cell_angle_gamma   97.22811432
_symmetry_Int_Tables_number   1
_chemical_formula_structural   V4FeO12
_chemical_formula_sum   'V4 Fe1 O12'
_cell_volume   258.41197744
_cell_formula_units_Z   1
loop_
 _symmetry_equiv_pos_site_id
 _symmetry_equiv_pos_as_xyz
  1  'x, y, z'
loop_
 _atom_site_type_symbol
 _atom_site_label
 _atom_site_symmetry_multiplicity
 _atom_site_fract_x
 _atom_site_fract_y
 _atom_site_fract_z
 _atom_site_occupancy
  V  V0  1  0.378619  0.795995  0.999662  1
  V  V1  1  0.211450  0.612423  0.519823  1
  V  V2  1  0.795995  0.378619  0.000338  1
  V  V3  1  0.612423  0.211450  0.480177  1
  Fe  Fe4  1  0.081940  0.081940  0.500000  1
  O  O5  1  0.199461  0.974075  0.845338  1
  O  O6  1  0.600796  0.929657  0.032192  1
  O  O7  1  0.039696  0.792570  0.450851  1
  O  O8  1  0.374604  0.634928  0.799877  1
  O  O9  1  0.929657  0.600796  0.967808  1
  O  O10  1  0.347713  0.661333  0.292097  1
  O  O11  1  0.634928  0.374604  0.200123  1
  O  O12  1  0.097297  0.369351  0.545843  1
  O  O13  1  0.661333  0.347713  0.707903  1
  O  O14  1  0.974075  0.199461  0.154662  1
  O  O15  1  0.369351  0.097297  0.454157  1
  O  O16  1  0.792570  0.039696  0.549149  1
