# generated using pymatgen
data_Li2VFe3O8
_symmetry_space_group_name_H-M   'P 1'
_cell_length_a   8.48098543
_cell_length_b   8.48098543
_cell_length_c   8.48098543
_cell_angle_alpha   90.00000000
_cell_angle_beta   90.00000000
_cell_angle_gamma   90.00000000
_symmetry_Int_Tables_number   1
_chemical_formula_structural   Li2VFe3O8
_chemical_formula_sum   'Li8 V4 Fe12 O32'
_cell_volume   610.01280421
_cell_formula_units_Z   4
loop_
 _symmetry_equiv_pos_site_id
 _symmetry_equiv_pos_as_xyz
  1  'x, y, z'
loop_
 _atom_site_type_symbol
 _atom_site_label
 _atom_site_symmetry_multiplicity
 _atom_site_fract_x
 _atom_site_fract_y
 _atom_site_fract_z
 _atom_site_occupancy
  Li  Li0  1  0.499450  0.499450  0.499450  1
  Li  Li1  1  0.750550  0.750550  0.750550  1
  Li  Li2  1  0.749450  0.249450  0.250550  1
  Li  Li3  1  0.000550  0.500550  0.999450  1
  Li  Li4  1  0.999450  0.000550  0.500550  1
  Li  Li5  1  0.250550  0.749450  0.249450  1
  Li  Li6  1  0.249450  0.250550  0.749450  1
  Li  Li7  1  0.500550  0.999450  0.000550  1
  V  V8  1  0.625000  0.375000  0.875000  1
  V  V9  1  0.875000  0.625000  0.375000  1
  V  V10  1  0.125000  0.125000  0.125000  1
  V  V11  1  0.375000  0.875000  0.625000  1
  Fe  Fe12  1  0.624556  0.625444  0.125000  1
  Fe  Fe13  1  0.625000  0.875444  0.374556  1
  Fe  Fe14  1  0.625444  0.125000  0.624556  1
  Fe  Fe15  1  0.874556  0.875000  0.124556  1
  Fe  Fe16  1  0.875000  0.124556  0.874556  1
  Fe  Fe17  1  0.875444  0.374556  0.625000  1
  Fe  Fe18  1  0.124556  0.874556  0.875000  1
  Fe  Fe19  1  0.125000  0.624556  0.625444  1
  Fe  Fe20  1  0.125444  0.375000  0.375444  1
  Fe  Fe21  1  0.374556  0.625000  0.875444  1
  Fe  Fe22  1  0.375000  0.375444  0.125444  1
  Fe  Fe23  1  0.375444  0.125444  0.375000  1
  O  O24  1  0.618584  0.601219  0.881874  1
  O  O25  1  0.618126  0.381416  0.101219  1
  O  O26  1  0.612014  0.112014  0.387986  1
  O  O27  1  0.648781  0.631416  0.368126  1
  O  O28  1  0.601219  0.881874  0.618584  1
  O  O29  1  0.637986  0.862014  0.137986  1
  O  O30  1  0.631874  0.148781  0.868584  1
  O  O31  1  0.631416  0.368126  0.648781  1
  O  O32  1  0.868584  0.631874  0.148781  1
  O  O33  1  0.868126  0.851219  0.368584  1
  O  O34  1  0.862014  0.137986  0.637986  1
  O  O35  1  0.898781  0.118126  0.118584  1
  O  O36  1  0.851219  0.368584  0.868126  1
  O  O37  1  0.887986  0.887986  0.887986  1
  O  O38  1  0.881874  0.618584  0.601219  1
  O  O39  1  0.881416  0.398781  0.381874  1
  O  O40  1  0.118584  0.898781  0.118126  1
  O  O41  1  0.118126  0.118584  0.898781  1
  O  O42  1  0.112014  0.387986  0.612014  1
  O  O43  1  0.148781  0.868584  0.631874  1
  O  O44  1  0.101219  0.618126  0.381416  1
  O  O45  1  0.137986  0.637986  0.862014  1
  O  O46  1  0.131874  0.351219  0.131416  1
  O  O47  1  0.131416  0.131874  0.351219  1
  O  O48  1  0.368584  0.868126  0.851219  1
  O  O49  1  0.368126  0.648781  0.631416  1
  O  O50  1  0.362014  0.362014  0.362014  1
  O  O51  1  0.398781  0.381874  0.881416  1
  O  O52  1  0.351219  0.131416  0.131874  1
  O  O53  1  0.387986  0.612014  0.112014  1
  O  O54  1  0.381874  0.881416  0.398781  1
  O  O55  1  0.381416  0.101219  0.618126  1
