# generated using pymatgen
data_Fe6O5F7
_symmetry_space_group_name_H-M   'P 1'
_cell_length_a   4.74348106
_cell_length_b   5.69132535
_cell_length_c   7.86055811
_cell_angle_alpha   85.17574778
_cell_angle_beta   89.35459193
_cell_angle_gamma   88.69259870
_symmetry_Int_Tables_number   1
_chemical_formula_structural   Fe6O5F7
_chemical_formula_sum   'Fe6 O5 F7'
_cell_volume   211.39294850
_cell_formula_units_Z   1
loop_
 _symmetry_equiv_pos_site_id
 _symmetry_equiv_pos_as_xyz
  1  'x, y, z'
loop_
 _atom_site_type_symbol
 _atom_site_label
 _atom_site_symmetry_multiplicity
 _atom_site_fract_x
 _atom_site_fract_y
 _atom_site_fract_z
 _atom_site_occupancy
  Fe  Fe0  1  0.562540  0.828355  0.657398  1
  Fe  Fe1  1  0.513828  0.519456  0.012977  1
  Fe  Fe2  1  0.489197  0.167207  0.335672  1
  Fe  Fe3  1  0.969413  0.333361  0.686592  1
  Fe  Fe4  1  0.991552  0.666052  0.320420  1
  Fe  Fe5  1  0.978358  0.982998  0.987942  1
  O  O6  1  0.801071  0.044080  0.754230  1
  O  O7  1  0.802794  0.690551  0.108064  1
  O  O8  1  0.691243  0.535675  0.775712  1
  O  O9  1  0.694708  0.878944  0.425537  1
  O  O10  1  0.308074  0.455781  0.237755  1
  F  F11  1  0.803837  0.368903  0.439826  1
  F  F12  1  0.696103  0.202411  0.106864  1
  F  F13  1  0.295943  0.134274  0.565166  1
  F  F14  1  0.308727  0.799756  0.888479  1
  F  F15  1  0.202413  0.962809  0.233445  1
  F  F16  1  0.184725  0.623460  0.565175  1
  F  F17  1  0.205474  0.305926  0.898745  1
