# generated using pymatgen
data_Fe2O3
_symmetry_space_group_name_H-M   'P 1'
_cell_length_a   5.14466553
_cell_length_b   5.28838446
_cell_length_c   7.51141766
_cell_angle_alpha   90.00000000
_cell_angle_beta   90.00000000
_cell_angle_gamma   90.00000000
_symmetry_Int_Tables_number   1
_chemical_formula_structural   Fe2O3
_chemical_formula_sum   'Fe8 O12'
_cell_volume   204.36290941
_cell_formula_units_Z   4
loop_
 _symmetry_equiv_pos_site_id
 _symmetry_equiv_pos_as_xyz
  1  'x, y, z'
loop_
 _atom_site_type_symbol
 _atom_site_label
 _atom_site_symmetry_multiplicity
 _atom_site_fract_x
 _atom_site_fract_y
 _atom_site_fract_z
 _atom_site_occupancy
  Fe  Fe0  1  0.997382  0.970796  0.111921  1
  Fe  Fe1  1  0.998440  0.530579  0.885429  1
  Fe  Fe2  1  0.501560  0.030579  0.885429  1
  Fe  Fe3  1  0.002618  0.029204  0.611921  1
  Fe  Fe4  1  0.497382  0.529204  0.611921  1
  Fe  Fe5  1  0.498440  0.969421  0.385429  1
  Fe  Fe6  1  0.502618  0.470796  0.111921  1
  Fe  Fe7  1  0.001560  0.469421  0.385429  1
  O  O8  1  0.196779  0.746894  0.501997  1
  O  O9  1  0.303221  0.246894  0.501997  1
  O  O10  1  0.803221  0.253106  0.001997  1
  O  O11  1  0.696779  0.753106  0.001997  1
  O  O12  1  0.638604  0.895492  0.652750  1
  O  O13  1  0.861396  0.395492  0.652750  1
  O  O14  1  0.137513  0.900483  0.848914  1
  O  O15  1  0.362487  0.400483  0.848914  1
  O  O16  1  0.862487  0.099517  0.348914  1
  O  O17  1  0.361396  0.104508  0.152750  1
  O  O18  1  0.637513  0.599517  0.348914  1
  O  O19  1  0.138604  0.604508  0.152750  1
