# generated using pymatgen
data_Li4MnV2WO12
_symmetry_space_group_name_H-M   'P 1'
_cell_length_a   5.05818884
_cell_length_b   5.33598989
_cell_length_c   7.36860167
_cell_angle_alpha   94.37344893
_cell_angle_beta   90.07051963
_cell_angle_gamma   90.10787349
_symmetry_Int_Tables_number   1
_chemical_formula_structural   Li4MnV2WO12
_chemical_formula_sum   'Li4 Mn1 V2 W1 O12'
_cell_volume   198.30218990
_cell_formula_units_Z   1
loop_
 _symmetry_equiv_pos_site_id
 _symmetry_equiv_pos_as_xyz
  1  'x, y, z'
loop_
 _atom_site_type_symbol
 _atom_site_label
 _atom_site_symmetry_multiplicity
 _atom_site_fract_x
 _atom_site_fract_y
 _atom_site_fract_z
 _atom_site_occupancy
  Li  Li0  1  0.000723  0.422687  0.312911  1
  Li  Li1  1  0.495126  0.909590  0.770918  1
  Li  Li2  1  0.008720  0.455367  0.752012  1
  Li  Li3  1  0.495397  0.929333  0.310033  1
  Mn  Mn4  1  0.498853  0.487859  0.507566  1
  V  V5  1  0.000410  0.988430  0.513344  1
  V  V6  1  0.500360  0.469885  0.004614  1
  W  W7  1  0.003522  0.984225  0.007949  1
  O  O8  1  0.289434  0.212763  0.435035  1
  O  O9  1  0.115041  0.023550  0.747054  1
  O  O10  1  0.320559  0.828260  0.052392  1
  O  O11  1  0.195576  0.722837  0.438483  1
  O  O12  1  0.814473  0.698279  0.928425  1
  O  O13  1  0.389728  0.530448  0.750232  1
  O  O14  1  0.611225  0.511722  0.230373  1
  O  O15  1  0.186818  0.326904  0.049158  1
  O  O16  1  0.811797  0.319081  0.541152  1
  O  O17  1  0.685418  0.198274  0.930285  1
  O  O18  1  0.876366  0.015711  0.242841  1
  O  O19  1  0.700453  0.822395  0.546423  1
