# generated using pymatgen
data_NaSbPCO7
_symmetry_space_group_name_H-M   'P 1'
_cell_length_a   5.54712802
_cell_length_b   6.66299872
_cell_length_c   9.22318297
_cell_angle_alpha   90.00000000
_cell_angle_beta   91.26329714
_cell_angle_gamma   90.00000000
_symmetry_Int_Tables_number   1
_chemical_formula_structural   NaSbPCO7
_chemical_formula_sum   'Na2 Sb2 P2 C2 O14'
_cell_volume   340.81065954
_cell_formula_units_Z   2
loop_
 _symmetry_equiv_pos_site_id
 _symmetry_equiv_pos_as_xyz
  1  'x, y, z'
loop_
 _atom_site_type_symbol
 _atom_site_label
 _atom_site_symmetry_multiplicity
 _atom_site_fract_x
 _atom_site_fract_y
 _atom_site_fract_z
 _atom_site_occupancy
  Na  Na0  1  0.237996  0.486487  0.216276  1
  Na  Na1  1  0.762004  0.986487  0.783724  1
  Sb  Sb2  1  0.791889  0.760533  0.351800  1
  Sb  Sb3  1  0.208111  0.260533  0.648200  1
  P  P4  1  0.721299  0.256436  0.426079  1
  P  P5  1  0.278701  0.756436  0.573921  1
  C  C6  1  0.721552  0.739715  0.077109  1
  C  C7  1  0.278448  0.239715  0.922891  1
  O  O8  1  0.308344  0.249277  0.054590  1
  O  O9  1  0.938944  0.744578  0.146869  1
  O  O10  1  0.541532  0.727506  0.172778  1
  O  O11  1  0.799262  0.075559  0.330482  1
  O  O12  1  0.831658  0.439211  0.345534  1
  O  O13  1  0.167113  0.739099  0.417024  1
  O  O14  1  0.445509  0.279448  0.437753  1
  O  O15  1  0.554491  0.779448  0.562247  1
  O  O16  1  0.832887  0.239099  0.582976  1
  O  O17  1  0.168342  0.939211  0.654466  1
  O  O18  1  0.200738  0.575559  0.669518  1
  O  O19  1  0.458468  0.227506  0.827222  1
  O  O20  1  0.061056  0.244578  0.853131  1
  O  O21  1  0.691656  0.749277  0.945410  1
