# generated using pymatgen
data_Li4Nb2Ni3Sn3O16
_symmetry_space_group_name_H-M   'P 1'
_cell_length_a   6.12201843
_cell_length_b   6.12201843
_cell_length_c   9.84518309
_cell_angle_alpha   89.29532526
_cell_angle_beta   90.70467474
_cell_angle_gamma   119.77208462
_symmetry_Int_Tables_number   1
_chemical_formula_structural   Li4Nb2Ni3Sn3O16
_chemical_formula_sum   'Li4 Nb2 Ni3 Sn3 O16'
_cell_volume   320.25257770
_cell_formula_units_Z   1
loop_
 _symmetry_equiv_pos_site_id
 _symmetry_equiv_pos_as_xyz
  1  'x, y, z'
loop_
 _atom_site_type_symbol
 _atom_site_label
 _atom_site_symmetry_multiplicity
 _atom_site_fract_x
 _atom_site_fract_y
 _atom_site_fract_z
 _atom_site_occupancy
  Li  Li0  1  0.326075  0.673925  0.898032  1
  Li  Li1  1  0.012694  0.987306  0.984282  1
  Li  Li2  1  0.006904  0.993096  0.498470  1
  Li  Li3  1  0.668444  0.331556  0.406644  1
  Nb  Nb4  1  0.324356  0.675644  0.499362  1
  Nb  Nb5  1  0.648242  0.351758  0.977885  1
  Ni  Ni6  1  0.171098  0.828902  0.214610  1
  Ni  Ni7  1  0.828382  0.660575  0.712305  1
  Ni  Ni8  1  0.339425  0.171618  0.712305  1
  Sn  Sn9  1  0.661928  0.832501  0.214543  1
  Sn  Sn10  1  0.167499  0.338072  0.214543  1
  Sn  Sn11  1  0.828852  0.171148  0.716547  1
  O  O12  1  0.660490  0.833164  0.588201  1
  O  O13  1  0.487050  0.512950  0.341286  1
  O  O14  1  0.333028  0.666972  0.101713  1
  O  O15  1  0.004487  0.995513  0.312155  1
  O  O16  1  0.002176  0.997824  0.800249  1
  O  O17  1  0.166836  0.339510  0.588201  1
  O  O18  1  0.483533  0.957453  0.346629  1
  O  O19  1  0.042547  0.516467  0.346629  1
  O  O20  1  0.838862  0.161138  0.093758  1
  O  O21  1  0.171450  0.828550  0.591386  1
  O  O22  1  0.959350  0.478651  0.851894  1
  O  O23  1  0.521349  0.040650  0.851894  1
  O  O24  1  0.665168  0.334832  0.609512  1
  O  O25  1  0.829283  0.662780  0.092160  1
  O  O26  1  0.513225  0.486775  0.850460  1
  O  O27  1  0.337220  0.170717  0.092160  1
