# generated using pymatgen
data_LiTi3V(PO4)6
_symmetry_space_group_name_H-M   'P 1'
_cell_length_a   8.77236388
_cell_length_b   8.77236388
_cell_length_c   8.77236388
_cell_angle_alpha   58.72793620
_cell_angle_beta   58.72793620
_cell_angle_gamma   58.72793620
_symmetry_Int_Tables_number   1
_chemical_formula_structural   LiTi3V(PO4)6
_chemical_formula_sum   'Li1 Ti3 V1 P6 O24'
_cell_volume   463.47510384
_cell_formula_units_Z   1
loop_
 _symmetry_equiv_pos_site_id
 _symmetry_equiv_pos_as_xyz
  1  'x, y, z'
loop_
 _atom_site_type_symbol
 _atom_site_label
 _atom_site_symmetry_multiplicity
 _atom_site_fract_x
 _atom_site_fract_y
 _atom_site_fract_z
 _atom_site_occupancy
  Li  Li0  1  0.998676  0.998676  0.998676  1
  Ti  Ti1  1  0.855306  0.855306  0.855306  1
  Ti  Ti2  1  0.639148  0.639148  0.639148  1
  Ti  Ti3  1  0.361022  0.361022  0.361022  1
  V  V4  1  0.144794  0.144794  0.144794  1
  P  P5  1  0.249253  0.536858  0.967458  1
  P  P6  1  0.967458  0.249253  0.536858  1
  P  P7  1  0.536858  0.967458  0.249253  1
  P  P8  1  0.461238  0.033192  0.753535  1
  P  P9  1  0.033192  0.753535  0.461238  1
  P  P10  1  0.753535  0.461238  0.033192  1
  O  O11  1  0.726266  0.489911  0.860477  1
  O  O12  1  0.489911  0.860477  0.726266  1
  O  O13  1  0.076774  0.720141  0.940993  1
  O  O14  1  0.860477  0.726266  0.489911  1
  O  O15  1  0.422981  0.554825  0.786705  1
  O  O16  1  0.210804  0.362598  0.002987  1
  O  O17  1  0.940993  0.076774  0.720141  1
  O  O18  1  0.786705  0.422981  0.554825  1
  O  O19  1  0.554825  0.786705  0.422981  1
  O  O20  1  0.631091  0.003312  0.788639  1
  O  O21  1  0.275402  0.062750  0.928852  1
  O  O22  1  0.003312  0.788639  0.631091  1
  O  O23  1  0.002987  0.210804  0.362598  1
  O  O24  1  0.720141  0.940993  0.076774  1
  O  O25  1  0.362598  0.002987  0.210804  1
  O  O26  1  0.433786  0.215037  0.582408  1
  O  O27  1  0.215037  0.582408  0.433786  1
  O  O28  1  0.062750  0.928852  0.275402  1
  O  O29  1  0.788639  0.631091  0.003312  1
  O  O30  1  0.582408  0.433786  0.215037  1
  O  O31  1  0.139187  0.280453  0.503141  1
  O  O32  1  0.928852  0.275402  0.062750  1
  O  O33  1  0.503141  0.139187  0.280453  1
  O  O34  1  0.280453  0.503141  0.139187  1
