# generated using pymatgen
data_Li9Ti5(SiO8)2
_symmetry_space_group_name_H-M   'P 1'
_cell_length_a   5.00222829
_cell_length_b   5.17681155
_cell_length_c   11.20385030
_cell_angle_alpha   80.06313512
_cell_angle_beta   85.72888059
_cell_angle_gamma   80.47730319
_symmetry_Int_Tables_number   1
_chemical_formula_structural   Li9Ti5(SiO8)2
_chemical_formula_sum   'Li9 Ti5 Si2 O16'
_cell_volume   281.52481078
_cell_formula_units_Z   1
loop_
 _symmetry_equiv_pos_site_id
 _symmetry_equiv_pos_as_xyz
  1  'x, y, z'
loop_
 _atom_site_type_symbol
 _atom_site_label
 _atom_site_symmetry_multiplicity
 _atom_site_fract_x
 _atom_site_fract_y
 _atom_site_fract_z
 _atom_site_occupancy
  Li  Li0  1  0.748023  0.928506  0.558201  1
  Li  Li1  1  0.248423  0.816738  0.680084  1
  Li  Li2  1  0.751816  0.676126  0.809656  1
  Li  Li3  1  0.253258  0.562604  0.940041  1
  Li  Li4  1  0.746742  0.437396  0.059959  1
  Li  Li5  1  0.248184  0.323874  0.190344  1
  Li  Li6  1  0.751577  0.183262  0.319916  1
  Li  Li7  1  0.251977  0.071494  0.441799  1
  Li  Li8  1  0.500000  0.500000  0.500000  1
  Ti  Ti9  1  0.500222  0.249553  0.746934  1
  Ti  Ti10  1  0.002187  0.114819  0.882956  1
  Ti  Ti11  1  0.500000  0.000000  0.000000  1
  Ti  Ti12  1  0.997813  0.885181  0.117044  1
  Ti  Ti13  1  0.499778  0.750447  0.253066  1
  Si  Si14  1  0.998826  0.381229  0.617474  1
  Si  Si15  1  0.001174  0.618771  0.382526  1
  O  O16  1  0.665039  0.556645  0.654071  1
  O  O17  1  0.334534  0.183143  0.600242  1
  O  O18  1  0.379571  0.911595  0.840230  1
  O  O19  1  0.881386  0.079388  0.704915  1
  O  O20  1  0.119225  0.453380  0.758656  1
  O  O21  1  0.871540  0.772727  0.965627  1
  O  O22  1  0.621004  0.337490  0.902219  1
  O  O23  1  0.128460  0.227273  0.034373  1
  O  O24  1  0.378996  0.662510  0.097781  1
  O  O25  1  0.880775  0.546620  0.241344  1
  O  O26  1  0.620429  0.088405  0.159770  1
  O  O27  1  0.334961  0.443355  0.345929  1
  O  O28  1  0.665466  0.816857  0.399758  1
  O  O29  1  0.118614  0.920612  0.295085  1
  O  O30  1  0.101965  0.678018  0.526201  1
  O  O31  1  0.898035  0.321982  0.473799  1
