# generated using pymatgen
data_SrTiFe(PO4)3
_symmetry_space_group_name_H-M   'P 1'
_cell_length_a   9.08380226
_cell_length_b   9.08380226
_cell_length_c   9.08380226
_cell_angle_alpha   56.48482994
_cell_angle_beta   56.48482994
_cell_angle_gamma   56.48482994
_symmetry_Int_Tables_number   1
_chemical_formula_structural   SrTiFe(PO4)3
_chemical_formula_sum   'Sr2 Ti2 Fe2 P6 O24'
_cell_volume   486.94902945
_cell_formula_units_Z   2
loop_
 _symmetry_equiv_pos_site_id
 _symmetry_equiv_pos_as_xyz
  1  'x, y, z'
loop_
 _atom_site_type_symbol
 _atom_site_label
 _atom_site_symmetry_multiplicity
 _atom_site_fract_x
 _atom_site_fract_y
 _atom_site_fract_z
 _atom_site_occupancy
  Sr  Sr0  1  0.001652  0.001652  0.001652  1
  Sr  Sr1  1  0.501652  0.501652  0.501652  1
  Ti  Ti2  1  0.850687  0.850687  0.850687  1
  Ti  Ti3  1  0.350687  0.350687  0.350687  1
  Fe  Fe4  1  0.649660  0.649660  0.649660  1
  Fe  Fe5  1  0.149660  0.149660  0.149660  1
  P  P6  1  0.251041  0.534995  0.962186  1
  P  P7  1  0.962186  0.251041  0.534995  1
  P  P8  1  0.534995  0.962186  0.251041  1
  P  P9  1  0.462186  0.034995  0.751041  1
  P  P10  1  0.034995  0.751041  0.462186  1
  P  P11  1  0.751041  0.462186  0.034995  1
  O  O12  1  0.732093  0.485325  0.866411  1
  O  O13  1  0.485325  0.866411  0.732093  1
  O  O14  1  0.071936  0.716614  0.938682  1
  O  O15  1  0.866411  0.732093  0.485325  1
  O  O16  1  0.424411  0.565902  0.782930  1
  O  O17  1  0.232093  0.366411  0.985325  1
  O  O18  1  0.938682  0.071936  0.716614  1
  O  O19  1  0.782930  0.424411  0.565902  1
  O  O20  1  0.565902  0.782930  0.424411  1
  O  O21  1  0.636993  0.007467  0.771017  1
  O  O22  1  0.282930  0.065902  0.924411  1
  O  O23  1  0.007467  0.771017  0.636993  1
  O  O24  1  0.985325  0.232093  0.366411  1
  O  O25  1  0.716614  0.938682  0.071936  1
  O  O26  1  0.366411  0.985325  0.232093  1
  O  O27  1  0.438682  0.216614  0.571936  1
  O  O28  1  0.216614  0.571936  0.438682  1
  O  O29  1  0.065902  0.924411  0.282930  1
  O  O30  1  0.771017  0.636993  0.007467  1
  O  O31  1  0.571936  0.438682  0.216614  1
  O  O32  1  0.136993  0.271017  0.507467  1
  O  O33  1  0.924411  0.282930  0.065902  1
  O  O34  1  0.507467  0.136993  0.271017  1
  O  O35  1  0.271017  0.507467  0.136993  1
