# generated using pymatgen
data_Li3MnV4O12
_symmetry_space_group_name_H-M   'P 1'
_cell_length_a   6.96085987
_cell_length_b   6.96085987
_cell_length_c   5.84011961
_cell_angle_alpha   74.16034927
_cell_angle_beta   105.83965073
_cell_angle_gamma   96.86658741
_symmetry_Int_Tables_number   1
_chemical_formula_structural   Li3MnV4O12
_chemical_formula_sum   'Li3 Mn1 V4 O12'
_cell_volume   261.58259750
_cell_formula_units_Z   1
loop_
 _symmetry_equiv_pos_site_id
 _symmetry_equiv_pos_as_xyz
  1  'x, y, z'
loop_
 _atom_site_type_symbol
 _atom_site_label
 _atom_site_symmetry_multiplicity
 _atom_site_fract_x
 _atom_site_fract_y
 _atom_site_fract_z
 _atom_site_occupancy
  Li  Li0  1  0.900237  0.900237  0.000000  1
  Li  Li1  1  0.754928  0.754928  0.500000  1
  Li  Li2  1  0.237616  0.237616  0.000000  1
  Mn  Mn3  1  0.085411  0.085411  0.500000  1
  V  V4  1  0.392921  0.798644  0.021476  1
  V  V5  1  0.197255  0.609905  0.521902  1
  V  V6  1  0.798644  0.392921  0.978524  1
  V  V7  1  0.609905  0.197255  0.478098  1
  O  O8  1  0.222353  0.984129  0.896149  1
  O  O9  1  0.628972  0.896933  0.080862  1
  O  O10  1  0.020111  0.790728  0.413213  1
  O  O11  1  0.362322  0.643033  0.812903  1
  O  O12  1  0.896933  0.628972  0.919138  1
  O  O13  1  0.357182  0.646872  0.309092  1
  O  O14  1  0.643033  0.362322  0.187097  1
  O  O15  1  0.103095  0.367353  0.587855  1
  O  O16  1  0.646872  0.357182  0.690908  1
  O  O17  1  0.984129  0.222353  0.103851  1
  O  O18  1  0.367353  0.103095  0.412145  1
  O  O19  1  0.790728  0.020111  0.586787  1
