# generated using pymatgen
data_Li3VF5
_symmetry_space_group_name_H-M   'P 1'
_cell_length_a   7.73927021
_cell_length_b   6.95836273
_cell_length_c   7.87444505
_cell_angle_alpha   90.00000000
_cell_angle_beta   91.85307156
_cell_angle_gamma   90.00000000
_symmetry_Int_Tables_number   1
_chemical_formula_structural   Li3VF5
_chemical_formula_sum   'Li12 V4 F20'
_cell_volume   423.83796096
_cell_formula_units_Z   4
loop_
 _symmetry_equiv_pos_site_id
 _symmetry_equiv_pos_as_xyz
  1  'x, y, z'
loop_
 _atom_site_type_symbol
 _atom_site_label
 _atom_site_symmetry_multiplicity
 _atom_site_fract_x
 _atom_site_fract_y
 _atom_site_fract_z
 _atom_site_occupancy
  Li  Li0  1  0.997246  0.551884  0.782356  1
  Li  Li1  1  0.002754  0.051884  0.717644  1
  Li  Li2  1  0.997246  0.948116  0.282356  1
  Li  Li3  1  0.002754  0.448116  0.217644  1
  Li  Li4  1  0.266272  0.278378  0.967672  1
  Li  Li5  1  0.266272  0.221622  0.467672  1
  Li  Li6  1  0.464505  0.014883  0.812706  1
  Li  Li7  1  0.464505  0.485117  0.312706  1
  Li  Li8  1  0.535495  0.514883  0.687294  1
  Li  Li9  1  0.535495  0.985117  0.187294  1
  Li  Li10  1  0.733728  0.778378  0.532328  1
  Li  Li11  1  0.733728  0.721622  0.032328  1
  V  V12  1  0.252402  0.764255  0.593780  1
  V  V13  1  0.252402  0.735745  0.093780  1
  V  V14  1  0.747598  0.264255  0.906220  1
  V  V15  1  0.747598  0.235745  0.406220  1
  F  F16  1  0.023174  0.274871  0.883606  1
  F  F17  1  0.023174  0.225129  0.383606  1
  F  F18  1  0.228875  0.639666  0.839959  1
  F  F19  1  0.238493  0.055247  0.662754  1
  F  F20  1  0.228875  0.860334  0.339959  1
  F  F21  1  0.238493  0.444753  0.162754  1
  F  F22  1  0.320821  0.484889  0.523495  1
  F  F23  1  0.320821  0.015111  0.023495  1
  F  F24  1  0.483042  0.299807  0.846040  1
  F  F25  1  0.483042  0.200193  0.346040  1
  F  F26  1  0.516958  0.799807  0.653960  1
  F  F27  1  0.516958  0.700193  0.153960  1
  F  F28  1  0.679179  0.984889  0.976505  1
  F  F29  1  0.679179  0.515111  0.476505  1
  F  F30  1  0.761507  0.555247  0.837246  1
  F  F31  1  0.771125  0.139666  0.660041  1
  F  F32  1  0.761507  0.944753  0.337246  1
  F  F33  1  0.771125  0.360334  0.160041  1
  F  F34  1  0.976826  0.774871  0.616394  1
  F  F35  1  0.976826  0.725129  0.116394  1
