# generated using pymatgen
data_LiFe2F5
_symmetry_space_group_name_H-M   'P 1'
_cell_length_a   6.60532100
_cell_length_b   8.17437409
_cell_length_c   8.47596102
_cell_angle_alpha   90.31159910
_cell_angle_beta   90.39097679
_cell_angle_gamma   90.33966918
_symmetry_Int_Tables_number   1
_chemical_formula_structural   LiFe2F5
_chemical_formula_sum   'Li4 Fe8 F20'
_cell_volume   457.62856492
_cell_formula_units_Z   4
loop_
 _symmetry_equiv_pos_site_id
 _symmetry_equiv_pos_as_xyz
  1  'x, y, z'
loop_
 _atom_site_type_symbol
 _atom_site_label
 _atom_site_symmetry_multiplicity
 _atom_site_fract_x
 _atom_site_fract_y
 _atom_site_fract_z
 _atom_site_occupancy
  Li  Li0  1  0.246765  0.172042  0.683760  1
  Li  Li1  1  0.248684  0.327136  0.183183  1
  Li  Li2  1  0.750348  0.672948  0.816030  1
  Li  Li3  1  0.752941  0.827937  0.318175  1
  Fe  Fe4  1  0.999099  0.999574  0.998944  1
  Fe  Fe5  1  0.500685  0.999662  0.998551  1
  Fe  Fe6  1  0.744984  0.117609  0.655557  1
  Fe  Fe7  1  0.746713  0.393850  0.162077  1
  Fe  Fe8  1  0.001091  0.502428  0.498650  1
  Fe  Fe9  1  0.498447  0.502578  0.499818  1
  Fe  Fe10  1  0.249190  0.607518  0.838047  1
  Fe  Fe11  1  0.254722  0.891826  0.336420  1
  F  F12  1  0.242738  0.041318  0.507598  1
  F  F13  1  0.004404  0.128925  0.792253  1
  F  F14  1  0.494614  0.136971  0.793052  1
  F  F15  1  0.253550  0.108743  0.111947  1
  F  F16  1  0.750036  0.154045  0.080620  1
  F  F17  1  0.748531  0.356412  0.585957  1
  F  F18  1  0.248813  0.391480  0.614012  1
  F  F19  1  0.494578  0.360023  0.298347  1
  F  F20  1  0.005076  0.362150  0.296696  1
  F  F21  1  0.254915  0.462091  0.011484  1
  F  F22  1  0.754540  0.537055  0.987656  1
  F  F23  1  0.994356  0.639080  0.702363  1
  F  F24  1  0.504378  0.637507  0.704675  1
  F  F25  1  0.749535  0.607702  0.384100  1
  F  F26  1  0.251154  0.652856  0.418144  1
  F  F27  1  0.249498  0.846597  0.919755  1
  F  F28  1  0.746583  0.886501  0.894129  1
  F  F29  1  0.993689  0.866399  0.203964  1
  F  F30  1  0.506539  0.860170  0.203083  1
  F  F31  1  0.758802  0.948867  0.500952  1
