# generated using pymatgen
data_Li3CoNi3O8
_symmetry_space_group_name_H-M   'P 1'
_cell_length_a   5.83593302
_cell_length_b   5.83593302
_cell_length_c   5.83593302
_cell_angle_alpha   59.16484925
_cell_angle_beta   59.16484925
_cell_angle_gamma   59.16484925
_symmetry_Int_Tables_number   1
_chemical_formula_structural   Li3CoNi3O8
_chemical_formula_sum   'Li3 Co1 Ni3 O8'
_cell_volume   137.87034250
_cell_formula_units_Z   1
loop_
 _symmetry_equiv_pos_site_id
 _symmetry_equiv_pos_as_xyz
  1  'x, y, z'
loop_
 _atom_site_type_symbol
 _atom_site_label
 _atom_site_symmetry_multiplicity
 _atom_site_fract_x
 _atom_site_fract_y
 _atom_site_fract_z
 _atom_site_occupancy
  Li  Li0  1  0.000000  0.000000  0.500000  1
  Li  Li1  1  0.500000  0.000000  1.000000  1
  Li  Li2  1  1.000000  0.500000  0.000000  1
  Co  Co3  1  0.000000  0.000000  0.000000  1
  Ni  Ni4  1  0.500000  0.000000  0.500000  1
  Ni  Ni5  1  0.500000  0.500000  1.000000  1
  Ni  Ni6  1  0.000000  0.500000  0.500000  1
  O  O7  1  0.240123  0.771685  0.771685  1
  O  O8  1  0.771685  0.771685  0.240123  1
  O  O9  1  0.771685  0.240123  0.771685  1
  O  O10  1  0.260575  0.260575  0.260575  1
  O  O11  1  0.739425  0.739425  0.739425  1
  O  O12  1  0.228315  0.759877  0.228315  1
  O  O13  1  0.228315  0.228315  0.759877  1
  O  O14  1  0.759877  0.228315  0.228315  1
