# generated using pymatgen
data_Cr10Fe5O24
_symmetry_space_group_name_H-M   'P 1'
_cell_length_a   5.98933205
_cell_length_b   5.98933205
_cell_length_c   14.66931019
_cell_angle_alpha   89.97782306
_cell_angle_beta   90.02217694
_cell_angle_gamma   120.03720438
_symmetry_Int_Tables_number   1
_chemical_formula_structural   Cr10Fe5O24
_chemical_formula_sum   'Cr10 Fe5 O24'
_cell_volume   455.54797964
_cell_formula_units_Z   1
loop_
 _symmetry_equiv_pos_site_id
 _symmetry_equiv_pos_as_xyz
  1  'x, y, z'
loop_
 _atom_site_type_symbol
 _atom_site_label
 _atom_site_symmetry_multiplicity
 _atom_site_fract_x
 _atom_site_fract_y
 _atom_site_fract_z
 _atom_site_occupancy
  Cr  Cr0  1  0.171717  0.828283  0.792585  1
  Cr  Cr1  1  0.657561  0.828609  0.792318  1
  Cr  Cr2  1  0.837987  0.675963  0.459232  1
  Cr  Cr3  1  0.324037  0.162013  0.459232  1
  Cr  Cr4  1  0.171391  0.342439  0.792318  1
  Cr  Cr5  1  0.837755  0.162245  0.459027  1
  Cr  Cr6  1  0.665230  0.334770  0.285714  1
  Cr  Cr7  1  0.000200  0.999800  0.621967  1
  Cr  Cr8  1  0.993199  0.494446  0.126074  1
  Cr  Cr9  1  0.505554  0.006801  0.126074  1
  Fe  Fe10  1  0.333267  0.666733  0.954789  1
  Fe  Fe11  1  0.666635  0.333365  0.667142  1
  Fe  Fe12  1  0.000836  0.999164  0.999072  1
  Fe  Fe13  1  0.504995  0.495005  0.126040  1
  Fe  Fe14  1  0.333058  0.666942  0.333234  1
  O  O15  1  0.312990  0.156320  0.711491  1
  O  O16  1  0.843680  0.687010  0.711491  1
  O  O17  1  0.479599  0.958946  0.870684  1
  O  O18  1  0.041054  0.520401  0.870684  1
  O  O19  1  0.144348  0.855652  0.535046  1
  O  O20  1  0.333380  0.666620  0.724322  1
  O  O21  1  0.479429  0.520571  0.870698  1
  O  O22  1  0.666496  0.333504  0.534674  1
  O  O23  1  0.509299  0.490701  0.377862  1
  O  O24  1  0.000259  0.999741  0.867619  1
  O  O25  1  0.843408  0.156592  0.711276  1
  O  O26  1  0.977872  0.489793  0.377039  1
  O  O27  1  0.510207  0.022128  0.377039  1
  O  O28  1  0.813111  0.625245  0.204800  1
  O  O29  1  0.712173  0.854918  0.535405  1
  O  O30  1  0.374755  0.186889  0.204800  1
  O  O31  1  0.145082  0.287827  0.535405  1
  O  O32  1  0.812056  0.187944  0.203305  1
  O  O33  1  0.663826  0.336174  0.057095  1
  O  O34  1  0.000654  0.999346  0.392211  1
  O  O35  1  0.177246  0.822754  0.043853  1
  O  O36  1  0.333886  0.666114  0.200469  1
  O  O37  1  0.645951  0.824161  0.043958  1
  O  O38  1  0.175839  0.354049  0.043958  1
