# generated using pymatgen
data_Mn3O5F
_symmetry_space_group_name_H-M   'P 1'
_cell_length_a   5.45888659
_cell_length_b   4.55038584
_cell_length_c   7.52234051
_cell_angle_alpha   90.00000000
_cell_angle_beta   93.61009578
_cell_angle_gamma   90.00000000
_symmetry_Int_Tables_number   1
_chemical_formula_structural   Mn3O5F
_chemical_formula_sum   'Mn6 O10 F2'
_cell_volume   186.48445441
_cell_formula_units_Z   2
loop_
 _symmetry_equiv_pos_site_id
 _symmetry_equiv_pos_as_xyz
  1  'x, y, z'
loop_
 _atom_site_type_symbol
 _atom_site_label
 _atom_site_symmetry_multiplicity
 _atom_site_fract_x
 _atom_site_fract_y
 _atom_site_fract_z
 _atom_site_occupancy
  Mn  Mn0  1  0.574289  0.478984  0.835848  1
  Mn  Mn1  1  0.910039  0.512236  0.163701  1
  Mn  Mn2  1  0.249991  0.512562  0.510530  1
  Mn  Mn3  1  0.089961  0.012236  0.836299  1
  Mn  Mn4  1  0.750009  0.012562  0.489470  1
  Mn  Mn5  1  0.425711  0.978984  0.164152  1
  O  O6  1  0.046368  0.194811  0.600612  1
  O  O7  1  0.380650  0.192898  0.940943  1
  O  O8  1  0.712676  0.193810  0.264747  1
  O  O9  1  0.876590  0.307660  0.935165  1
  O  O10  1  0.544594  0.304005  0.601939  1
  O  O11  1  0.287324  0.693810  0.735253  1
  O  O12  1  0.953632  0.694811  0.399388  1
  O  O13  1  0.619350  0.692898  0.059057  1
  O  O14  1  0.455406  0.804005  0.398061  1
  O  O15  1  0.123410  0.807660  0.064835  1
  F  F16  1  0.219059  0.303034  0.269981  1
  F  F17  1  0.780941  0.803034  0.730019  1
