# generated using pymatgen
data_Ba3Sr4O7
_symmetry_space_group_name_H-M   'P 1'
_cell_length_a   13.76994085
_cell_length_b   13.76994085
_cell_length_c   13.76994085
_cell_angle_alpha   164.11955315
_cell_angle_beta   157.39021238
_cell_angle_gamma   27.75102561
_symmetry_Int_Tables_number   1
_chemical_formula_structural   Ba3Sr4O7
_chemical_formula_sum   'Ba3 Sr4 O7'
_cell_volume   274.55914091
_cell_formula_units_Z   1
loop_
 _symmetry_equiv_pos_site_id
 _symmetry_equiv_pos_as_xyz
  1  'x, y, z'
loop_
 _atom_site_type_symbol
 _atom_site_label
 _atom_site_symmetry_multiplicity
 _atom_site_fract_x
 _atom_site_fract_y
 _atom_site_fract_z
 _atom_site_occupancy
  Ba  Ba0  1  0.854914  0.354914  0.500000  1
  Ba  Ba1  1  0.145086  0.645086  0.500000  1
  Ba  Ba2  1  0.000000  0.500000  0.500000  1
  Sr  Sr3  1  0.284649  0.784649  0.500000  1
  Sr  Sr4  1  0.715351  0.215351  0.500000  1
  Sr  Sr5  1  0.427925  0.927925  0.500000  1
  Sr  Sr6  1  0.572075  0.072075  0.500000  1
  O  O7  1  0.640138  0.640138  0.000000  1
  O  O8  1  0.359862  0.359862  0.000000  1
  O  O9  1  0.500000  0.500000  0.000000  1
  O  O10  1  0.222098  0.222098  0.000000  1
  O  O11  1  0.777902  0.777902  0.000000  1
  O  O12  1  0.073398  0.073398  0.000000  1
  O  O13  1  0.926602  0.926602  0.000000  1
