# generated using pymatgen
data_Li3CrPCO7
_symmetry_space_group_name_H-M   'P 1'
_cell_length_a   9.51209929
_cell_length_b   6.47610899
_cell_length_c   9.98235451
_cell_angle_alpha   90.00000000
_cell_angle_beta   116.28814521
_cell_angle_gamma   90.00000000
_symmetry_Int_Tables_number   1
_chemical_formula_structural   Li3CrPCO7
_chemical_formula_sum   'Li12 Cr4 P4 C4 O28'
_cell_volume   551.33000970
_cell_formula_units_Z   4
loop_
 _symmetry_equiv_pos_site_id
 _symmetry_equiv_pos_as_xyz
  1  'x, y, z'
loop_
 _atom_site_type_symbol
 _atom_site_label
 _atom_site_symmetry_multiplicity
 _atom_site_fract_x
 _atom_site_fract_y
 _atom_site_fract_z
 _atom_site_occupancy
  Li  Li0  1  0.109975  0.242227  0.441170  1
  Li  Li1  1  0.109975  0.257773  0.941170  1
  Li  Li2  1  0.294754  0.478444  0.263441  1
  Li  Li3  1  0.294754  0.021556  0.763441  1
  Li  Li4  1  0.356101  0.744425  0.066073  1
  Li  Li5  1  0.356101  0.755575  0.566073  1
  Li  Li6  1  0.643899  0.244425  0.433927  1
  Li  Li7  1  0.643899  0.255575  0.933927  1
  Li  Li8  1  0.705246  0.978444  0.236559  1
  Li  Li9  1  0.705246  0.521556  0.736559  1
  Li  Li10  1  0.890025  0.742227  0.058830  1
  Li  Li11  1  0.890025  0.757773  0.558830  1
  Cr  Cr12  1  0.259011  0.985704  0.253458  1
  Cr  Cr13  1  0.259011  0.514296  0.753458  1
  Cr  Cr14  1  0.740989  0.485704  0.246542  1
  Cr  Cr15  1  0.740989  0.014296  0.746542  1
  P  P16  1  0.411312  0.249272  0.067301  1
  P  P17  1  0.411312  0.250728  0.567301  1
  P  P18  1  0.588688  0.749272  0.432699  1
  P  P19  1  0.588688  0.750728  0.932699  1
  C  C20  1  0.038349  0.747312  0.372162  1
  C  C21  1  0.038349  0.752688  0.872162  1
  C  C22  1  0.961651  0.247312  0.127838  1
  C  C23  1  0.961651  0.252688  0.627838  1
  O  O24  1  0.062510  0.756615  0.008524  1
  O  O25  1  0.062510  0.743385  0.508524  1
  O  O26  1  0.106196  0.229688  0.237045  1
  O  O27  1  0.151984  0.765492  0.334969  1
  O  O28  1  0.106196  0.270312  0.737045  1
  O  O29  1  0.151984  0.734508  0.834969  1
  O  O30  1  0.315168  0.059125  0.077351  1
  O  O31  1  0.313015  0.438342  0.069740  1
  O  O32  1  0.313015  0.061658  0.569740  1
  O  O33  1  0.315168  0.440875  0.577351  1
  O  O34  1  0.420742  0.748845  0.299470  1
  O  O35  1  0.425952  0.260538  0.418775  1
  O  O36  1  0.420742  0.751155  0.799470  1
  O  O37  1  0.425952  0.239462  0.918775  1
  O  O38  1  0.574048  0.760538  0.081225  1
  O  O39  1  0.579258  0.248845  0.200530  1
  O  O40  1  0.574048  0.739462  0.581225  1
  O  O41  1  0.579258  0.251155  0.700530  1
  O  O42  1  0.686985  0.938342  0.430260  1
  O  O43  1  0.684832  0.559125  0.422649  1
  O  O44  1  0.684832  0.940875  0.922649  1
  O  O45  1  0.686985  0.561658  0.930260  1
  O  O46  1  0.848016  0.265492  0.165031  1
  O  O47  1  0.893804  0.729688  0.262955  1
  O  O48  1  0.848016  0.234508  0.665031  1
  O  O49  1  0.893804  0.770312  0.762955  1
  O  O50  1  0.937490  0.256615  0.491476  1
  O  O51  1  0.937490  0.243385  0.991476  1
