# generated using pymatgen
data_Li7FeO6
_symmetry_space_group_name_H-M   'P 1'
_cell_length_a   5.65021482
_cell_length_b   5.65021482
_cell_length_c   5.65021482
_cell_angle_alpha   59.03161543
_cell_angle_beta   59.03161543
_cell_angle_gamma   59.03161543
_symmetry_Int_Tables_number   1
_chemical_formula_structural   Li7FeO6
_chemical_formula_sum   'Li7 Fe1 O6'
_cell_volume   124.73286253
_cell_formula_units_Z   1
loop_
 _symmetry_equiv_pos_site_id
 _symmetry_equiv_pos_as_xyz
  1  'x, y, z'
loop_
 _atom_site_type_symbol
 _atom_site_label
 _atom_site_symmetry_multiplicity
 _atom_site_fract_x
 _atom_site_fract_y
 _atom_site_fract_z
 _atom_site_occupancy
  Li  Li0  1  0.054283  0.505038  0.769285  1
  Li  Li1  1  0.518696  0.282960  0.884096  1
  Li  Li2  1  0.282960  0.884096  0.518696  1
  Li  Li3  1  0.346326  0.346326  0.346326  1
  Li  Li4  1  0.769285  0.054283  0.505038  1
  Li  Li5  1  0.505038  0.769285  0.054283  1
  Li  Li6  1  0.884096  0.518696  0.282960  1
  Fe  Fe7  1  0.999353  0.999353  0.999353  1
  O  O8  1  0.201746  0.637339  0.924283  1
  O  O9  1  0.348982  0.120038  0.772161  1
  O  O10  1  0.120038  0.772161  0.348982  1
  O  O11  1  0.924283  0.201746  0.637339  1
  O  O12  1  0.637339  0.924283  0.201746  1
  O  O13  1  0.772161  0.348982  0.120038  1
