# generated using pymatgen
data_Li5NiO4
_symmetry_space_group_name_H-M   'P 1'
_cell_length_a   6.35024656
_cell_length_b   6.35024656
_cell_length_c   4.73463723
_cell_angle_alpha   90.00000000
_cell_angle_beta   90.00000000
_cell_angle_gamma   94.83596394
_symmetry_Int_Tables_number   1
_chemical_formula_structural   Li5NiO4
_chemical_formula_sum   'Li10 Ni2 O8'
_cell_volume   190.24756128
_cell_formula_units_Z   2
loop_
 _symmetry_equiv_pos_site_id
 _symmetry_equiv_pos_as_xyz
  1  'x, y, z'
loop_
 _atom_site_type_symbol
 _atom_site_label
 _atom_site_symmetry_multiplicity
 _atom_site_fract_x
 _atom_site_fract_y
 _atom_site_fract_z
 _atom_site_occupancy
  Li  Li0  1  0.049849  0.541335  0.525210  1
  Li  Li1  1  0.716790  0.711382  0.442568  1
  Li  Li2  1  0.788618  0.783210  0.942568  1
  Li  Li3  1  0.458665  0.950151  0.474790  1
  Li  Li4  1  0.017392  0.982608  0.500000  1
  Li  Li5  1  0.549849  0.041335  0.974790  1
  Li  Li6  1  0.216790  0.211382  0.057432  1
  Li  Li7  1  0.288618  0.283210  0.557432  1
  Li  Li8  1  0.958665  0.450151  0.025210  1
  Li  Li9  1  0.517392  0.482608  1.000000  1
  Ni  Ni10  1  0.243268  0.756732  1.000000  1
  Ni  Ni11  1  0.743268  0.256732  0.500000  1
  O  O12  1  0.760599  0.498156  0.728082  1
  O  O13  1  0.001844  0.739401  0.228082  1
  O  O14  1  0.512643  0.765693  0.165115  1
  O  O15  1  0.734307  0.987357  0.665115  1
  O  O16  1  0.260599  0.998156  0.771918  1
  O  O17  1  0.012643  0.265693  0.334885  1
  O  O18  1  0.501844  0.239401  0.271918  1
  O  O19  1  0.234307  0.487357  0.834885  1
