# generated using pymatgen
data_LiFe2(BO3)2
_symmetry_space_group_name_H-M   'P 1'
_cell_length_a   5.27757817
_cell_length_b   9.05639136
_cell_length_c   11.30593397
_cell_angle_alpha   113.23797183
_cell_angle_beta   101.96134327
_cell_angle_gamma   90.09029644
_symmetry_Int_Tables_number   1
_chemical_formula_structural   LiFe2(BO3)2
_chemical_formula_sum   'Li4 Fe8 B8 O24'
_cell_volume   483.66428192
_cell_formula_units_Z   4
loop_
 _symmetry_equiv_pos_site_id
 _symmetry_equiv_pos_as_xyz
  1  'x, y, z'
loop_
 _atom_site_type_symbol
 _atom_site_label
 _atom_site_symmetry_multiplicity
 _atom_site_fract_x
 _atom_site_fract_y
 _atom_site_fract_z
 _atom_site_occupancy
  Li  Li0  1  0.350219  0.716778  0.411924  1
  Li  Li1  1  0.603736  0.956495  0.916598  1
  Li  Li2  1  0.925113  0.567423  0.160307  1
  Li  Li3  1  0.682475  0.341644  0.660088  1
  Fe  Fe4  1  0.404825  0.737264  0.129100  1
  Fe  Fe5  1  0.097251  0.763336  0.870638  1
  Fe  Fe6  1  0.841508  0.860586  0.383628  1
  Fe  Fe7  1  0.657455  0.662737  0.626997  1
  Fe  Fe8  1  0.352924  0.349907  0.374246  1
  Fe  Fe9  1  0.157886  0.143785  0.635248  1
  Fe  Fe10  1  0.903833  0.218864  0.135329  1
  Fe  Fe11  1  0.597418  0.283783  0.885122  1
  B  B12  1  0.637540  0.989496  0.624312  1
  B  B13  1  0.884895  0.881069  0.118907  1
  B  B14  1  0.159656  0.473141  0.629625  1
  B  B15  1  0.409723  0.408681  0.136898  1
  B  B16  1  0.858822  0.519158  0.376071  1
  B  B17  1  0.606003  0.615665  0.874676  1
  B  B18  1  0.345122  0.023146  0.378682  1
  B  B19  1  0.091439  0.095073  0.875206  1
  O  O20  1  0.114739  0.843976  0.074339  1
  O  O21  1  0.439679  0.868766  0.326792  1
  O  O22  1  0.223152  0.963178  0.878386  1
  O  O23  1  0.500908  0.852095  0.607065  1
  O  O24  1  0.875604  0.980807  0.589918  1
  O  O25  1  0.787037  0.773310  0.164310  1
  O  O26  1  0.282752  0.543424  0.137325  1
  O  O27  1  0.051830  0.620988  0.676729  1
  O  O28  1  0.713448  0.733128  0.841192  1
  O  O29  1  0.617127  0.531918  0.412509  1
  O  O30  1  0.973985  0.646535  0.363267  1
  O  O31  1  0.388741  0.656945  0.930177  1
  O  O32  1  0.646001  0.384359  0.098827  1
  O  O33  1  0.389918  0.462397  0.583600  1
  O  O34  1  0.295799  0.303163  0.177013  1
  O  O35  1  0.977641  0.376375  0.350675  1
  O  O36  1  0.705705  0.473859  0.854245  1
  O  O37  1  0.204169  0.197985  0.831910  1
  O  O38  1  0.138332  0.033452  0.436939  1
  O  O39  1  0.463645  0.152569  0.372609  1
  O  O40  1  0.038420  0.342499  0.634255  1
  O  O41  1  0.757820  0.006268  0.110889  1
  O  O42  1  0.539627  0.141376  0.666877  1
  O  O43  1  0.858177  0.121838  0.915036  1
