# generated using pymatgen
data_Ti3V2Fe(PO4)6
_symmetry_space_group_name_H-M   'P 1'
_cell_length_a   8.54931706
_cell_length_b   8.54931706
_cell_length_c   8.54931706
_cell_angle_alpha   61.20229409
_cell_angle_beta   61.20229409
_cell_angle_gamma   61.20229409
_symmetry_Int_Tables_number   1
_chemical_formula_structural   Ti3V2Fe(PO4)6
_chemical_formula_sum   'Ti3 V2 Fe1 P6 O24'
_cell_volume   453.80409460
_cell_formula_units_Z   1
loop_
 _symmetry_equiv_pos_site_id
 _symmetry_equiv_pos_as_xyz
  1  'x, y, z'
loop_
 _atom_site_type_symbol
 _atom_site_label
 _atom_site_symmetry_multiplicity
 _atom_site_fract_x
 _atom_site_fract_y
 _atom_site_fract_z
 _atom_site_occupancy
  Ti  Ti0  1  0.644743  0.644743  0.644743  1
  Ti  Ti1  1  0.857759  0.857759  0.857759  1
  Ti  Ti2  1  0.354932  0.354932  0.354932  1
  V  V3  1  0.001231  0.001231  0.001231  1
  V  V4  1  0.500996  0.500996  0.500996  1
  Fe  Fe5  1  0.143454  0.143454  0.143454  1
  P  P6  1  0.953831  0.248582  0.544096  1
  P  P7  1  0.544096  0.953831  0.248582  1
  P  P8  1  0.248582  0.544096  0.953831  1
  P  P9  1  0.748389  0.457175  0.044720  1
  P  P10  1  0.457175  0.044720  0.748389  1
  P  P11  1  0.044720  0.748389  0.457175  1
  O  O12  1  0.497094  0.118322  0.314501  1
  O  O13  1  0.314501  0.497094  0.118322  1
  O  O14  1  0.118322  0.314501  0.497094  1
  O  O15  1  0.941923  0.091377  0.742609  1
  O  O16  1  0.984082  0.182849  0.395257  1
  O  O17  1  0.758210  0.410608  0.567214  1
  O  O18  1  0.742609  0.941923  0.091377  1
  O  O19  1  0.567214  0.758210  0.410608  1
  O  O20  1  0.815093  0.618793  0.999913  1
  O  O21  1  0.410608  0.567214  0.758210  1
  O  O22  1  0.901079  0.264599  0.051803  1
  O  O23  1  0.618793  0.999913  0.815093  1
  O  O24  1  0.395257  0.984082  0.182849  1
  O  O25  1  0.091377  0.742609  0.941923  1
  O  O26  1  0.587282  0.446141  0.239807  1
  O  O27  1  0.182849  0.395257  0.984082  1
  O  O28  1  0.446141  0.239807  0.587282  1
  O  O29  1  0.264599  0.051803  0.901079  1
  O  O30  1  0.239807  0.587282  0.446141  1
  O  O31  1  0.999913  0.815093  0.618793  1
  O  O32  1  0.051803  0.901079  0.264599  1
  O  O33  1  0.887235  0.671117  0.513195  1
  O  O34  1  0.671117  0.513195  0.887235  1
  O  O35  1  0.513195  0.887235  0.671117  1
