# generated using pymatgen
data_LuVO3
_symmetry_space_group_name_H-M   'P 1'
_cell_length_a   5.24197906
_cell_length_b   5.65867156
_cell_length_c   7.59342250
_cell_angle_alpha   90.00000000
_cell_angle_beta   90.00000000
_cell_angle_gamma   90.00000000
_symmetry_Int_Tables_number   1
_chemical_formula_structural   LuVO3
_chemical_formula_sum   'Lu4 V4 O12'
_cell_volume   225.24094137
_cell_formula_units_Z   4
loop_
 _symmetry_equiv_pos_site_id
 _symmetry_equiv_pos_as_xyz
  1  'x, y, z'
loop_
 _atom_site_type_symbol
 _atom_site_label
 _atom_site_symmetry_multiplicity
 _atom_site_fract_x
 _atom_site_fract_y
 _atom_site_fract_z
 _atom_site_occupancy
  Lu  Lu0  1  0.022912  0.928692  0.750000  1
  Lu  Lu1  1  0.477088  0.428692  0.750000  1
  Lu  Lu2  1  0.522912  0.571308  0.250000  1
  Lu  Lu3  1  0.977088  0.071308  0.250000  1
  V  V4  1  0.000000  0.500000  0.500000  1
  V  V5  1  0.000000  0.500000  0.000000  1
  V  V6  1  0.500000  0.000000  0.500000  1
  V  V7  1  0.500000  0.000000  0.000000  1
  O  O8  1  0.129630  0.445477  0.250000  1
  O  O9  1  0.190344  0.186112  0.934770  1
  O  O10  1  0.190344  0.186112  0.565230  1
  O  O11  1  0.309656  0.686111  0.934770  1
  O  O12  1  0.309656  0.686111  0.565230  1
  O  O13  1  0.370370  0.945477  0.250000  1
  O  O14  1  0.629630  0.054523  0.750000  1
  O  O15  1  0.690344  0.313889  0.434770  1
  O  O16  1  0.690344  0.313889  0.065230  1
  O  O17  1  0.809656  0.813889  0.434770  1
  O  O18  1  0.809656  0.813889  0.065230  1
  O  O19  1  0.870370  0.554523  0.750000  1
