# generated using pymatgen
data_LiFe(PO3)3
_symmetry_space_group_name_H-M   'P 1'
_cell_length_a   5.32076867
_cell_length_b   10.69581037
_cell_length_c   12.08202869
_cell_angle_alpha   90.00000000
_cell_angle_beta   90.00000000
_cell_angle_gamma   90.00000000
_symmetry_Int_Tables_number   1
_chemical_formula_structural   LiFe(PO3)3
_chemical_formula_sum   'Li4 Fe4 P12 O36'
_cell_volume   687.58743983
_cell_formula_units_Z   4
loop_
 _symmetry_equiv_pos_site_id
 _symmetry_equiv_pos_as_xyz
  1  'x, y, z'
loop_
 _atom_site_type_symbol
 _atom_site_label
 _atom_site_symmetry_multiplicity
 _atom_site_fract_x
 _atom_site_fract_y
 _atom_site_fract_z
 _atom_site_occupancy
  Li  Li0  1  0.103641  0.111740  0.081982  1
  Li  Li1  1  0.603641  0.388260  0.918018  1
  Li  Li2  1  0.896359  0.611740  0.418018  1
  Li  Li3  1  0.396359  0.888260  0.581982  1
  Fe  Fe4  1  0.593179  0.031387  0.868365  1
  Fe  Fe5  1  0.093179  0.468613  0.131635  1
  Fe  Fe6  1  0.406821  0.531387  0.631635  1
  Fe  Fe7  1  0.906821  0.968613  0.368365  1
  P  P8  1  0.879360  0.073822  0.624959  1
  P  P9  1  0.391824  0.151402  0.360953  1
  P  P10  1  0.077990  0.193644  0.819646  1
  P  P11  1  0.577990  0.306356  0.180354  1
  P  P12  1  0.891824  0.348598  0.639047  1
  P  P13  1  0.379360  0.426177  0.375041  1
  P  P14  1  0.120640  0.573823  0.875041  1
  P  P15  1  0.608176  0.651402  0.139047  1
  P  P16  1  0.922010  0.693644  0.680354  1
  P  P17  1  0.422010  0.806356  0.319646  1
  P  P18  1  0.108176  0.848598  0.860953  1
  P  P19  1  0.620640  0.926177  0.124959  1
  O  O20  1  0.495994  0.010190  0.041027  1
  O  O21  1  0.632117  0.037019  0.675499  1
  O  O22  1  0.543797  0.060953  0.428089  1
  O  O23  1  0.084190  0.088311  0.723959  1
  O  O24  1  0.131904  0.116749  0.322906  1
  O  O25  1  0.837802  0.186855  0.886347  1
  O  O26  1  0.324123  0.188191  0.879458  1
  O  O27  1  0.566175  0.181130  0.253583  1
  O  O28  1  0.878176  0.215270  0.576118  1
  O  O29  1  0.378176  0.284730  0.423882  1
  O  O30  1  0.066175  0.318870  0.746417  1
  O  O31  1  0.824123  0.311809  0.120542  1
  O  O32  1  0.337802  0.313145  0.113653  1
  O  O33  1  0.631904  0.383251  0.677094  1
  O  O34  1  0.584190  0.411689  0.276041  1
  O  O35  1  0.043797  0.439047  0.571911  1
  O  O36  1  0.132117  0.462981  0.324501  1
  O  O37  1  0.995994  0.489810  0.958973  1
  O  O38  1  0.504006  0.510190  0.458973  1
  O  O39  1  0.367883  0.537019  0.824501  1
  O  O40  1  0.456203  0.560953  0.071911  1
  O  O41  1  0.915810  0.588311  0.776041  1
  O  O42  1  0.868096  0.616749  0.177094  1
  O  O43  1  0.162198  0.686855  0.613653  1
  O  O44  1  0.675877  0.688191  0.620542  1
  O  O45  1  0.433825  0.681130  0.246417  1
  O  O46  1  0.121824  0.715270  0.923882  1
  O  O47  1  0.621824  0.784730  0.076118  1
  O  O48  1  0.933825  0.818870  0.753583  1
  O  O49  1  0.175877  0.811809  0.379458  1
  O  O50  1  0.662198  0.813145  0.386347  1
  O  O51  1  0.368096  0.883251  0.822906  1
  O  O52  1  0.415810  0.911689  0.223959  1
  O  O53  1  0.956203  0.939047  0.928089  1
  O  O54  1  0.867883  0.962981  0.175499  1
  O  O55  1  0.004006  0.989810  0.541027  1
