# generated using pymatgen
data_Na2FePCO7
_symmetry_space_group_name_H-M   'P 1'
_cell_length_a   10.36318098
_cell_length_b   6.53056659
_cell_length_c   10.49619103
_cell_angle_alpha   90.00000000
_cell_angle_beta   120.21100091
_cell_angle_gamma   90.00000000
_symmetry_Int_Tables_number   1
_chemical_formula_structural   Na2FePCO7
_chemical_formula_sum   'Na8 Fe4 P4 C4 O28'
_cell_volume   613.87363297
_cell_formula_units_Z   4
loop_
 _symmetry_equiv_pos_site_id
 _symmetry_equiv_pos_as_xyz
  1  'x, y, z'
loop_
 _atom_site_type_symbol
 _atom_site_label
 _atom_site_symmetry_multiplicity
 _atom_site_fract_x
 _atom_site_fract_y
 _atom_site_fract_z
 _atom_site_occupancy
  Na  Na0  1  0.080266  0.260531  0.922640  1
  Na  Na1  1  0.080266  0.239469  0.422640  1
  Na  Na2  1  0.263506  0.486444  0.758563  1
  Na  Na3  1  0.263506  0.013556  0.258563  1
  Na  Na4  1  0.736494  0.986444  0.741437  1
  Na  Na5  1  0.736494  0.513556  0.241437  1
  Na  Na6  1  0.919734  0.760531  0.577360  1
  Na  Na7  1  0.919734  0.739469  0.077360  1
  Fe  Fe8  1  0.345494  0.753117  0.564582  1
  Fe  Fe9  1  0.345494  0.746883  0.064582  1
  Fe  Fe10  1  0.654506  0.253117  0.935418  1
  Fe  Fe11  1  0.654506  0.246883  0.435418  1
  P  P12  1  0.424230  0.251839  0.566737  1
  P  P13  1  0.424230  0.248161  0.066737  1
  P  P14  1  0.575770  0.751839  0.933263  1
  P  P15  1  0.575770  0.748161  0.433263  1
  C  C16  1  0.064645  0.756716  0.897027  1
  C  C17  1  0.064645  0.743284  0.397027  1
  C  C18  1  0.935355  0.256716  0.602973  1
  C  C19  1  0.935355  0.243284  0.102973  1
  O  O20  1  0.075716  0.262088  0.686799  1
  O  O21  1  0.075716  0.237912  0.186799  1
  O  O22  1  0.128670  0.733666  0.541514  1
  O  O23  1  0.128670  0.766334  0.041514  1
  O  O24  1  0.156999  0.739780  0.846793  1
  O  O25  1  0.156999  0.760220  0.346793  1
  O  O26  1  0.322469  0.061474  0.538161  1
  O  O27  1  0.326194  0.438654  0.553806  1
  O  O28  1  0.326194  0.061346  0.053806  1
  O  O29  1  0.322469  0.438526  0.038161  1
  O  O30  1  0.431944  0.742195  0.780862  1
  O  O31  1  0.431944  0.757805  0.280862  1
  O  O32  1  0.469091  0.248425  0.945345  1
  O  O33  1  0.469091  0.251575  0.445345  1
  O  O34  1  0.530909  0.748425  0.554655  1
  O  O35  1  0.530909  0.751575  0.054655  1
  O  O36  1  0.568056  0.242195  0.719138  1
  O  O37  1  0.568056  0.257805  0.219138  1
  O  O38  1  0.677531  0.561474  0.961839  1
  O  O39  1  0.673806  0.938654  0.946194  1
  O  O40  1  0.677531  0.938526  0.461839  1
  O  O41  1  0.673806  0.561346  0.446194  1
  O  O42  1  0.843001  0.239780  0.653207  1
  O  O43  1  0.843001  0.260220  0.153207  1
  O  O44  1  0.871330  0.233666  0.958486  1
  O  O45  1  0.871330  0.266334  0.458486  1
  O  O46  1  0.924284  0.762088  0.813201  1
  O  O47  1  0.924284  0.737912  0.313201  1
