# generated using pymatgen
data_LiTiMn3O8
_symmetry_space_group_name_H-M   'P 1'
_cell_length_a   5.96980658
_cell_length_b   6.04697477
_cell_length_c   14.43624306
_cell_angle_alpha   90.10560871
_cell_angle_beta   91.55974934
_cell_angle_gamma   119.21259342
_symmetry_Int_Tables_number   1
_chemical_formula_structural   LiTiMn3O8
_chemical_formula_sum   'Li3 Ti3 Mn9 O24'
_cell_volume   454.61994425
_cell_formula_units_Z   3
loop_
 _symmetry_equiv_pos_site_id
 _symmetry_equiv_pos_as_xyz
  1  'x, y, z'
loop_
 _atom_site_type_symbol
 _atom_site_label
 _atom_site_symmetry_multiplicity
 _atom_site_fract_x
 _atom_site_fract_y
 _atom_site_fract_z
 _atom_site_occupancy
  Li  Li0  1  0.333612  0.162416  0.665385  1
  Li  Li1  1  0.666388  0.837584  0.334615  1
  Li  Li2  1  0.500000  0.500000  0.000000  1
  Ti  Ti3  1  0.172548  0.350421  0.332022  1
  Ti  Ti4  1  0.500000  0.000000  0.000000  1
  Ti  Ti5  1  0.827452  0.649579  0.667978  1
  Mn  Mn6  1  0.500000  0.500000  0.500000  1
  Mn  Mn7  1  0.842555  0.183228  0.164391  1
  Mn  Mn8  1  0.000000  0.000000  0.000000  1
  Mn  Mn9  1  0.670880  0.843798  0.831522  1
  Mn  Mn10  1  0.157445  0.816772  0.835609  1
  Mn  Mn11  1  0.340918  0.673421  0.665120  1
  Mn  Mn12  1  0.000000  0.500000  0.500000  1
  Mn  Mn13  1  0.659082  0.326579  0.334880  1
  Mn  Mn14  1  0.329120  0.156202  0.168478  1
  O  O15  1  0.651069  0.366134  0.586664  1
  O  O16  1  0.178564  0.291164  0.081111  1
  O  O17  1  0.361514  0.214911  0.412384  1
  O  O18  1  0.811323  0.123870  0.921326  1
  O  O19  1  0.024120  0.053471  0.242143  1
  O  O20  1  0.492035  0.959460  0.746672  1
  O  O21  1  0.188677  0.876130  0.078674  1
  O  O22  1  0.700691  0.886013  0.075714  1
  O  O23  1  0.638486  0.785089  0.587616  1
  O  O24  1  0.141090  0.787850  0.590211  1
  O  O25  1  0.821436  0.708836  0.918889  1
  O  O26  1  0.371031  0.714260  0.910231  1
  O  O27  1  0.348931  0.633866  0.413336  1
  O  O28  1  0.798881  0.615247  0.423137  1
  O  O29  1  0.520654  0.547841  0.744937  1
  O  O30  1  0.035799  0.545577  0.741454  1
  O  O31  1  0.964201  0.454423  0.258546  1
  O  O32  1  0.479346  0.452159  0.255063  1
  O  O33  1  0.201119  0.384753  0.576863  1
  O  O34  1  0.628969  0.285740  0.089769  1
  O  O35  1  0.858910  0.212150  0.409789  1
  O  O36  1  0.299309  0.113987  0.924286  1
  O  O37  1  0.507965  0.040540  0.253328  1
  O  O38  1  0.975880  0.946529  0.757857  1
