# generated using pymatgen
data_Li24Ti11CrO36
_symmetry_space_group_name_H-M   'P 1'
_cell_length_a   13.47767532
_cell_length_b   13.47767532
_cell_length_c   9.81253154
_cell_angle_alpha   88.16124175
_cell_angle_beta   91.83875825
_cell_angle_gamma   21.82275035
_symmetry_Int_Tables_number   1
_chemical_formula_structural   Li24Ti11CrO36
_chemical_formula_sum   'Li24 Ti11 Cr1 O36'
_cell_volume   653.00317795
_cell_formula_units_Z   1
loop_
 _symmetry_equiv_pos_site_id
 _symmetry_equiv_pos_as_xyz
  1  'x, y, z'
loop_
 _atom_site_type_symbol
 _atom_site_label
 _atom_site_symmetry_multiplicity
 _atom_site_fract_x
 _atom_site_fract_y
 _atom_site_fract_z
 _atom_site_occupancy
  Li  Li0  1  0.215330  0.725809  0.249827  1
  Li  Li1  1  0.166020  0.667890  0.749400  1
  Li  Li2  1  0.725809  0.215330  0.750173  1
  Li  Li3  1  0.416921  0.416921  0.500000  1
  Li  Li4  1  0.115244  0.610258  0.250123  1
  Li  Li5  1  0.667890  0.166020  0.250600  1
  Li  Li6  1  0.916666  0.916666  0.000000  1
  Li  Li7  1  0.610258  0.115244  0.749877  1
  Li  Li8  1  0.055465  0.552429  0.750394  1
  Li  Li9  1  0.552429  0.055465  0.249606  1
  Li  Li10  1  0.000067  0.499990  0.249997  1
  Li  Li11  1  0.249990  0.249990  0.000000  1
  Li  Li12  1  0.499990  0.000067  0.750003  1
  Li  Li13  1  0.750114  0.750114  0.500000  1
  Li  Li14  1  0.447758  0.944497  0.250487  1
  Li  Li15  1  0.944497  0.447758  0.749513  1
  Li  Li16  1  0.388931  0.885491  0.750510  1
  Li  Li17  1  0.082727  0.082727  0.500000  1
  Li  Li18  1  0.885491  0.388931  0.249490  1
  Li  Li19  1  0.333102  0.833739  0.249809  1
  Li  Li20  1  0.583304  0.583304  0.000000  1
  Li  Li21  1  0.275069  0.783339  0.748554  1
  Li  Li22  1  0.833739  0.333102  0.750191  1
  Li  Li23  1  0.783339  0.275069  0.251446  1
  Ti  Ti24  1  0.472595  0.472595  0.000000  1
  Ti  Ti25  1  0.361012  0.361012  0.000000  1
  Ti  Ti26  1  0.305892  0.305892  0.500000  1
  Ti  Ti27  1  0.861188  0.861188  0.500000  1
  Ti  Ti28  1  0.805897  0.805897  0.000000  1
  Ti  Ti29  1  0.194110  0.194110  0.500000  1
  Ti  Ti30  1  0.139198  0.139198  0.000000  1
  Ti  Ti31  1  0.694272  0.694272  0.000000  1
  Ti  Ti32  1  0.638996  0.638996  0.500000  1
  Ti  Ti33  1  0.027573  0.027573  0.000000  1
  Ti  Ti34  1  0.527356  0.527356  0.500000  1
  Cr  Cr35  1  0.971817  0.971817  0.500000  1
  O  O36  1  0.116496  0.835551  0.886701  1
  O  O37  1  0.326677  0.624527  0.611647  1
  O  O38  1  0.835551  0.116496  0.113299  1
  O  O39  1  0.023104  0.811195  0.385449  1
  O  O40  1  0.624527  0.326677  0.388353  1
  O  O41  1  0.312090  0.521319  0.115671  1
  O  O42  1  0.521319  0.312090  0.884329  1
  O  O43  1  0.217091  0.497856  0.613673  1
  O  O44  1  0.811195  0.023104  0.614551  1
  O  O45  1  0.168899  0.449830  0.113393  1
  O  O46  1  0.716893  0.997880  0.113410  1
  O  O47  1  0.497856  0.217091  0.386327  1
  O  O48  1  0.449830  0.168899  0.886607  1
  O  O49  1  0.997880  0.716893  0.886590  1
  O  O50  1  0.668904  0.950507  0.613495  1
  O  O51  1  0.145233  0.354900  0.615420  1
  O  O52  1  0.354900  0.145233  0.384580  1
  O  O53  1  0.950507  0.668904  0.386505  1
  O  O54  1  0.050030  0.331350  0.113364  1
  O  O55  1  0.645351  0.854719  0.115557  1
  O  O56  1  0.854719  0.645351  0.884443  1
  O  O57  1  0.331350  0.050030  0.886636  1
  O  O58  1  0.002051  0.283292  0.613289  1
  O  O59  1  0.550178  0.831064  0.613424  1
  O  O60  1  0.502184  0.783215  0.113458  1
  O  O61  1  0.283292  0.002051  0.386711  1
  O  O62  1  0.831064  0.550178  0.386576  1
  O  O63  1  0.188067  0.978660  0.884465  1
  O  O64  1  0.783215  0.502184  0.886542  1
  O  O65  1  0.480409  0.685785  0.616008  1
  O  O66  1  0.685785  0.480409  0.383992  1
  O  O67  1  0.383263  0.664636  0.113623  1
  O  O68  1  0.978660  0.188067  0.115535  1
  O  O69  1  0.164852  0.882694  0.387358  1
  O  O70  1  0.664636  0.383263  0.886377  1
  O  O71  1  0.882694  0.164852  0.612642  1
