# generated using pymatgen
data_FeOF
_symmetry_space_group_name_H-M   'P 1'
_cell_length_a   4.80310506
_cell_length_b   3.06422420
_cell_length_c   14.32928821
_cell_angle_alpha   90.00000000
_cell_angle_beta   92.69549474
_cell_angle_gamma   90.00000000
_symmetry_Int_Tables_number   1
_chemical_formula_structural   FeOF
_chemical_formula_sum   'Fe6 O6 F6'
_cell_volume   210.66212577
_cell_formula_units_Z   6
loop_
 _symmetry_equiv_pos_site_id
 _symmetry_equiv_pos_as_xyz
  1  'x, y, z'
loop_
 _atom_site_type_symbol
 _atom_site_label
 _atom_site_symmetry_multiplicity
 _atom_site_fract_x
 _atom_site_fract_y
 _atom_site_fract_z
 _atom_site_occupancy
  Fe  Fe0  1  0.000000  0.000000  0.000000  1
  Fe  Fe1  1  0.961738  0.000000  0.666357  1
  Fe  Fe2  1  0.038262  0.000000  0.333643  1
  Fe  Fe3  1  0.407333  0.500000  0.833783  1
  Fe  Fe4  1  0.500000  0.500000  0.500000  1
  Fe  Fe5  1  0.592667  0.500000  0.166217  1
  O  O6  1  0.824656  0.500000  0.063487  1
  O  O7  1  0.747455  0.000000  0.236208  1
  O  O8  1  0.683315  0.000000  0.567341  1
  O  O9  1  0.316685  0.000000  0.432659  1
  O  O10  1  0.252545  0.000000  0.763792  1
  O  O11  1  0.175344  0.500000  0.936513  1
  F  F12  1  0.762194  0.500000  0.731269  1
  F  F13  1  0.834242  0.500000  0.399690  1
  F  F14  1  0.660808  0.000000  0.892724  1
  F  F15  1  0.339192  0.000000  0.107276  1
  F  F16  1  0.165758  0.500000  0.600310  1
  F  F17  1  0.237806  0.500000  0.268731  1
