# generated using pymatgen
data_Gd3TaO7
_symmetry_space_group_name_H-M   'P 1'
_cell_length_a   6.54732030
_cell_length_b   6.54732030
_cell_length_c   7.59455168
_cell_angle_alpha   90.00000000
_cell_angle_beta   90.00000000
_cell_angle_gamma   110.73246102
_symmetry_Int_Tables_number   1
_chemical_formula_structural   Gd3TaO7
_chemical_formula_sum   'Gd6 Ta2 O14'
_cell_volume   304.47670482
_cell_formula_units_Z   2
loop_
 _symmetry_equiv_pos_site_id
 _symmetry_equiv_pos_as_xyz
  1  'x, y, z'
loop_
 _atom_site_type_symbol
 _atom_site_label
 _atom_site_symmetry_multiplicity
 _atom_site_fract_x
 _atom_site_fract_y
 _atom_site_fract_z
 _atom_site_occupancy
  Gd  Gd0  1  0.518848  0.059905  0.250000  1
  Gd  Gd1  1  0.940095  0.481152  0.750000  1
  Gd  Gd2  1  0.000000  0.000000  0.000000  1
  Gd  Gd3  1  0.000000  0.000000  0.500000  1
  Gd  Gd4  1  0.059905  0.518848  0.250000  1
  Gd  Gd5  1  0.481152  0.940095  0.750000  1
  Ta  Ta6  1  0.500000  0.500000  0.000000  1
  Ta  Ta7  1  0.500000  0.500000  0.500000  1
  O  O8  1  0.890532  0.154000  0.250000  1
  O  O9  1  0.846000  0.109468  0.750000  1
  O  O10  1  0.818734  0.562014  0.036068  1
  O  O11  1  0.437986  0.181266  0.963932  1
  O  O12  1  0.818734  0.562014  0.463932  1
  O  O13  1  0.437986  0.181266  0.536068  1
  O  O14  1  0.576275  0.576275  0.750000  1
  O  O15  1  0.423725  0.423725  0.250000  1
  O  O16  1  0.181266  0.437986  0.536068  1
  O  O17  1  0.562014  0.818734  0.036068  1
  O  O18  1  0.181266  0.437986  0.963932  1
  O  O19  1  0.562014  0.818734  0.463932  1
  O  O20  1  0.154000  0.890532  0.250000  1
  O  O21  1  0.109468  0.846000  0.750000  1
