# generated using pymatgen
data_Li4Cr3NiO8
_symmetry_space_group_name_H-M   'P 1'
_cell_length_a   5.89977372
_cell_length_b   5.89977372
_cell_length_c   5.89977372
_cell_angle_alpha   60.03094682
_cell_angle_beta   60.03094682
_cell_angle_gamma   60.03094682
_symmetry_Int_Tables_number   1
_chemical_formula_structural   Li4Cr3NiO8
_chemical_formula_sum   'Li4 Cr3 Ni1 O8'
_cell_volume   145.31003914
_cell_formula_units_Z   1
loop_
 _symmetry_equiv_pos_site_id
 _symmetry_equiv_pos_as_xyz
  1  'x, y, z'
loop_
 _atom_site_type_symbol
 _atom_site_label
 _atom_site_symmetry_multiplicity
 _atom_site_fract_x
 _atom_site_fract_y
 _atom_site_fract_z
 _atom_site_occupancy
  Li  Li0  1  0.500000  0.500000  0.500000  1
  Li  Li1  1  1.000000  0.500000  0.000000  1
  Li  Li2  1  0.000000  0.000000  0.500000  1
  Li  Li3  1  0.500000  0.000000  1.000000  1
  Cr  Cr4  1  0.500000  1.000000  0.500000  1
  Cr  Cr5  1  0.500000  0.500000  0.000000  1
  Cr  Cr6  1  0.000000  0.500000  0.500000  1
  Ni  Ni7  1  0.000000  0.000000  0.000000  1
  O  O8  1  0.257089  0.257089  0.257089  1
  O  O9  1  0.753114  0.265848  0.753114  1
  O  O10  1  0.753114  0.753114  0.265848  1
  O  O11  1  0.742911  0.742911  0.742911  1
  O  O12  1  0.265848  0.753114  0.753114  1
  O  O13  1  0.246886  0.734152  0.246886  1
  O  O14  1  0.246886  0.246886  0.734152  1
  O  O15  1  0.734152  0.246886  0.246886  1
