# generated using pymatgen
data_Be(Bi3O5)4
_symmetry_space_group_name_H-M   'P 1'
_cell_length_a   8.75957969
_cell_length_b   8.75957969
_cell_length_c   8.75957969
_cell_angle_alpha   109.47122063
_cell_angle_beta   109.47122063
_cell_angle_gamma   109.47122063
_symmetry_Int_Tables_number   1
_chemical_formula_structural   Be(Bi3O5)4
_chemical_formula_sum   'Be1 Bi12 O20'
_cell_volume   517.40177414
_cell_formula_units_Z   1
loop_
 _symmetry_equiv_pos_site_id
 _symmetry_equiv_pos_as_xyz
  1  'x, y, z'
loop_
 _atom_site_type_symbol
 _atom_site_label
 _atom_site_symmetry_multiplicity
 _atom_site_fract_x
 _atom_site_fract_y
 _atom_site_fract_z
 _atom_site_occupancy
  Be  Be0  1  0.000000  0.000000  0.000000  1
  Bi  Bi1  1  0.163049  0.858961  0.676047  1
  Bi  Bi2  1  0.141039  0.304089  0.817087  1
  Bi  Bi3  1  0.182913  0.487002  0.323953  1
  Bi  Bi4  1  0.304089  0.817087  0.141039  1
  Bi  Bi5  1  0.512998  0.695911  0.836951  1
  Bi  Bi6  1  0.323953  0.182913  0.487002  1
  Bi  Bi7  1  0.695911  0.836951  0.512998  1
  Bi  Bi8  1  0.487002  0.323953  0.182913  1
  Bi  Bi9  1  0.676047  0.163049  0.858961  1
  Bi  Bi10  1  0.836951  0.512998  0.695911  1
  Bi  Bi11  1  0.858961  0.676047  0.163049  1
  Bi  Bi12  1  0.817087  0.141039  0.304089  1
  O  O13  1  0.120745  0.760798  0.380823  1
  O  O14  1  0.260078  0.640053  0.879255  1
  O  O15  1  1.000000  0.599679  0.000000  1
  O  O16  1  1.000000  1.000000  0.599679  1
  O  O17  1  0.239202  0.359947  0.620025  1
  O  O18  1  0.379975  0.739922  0.619177  1
  O  O19  1  1.000000  0.194696  0.000000  1
  O  O20  1  1.000000  1.000000  0.194696  1
  O  O21  1  0.359947  0.620025  0.239202  1
  O  O22  1  0.380823  0.120745  0.760798  1
  O  O23  1  0.400321  0.400321  0.400321  1
  O  O24  1  0.194696  1.000000  0.000000  1
  O  O25  1  0.619177  0.379975  0.739922  1
  O  O26  1  0.640053  0.879255  0.260078  1
  O  O27  1  0.805304  0.805304  0.805304  1
  O  O28  1  0.739922  0.619177  0.379975  1
  O  O29  1  0.620025  0.239202  0.359947  1
  O  O30  1  0.879255  0.260078  0.640053  1
  O  O31  1  0.760798  0.380823  0.120745  1
  O  O32  1  0.599679  1.000000  0.000000  1
