# generated using pymatgen
data_Li4NbFe3O8
_symmetry_space_group_name_H-M   'P 1'
_cell_length_a   5.16308864
_cell_length_b   5.75137913
_cell_length_c   6.60304481
_cell_angle_alpha   89.22178883
_cell_angle_beta   89.80317648
_cell_angle_gamma   89.81295792
_symmetry_Int_Tables_number   1
_chemical_formula_structural   Li4NbFe3O8
_chemical_formula_sum   'Li4 Nb1 Fe3 O8'
_cell_volume   196.05636738
_cell_formula_units_Z   1
loop_
 _symmetry_equiv_pos_site_id
 _symmetry_equiv_pos_as_xyz
  1  'x, y, z'
loop_
 _atom_site_type_symbol
 _atom_site_label
 _atom_site_symmetry_multiplicity
 _atom_site_fract_x
 _atom_site_fract_y
 _atom_site_fract_z
 _atom_site_occupancy
  Li  Li0  1  0.003926  0.084812  0.387705  1
  Li  Li1  1  0.506236  0.426264  0.866714  1
  Li  Li2  1  0.003217  0.562686  0.125475  1
  Li  Li3  1  0.505655  0.906121  0.622709  1
  Nb  Nb4  1  0.494540  0.915439  0.123454  1
  Fe  Fe5  1  0.025366  0.098135  0.849681  1
  Fe  Fe6  1  0.487985  0.425574  0.394762  1
  Fe  Fe7  1  0.006635  0.584773  0.627553  1
  O  O8  1  0.611798  0.075184  0.888433  1
  O  O9  1  0.606729  0.074653  0.354823  1
  O  O10  1  0.120202  0.425576  0.869381  1
  O  O11  1  0.104396  0.416680  0.387724  1
  O  O12  1  0.637192  0.585147  0.626086  1
  O  O13  1  0.610656  0.603666  0.124789  1
  O  O14  1  0.121373  0.898560  0.623822  1
  O  O15  1  0.127697  0.916728  0.126887  1
