# generated using pymatgen
data_Li2FeSiO4
_symmetry_space_group_name_H-M   'P 1'
_cell_length_a   5.48001033
_cell_length_b   5.03992952
_cell_length_c   6.37100645
_cell_angle_alpha   90.00000000
_cell_angle_beta   91.49007089
_cell_angle_gamma   90.00000000
_symmetry_Int_Tables_number   1
_chemical_formula_structural   Li2FeSiO4
_chemical_formula_sum   'Li4 Fe2 Si2 O8'
_cell_volume   175.90047061
_cell_formula_units_Z   2
loop_
 _symmetry_equiv_pos_site_id
 _symmetry_equiv_pos_as_xyz
  1  'x, y, z'
loop_
 _atom_site_type_symbol
 _atom_site_label
 _atom_site_symmetry_multiplicity
 _atom_site_fract_x
 _atom_site_fract_y
 _atom_site_fract_z
 _atom_site_occupancy
  Li  Li0  1  0.167906  0.504853  0.997329  1
  Li  Li1  1  0.351840  0.006287  0.228962  1
  Li  Li2  1  0.648160  0.506287  0.771038  1
  Li  Li3  1  0.832094  0.004853  0.002671  1
  Fe  Fe4  1  0.818363  0.011803  0.512926  1
  Fe  Fe5  1  0.181637  0.511803  0.487074  1
  Si  Si6  1  0.327849  0.999742  0.758931  1
  Si  Si7  1  0.672151  0.499742  0.241069  1
  O  O8  1  0.189772  0.098947  0.529946  1
  O  O9  1  0.185484  0.112542  0.961131  1
  O  O10  1  0.325361  0.671397  0.753111  1
  O  O11  1  0.391152  0.603693  0.247109  1
  O  O12  1  0.608848  0.103693  0.752891  1
  O  O13  1  0.674639  0.171397  0.246889  1
  O  O14  1  0.814516  0.612542  0.038869  1
  O  O15  1  0.810228  0.598947  0.470054  1
