# generated using pymatgen
data_Li2FeF4
_symmetry_space_group_name_H-M   'P 1'
_cell_length_a   7.39964895
_cell_length_b   8.91004167
_cell_length_c   9.79552262
_cell_angle_alpha   90.00000000
_cell_angle_beta   90.00000000
_cell_angle_gamma   90.00000000
_symmetry_Int_Tables_number   1
_chemical_formula_structural   Li2FeF4
_chemical_formula_sum   'Li16 Fe8 F32'
_cell_volume   645.83037039
_cell_formula_units_Z   8
loop_
 _symmetry_equiv_pos_site_id
 _symmetry_equiv_pos_as_xyz
  1  'x, y, z'
loop_
 _atom_site_type_symbol
 _atom_site_label
 _atom_site_symmetry_multiplicity
 _atom_site_fract_x
 _atom_site_fract_y
 _atom_site_fract_z
 _atom_site_occupancy
  Li  Li0  1  0.309755  0.252194  0.085479  1
  Li  Li1  1  0.710070  0.249984  0.101279  1
  Li  Li2  1  0.283971  0.920329  0.140219  1
  Li  Li3  1  0.766990  0.921400  0.162098  1
  Li  Li4  1  0.266990  0.421400  0.337902  1
  Li  Li5  1  0.783971  0.420329  0.359781  1
  Li  Li6  1  0.210070  0.749984  0.398721  1
  Li  Li7  1  0.809755  0.752194  0.414521  1
  Li  Li8  1  0.190245  0.252194  0.585479  1
  Li  Li9  1  0.789930  0.249984  0.601279  1
  Li  Li10  1  0.216029  0.920329  0.640219  1
  Li  Li11  1  0.733010  0.921400  0.662098  1
  Li  Li12  1  0.233010  0.421400  0.837902  1
  Li  Li13  1  0.716029  0.420329  0.859781  1
  Li  Li14  1  0.289930  0.749984  0.898721  1
  Li  Li15  1  0.690245  0.752194  0.914521  1
  Fe  Fe16  1  0.977267  0.579333  0.115894  1
  Fe  Fe17  1  0.480381  0.638928  0.202150  1
  Fe  Fe18  1  0.980381  0.138928  0.297850  1
  Fe  Fe19  1  0.477267  0.079333  0.384106  1
  Fe  Fe20  1  0.522733  0.579333  0.615894  1
  Fe  Fe21  1  0.019619  0.638928  0.702150  1
  Fe  Fe22  1  0.519619  0.138928  0.797850  1
  Fe  Fe23  1  0.022733  0.079333  0.884106  1
  F  F24  1  0.517421  0.188579  0.995848  1
  F  F25  1  0.783822  0.435447  0.040515  1
  F  F26  1  0.855534  0.768968  0.054666  1
  F  F27  1  0.890554  0.095594  0.086874  1
  F  F28  1  0.380114  0.428652  0.166818  1
  F  F29  1  0.522725  0.910256  0.234468  1
  F  F30  1  0.235546  0.110836  0.219204  1
  F  F31  1  0.199036  0.719308  0.202283  1
  F  F32  1  0.699036  0.219308  0.297717  1
  F  F33  1  0.735546  0.610836  0.280796  1
  F  F34  1  0.022725  0.410256  0.265532  1
  F  F35  1  0.880114  0.928652  0.333182  1
  F  F36  1  0.390554  0.595594  0.413126  1
  F  F37  1  0.355534  0.268968  0.445334  1
  F  F38  1  0.283822  0.935447  0.459485  1
  F  F39  1  0.017421  0.688579  0.504152  1
  F  F40  1  0.982579  0.188579  0.495848  1
  F  F41  1  0.716178  0.435447  0.540515  1
  F  F42  1  0.644466  0.768968  0.554666  1
  F  F43  1  0.609446  0.095594  0.586874  1
  F  F44  1  0.119886  0.428652  0.666818  1
  F  F45  1  0.977275  0.910256  0.734468  1
  F  F46  1  0.264454  0.110836  0.719204  1
  F  F47  1  0.300964  0.719308  0.702283  1
  F  F48  1  0.800964  0.219308  0.797717  1
  F  F49  1  0.764454  0.610836  0.780796  1
  F  F50  1  0.477275  0.410256  0.765532  1
  F  F51  1  0.619886  0.928652  0.833182  1
  F  F52  1  0.109446  0.595594  0.913126  1
  F  F53  1  0.144466  0.268968  0.945334  1
  F  F54  1  0.216178  0.935447  0.959485  1
  F  F55  1  0.482579  0.688579  0.004152  1
