# generated using pymatgen
data_Li5InO4
_symmetry_space_group_name_H-M   'P 1'
_cell_length_a   4.81504343
_cell_length_b   6.63432027
_cell_length_c   6.95739208
_cell_angle_alpha   90.00000000
_cell_angle_beta   90.00000000
_cell_angle_gamma   90.00000000
_symmetry_Int_Tables_number   1
_chemical_formula_structural   Li5InO4
_chemical_formula_sum   'Li10 In2 O8'
_cell_volume   222.25069119
_cell_formula_units_Z   2
loop_
 _symmetry_equiv_pos_site_id
 _symmetry_equiv_pos_as_xyz
  1  'x, y, z'
loop_
 _atom_site_type_symbol
 _atom_site_label
 _atom_site_symmetry_multiplicity
 _atom_site_fract_x
 _atom_site_fract_y
 _atom_site_fract_z
 _atom_site_occupancy
  Li  Li0  1  0.249257  0.737959  0.693684  1
  Li  Li1  1  0.249257  0.262041  0.693684  1
  Li  Li2  1  0.765763  0.000000  0.500000  1
  Li  Li3  1  0.249257  0.737959  0.306316  1
  Li  Li4  1  0.249257  0.262041  0.306316  1
  Li  Li5  1  0.750743  0.762041  0.193684  1
  Li  Li6  1  0.750743  0.237959  0.193684  1
  Li  Li7  1  0.234237  0.500000  0.000000  1
  Li  Li8  1  0.750743  0.237959  0.806316  1
  Li  Li9  1  0.750743  0.762041  0.806316  1
  In  In10  1  0.771672  0.500000  0.500000  1
  In  In11  1  0.228328  0.000000  0.000000  1
  O  O12  1  0.008607  0.500000  0.752005  1
  O  O13  1  0.535596  0.758259  0.500000  1
  O  O14  1  0.535596  0.241741  0.500000  1
  O  O15  1  0.008607  0.500000  0.247995  1
  O  O16  1  0.991393  0.000000  0.252006  1
  O  O17  1  0.464404  0.741741  0.000000  1
  O  O18  1  0.464404  0.258259  0.000000  1
  O  O19  1  0.991393  0.000000  0.747995  1
