# generated using pymatgen
data_Li3Bi3(PO4)4
_symmetry_space_group_name_H-M   'P 1'
_cell_length_a   9.60498399
_cell_length_b   9.60498399
_cell_length_c   10.98688236
_cell_angle_alpha   87.74368610
_cell_angle_beta   92.25631390
_cell_angle_gamma   138.88238343
_symmetry_Int_Tables_number   1
_chemical_formula_structural   Li3Bi3(PO4)4
_chemical_formula_sum   'Li6 Bi6 P8 O32'
_cell_volume   665.96264898
_cell_formula_units_Z   2
loop_
 _symmetry_equiv_pos_site_id
 _symmetry_equiv_pos_as_xyz
  1  'x, y, z'
loop_
 _atom_site_type_symbol
 _atom_site_label
 _atom_site_symmetry_multiplicity
 _atom_site_fract_x
 _atom_site_fract_y
 _atom_site_fract_z
 _atom_site_occupancy
  Li  Li0  1  0.571486  0.259926  0.262031  1
  Li  Li1  1  0.740074  0.428514  0.762031  1
  Li  Li2  1  0.500000  0.000000  0.500000  1
  Li  Li3  1  0.000000  0.500000  0.000000  1
  Li  Li4  1  0.259926  0.571486  0.237969  1
  Li  Li5  1  0.428514  0.740074  0.737969  1
  Bi  Bi6  1  0.322782  0.044598  0.009208  1
  Bi  Bi7  1  0.955402  0.677218  0.509208  1
  Bi  Bi8  1  0.044598  0.322782  0.490792  1
  Bi  Bi9  1  0.677218  0.955402  0.990792  1
  Bi  Bi10  1  0.643716  0.643716  0.250000  1
  Bi  Bi11  1  0.356284  0.356284  0.750000  1
  P  P12  1  0.756291  0.623911  0.993695  1
  P  P13  1  0.376089  0.243709  0.493695  1
  P  P14  1  0.134386  0.751441  0.258149  1
  P  P15  1  0.248559  0.865614  0.758149  1
  P  P16  1  0.751441  0.134386  0.241851  1
  P  P17  1  0.865614  0.248559  0.741851  1
  P  P18  1  0.623911  0.756291  0.506305  1
  P  P19  1  0.243709  0.376089  0.006305  1
  O  O20  1  0.775395  0.793587  0.031412  1
  O  O21  1  0.206413  0.224605  0.531412  1
  O  O22  1  0.475740  0.343381  0.366171  1
  O  O23  1  0.619402  0.444649  0.094389  1
  O  O24  1  0.656619  0.524260  0.866171  1
  O  O25  1  0.555351  0.380598  0.594389  1
  O  O26  1  0.981266  0.730201  0.994462  1
  O  O27  1  0.910626  0.648977  0.286225  1
  O  O28  1  0.269799  0.018734  0.494462  1
  O  O29  1  0.279782  0.986682  0.218359  1
  O  O30  1  0.351023  0.089374  0.786225  1
  O  O31  1  0.013318  0.720218  0.718359  1
  O  O32  1  0.721125  0.194320  0.115547  1
  O  O33  1  0.652779  0.144821  0.341939  1
  O  O34  1  0.805680  0.278875  0.615547  1
  O  O35  1  0.855179  0.347221  0.841939  1
  O  O36  1  0.144821  0.652779  0.158061  1
  O  O37  1  0.194320  0.721125  0.384453  1
  O  O38  1  0.347221  0.855179  0.658061  1
  O  O39  1  0.278875  0.805680  0.884453  1
  O  O40  1  0.986682  0.279782  0.281641  1
  O  O41  1  0.648977  0.910626  0.213775  1
  O  O42  1  0.720218  0.013318  0.781641  1
  O  O43  1  0.730201  0.981266  0.505538  1
  O  O44  1  0.089374  0.351023  0.713775  1
  O  O45  1  0.018734  0.269799  0.005538  1
  O  O46  1  0.444649  0.619402  0.405611  1
  O  O47  1  0.343381  0.475740  0.133829  1
  O  O48  1  0.380598  0.555351  0.905611  1
  O  O49  1  0.524260  0.656619  0.633829  1
  O  O50  1  0.793587  0.775395  0.468588  1
  O  O51  1  0.224605  0.206413  0.968588  1
