# generated using pymatgen
data_Li4Mn3Co5O16
_symmetry_space_group_name_H-M   'P 1'
_cell_length_a   5.69420937
_cell_length_b   5.69420937
_cell_length_c   9.23104596
_cell_angle_alpha   89.84100367
_cell_angle_beta   90.15899633
_cell_angle_gamma   119.65969537
_symmetry_Int_Tables_number   1
_chemical_formula_structural   Li4Mn3Co5O16
_chemical_formula_sum   'Li4 Mn3 Co5 O16'
_cell_volume   260.09094684
_cell_formula_units_Z   1
loop_
 _symmetry_equiv_pos_site_id
 _symmetry_equiv_pos_as_xyz
  1  'x, y, z'
loop_
 _atom_site_type_symbol
 _atom_site_label
 _atom_site_symmetry_multiplicity
 _atom_site_fract_x
 _atom_site_fract_y
 _atom_site_fract_z
 _atom_site_occupancy
  Li  Li0  1  0.669667  0.330333  0.102258  1
  Li  Li1  1  0.006178  0.993822  0.000780  1
  Li  Li2  1  0.008727  0.991273  0.504797  1
  Li  Li3  1  0.332320  0.667680  0.605373  1
  Mn  Mn4  1  0.830288  0.169712  0.786713  1
  Mn  Mn5  1  0.663069  0.826564  0.286436  1
  Mn  Mn6  1  0.173436  0.336931  0.286436  1
  Co  Co7  1  0.831220  0.661251  0.790425  1
  Co  Co8  1  0.665412  0.334588  0.518954  1
  Co  Co9  1  0.338749  0.168780  0.790425  1
  Co  Co10  1  0.173558  0.826442  0.285825  1
  Co  Co11  1  0.334515  0.665485  0.016298  1
  O  O12  1  0.834281  0.666036  0.400020  1
  O  O13  1  0.520963  0.479037  0.663615  1
  O  O14  1  0.666373  0.333627  0.893451  1
  O  O15  1  0.000892  0.999108  0.692560  1
  O  O16  1  0.003505  0.996495  0.189237  1
  O  O17  1  0.333964  0.165719  0.400020  1
  O  O18  1  0.956321  0.481407  0.660353  1
  O  O19  1  0.518593  0.043679  0.660353  1
  O  O20  1  0.167386  0.832614  0.894375  1
  O  O21  1  0.838044  0.161956  0.400782  1
  O  O22  1  0.479131  0.954993  0.157297  1
  O  O23  1  0.045007  0.520869  0.157297  1
  O  O24  1  0.337520  0.662480  0.393920  1
  O  O25  1  0.669084  0.828327  0.898724  1
  O  O26  1  0.482413  0.517587  0.157486  1
  O  O27  1  0.171673  0.330916  0.898724  1
