# generated using pymatgen
data_Li2MnFe(BO3)2
_symmetry_space_group_name_H-M   'P 1'
_cell_length_a   5.23562557
_cell_length_b   5.23824853
_cell_length_c   20.84927905
_cell_angle_alpha   92.06594238
_cell_angle_beta   89.12477002
_cell_angle_gamma   119.92453292
_symmetry_Int_Tables_number   1
_chemical_formula_structural   Li2MnFe(BO3)2
_chemical_formula_sum   'Li8 Mn4 Fe4 B8 O24'
_cell_volume   495.24671762
_cell_formula_units_Z   4
loop_
 _symmetry_equiv_pos_site_id
 _symmetry_equiv_pos_as_xyz
  1  'x, y, z'
loop_
 _atom_site_type_symbol
 _atom_site_label
 _atom_site_symmetry_multiplicity
 _atom_site_fract_x
 _atom_site_fract_y
 _atom_site_fract_z
 _atom_site_occupancy
  Li  Li0  1  0.013822  0.674004  0.334133  1
  Li  Li1  1  0.976617  0.652447  0.084435  1
  Li  Li2  1  0.025124  0.680582  0.832164  1
  Li  Li3  1  0.978085  0.648167  0.584473  1
  Li  Li4  1  0.020464  0.347861  0.207701  1
  Li  Li5  1  0.988537  0.334988  0.458119  1
  Li  Li6  1  0.014502  0.362877  0.708019  1
  Li  Li7  1  0.988727  0.336036  0.958860  1
  Mn  Mn8  1  0.660954  0.669067  0.441727  1
  Mn  Mn9  1  0.664564  0.668081  0.941524  1
  Mn  Mn10  1  0.323353  0.321430  0.068659  1
  Mn  Mn11  1  0.675990  0.004759  0.815734  1
  Fe  Fe12  1  0.316511  0.313804  0.565508  1
  Fe  Fe13  1  0.679041  0.006587  0.316406  1
  Fe  Fe14  1  0.334282  0.995957  0.192933  1
  Fe  Fe15  1  0.343710  0.016380  0.689908  1
  B  B16  1  0.657589  0.995397  0.064678  1
  B  B17  1  0.659999  0.991354  0.563943  1
  B  B18  1  0.671884  0.670687  0.189915  1
  B  B19  1  0.663085  0.674645  0.686113  1
  B  B20  1  0.332468  0.334712  0.312237  1
  B  B21  1  0.341075  0.341556  0.811229  1
  B  B22  1  0.335233  0.002380  0.437701  1
  B  B23  1  0.336959  0.003072  0.938014  1
  O  O24  1  0.687778  0.936666  0.208604  1
  O  O25  1  0.677590  0.939474  0.706587  1
  O  O26  1  0.678596  0.744281  0.048794  1
  O  O27  1  0.389778  0.964796  0.085592  1
  O  O28  1  0.674364  0.736478  0.548875  1
  O  O29  1  0.394882  0.973207  0.582473  1
  O  O30  1  0.400242  0.419866  0.175889  1
  O  O31  1  0.085121  0.727575  0.430503  1
  O  O32  1  0.388098  0.424650  0.672041  1
  O  O33  1  0.087952  0.728293  0.930269  1
  O  O34  1  0.925981  0.651850  0.182517  1
  O  O35  1  0.918576  0.661364  0.679385  1
  O  O36  1  0.081033  0.358989  0.305923  1
  O  O37  1  0.095108  0.372149  0.804625  1
  O  O38  1  0.903158  0.271468  0.057462  1
  O  O39  1  0.596921  0.581030  0.331626  1
  O  O40  1  0.912202  0.265658  0.557650  1
  O  O41  1  0.609853  0.579271  0.832351  1
  O  O42  1  0.612001  0.036489  0.422117  1
  O  O43  1  0.613814  0.037340  0.922189  1
  O  O44  1  0.314077  0.245695  0.459423  1
  O  O45  1  0.314986  0.245722  0.960159  1
  O  O46  1  0.316698  0.063299  0.298734  1
  O  O47  1  0.318620  0.068760  0.795878  1
