# generated using pymatgen
data_NaGa(H2N)4
_symmetry_space_group_name_H-M   'P 1'
_cell_length_a   7.48163974
_cell_length_b   6.45046371
_cell_length_c   13.46956375
_cell_angle_alpha   90.00000000
_cell_angle_beta   96.46850122
_cell_angle_gamma   90.00000000
_symmetry_Int_Tables_number   1
_chemical_formula_structural   NaGa(H2N)4
_chemical_formula_sum   'Na4 Ga4 H32 N16'
_cell_volume   645.90355684
_cell_formula_units_Z   4
loop_
 _symmetry_equiv_pos_site_id
 _symmetry_equiv_pos_as_xyz
  1  'x, y, z'
loop_
 _atom_site_type_symbol
 _atom_site_label
 _atom_site_symmetry_multiplicity
 _atom_site_fract_x
 _atom_site_fract_y
 _atom_site_fract_z
 _atom_site_occupancy
  Na  Na0  1  0.244850  0.777372  0.185319  1
  Na  Na1  1  0.244850  0.722628  0.685319  1
  Na  Na2  1  0.755150  0.277372  0.314681  1
  Na  Na3  1  0.755150  0.222628  0.814681  1
  Ga  Ga4  1  0.243833  0.357030  0.342299  1
  Ga  Ga5  1  0.243833  0.142970  0.842299  1
  Ga  Ga6  1  0.756167  0.857030  0.157701  1
  Ga  Ga7  1  0.756167  0.642970  0.657701  1
  H  H8  1  0.044356  0.106347  0.422725  1
  H  H9  1  0.044356  0.393653  0.922725  1
  H  H10  1  0.056717  0.326827  0.481683  1
  H  H11  1  0.056717  0.173173  0.981683  1
  H  H12  1  0.122802  0.711438  0.361715  1
  H  H13  1  0.122802  0.788562  0.861715  1
  H  H14  1  0.141272  0.158329  0.181560  1
  H  H15  1  0.141272  0.341671  0.681560  1
  H  H16  1  0.285098  0.336435  0.159026  1
  H  H17  1  0.285098  0.163565  0.659026  1
  H  H18  1  0.330627  0.711648  0.411409  1
  H  H19  1  0.330627  0.788352  0.911409  1
  H  H20  1  0.527544  0.592334  0.100436  1
  H  H21  1  0.527544  0.907666  0.600436  1
  H  H22  1  0.487775  0.798617  0.033760  1
  H  H23  1  0.487775  0.701383  0.533760  1
  H  H24  1  0.512225  0.298617  0.466240  1
  H  H25  1  0.512225  0.201383  0.966240  1
  H  H26  1  0.472456  0.092334  0.399564  1
  H  H27  1  0.472456  0.407666  0.899564  1
  H  H28  1  0.669373  0.211648  0.088591  1
  H  H29  1  0.669373  0.288352  0.588591  1
  H  H30  1  0.714902  0.836435  0.340974  1
  H  H31  1  0.714902  0.663565  0.840974  1
  H  H32  1  0.858728  0.658329  0.318440  1
  H  H33  1  0.858728  0.841671  0.818440  1
  H  H34  1  0.877198  0.211438  0.138285  1
  H  H35  1  0.877198  0.288562  0.638285  1
  H  H36  1  0.943283  0.826827  0.018317  1
  H  H37  1  0.943283  0.673173  0.518317  1
  H  H38  1  0.955644  0.606347  0.077275  1
  H  H39  1  0.955644  0.893653  0.577275  1
  N  N40  1  0.044660  0.263651  0.411585  1
  N  N41  1  0.044660  0.236349  0.911585  1
  N  N42  1  0.183089  0.304997  0.201435  1
  N  N43  1  0.183089  0.195003  0.701435  1
  N  N44  1  0.248449  0.656740  0.351509  1
  N  N45  1  0.248449  0.843260  0.851509  1
  N  N46  1  0.481596  0.250400  0.393818  1
  N  N47  1  0.481596  0.249600  0.893818  1
  N  N48  1  0.518404  0.750400  0.106182  1
  N  N49  1  0.518404  0.749600  0.606182  1
  N  N50  1  0.751551  0.156740  0.148491  1
  N  N51  1  0.751551  0.343260  0.648491  1
  N  N52  1  0.816911  0.804997  0.298565  1
  N  N53  1  0.816911  0.695003  0.798565  1
  N  N54  1  0.955340  0.763651  0.088415  1
  N  N55  1  0.955340  0.736349  0.588415  1
