# generated using pymatgen
data_LiCoPO4
_symmetry_space_group_name_H-M   'P 1'
_cell_length_a   5.15950207
_cell_length_b   7.74646201
_cell_length_c   8.68032483
_cell_angle_alpha   88.82351032
_cell_angle_beta   88.08545450
_cell_angle_gamma   78.80438986
_symmetry_Int_Tables_number   1
_chemical_formula_structural   LiCoPO4
_chemical_formula_sum   'Li4 Co4 P4 O16'
_cell_volume   340.10720210
_cell_formula_units_Z   4
loop_
 _symmetry_equiv_pos_site_id
 _symmetry_equiv_pos_as_xyz
  1  'x, y, z'
loop_
 _atom_site_type_symbol
 _atom_site_label
 _atom_site_symmetry_multiplicity
 _atom_site_fract_x
 _atom_site_fract_y
 _atom_site_fract_z
 _atom_site_occupancy
  Li  Li0  1  0.869905  0.038114  0.341902  1
  Li  Li1  1  0.806642  0.539462  0.217796  1
  Li  Li2  1  0.193358  0.460538  0.782204  1
  Li  Li3  1  0.130095  0.961886  0.658098  1
  Co  Co4  1  0.742517  0.810875  0.905883  1
  Co  Co5  1  0.688363  0.321793  0.567009  1
  Co  Co6  1  0.311637  0.678207  0.432991  1
  Co  Co7  1  0.257483  0.189125  0.094117  1
  P  P8  1  0.760997  0.718345  0.567005  1
  P  P9  1  0.768663  0.220908  0.900905  1
  P  P10  1  0.231337  0.779092  0.099095  1
  P  P11  1  0.239003  0.281655  0.432995  1
  O  O12  1  0.943955  0.825532  0.476502  1
  O  O13  1  0.971619  0.707330  0.079513  1
  O  O14  1  0.884414  0.662771  0.724693  1
  O  O15  1  0.735221  0.555827  0.467259  1
  O  O16  1  0.841495  0.033421  0.828779  1
  O  O17  1  0.587295  0.344710  0.788031  1
  O  O18  1  0.624130  0.215241  0.058990  1
  O  O19  1  0.473949  0.824038  0.583851  1
  O  O20  1  0.526051  0.175962  0.416149  1
  O  O21  1  0.375870  0.784759  0.941010  1
  O  O22  1  0.412705  0.655290  0.211969  1
  O  O23  1  0.158505  0.966579  0.171221  1
  O  O24  1  0.264779  0.444173  0.532741  1
  O  O25  1  0.115586  0.337229  0.275307  1
  O  O26  1  0.028381  0.292670  0.920487  1
  O  O27  1  0.056045  0.174468  0.523498  1
