# generated using pymatgen
data_Na2Ca29ZrSi16(O7F2)8
_symmetry_space_group_name_H-M   'P 1'
_cell_length_a   7.75027486
_cell_length_b   11.38093294
_cell_length_c   20.22545546
_cell_angle_alpha   85.41554604
_cell_angle_beta   84.58918392
_cell_angle_gamma   88.57269170
_symmetry_Int_Tables_number   1
_chemical_formula_structural   Na2Ca29ZrSi16(O7F2)8
_chemical_formula_sum   'Na2 Ca29 Zr1 Si16 O56 F16'
_cell_volume   1770.09084774
_cell_formula_units_Z   1
loop_
 _symmetry_equiv_pos_site_id
 _symmetry_equiv_pos_as_xyz
  1  'x, y, z'
loop_
 _atom_site_type_symbol
 _atom_site_label
 _atom_site_symmetry_multiplicity
 _atom_site_fract_x
 _atom_site_fract_y
 _atom_site_fract_z
 _atom_site_occupancy
  Na  Na0  1  0.848981  0.136926  0.444563  1
  Na  Na1  1  0.369249  0.625318  0.302906  1
  Ca  Ca2  1  0.162479  0.577670  0.924018  1
  Ca  Ca3  1  0.354545  0.005259  0.661365  1
  Ca  Ca4  1  0.327885  0.727116  0.782789  1
  Ca  Ca5  1  0.410975  0.118646  0.956790  1
  Ca  Ca6  1  0.607888  0.861001  0.521645  1
  Ca  Ca7  1  0.685862  0.353150  0.712827  1
  Ca  Ca8  1  0.711439  0.923896  0.820349  1
  Ca  Ca9  1  0.838539  0.991307  0.157900  1
  Ca  Ca10  1  0.583380  0.425852  0.912069  1
  Ca  Ca11  1  0.840037  0.648344  0.184016  1
  Ca  Ca12  1  0.912332  0.602618  0.576617  1
  Ca  Ca13  1  0.794527  0.082821  0.633455  1
  Ca  Ca14  1  0.097627  0.848980  0.010423  1
  Ca  Ca15  1  0.808560  0.598323  0.782875  1
  Ca  Ca16  1  0.133853  0.421539  0.226527  1
  Ca  Ca17  1  0.901221  0.132996  0.989774  1
  Ca  Ca18  1  0.161021  0.897939  0.323192  1
  Ca  Ca19  1  0.091976  0.453572  0.426390  1
  Ca  Ca20  1  0.102567  0.915952  0.536762  1
  Ca  Ca21  1  0.189813  0.378225  0.756000  1
  Ca  Ca22  1  0.424782  0.548913  0.100934  1
  Ca  Ca23  1  0.137421  0.001342  0.830998  1
  Ca  Ca24  1  0.282068  0.079838  0.187336  1
  Ca  Ca25  1  0.429744  0.181884  0.493617  1
  Ca  Ca26  1  0.395587  0.533253  0.589944  1
  Ca  Ca27  1  0.572042  0.871695  0.054013  1
  Ca  Ca28  1  0.619660  0.353105  0.248108  1
  Ca  Ca29  1  0.629260  0.995944  0.327710  1
  Ca  Ca30  1  0.870084  0.386581  0.079971  1
  Zr  Zr31  1  0.639933  0.506739  0.405018  1
  Si  Si32  1  0.457639  0.126474  0.773473  1
  Si  Si33  1  0.537475  0.734341  0.910849  1
  Si  Si34  1  0.750044  0.350629  0.514656  1
  Si  Si35  1  0.670061  0.772155  0.660089  1
  Si  Si36  1  0.963564  0.156244  0.271731  1
  Si  Si37  1  0.936111  0.739924  0.422479  1
  Si  Si38  1  0.767398  0.196227  0.863827  1
  Si  Si39  1  0.781255  0.622139  0.010528  1
  Si  Si40  1  0.245701  0.352553  0.998315  1
  Si  Si41  1  0.228638  0.784796  0.144559  1
  Si  Si42  1  0.022696  0.312330  0.618606  1
  Si  Si43  1  0.991071  0.841780  0.716781  1
  Si  Si44  1  0.226045  0.143733  0.377857  1
  Si  Si45  1  0.293661  0.684634  0.464307  1
  Si  Si46  1  0.485578  0.247653  0.102593  1
  Si  Si47  1  0.512023  0.865421  0.223595  1
  O  O48  1  0.078164  0.270986  0.017655  1
  O  O49  1  0.265077  0.184372  0.785920  1
  O  O50  1  0.214722  0.804101  0.886719  1
  O  O51  1  0.228559  0.477363  0.033702  1
  O  O52  1  0.340021  0.808292  0.939617  1
  O  O53  1  0.293762  0.377148  0.918460  1
  O  O54  1  0.679172  0.221243  0.541048  1
  O  O55  1  0.628882  0.685769  0.602194  1
  O  O56  1  0.430581  0.982012  0.780128  1
  O  O57  1  0.602715  0.727023  0.736302  1
  O  O58  1  0.559993  0.166829  0.701146  1
  O  O59  1  0.455548  0.610428  0.892389  1
  O  O60  1  0.574612  0.155463  0.835548  1
  O  O61  1  0.756532  0.184499  0.280977  1
  O  O62  1  0.603375  0.705681  0.991100  1
  O  O63  1  0.880621  0.843387  0.369167  1
  O  O64  1  0.590388  0.449496  0.513863  1
  O  O65  1  0.878125  0.070373  0.864375  1
  O  O66  1  0.907691  0.771161  0.500802  1
  O  O67  1  0.826942  0.361715  0.435697  1
  O  O68  1  0.609469  0.906254  0.636838  1
  O  O69  1  0.913802  0.395863  0.553958  1
  O  O70  1  0.894925  0.772215  0.658208  1
  O  O71  1  0.125808  0.584169  0.148533  1
  O  O72  1  0.996444  0.018497  0.251271  1
  O  O73  1  0.161164  0.411004  0.634447  1
  O  O74  1  0.953546  0.774346  0.791452  1
  O  O75  1  0.149753  0.668085  0.202153  1
  O  O76  1  0.860087  0.284871  0.795432  1
  O  O77  1  0.089369  0.233170  0.216321  1
  O  O78  1  0.863781  0.605331  0.419123  1
  O  O79  1  0.904377  0.972965  0.723146  1
  O  O80  1  0.926737  0.398220  0.816804  1
  O  O81  1  0.033917  0.176359  0.346655  1
  O  O82  1  0.160774  0.728927  0.404309  1
  O  O83  1  0.333717  0.065605  0.322267  1
  O  O84  1  0.321265  0.784781  0.514908  1
  O  O85  1  0.155286  0.206762  0.571424  1
  O  O86  1  0.048939  0.853519  0.126733  1
  O  O87  1  0.197717  0.569726  0.505908  1
  O  O88  1  0.104167  0.088748  0.608139  1
  O  O89  1  0.429314  0.279813  0.021049  1
  O  O90  1  0.199013  0.841014  0.694178  1
  O  O91  1  0.302470  0.866604  0.204550  1
  O  O92  1  0.582621  0.365957  0.120913  1
  O  O93  1  0.493001  0.819330  0.300800  1
  O  O94  1  0.533237  0.353135  0.369517  1
  O  O95  1  0.565244  0.005024  0.213242  1
  O  O96  1  0.397445  0.447037  0.379950  1
  O  O97  1  0.483537  0.650140  0.427996  1
  O  O98  1  0.736180  0.595001  0.091032  1
  O  O99  1  0.655520  0.147924  0.074462  1
  O  O100  1  0.784525  0.495429  0.976846  1
  O  O101  1  0.826009  0.175159  0.099686  1
  O  O102  1  0.647766  0.802561  0.169333  1
  O  O103  1  0.959264  0.691013  0.988271  1
  F  F104  1  0.155107  0.035881  0.944800  1
  F  F105  1  0.443964  0.452399  0.690369  1
  F  F106  1  0.597321  0.042781  0.434512  1
  F  F107  1  0.596053  0.454495  0.801910  1
  F  F108  1  0.859042  0.436608  0.194403  1
  F  F109  1  0.603173  0.977448  0.953607  1
  F  F110  1  0.837032  0.997238  0.533593  1
  F  F111  1  0.836906  0.520225  0.683447  1
  F  F112  1  0.088617  0.495853  0.320026  1
  F  F113  1  0.131394  0.013623  0.431085  1
  F  F114  1  0.352569  0.009255  0.060677  1
  F  F115  1  0.164447  0.563411  0.804158  1
  F  F116  1  0.408328  0.487200  0.219740  1
  F  F117  1  0.391932  0.005967  0.547247  1
  F  F118  1  0.688015  0.548858  0.297961  1
  F  F119  1  0.846133  0.949079  0.040654  1
