# generated using pymatgen
data_Li3CrSiBO7
_symmetry_space_group_name_H-M   'P 1'
_cell_length_a   5.07637238
_cell_length_b   6.28447469
_cell_length_c   8.38876321
_cell_angle_alpha   90.00000000
_cell_angle_beta   94.83711569
_cell_angle_gamma   90.00000000
_symmetry_Int_Tables_number   1
_chemical_formula_structural   Li3CrSiBO7
_chemical_formula_sum   'Li6 Cr2 Si2 B2 O14'
_cell_volume   266.66797623
_cell_formula_units_Z   2
loop_
 _symmetry_equiv_pos_site_id
 _symmetry_equiv_pos_as_xyz
  1  'x, y, z'
loop_
 _atom_site_type_symbol
 _atom_site_label
 _atom_site_symmetry_multiplicity
 _atom_site_fract_x
 _atom_site_fract_y
 _atom_site_fract_z
 _atom_site_occupancy
  Li  Li0  1  0.246918  0.750000  0.099460  1
  Li  Li1  1  0.742162  0.003071  0.244981  1
  Li  Li2  1  0.742162  0.496929  0.244981  1
  Li  Li3  1  0.257838  0.503071  0.755019  1
  Li  Li4  1  0.257838  0.996929  0.755019  1
  Li  Li5  1  0.753082  0.250000  0.900540  1
  Cr  Cr6  1  0.199597  0.250000  0.318822  1
  Cr  Cr7  1  0.800403  0.750000  0.681178  1
  Si  Si8  1  0.283640  0.750000  0.427592  1
  Si  Si9  1  0.716360  0.250000  0.572408  1
  B  B10  1  0.279500  0.250000  0.039294  1
  B  B11  1  0.720500  0.750000  0.960706  1
  O  O12  1  0.649353  0.750000  0.111775  1
  O  O13  1  0.024552  0.250000  0.089394  1
  O  O14  1  0.472370  0.250000  0.172658  1
  O  O15  1  0.190400  0.947711  0.305546  1
  O  O16  1  0.190400  0.552289  0.305546  1
  O  O17  1  0.603256  0.750000  0.469661  1
  O  O18  1  0.861985  0.250000  0.405975  1
  O  O19  1  0.138015  0.750000  0.594025  1
  O  O20  1  0.396744  0.250000  0.530339  1
  O  O21  1  0.809600  0.447711  0.694454  1
  O  O22  1  0.809600  0.052289  0.694454  1
  O  O23  1  0.527630  0.750000  0.827342  1
  O  O24  1  0.975448  0.750000  0.910606  1
  O  O25  1  0.350647  0.250000  0.888225  1
