# generated using pymatgen
data_KCaP3(HO2)6
_symmetry_space_group_name_H-M   'P 1'
_cell_length_a   7.35723349
_cell_length_b   12.06693506
_cell_length_c   13.03926461
_cell_angle_alpha   90.00000000
_cell_angle_beta   110.61234314
_cell_angle_gamma   90.00000000
_symmetry_Int_Tables_number   1
_chemical_formula_structural   KCaP3(HO2)6
_chemical_formula_sum   'K4 Ca4 P12 H24 O48'
_cell_volume   1083.50995728
_cell_formula_units_Z   4
loop_
 _symmetry_equiv_pos_site_id
 _symmetry_equiv_pos_as_xyz
  1  'x, y, z'
loop_
 _atom_site_type_symbol
 _atom_site_label
 _atom_site_symmetry_multiplicity
 _atom_site_fract_x
 _atom_site_fract_y
 _atom_site_fract_z
 _atom_site_occupancy
  K  K0  1  0.773813  0.592080  0.403565  1
  K  K1  1  0.773813  0.907920  0.903565  1
  K  K2  1  0.226187  0.407920  0.596435  1
  K  K3  1  0.226187  0.092080  0.096435  1
  Ca  Ca4  1  0.124919  0.788726  0.202093  1
  Ca  Ca5  1  0.124919  0.711274  0.702093  1
  Ca  Ca6  1  0.875081  0.211274  0.797907  1
  Ca  Ca7  1  0.875081  0.288726  0.297907  1
  P  P8  1  0.307038  0.677987  0.479082  1
  P  P9  1  0.307038  0.822013  0.979082  1
  P  P10  1  0.692962  0.322013  0.520918  1
  P  P11  1  0.692962  0.177987  0.020918  1
  P  P12  1  0.780809  0.490248  0.687331  1
  P  P13  1  0.780809  0.009752  0.187331  1
  P  P14  1  0.219191  0.509752  0.312669  1
  P  P15  1  0.219191  0.990248  0.812669  1
  P  P16  1  0.613871  0.711655  0.687138  1
  P  P17  1  0.613871  0.788345  0.187138  1
  P  P18  1  0.386129  0.288345  0.312862  1
  P  P19  1  0.386129  0.211655  0.812862  1
  H  H20  1  0.780651  0.534940  0.189942  1
  H  H21  1  0.780651  0.965060  0.689942  1
  H  H22  1  0.219349  0.465060  0.810058  1
  H  H23  1  0.219349  0.034940  0.310058  1
  H  H24  1  0.429187  0.981561  0.353253  1
  H  H25  1  0.429187  0.518439  0.853253  1
  H  H26  1  0.570813  0.018439  0.646747  1
  H  H27  1  0.570813  0.481561  0.146747  1
  H  H28  1  0.999577  0.296722  0.037232  1
  H  H29  1  0.999577  0.203278  0.537232  1
  H  H30  1  0.000423  0.703278  0.962768  1
  H  H31  1  0.000423  0.796722  0.462768  1
  H  H32  1  0.816150  0.845701  0.480388  1
  H  H33  1  0.816150  0.654299  0.980388  1
  H  H34  1  0.183850  0.154299  0.519612  1
  H  H35  1  0.183850  0.345701  0.019612  1
  H  H36  1  0.753056  0.032369  0.388351  1
  H  H37  1  0.753056  0.467631  0.888351  1
  H  H38  1  0.246944  0.967631  0.611649  1
  H  H39  1  0.246944  0.532369  0.111649  1
  H  H40  1  0.750488  0.462972  0.007796  1
  H  H41  1  0.750488  0.037028  0.507796  1
  H  H42  1  0.249512  0.537028  0.992204  1
  H  H43  1  0.249512  0.962972  0.492204  1
  O  O44  1  0.199652  0.766942  0.400600  1
  O  O45  1  0.199652  0.733058  0.900600  1
  O  O46  1  0.800348  0.233058  0.599400  1
  O  O47  1  0.800348  0.266942  0.099400  1
  O  O48  1  0.208543  0.872937  0.051010  1
  O  O49  1  0.208543  0.627063  0.551010  1
  O  O50  1  0.791457  0.127063  0.948990  1
  O  O51  1  0.791457  0.372937  0.448990  1
  O  O52  1  0.372800  0.581251  0.412272  1
  O  O53  1  0.372800  0.918749  0.912272  1
  O  O54  1  0.627200  0.418749  0.587728  1
  O  O55  1  0.627200  0.081251  0.087728  1
  O  O56  1  0.854836  0.081496  0.287652  1
  O  O57  1  0.854836  0.418504  0.787652  1
  O  O58  1  0.145164  0.918504  0.712348  1
  O  O59  1  0.145164  0.581496  0.212348  1
  O  O60  1  0.078584  0.453263  0.355660  1
  O  O61  1  0.078584  0.046737  0.855660  1
  O  O62  1  0.921416  0.546737  0.644340  1
  O  O63  1  0.921416  0.953263  0.144340  1
  O  O64  1  0.629812  0.922492  0.205958  1
  O  O65  1  0.629812  0.577508  0.705958  1
  O  O66  1  0.370188  0.077508  0.794042  1
  O  O67  1  0.370188  0.422492  0.294042  1
  O  O68  1  0.527757  0.248078  0.262226  1
  O  O69  1  0.527757  0.251922  0.762226  1
  O  O70  1  0.472243  0.751922  0.737774  1
  O  O71  1  0.472243  0.748078  0.237774  1
  O  O72  1  0.811590  0.737373  0.220796  1
  O  O73  1  0.811590  0.762627  0.720796  1
  O  O74  1  0.188410  0.262627  0.779204  1
  O  O75  1  0.188410  0.237373  0.279204  1
  O  O76  1  0.478750  0.278942  0.446954  1
  O  O77  1  0.478750  0.221058  0.946954  1
  O  O78  1  0.521250  0.721058  0.553046  1
  O  O79  1  0.521250  0.778942  0.053046  1
  O  O80  1  0.295314  0.971826  0.300894  1
  O  O81  1  0.295314  0.528174  0.800894  1
  O  O82  1  0.704686  0.028174  0.699106  1
  O  O83  1  0.704686  0.471826  0.199106  1
  O  O84  1  0.083456  0.288024  0.993140  1
  O  O85  1  0.083456  0.211976  0.493140  1
  O  O86  1  0.916544  0.711976  0.006860  1
  O  O87  1  0.916544  0.788024  0.506860  1
  O  O88  1  0.700205  0.994746  0.439591  1
  O  O89  1  0.700205  0.505254  0.939591  1
  O  O90  1  0.299795  0.005254  0.560409  1
  O  O91  1  0.299795  0.494746  0.060409  1
