# generated using pymatgen
data_Ti3Mn2Cr(PO4)6
_symmetry_space_group_name_H-M   'P 1'
_cell_length_a   8.64513687
_cell_length_b   8.64513687
_cell_length_c   8.64513687
_cell_angle_alpha   60.07915698
_cell_angle_beta   60.07915698
_cell_angle_gamma   60.07915698
_symmetry_Int_Tables_number   1
_chemical_formula_structural   Ti3Mn2Cr(PO4)6
_chemical_formula_sum   'Ti3 Mn2 Cr1 P6 O24'
_cell_volume   457.69793993
_cell_formula_units_Z   1
loop_
 _symmetry_equiv_pos_site_id
 _symmetry_equiv_pos_as_xyz
  1  'x, y, z'
loop_
 _atom_site_type_symbol
 _atom_site_label
 _atom_site_symmetry_multiplicity
 _atom_site_fract_x
 _atom_site_fract_y
 _atom_site_fract_z
 _atom_site_occupancy
  Ti  Ti0  1  0.354854  0.354854  0.354854  1
  Ti  Ti1  1  0.645197  0.645197  0.645197  1
  Ti  Ti2  1  0.855629  0.855629  0.855629  1
  Mn  Mn3  1  0.501162  0.501162  0.501162  1
  Mn  Mn4  1  0.999677  0.999677  0.999677  1
  Cr  Cr5  1  0.142617  0.142617  0.142617  1
  P  P6  1  0.958579  0.249278  0.538989  1
  P  P7  1  0.456398  0.043293  0.751558  1
  P  P8  1  0.751558  0.456398  0.043293  1
  P  P9  1  0.249278  0.538989  0.958579  1
  P  P10  1  0.538989  0.958579  0.249278  1
  P  P11  1  0.043293  0.751558  0.456398  1
  O  O12  1  0.943582  0.086650  0.734070  1
  O  O13  1  0.993037  0.193895  0.381442  1
  O  O14  1  0.913796  0.264021  0.057763  1
  O  O15  1  0.618592  0.003044  0.809182  1
  O  O16  1  0.499279  0.120983  0.308993  1
  O  O17  1  0.765347  0.414194  0.560153  1
  O  O18  1  0.442043  0.235704  0.585549  1
  O  O19  1  0.264021  0.057763  0.913796  1
  O  O20  1  0.691095  0.497932  0.882422  1
  O  O21  1  0.882422  0.691095  0.497932  1
  O  O22  1  0.809182  0.618592  0.003044  1
  O  O23  1  0.585549  0.442043  0.235704  1
  O  O24  1  0.414194  0.560153  0.765347  1
  O  O25  1  0.120983  0.308993  0.499279  1
  O  O26  1  0.193895  0.381442  0.993037  1
  O  O27  1  0.308993  0.499279  0.120983  1
  O  O28  1  0.734070  0.943582  0.086650  1
  O  O29  1  0.560153  0.765347  0.414194  1
  O  O30  1  0.235704  0.585549  0.442043  1
  O  O31  1  0.497932  0.882422  0.691095  1
  O  O32  1  0.381442  0.993037  0.193895  1
  O  O33  1  0.086650  0.734070  0.943582  1
  O  O34  1  0.003044  0.809182  0.618592  1
  O  O35  1  0.057763  0.913796  0.264021  1
