# generated using pymatgen
data_BaCaI4
_symmetry_space_group_name_H-M   'P 1'
_cell_length_a   9.22187139
_cell_length_b   9.22187139
_cell_length_c   7.76870908
_cell_angle_alpha   71.34484377
_cell_angle_beta   108.65515623
_cell_angle_gamma   69.58660384
_symmetry_Int_Tables_number   1
_chemical_formula_structural   BaCaI4
_chemical_formula_sum   'Ba2 Ca2 I8'
_cell_volume   512.75000917
_cell_formula_units_Z   2
loop_
 _symmetry_equiv_pos_site_id
 _symmetry_equiv_pos_as_xyz
  1  'x, y, z'
loop_
 _atom_site_type_symbol
 _atom_site_label
 _atom_site_symmetry_multiplicity
 _atom_site_fract_x
 _atom_site_fract_y
 _atom_site_fract_z
 _atom_site_occupancy
  Ba  Ba0  1  0.634578  0.634578  0.250000  1
  Ba  Ba1  1  0.365422  0.365422  0.750000  1
  Ca  Ca2  1  0.002399  0.002399  0.750000  1
  Ca  Ca3  1  0.997601  0.997601  0.250000  1
  I  I4  1  0.229166  0.647865  0.218824  1
  I  I5  1  0.715739  0.941709  0.920549  1
  I  I6  1  0.647865  0.229166  0.281176  1
  I  I7  1  0.941709  0.715739  0.579451  1
  I  I8  1  0.058291  0.284261  0.420549  1
  I  I9  1  0.352135  0.770834  0.718824  1
  I  I10  1  0.284261  0.058291  0.079451  1
  I  I11  1  0.770834  0.352135  0.781176  1
