# generated using pymatgen
data_Rb4SnO3
_symmetry_space_group_name_H-M   'P 1'
_cell_length_a   6.86648385
_cell_length_b   11.88394795
_cell_length_c   20.14633787
_cell_angle_alpha   90.00000000
_cell_angle_beta   90.00000000
_cell_angle_gamma   90.00000000
_symmetry_Int_Tables_number   1
_chemical_formula_structural   Rb4SnO3
_chemical_formula_sum   'Rb32 Sn8 O24'
_cell_volume   1643.96004072
_cell_formula_units_Z   8
loop_
 _symmetry_equiv_pos_site_id
 _symmetry_equiv_pos_as_xyz
  1  'x, y, z'
loop_
 _atom_site_type_symbol
 _atom_site_label
 _atom_site_symmetry_multiplicity
 _atom_site_fract_x
 _atom_site_fract_y
 _atom_site_fract_z
 _atom_site_occupancy
  Rb  Rb0  1  0.032631  0.111237  0.204384  1
  Rb  Rb1  1  0.032631  0.388763  0.704384  1
  Rb  Rb2  1  0.122565  0.824449  0.159149  1
  Rb  Rb3  1  0.122565  0.675551  0.659149  1
  Rb  Rb4  1  0.222590  0.188732  0.443502  1
  Rb  Rb5  1  0.222590  0.311268  0.943502  1
  Rb  Rb6  1  0.238858  0.056640  0.038141  1
  Rb  Rb7  1  0.238858  0.443360  0.538141  1
  Rb  Rb8  1  0.261142  0.556640  0.038141  1
  Rb  Rb9  1  0.261142  0.943360  0.538141  1
  Rb  Rb10  1  0.277410  0.688732  0.443502  1
  Rb  Rb11  1  0.277410  0.811268  0.943502  1
  Rb  Rb12  1  0.377435  0.324449  0.159149  1
  Rb  Rb13  1  0.377435  0.175551  0.659149  1
  Rb  Rb14  1  0.467369  0.611237  0.204384  1
  Rb  Rb15  1  0.467369  0.888763  0.704384  1
  Rb  Rb16  1  0.532631  0.111237  0.295616  1
  Rb  Rb17  1  0.532631  0.388763  0.795616  1
  Rb  Rb18  1  0.622565  0.824449  0.340851  1
  Rb  Rb19  1  0.622565  0.675551  0.840851  1
  Rb  Rb20  1  0.722590  0.188732  0.056498  1
  Rb  Rb21  1  0.722590  0.311268  0.556498  1
  Rb  Rb22  1  0.738858  0.056640  0.461859  1
  Rb  Rb23  1  0.738858  0.443360  0.961859  1
  Rb  Rb24  1  0.761142  0.556640  0.461859  1
  Rb  Rb25  1  0.761142  0.943360  0.961859  1
  Rb  Rb26  1  0.777410  0.688732  0.056498  1
  Rb  Rb27  1  0.777410  0.811268  0.556498  1
  Rb  Rb28  1  0.877435  0.324449  0.340851  1
  Rb  Rb29  1  0.877435  0.175551  0.840851  1
  Rb  Rb30  1  0.967369  0.611237  0.295616  1
  Rb  Rb31  1  0.967369  0.888763  0.795616  1
  Sn  Sn32  1  0.105731  0.931029  0.352620  1
  Sn  Sn33  1  0.105731  0.568971  0.852620  1
  Sn  Sn34  1  0.394269  0.068971  0.852620  1
  Sn  Sn35  1  0.394269  0.431029  0.352620  1
  Sn  Sn36  1  0.605731  0.931029  0.147380  1
  Sn  Sn37  1  0.605731  0.568971  0.647380  1
  Sn  Sn38  1  0.894269  0.431029  0.147380  1
  Sn  Sn39  1  0.894269  0.068971  0.647380  1
  O  O40  1  0.037539  0.586232  0.155869  1
  O  O41  1  0.037539  0.913768  0.655869  1
  O  O42  1  0.045074  0.351730  0.070421  1
  O  O43  1  0.045074  0.148270  0.570421  1
  O  O44  1  0.137034  0.476758  0.400558  1
  O  O45  1  0.137034  0.023242  0.900558  1
  O  O46  1  0.362966  0.976758  0.400558  1
  O  O47  1  0.362966  0.523242  0.900558  1
  O  O48  1  0.454926  0.851730  0.070421  1
  O  O49  1  0.454926  0.648270  0.570421  1
  O  O50  1  0.462461  0.086232  0.155869  1
  O  O51  1  0.462461  0.413768  0.655869  1
  O  O52  1  0.537539  0.586232  0.344131  1
  O  O53  1  0.537539  0.913768  0.844131  1
  O  O54  1  0.545074  0.148270  0.929579  1
  O  O55  1  0.545074  0.351730  0.429579  1
  O  O56  1  0.637034  0.476758  0.099442  1
  O  O57  1  0.637034  0.023242  0.599442  1
  O  O58  1  0.862966  0.523242  0.599442  1
  O  O59  1  0.862966  0.976758  0.099442  1
  O  O60  1  0.954926  0.648270  0.929579  1
  O  O61  1  0.954926  0.851730  0.429579  1
  O  O62  1  0.962461  0.086232  0.344131  1
  O  O63  1  0.962461  0.413768  0.844131  1
