# generated using pymatgen
data_Li3VCr3O8
_symmetry_space_group_name_H-M   'P 1'
_cell_length_a   5.90257676
_cell_length_b   5.90257676
_cell_length_c   5.90257676
_cell_angle_alpha   60.60162062
_cell_angle_beta   60.60162062
_cell_angle_gamma   60.60162062
_symmetry_Int_Tables_number   1
_chemical_formula_structural   Li3VCr3O8
_chemical_formula_sum   'Li3 V1 Cr3 O8'
_cell_volume   147.39107361
_cell_formula_units_Z   1
loop_
 _symmetry_equiv_pos_site_id
 _symmetry_equiv_pos_as_xyz
  1  'x, y, z'
loop_
 _atom_site_type_symbol
 _atom_site_label
 _atom_site_symmetry_multiplicity
 _atom_site_fract_x
 _atom_site_fract_y
 _atom_site_fract_z
 _atom_site_occupancy
  Li  Li0  1  0.500000  0.000000  0.000000  1
  Li  Li1  1  0.000000  0.000000  0.500000  1
  Li  Li2  1  0.000000  0.500000  0.000000  1
  V  V3  1  0.500000  0.500000  0.500000  1
  Cr  Cr4  1  0.500000  0.000000  0.500000  1
  Cr  Cr5  1  0.500000  0.500000  0.000000  1
  Cr  Cr6  1  0.000000  0.500000  0.500000  1
  O  O7  1  0.742001  0.742001  0.742001  1
  O  O8  1  0.732798  0.732798  0.282743  1
  O  O9  1  0.282743  0.732798  0.732798  1
  O  O10  1  0.732798  0.282743  0.732798  1
  O  O11  1  0.267202  0.717257  0.267202  1
  O  O12  1  0.717257  0.267202  0.267202  1
  O  O13  1  0.267202  0.267202  0.717257  1
  O  O14  1  0.257999  0.257999  0.257999  1
