# generated using pymatgen
data_KP
_symmetry_space_group_name_H-M   'P 1'
_cell_length_a   6.10428140
_cell_length_b   6.61684631
_cell_length_c   11.43207427
_cell_angle_alpha   90.00000000
_cell_angle_beta   90.00000000
_cell_angle_gamma   90.00000000
_symmetry_Int_Tables_number   1
_chemical_formula_structural   KP
_chemical_formula_sum   'K8 P8'
_cell_volume   461.75396195
_cell_formula_units_Z   8
loop_
 _symmetry_equiv_pos_site_id
 _symmetry_equiv_pos_as_xyz
  1  'x, y, z'
loop_
 _atom_site_type_symbol
 _atom_site_label
 _atom_site_symmetry_multiplicity
 _atom_site_fract_x
 _atom_site_fract_y
 _atom_site_fract_z
 _atom_site_occupancy
  K  K0  1  0.396792  0.383490  0.916929  1
  K  K1  1  0.896792  0.116510  0.083071  1
  K  K2  1  0.603208  0.883490  0.583071  1
  K  K3  1  0.103208  0.616510  0.416929  1
  K  K4  1  0.664886  0.645233  0.216093  1
  K  K5  1  0.164886  0.854767  0.783907  1
  K  K6  1  0.335114  0.145233  0.283907  1
  K  K7  1  0.835114  0.354767  0.716093  1
  P  P8  1  0.165510  0.688946  0.100639  1
  P  P9  1  0.665510  0.811054  0.899361  1
  P  P10  1  0.834490  0.188946  0.399361  1
  P  P11  1  0.334490  0.311054  0.600639  1
  P  P12  1  0.906003  0.582201  0.970604  1
  P  P13  1  0.406003  0.917799  0.029396  1
  P  P14  1  0.093997  0.082201  0.529396  1
  P  P15  1  0.593997  0.417799  0.470604  1
