# generated using pymatgen
data_LiFeSiO4
_symmetry_space_group_name_H-M   'P 1'
_cell_length_a   5.47462112
_cell_length_b   8.25210403
_cell_length_c   18.74725086
_cell_angle_alpha   90.00000000
_cell_angle_beta   90.00000000
_cell_angle_gamma   90.00000000
_symmetry_Int_Tables_number   1
_chemical_formula_structural   LiFeSiO4
_chemical_formula_sum   'Li12 Fe12 Si12 O48'
_cell_volume   846.94723292
_cell_formula_units_Z   12
loop_
 _symmetry_equiv_pos_site_id
 _symmetry_equiv_pos_as_xyz
  1  'x, y, z'
loop_
 _atom_site_type_symbol
 _atom_site_label
 _atom_site_symmetry_multiplicity
 _atom_site_fract_x
 _atom_site_fract_y
 _atom_site_fract_z
 _atom_site_occupancy
  Li  Li0  1  0.979522  0.423471  0.082574  1
  Li  Li1  1  0.516195  0.922863  0.084473  1
  Li  Li2  1  0.994015  0.079677  0.249015  1
  Li  Li3  1  0.494015  0.579677  0.250985  1
  Li  Li4  1  0.016195  0.422863  0.415527  1
  Li  Li5  1  0.479522  0.923471  0.417426  1
  Li  Li6  1  0.979522  0.076529  0.582574  1
  Li  Li7  1  0.516195  0.577137  0.584473  1
  Li  Li8  1  0.994015  0.420323  0.749015  1
  Li  Li9  1  0.494015  0.920323  0.750985  1
  Li  Li10  1  0.016195  0.077137  0.915527  1
  Li  Li11  1  0.479522  0.576529  0.917426  1
  Fe  Fe12  1  0.998896  0.750741  0.999669  1
  Fe  Fe13  1  0.498896  0.249259  0.000331  1
  Fe  Fe14  1  0.490475  0.251681  0.166874  1
  Fe  Fe15  1  0.992605  0.750223  0.166279  1
  Fe  Fe16  1  0.492605  0.250223  0.333721  1
  Fe  Fe17  1  0.990475  0.751681  0.333126  1
  Fe  Fe18  1  0.998896  0.749259  0.499669  1
  Fe  Fe19  1  0.498896  0.250741  0.500331  1
  Fe  Fe20  1  0.490475  0.248319  0.666874  1
  Fe  Fe21  1  0.992605  0.749777  0.666279  1
  Fe  Fe22  1  0.492605  0.249777  0.833721  1
  Fe  Fe23  1  0.990475  0.748319  0.833126  1
  Si  Si24  1  0.997569  0.097491  0.082626  1
  Si  Si25  1  0.493131  0.597129  0.083494  1
  Si  Si26  1  0.990463  0.404342  0.249840  1
  Si  Si27  1  0.490463  0.904342  0.250160  1
  Si  Si28  1  0.993131  0.097129  0.416506  1
  Si  Si29  1  0.497569  0.597491  0.417374  1
  Si  Si30  1  0.997569  0.402509  0.582626  1
  Si  Si31  1  0.493131  0.902871  0.583494  1
  Si  Si32  1  0.990463  0.095658  0.749840  1
  Si  Si33  1  0.490463  0.595658  0.750160  1
  Si  Si34  1  0.993131  0.402871  0.916506  1
  Si  Si35  1  0.497569  0.902509  0.917374  1
  O  O36  1  0.499393  0.013629  0.988791  1
  O  O37  1  0.999393  0.986371  0.011209  1
  O  O38  1  0.497275  0.484320  0.012703  1
  O  O39  1  0.253311  0.723901  0.083331  1
  O  O40  1  0.736583  0.722165  0.083033  1
  O  O41  1  0.754819  0.223275  0.083324  1
  O  O42  1  0.237892  0.223788  0.083255  1
  O  O43  1  0.990343  0.984889  0.153758  1
  O  O44  1  0.491312  0.486552  0.155404  1
  O  O45  1  0.989305  0.515144  0.178158  1
  O  O46  1  0.490997  0.016885  0.179188  1
  O  O47  1  0.731202  0.777628  0.249894  1
  O  O48  1  0.248575  0.778465  0.249792  1
  O  O49  1  0.231202  0.277628  0.250106  1
  O  O50  1  0.748575  0.278465  0.250208  1
  O  O51  1  0.990997  0.516885  0.320812  1
  O  O52  1  0.489305  0.015144  0.321842  1
  O  O53  1  0.991312  0.986552  0.344596  1
  O  O54  1  0.490343  0.484889  0.346242  1
  O  O55  1  0.737892  0.723788  0.416745  1
  O  O56  1  0.254819  0.723275  0.416676  1
  O  O57  1  0.236583  0.222165  0.416967  1
  O  O58  1  0.753311  0.223901  0.416669  1
  O  O59  1  0.997275  0.984320  0.487297  1
  O  O60  1  0.499393  0.486371  0.488791  1
  O  O61  1  0.999393  0.513629  0.511209  1
  O  O62  1  0.497275  0.015680  0.512703  1
  O  O63  1  0.253311  0.776099  0.583331  1
  O  O64  1  0.736583  0.777835  0.583033  1
  O  O65  1  0.754819  0.276725  0.583324  1
  O  O66  1  0.237892  0.276212  0.583255  1
  O  O67  1  0.990343  0.515111  0.653758  1
  O  O68  1  0.491312  0.013448  0.655404  1
  O  O69  1  0.989305  0.984856  0.678158  1
  O  O70  1  0.490997  0.483115  0.679188  1
  O  O71  1  0.248575  0.721535  0.749792  1
  O  O72  1  0.731202  0.722372  0.749894  1
  O  O73  1  0.748575  0.221535  0.750208  1
  O  O74  1  0.231202  0.222372  0.750106  1
  O  O75  1  0.990997  0.983115  0.820812  1
  O  O76  1  0.489305  0.484856  0.821842  1
  O  O77  1  0.991312  0.513448  0.844596  1
  O  O78  1  0.490343  0.015111  0.846242  1
  O  O79  1  0.737892  0.776212  0.916745  1
  O  O80  1  0.254819  0.776725  0.916676  1
  O  O81  1  0.236583  0.277835  0.916967  1
  O  O82  1  0.753311  0.276099  0.916669  1
  O  O83  1  0.997275  0.515680  0.987297  1
