# generated using pymatgen
data_K2PH3O5
_symmetry_space_group_name_H-M   'P 1'
_cell_length_a   9.83660551
_cell_length_b   10.20104971
_cell_length_c   12.04161743
_cell_angle_alpha   90.00000000
_cell_angle_beta   107.36504544
_cell_angle_gamma   90.00000000
_symmetry_Int_Tables_number   1
_chemical_formula_structural   K2PH3O5
_chemical_formula_sum   'K16 P8 H24 O40'
_cell_volume   1153.22925925
_cell_formula_units_Z   8
loop_
 _symmetry_equiv_pos_site_id
 _symmetry_equiv_pos_as_xyz
  1  'x, y, z'
loop_
 _atom_site_type_symbol
 _atom_site_label
 _atom_site_symmetry_multiplicity
 _atom_site_fract_x
 _atom_site_fract_y
 _atom_site_fract_z
 _atom_site_occupancy
  K  K0  1  0.859051  0.686536  0.488591  1
  K  K1  1  0.649924  0.610588  0.143404  1
  K  K2  1  0.751431  0.082107  0.398456  1
  K  K3  1  0.859051  0.813464  0.988591  1
  K  K4  1  0.485165  0.944375  0.133607  1
  K  K5  1  0.649924  0.889412  0.643404  1
  K  K6  1  0.751431  0.417893  0.898456  1
  K  K7  1  0.514835  0.444375  0.366393  1
  K  K8  1  0.485165  0.555625  0.633607  1
  K  K9  1  0.248569  0.582107  0.101544  1
  K  K10  1  0.350076  0.110588  0.356596  1
  K  K11  1  0.514835  0.055625  0.866393  1
  K  K12  1  0.140949  0.186536  0.011409  1
  K  K13  1  0.248569  0.917893  0.601544  1
  K  K14  1  0.350076  0.389412  0.856596  1
  K  K15  1  0.140949  0.313464  0.511409  1
  P  P16  1  0.811417  0.189693  0.135498  1
  P  P17  1  0.811417  0.310307  0.635498  1
  P  P18  1  0.514027  0.272680  0.126742  1
  P  P19  1  0.485973  0.772680  0.373258  1
  P  P20  1  0.514027  0.227320  0.626742  1
  P  P21  1  0.485973  0.727320  0.873258  1
  P  P22  1  0.188583  0.689693  0.364502  1
  P  P23  1  0.188583  0.810307  0.864502  1
  H  H24  1  0.989793  0.615347  0.156715  1
  H  H25  1  0.942849  0.469440  0.121225  1
  H  H26  1  0.924307  0.809494  0.263799  1
  H  H27  1  0.989793  0.884653  0.656715  1
  H  H28  1  0.808408  0.919238  0.206398  1
  H  H29  1  0.942849  0.030560  0.621225  1
  H  H30  1  0.844836  0.375939  0.307303  1
  H  H31  1  0.838010  0.413255  0.428229  1
  H  H32  1  0.924307  0.690506  0.763799  1
  H  H33  1  0.808408  0.580762  0.706398  1
  H  H34  1  0.844836  0.124061  0.807303  1
  H  H35  1  0.838010  0.086745  0.928229  1
  H  H36  1  0.161990  0.913255  0.071771  1
  H  H37  1  0.155164  0.875939  0.192697  1
  H  H38  1  0.191592  0.419238  0.293602  1
  H  H39  1  0.075693  0.309494  0.236201  1
  H  H40  1  0.161990  0.586745  0.571771  1
  H  H41  1  0.155164  0.624061  0.692697  1
  H  H42  1  0.057151  0.969440  0.378775  1
  H  H43  1  0.191592  0.080762  0.793602  1
  H  H44  1  0.010207  0.115347  0.343285  1
  H  H45  1  0.075693  0.190506  0.736201  1
  H  H46  1  0.057151  0.530560  0.878775  1
  H  H47  1  0.010207  0.384653  0.843285  1
  O  O48  1  0.919305  0.560000  0.096769  1
  O  O49  1  0.889600  0.226910  0.047636  1
  O  O50  1  0.899462  0.225109  0.262095  1
  O  O51  1  0.826009  0.837499  0.255826  1
  O  O52  1  0.755749  0.048143  0.122796  1
  O  O53  1  0.826476  0.453868  0.351294  1
  O  O54  1  0.919305  0.940000  0.596769  1
  O  O55  1  0.889600  0.273090  0.547636  1
  O  O56  1  0.673719  0.289236  0.103633  1
  O  O57  1  0.899462  0.274891  0.762095  1
  O  O58  1  0.826009  0.662501  0.755826  1
  O  O59  1  0.755749  0.451857  0.622796  1
  O  O60  1  0.826476  0.046132  0.851294  1
  O  O61  1  0.537785  0.208052  0.245616  1
  O  O62  1  0.673719  0.210764  0.603633  1
  O  O63  1  0.424473  0.189351  0.025128  1
  O  O64  1  0.462089  0.414806  0.120719  1
  O  O65  1  0.537911  0.914806  0.379281  1
  O  O66  1  0.575527  0.689351  0.474872  1
  O  O67  1  0.462215  0.708052  0.254384  1
  O  O68  1  0.537785  0.291948  0.745616  1
  O  O69  1  0.424473  0.310649  0.525128  1
  O  O70  1  0.462089  0.085194  0.620719  1
  O  O71  1  0.537911  0.585194  0.879281  1
  O  O72  1  0.575527  0.810649  0.974872  1
  O  O73  1  0.326281  0.789236  0.396367  1
  O  O74  1  0.462215  0.791948  0.754384  1
  O  O75  1  0.173524  0.953868  0.148706  1
  O  O76  1  0.244251  0.548143  0.377204  1
  O  O77  1  0.173991  0.337499  0.244174  1
  O  O78  1  0.100538  0.725109  0.237905  1
  O  O79  1  0.326281  0.710764  0.896367  1
  O  O80  1  0.110400  0.726910  0.452364  1
  O  O81  1  0.080695  0.060000  0.403231  1
  O  O82  1  0.173524  0.546132  0.648706  1
  O  O83  1  0.244251  0.951857  0.877204  1
  O  O84  1  0.173991  0.162501  0.744174  1
  O  O85  1  0.100538  0.774891  0.737905  1
  O  O86  1  0.110400  0.773090  0.952364  1
  O  O87  1  0.080695  0.440000  0.903231  1
