# generated using pymatgen
data_NaLi5Fe2P2(CO7)2
_symmetry_space_group_name_H-M   'P 1'
_cell_length_a   8.53598204
_cell_length_b   6.54091433
_cell_length_c   10.09404336
_cell_angle_alpha   90.00000000
_cell_angle_beta   94.10361368
_cell_angle_gamma   90.00000000
_symmetry_Int_Tables_number   1
_chemical_formula_structural   NaLi5Fe2P2(CO7)2
_chemical_formula_sum   'Na2 Li10 Fe4 P4 C4 O28'
_cell_volume   562.13713618
_cell_formula_units_Z   2
loop_
 _symmetry_equiv_pos_site_id
 _symmetry_equiv_pos_as_xyz
  1  'x, y, z'
loop_
 _atom_site_type_symbol
 _atom_site_label
 _atom_site_symmetry_multiplicity
 _atom_site_fract_x
 _atom_site_fract_y
 _atom_site_fract_z
 _atom_site_occupancy
  Na  Na0  1  0.756806  0.001307  0.121685  1
  Na  Na1  1  0.243194  0.501307  0.878315  1
  Li  Li2  1  0.586294  0.255996  0.376818  1
  Li  Li3  1  0.592302  0.250168  0.871006  1
  Li  Li4  1  0.772447  0.019800  0.624642  1
  Li  Li5  1  0.775368  0.473338  0.628300  1
  Li  Li6  1  0.775738  0.480030  0.126675  1
  Li  Li7  1  0.227553  0.519800  0.375358  1
  Li  Li8  1  0.224632  0.973338  0.371700  1
  Li  Li9  1  0.224262  0.980030  0.873325  1
  Li  Li10  1  0.413706  0.755996  0.623182  1
  Li  Li11  1  0.407698  0.750168  0.128994  1
  Fe  Fe12  1  0.838168  0.745722  0.359126  1
  Fe  Fe13  1  0.840216  0.748707  0.853139  1
  Fe  Fe14  1  0.161832  0.245722  0.640874  1
  Fe  Fe15  1  0.159784  0.248707  0.146861  1
  P  P16  1  0.909469  0.250937  0.396833  1
  P  P17  1  0.910246  0.248206  0.890770  1
  P  P18  1  0.090531  0.750937  0.603167  1
  P  P19  1  0.089754  0.748206  0.109230  1
  C  C20  1  0.534577  0.750465  0.393570  1
  C  C21  1  0.539920  0.756877  0.894843  1
  C  C22  1  0.465423  0.250465  0.606430  1
  C  C23  1  0.460080  0.256877  0.105157  1
  O  O24  1  0.612204  0.247792  0.580811  1
  O  O25  1  0.602505  0.280750  0.071899  1
  O  O26  1  0.576990  0.756549  0.272070  1
  O  O27  1  0.574896  0.752161  0.771491  1
  O  O28  1  0.642742  0.746546  0.492176  1
  O  O29  1  0.653141  0.736512  0.988611  1
  O  O30  1  0.812312  0.059346  0.351154  1
  O  O31  1  0.803755  0.432513  0.343934  1
  O  O32  1  0.799879  0.063903  0.850565  1
  O  O33  1  0.816900  0.435550  0.830586  1
  O  O34  1  0.927684  0.255668  0.552159  1
  O  O35  1  0.924404  0.757159  0.656234  1
  O  O36  1  0.931041  0.269407  0.044901  1
  O  O37  1  0.926450  0.724587  0.164480  1
  O  O38  1  0.075596  0.257159  0.343766  1
  O  O39  1  0.072316  0.755668  0.447841  1
  O  O40  1  0.073550  0.224587  0.835520  1
  O  O41  1  0.068959  0.769407  0.955099  1
  O  O42  1  0.187688  0.559346  0.648846  1
  O  O43  1  0.196245  0.932513  0.656066  1
  O  O44  1  0.200121  0.563903  0.149435  1
  O  O45  1  0.183100  0.935550  0.169414  1
  O  O46  1  0.357258  0.246546  0.507824  1
  O  O47  1  0.346859  0.236512  0.011389  1
  O  O48  1  0.423010  0.256549  0.727930  1
  O  O49  1  0.425104  0.252161  0.228509  1
  O  O50  1  0.387796  0.747792  0.419189  1
  O  O51  1  0.397495  0.780750  0.928101  1
