# generated using pymatgen
data_Li4FeO3F
_symmetry_space_group_name_H-M   'P 1'
_cell_length_a   5.43645139
_cell_length_b   5.43645139
_cell_length_c   6.42665448
_cell_angle_alpha   90.00000000
_cell_angle_beta   90.00000000
_cell_angle_gamma   95.53711953
_symmetry_Int_Tables_number   1
_chemical_formula_structural   Li4FeO3F
_chemical_formula_sum   'Li8 Fe2 O6 F2'
_cell_volume   189.05351790
_cell_formula_units_Z   2
loop_
 _symmetry_equiv_pos_site_id
 _symmetry_equiv_pos_as_xyz
  1  'x, y, z'
loop_
 _atom_site_type_symbol
 _atom_site_label
 _atom_site_symmetry_multiplicity
 _atom_site_fract_x
 _atom_site_fract_y
 _atom_site_fract_z
 _atom_site_occupancy
  Li  Li0  1  0.842302  0.170724  0.497511  1
  Li  Li1  1  0.829276  0.157698  0.997511  1
  Li  Li2  1  0.885154  0.580230  0.237722  1
  Li  Li3  1  0.419770  0.114846  0.737722  1
  Li  Li4  1  0.114846  0.419770  0.737722  1
  Li  Li5  1  0.580230  0.885154  0.237722  1
  Li  Li6  1  0.157698  0.829276  0.997511  1
  Li  Li7  1  0.170724  0.842302  0.497511  1
  Fe  Fe8  1  0.354184  0.354184  0.276820  1
  Fe  Fe9  1  0.645816  0.645816  0.776820  1
  O  O10  1  0.675377  0.262114  0.249691  1
  O  O11  1  0.737886  0.324623  0.749691  1
  O  O12  1  0.798534  0.798534  0.009799  1
  O  O13  1  0.201466  0.201466  0.509799  1
  O  O14  1  0.324623  0.737886  0.749691  1
  O  O15  1  0.262114  0.675377  0.249691  1
  F  F16  1  0.205326  0.205326  0.993535  1
  F  F17  1  0.794674  0.794674  0.493535  1
