# generated using pymatgen
data_HoBiO3
_symmetry_space_group_name_H-M   'P 1'
_cell_length_a   6.12732358
_cell_length_b   6.12732358
_cell_length_c   6.12732358
_cell_angle_alpha   58.51664825
_cell_angle_beta   58.51664825
_cell_angle_gamma   58.51664825
_symmetry_Int_Tables_number   1
_chemical_formula_structural   HoBiO3
_chemical_formula_sum   'Ho2 Bi2 O6'
_cell_volume   157.14701898
_cell_formula_units_Z   2
loop_
 _symmetry_equiv_pos_site_id
 _symmetry_equiv_pos_as_xyz
  1  'x, y, z'
loop_
 _atom_site_type_symbol
 _atom_site_label
 _atom_site_symmetry_multiplicity
 _atom_site_fract_x
 _atom_site_fract_y
 _atom_site_fract_z
 _atom_site_occupancy
  Ho  Ho0  1  0.858150  0.858150  0.858150  1
  Ho  Ho1  1  0.141850  0.141850  0.141850  1
  Bi  Bi2  1  0.643415  0.643415  0.643415  1
  Bi  Bi3  1  0.356585  0.356585  0.356585  1
  O  O4  1  0.218534  0.544155  0.987806  1
  O  O5  1  0.012194  0.781466  0.455845  1
  O  O6  1  0.455845  0.012194  0.781466  1
  O  O7  1  0.544155  0.987806  0.218534  1
  O  O8  1  0.987806  0.218534  0.544155  1
  O  O9  1  0.781466  0.455845  0.012194  1
