# generated using pymatgen
data_Li2VO3F
_symmetry_space_group_name_H-M   'P 1'
_cell_length_a   5.77485690
_cell_length_b   5.77485690
_cell_length_c   9.29788477
_cell_angle_alpha   73.34354969
_cell_angle_beta   106.65645031
_cell_angle_gamma   88.14103600
_symmetry_Int_Tables_number   1
_chemical_formula_structural   Li2VO3F
_chemical_formula_sum   'Li8 V4 O12 F4'
_cell_volume   282.37271768
_cell_formula_units_Z   4
loop_
 _symmetry_equiv_pos_site_id
 _symmetry_equiv_pos_as_xyz
  1  'x, y, z'
loop_
 _atom_site_type_symbol
 _atom_site_label
 _atom_site_symmetry_multiplicity
 _atom_site_fract_x
 _atom_site_fract_y
 _atom_site_fract_z
 _atom_site_occupancy
  Li  Li0  1  0.455402  0.313156  0.634277  1
  Li  Li1  1  0.198199  0.572607  0.133932  1
  Li  Li2  1  0.948960  0.309109  0.640159  1
  Li  Li3  1  0.686844  0.544598  0.134277  1
  Li  Li4  1  0.427393  0.801801  0.633932  1
  Li  Li5  1  0.690891  0.051040  0.140159  1
  Li  Li6  1  0.335028  0.446114  0.875030  1
  Li  Li7  1  0.553886  0.664972  0.375030  1
  V  V8  1  0.118783  0.192909  0.386683  1
  V  V9  1  0.807091  0.881217  0.886683  1
  V  V10  1  0.172046  0.114621  0.098674  1
  V  V11  1  0.885379  0.827954  0.598674  1
  O  O12  1  0.934321  0.836517  0.096229  1
  O  O13  1  0.303348  0.414774  0.382977  1
  O  O14  1  0.163483  0.065679  0.596229  1
  O  O15  1  0.709954  0.043804  0.647915  1
  O  O16  1  0.403875  0.299063  0.107759  1
  O  O17  1  0.956196  0.290046  0.147915  1
  O  O18  1  0.036554  0.719097  0.852177  1
  O  O19  1  0.585226  0.696652  0.882977  1
  O  O20  1  0.280903  0.963446  0.352177  1
  O  O21  1  0.824218  0.939822  0.397907  1
  O  O22  1  0.700937  0.596125  0.607759  1
  O  O23  1  0.060178  0.175782  0.897907  1
  F  F24  1  0.430923  0.815689  0.144879  1
  F  F25  1  0.822827  0.422627  0.364213  1
  F  F26  1  0.184311  0.569077  0.644879  1
  F  F27  1  0.577373  0.177173  0.864213  1
