# generated using pymatgen
data_Li4Mn3Nb2Fe3O16
_symmetry_space_group_name_H-M   'P 1'
_cell_length_a   6.04102694
_cell_length_b   6.04102694
_cell_length_c   9.81999233
_cell_angle_alpha   88.05579073
_cell_angle_beta   91.94420927
_cell_angle_gamma   120.99364952
_symmetry_Int_Tables_number   1
_chemical_formula_structural   Li4Mn3Nb2Fe3O16
_chemical_formula_sum   'Li4 Mn3 Nb2 Fe3 O16'
_cell_volume   306.97075138
_cell_formula_units_Z   1
loop_
 _symmetry_equiv_pos_site_id
 _symmetry_equiv_pos_as_xyz
  1  'x, y, z'
loop_
 _atom_site_type_symbol
 _atom_site_label
 _atom_site_symmetry_multiplicity
 _atom_site_fract_x
 _atom_site_fract_y
 _atom_site_fract_z
 _atom_site_occupancy
  Li  Li0  1  0.662849  0.337151  0.903667  1
  Li  Li1  1  0.995896  0.004104  0.989860  1
  Li  Li2  1  0.001771  0.998229  0.489126  1
  Li  Li3  1  0.335309  0.664691  0.402361  1
  Mn  Mn4  1  0.829747  0.170253  0.211434  1
  Mn  Mn5  1  0.170209  0.338414  0.714311  1
  Mn  Mn6  1  0.661586  0.829791  0.714311  1
  Nb  Nb7  1  0.668120  0.331880  0.491668  1
  Nb  Nb8  1  0.321310  0.678690  0.993852  1
  Fe  Fe9  1  0.340685  0.169079  0.217800  1
  Fe  Fe10  1  0.830921  0.659315  0.217800  1
  Fe  Fe11  1  0.171132  0.828868  0.717441  1
  O  O12  1  0.343048  0.154305  0.587814  1
  O  O13  1  0.519901  0.480099  0.343468  1
  O  O14  1  0.668315  0.331685  0.111090  1
  O  O15  1  0.995348  0.004652  0.302245  1
  O  O16  1  0.001392  0.998608  0.802788  1
  O  O17  1  0.845695  0.656952  0.587814  1
  O  O18  1  0.514976  0.034854  0.345375  1
  O  O19  1  0.965146  0.485024  0.345375  1
  O  O20  1  0.165324  0.834676  0.097030  1
  O  O21  1  0.840919  0.159081  0.593477  1
  O  O22  1  0.031593  0.527108  0.849827  1
  O  O23  1  0.472892  0.968407  0.849827  1
  O  O24  1  0.334989  0.665011  0.613096  1
  O  O25  1  0.173357  0.335870  0.088500  1
  O  O26  1  0.478219  0.521781  0.837818  1
  O  O27  1  0.664130  0.826643  0.088500  1
