# generated using pymatgen
data_Li5Cr2Ni5O12
_symmetry_space_group_name_H-M   'P 1'
_cell_length_a   5.11569152
_cell_length_b   5.11569152
_cell_length_c   9.77111046
_cell_angle_alpha   84.65273836
_cell_angle_beta   95.34726164
_cell_angle_gamma   58.70955766
_symmetry_Int_Tables_number   1
_chemical_formula_structural   Li5Cr2Ni5O12
_chemical_formula_sum   'Li5 Cr2 Ni5 O12'
_cell_volume   214.53339512
_cell_formula_units_Z   1
loop_
 _symmetry_equiv_pos_site_id
 _symmetry_equiv_pos_as_xyz
  1  'x, y, z'
loop_
 _atom_site_type_symbol
 _atom_site_label
 _atom_site_symmetry_multiplicity
 _atom_site_fract_x
 _atom_site_fract_y
 _atom_site_fract_z
 _atom_site_occupancy
  Li  Li0  1  0.329375  0.829635  0.752042  1
  Li  Li1  1  0.170600  0.672301  0.246919  1
  Li  Li2  1  0.829635  0.329375  0.247958  1
  Li  Li3  1  0.672301  0.170600  0.753081  1
  Li  Li4  1  0.081135  0.081135  0.000000  1
  Cr  Cr5  1  0.743258  0.743258  0.000000  1
  Cr  Cr6  1  0.250942  0.250942  0.500000  1
  Ni  Ni7  1  0.918379  0.918379  0.500000  1
  Ni  Ni8  1  0.492365  0.002893  0.246511  1
  Ni  Ni9  1  0.002893  0.492365  0.753489  1
  Ni  Ni10  1  0.581451  0.581451  0.500000  1
  Ni  Ni11  1  0.415965  0.415965  0.000000  1
  O  O12  1  0.760162  0.048674  0.114982  1
  O  O13  1  0.048674  0.760162  0.885018  1
  O  O14  1  0.613522  0.887029  0.616181  1
  O  O15  1  0.887029  0.613522  0.383819  1
  O  O16  1  0.478628  0.706436  0.116796  1
  O  O17  1  0.706436  0.478628  0.883204  1
  O  O18  1  0.287480  0.523187  0.619111  1
  O  O19  1  0.523187  0.287480  0.380889  1
  O  O20  1  0.113425  0.405096  0.116317  1
  O  O21  1  0.405096  0.113425  0.883683  1
  O  O22  1  0.976423  0.211640  0.620301  1
  O  O23  1  0.211640  0.976423  0.379699  1
