# generated using pymatgen
data_Li2V3O8
_symmetry_space_group_name_H-M   'P 1'
_cell_length_a   8.31496890
_cell_length_b   8.36822312
_cell_length_c   8.38498685
_cell_angle_alpha   90.00000000
_cell_angle_beta   90.00000000
_cell_angle_gamma   90.00000000
_symmetry_Int_Tables_number   1
_chemical_formula_structural   Li2V3O8
_chemical_formula_sum   'Li8 V12 O32'
_cell_volume   583.44008886
_cell_formula_units_Z   4
loop_
 _symmetry_equiv_pos_site_id
 _symmetry_equiv_pos_as_xyz
  1  'x, y, z'
loop_
 _atom_site_type_symbol
 _atom_site_label
 _atom_site_symmetry_multiplicity
 _atom_site_fract_x
 _atom_site_fract_y
 _atom_site_fract_z
 _atom_site_occupancy
  Li  Li0  1  0.749998  0.749855  0.753794  1
  Li  Li1  1  0.750002  0.250145  0.253794  1
  Li  Li2  1  0.497553  0.500918  0.495745  1
  Li  Li3  1  0.502447  0.000918  0.004255  1
  Li  Li4  1  0.250002  0.249855  0.746206  1
  Li  Li5  1  0.249998  0.750145  0.246206  1
  Li  Li6  1  0.997553  0.999082  0.504255  1
  Li  Li7  1  0.002447  0.499082  0.995745  1
  V  V8  1  0.624233  0.123201  0.616988  1
  V  V9  1  0.635429  0.611111  0.125009  1
  V  V10  1  0.644247  0.867267  0.383640  1
  V  V11  1  0.364571  0.111111  0.374991  1
  V  V12  1  0.355753  0.367267  0.116360  1
  V  V13  1  0.375767  0.623201  0.883012  1
  V  V14  1  0.144247  0.632733  0.616360  1
  V  V15  1  0.124233  0.376799  0.383012  1
  V  V16  1  0.135429  0.888889  0.874991  1
  V  V17  1  0.864571  0.388889  0.625009  1
  V  V18  1  0.875767  0.876799  0.116988  1
  V  V19  1  0.855753  0.132733  0.883640  1
  O  O20  1  0.607207  0.656215  0.351536  1
  O  O21  1  0.655262  0.365694  0.613326  1
  O  O22  1  0.616817  0.107500  0.383745  1
  O  O23  1  0.595127  0.640701  0.899544  1
  O  O24  1  0.634550  0.885835  0.594063  1
  O  O25  1  0.608050  0.406083  0.142000  1
  O  O26  1  0.646413  0.116248  0.854355  1
  O  O27  1  0.642153  0.863817  0.136094  1
  O  O28  1  0.353587  0.616248  0.645645  1
  O  O29  1  0.357847  0.363817  0.363906  1
  O  O30  1  0.404873  0.140701  0.600456  1
  O  O31  1  0.391950  0.906083  0.358000  1
  O  O32  1  0.383183  0.607500  0.116255  1
  O  O33  1  0.365450  0.385835  0.905937  1
  O  O34  1  0.392793  0.156215  0.148464  1
  O  O35  1  0.344738  0.865694  0.886674  1
  O  O36  1  0.116817  0.392500  0.616255  1
  O  O37  1  0.134550  0.614165  0.405937  1
  O  O38  1  0.155262  0.134306  0.386674  1
  O  O39  1  0.146413  0.383752  0.145645  1
  O  O40  1  0.107207  0.843785  0.648464  1
  O  O41  1  0.095127  0.859299  0.100456  1
  O  O42  1  0.142153  0.636183  0.863906  1
  O  O43  1  0.108050  0.093917  0.858000  1
  O  O44  1  0.891950  0.593917  0.642000  1
  O  O45  1  0.857847  0.136183  0.636094  1
  O  O46  1  0.904873  0.359299  0.399544  1
  O  O47  1  0.844738  0.634306  0.113326  1
  O  O48  1  0.865450  0.114165  0.094063  1
  O  O49  1  0.853587  0.883752  0.354355  1
  O  O50  1  0.892793  0.343785  0.851536  1
  O  O51  1  0.883183  0.892500  0.883745  1
