# generated using pymatgen
data_LiMnVP2(HO5)2
_symmetry_space_group_name_H-M   'P 1'
_cell_length_a   5.23822059
_cell_length_b   7.34975579
_cell_length_c   14.44064470
_cell_angle_alpha   91.90748607
_cell_angle_beta   92.85417068
_cell_angle_gamma   103.75023060
_symmetry_Int_Tables_number   1
_chemical_formula_structural   LiMnVP2(HO5)2
_chemical_formula_sum   'Li3 Mn3 V3 P6 H6 O30'
_cell_volume   538.77288271
_cell_formula_units_Z   3
loop_
 _symmetry_equiv_pos_site_id
 _symmetry_equiv_pos_as_xyz
  1  'x, y, z'
loop_
 _atom_site_type_symbol
 _atom_site_label
 _atom_site_symmetry_multiplicity
 _atom_site_fract_x
 _atom_site_fract_y
 _atom_site_fract_z
 _atom_site_occupancy
  Li  Li0  1  0.259191  0.035336  0.185529  1
  Li  Li1  1  0.406680  0.630649  0.480406  1
  Li  Li2  1  0.741724  0.962796  0.814015  1
  Mn  Mn3  1  0.999754  0.999715  0.999741  1
  Mn  Mn4  1  0.333023  0.333017  0.332932  1
  Mn  Mn5  1  0.664148  0.663312  0.666597  1
  V  V6  1  0.664774  0.659986  0.166049  1
  V  V7  1  0.002231  0.005594  0.499986  1
  V  V8  1  0.335339  0.338556  0.833218  1
  P  P9  1  0.595118  0.265434  0.041451  1
  P  P10  1  0.741059  0.058888  0.291059  1
  P  P11  1  0.925072  0.606519  0.375174  1
  P  P12  1  0.070922  0.399289  0.624477  1
  P  P13  1  0.259237  0.939723  0.708087  1
  P  P14  1  0.404116  0.733159  0.958176  1
  H  H15  1  0.102385  0.747023  0.094727  1
  H  H16  1  0.214838  0.564479  0.231059  1
  H  H17  1  0.451527  0.102435  0.435887  1
  H  H18  1  0.562500  0.916478  0.572063  1
  H  H19  1  0.783866  0.432686  0.768831  1
  H  H20  1  0.896862  0.252245  0.905000  1
  O  O21  1  0.771086  0.128927  0.058982  1
  O  O22  1  0.321441  0.184847  0.074051  1
  O  O23  1  0.405633  0.688454  0.063516  1
  O  O24  1  0.725931  0.452275  0.099748  1
  O  O25  1  0.020092  0.128803  0.262137  1
  O  O26  1  0.977132  0.825307  0.108860  1
  O  O27  1  0.569207  0.200096  0.272889  1
  O  O28  1  0.367697  0.506616  0.229452  1
  O  O29  1  0.735321  0.016204  0.397126  1
  O  O30  1  0.593326  0.880117  0.230541  1
  O  O31  1  0.930514  0.649152  0.269467  1
  O  O32  1  0.297632  0.159228  0.436739  1
  O  O33  1  0.097191  0.465670  0.393469  1
  O  O34  1  0.646099  0.536570  0.404478  1
  O  O35  1  0.072852  0.785596  0.436028  1
  O  O36  1  0.937094  0.212018  0.566800  1
  O  O37  1  0.343462  0.478892  0.590797  1
  O  O38  1  0.899790  0.539114  0.608257  1
  O  O39  1  0.687446  0.837421  0.558148  1
  O  O40  1  0.074717  0.353503  0.729660  1
  O  O41  1  0.405042  0.117626  0.769439  1
  O  O42  1  0.267992  0.981946  0.602258  1
  O  O43  1  0.630245  0.489366  0.770421  1
  O  O44  1  0.433254  0.799491  0.726972  1
  O  O45  1  0.021419  0.173692  0.890559  1
  O  O46  1  0.978569  0.870289  0.735948  1
  O  O47  1  0.273666  0.546505  0.900055  1
  O  O48  1  0.593658  0.310443  0.936305  1
  O  O49  1  0.678247  0.814172  0.925819  1
  O  O50  1  0.228538  0.870043  0.940847  1
