# generated using pymatgen
data_Li5Ti2Co5O12
_symmetry_space_group_name_H-M   'P 1'
_cell_length_a   5.14336972
_cell_length_b   5.14336972
_cell_length_c   9.89252262
_cell_angle_alpha   84.56514218
_cell_angle_beta   95.43485782
_cell_angle_gamma   58.93494007
_symmetry_Int_Tables_number   1
_chemical_formula_structural   Li5Ti2Co5O12
_chemical_formula_sum   'Li5 Ti2 Co5 O12'
_cell_volume   219.97270611
_cell_formula_units_Z   1
loop_
 _symmetry_equiv_pos_site_id
 _symmetry_equiv_pos_as_xyz
  1  'x, y, z'
loop_
 _atom_site_type_symbol
 _atom_site_label
 _atom_site_symmetry_multiplicity
 _atom_site_fract_x
 _atom_site_fract_y
 _atom_site_fract_z
 _atom_site_occupancy
  Li  Li0  1  0.669661  0.173738  0.255836  1
  Li  Li1  1  0.173738  0.669661  0.744164  1
  Li  Li2  1  0.817978  0.317346  0.749186  1
  Li  Li3  1  0.083111  0.083111  0.500000  1
  Li  Li4  1  0.317346  0.817978  0.250814  1
  Ti  Ti5  1  0.747708  0.747708  0.500000  1
  Ti  Ti6  1  0.243274  0.243274  0.000000  1
  Co  Co7  1  0.913701  0.913701  0.000000  1
  Co  Co8  1  0.999088  0.493074  0.255613  1
  Co  Co9  1  0.493074  0.999088  0.744387  1
  Co  Co10  1  0.579993  0.579993  0.000000  1
  Co  Co11  1  0.418065  0.418065  0.500000  1
  O  O12  1  0.764876  0.044826  0.616042  1
  O  O13  1  0.522986  0.284188  0.884246  1
  O  O14  1  0.880567  0.606315  0.879441  1
  O  O15  1  0.394757  0.135458  0.389046  1
  O  O16  1  0.687496  0.481144  0.388217  1
  O  O17  1  0.044826  0.764876  0.383958  1
  O  O18  1  0.980325  0.203129  0.126235  1
  O  O19  1  0.606315  0.880567  0.120559  1
  O  O20  1  0.284188  0.522986  0.115754  1
  O  O21  1  0.135458  0.394757  0.610954  1
  O  O22  1  0.481144  0.687496  0.611783  1
  O  O23  1  0.203129  0.980325  0.873765  1
