# generated using pymatgen
data_LiFe(PO3)4
_symmetry_space_group_name_H-M   'P 1'
_cell_length_a   8.53786963
_cell_length_b   8.53786963
_cell_length_c   9.16295109
_cell_angle_alpha   65.62242637
_cell_angle_beta   114.37757363
_cell_angle_gamma   123.95435540
_symmetry_Int_Tables_number   1
_chemical_formula_structural   LiFe(PO3)4
_chemical_formula_sum   'Li2 Fe2 P8 O24'
_cell_volume   489.74921789
_cell_formula_units_Z   2
loop_
 _symmetry_equiv_pos_site_id
 _symmetry_equiv_pos_as_xyz
  1  'x, y, z'
loop_
 _atom_site_type_symbol
 _atom_site_label
 _atom_site_symmetry_multiplicity
 _atom_site_fract_x
 _atom_site_fract_y
 _atom_site_fract_z
 _atom_site_occupancy
  Li  Li0  1  0.000000  0.000000  0.500000  1
  Li  Li1  1  0.000000  0.000000  0.000000  1
  Fe  Fe2  1  0.336996  0.336996  0.250000  1
  Fe  Fe3  1  0.663004  0.663004  0.750000  1
  P  P4  1  0.294477  0.575521  0.862629  1
  P  P5  1  0.648812  0.947894  0.895619  1
  P  P6  1  0.947894  0.648812  0.604381  1
  P  P7  1  0.575521  0.294477  0.637371  1
  P  P8  1  0.424479  0.705523  0.362629  1
  P  P9  1  0.052106  0.351188  0.395619  1
  P  P10  1  0.351188  0.052106  0.104381  1
  P  P11  1  0.705523  0.424479  0.137371  1
  O  O12  1  0.725784  0.904604  0.800154  1
  O  O13  1  0.209243  0.420549  0.005890  1
  O  O14  1  0.126454  0.604667  0.714238  1
  O  O15  1  0.430579  0.781377  0.911958  1
  O  O16  1  0.595297  0.458862  0.202816  1
  O  O17  1  0.781377  0.430579  0.588042  1
  O  O18  1  0.604667  0.126454  0.785762  1
  O  O19  1  0.988057  0.784814  0.443037  1
  O  O20  1  0.420549  0.209243  0.494110  1
  O  O21  1  0.784814  0.988057  0.056963  1
  O  O22  1  0.904604  0.725784  0.699846  1
  O  O23  1  0.458862  0.595297  0.297184  1
  O  O24  1  0.541138  0.404703  0.702816  1
  O  O25  1  0.095396  0.274216  0.300154  1
  O  O26  1  0.215186  0.011943  0.943037  1
  O  O27  1  0.579451  0.790757  0.505890  1
  O  O28  1  0.011943  0.215186  0.556963  1
  O  O29  1  0.395333  0.873546  0.214238  1
  O  O30  1  0.218623  0.569421  0.411958  1
  O  O31  1  0.404703  0.541138  0.797184  1
  O  O32  1  0.569421  0.218623  0.088042  1
  O  O33  1  0.873546  0.395333  0.285762  1
  O  O34  1  0.790757  0.579451  0.994110  1
  O  O35  1  0.274216  0.095396  0.199846  1
