# generated using pymatgen
data_Bi2B2O7
_symmetry_space_group_name_H-M   'P 1'
_cell_length_a   6.53247342
_cell_length_b   6.58365309
_cell_length_c   8.06039149
_cell_angle_alpha   110.16884095
_cell_angle_beta   110.86966418
_cell_angle_gamma   91.08939331
_symmetry_Int_Tables_number   1
_chemical_formula_structural   Bi2B2O7
_chemical_formula_sum   'Bi4 B4 O14'
_cell_volume   300.05014683
_cell_formula_units_Z   2
loop_
 _symmetry_equiv_pos_site_id
 _symmetry_equiv_pos_as_xyz
  1  'x, y, z'
loop_
 _atom_site_type_symbol
 _atom_site_label
 _atom_site_symmetry_multiplicity
 _atom_site_fract_x
 _atom_site_fract_y
 _atom_site_fract_z
 _atom_site_occupancy
  Bi  Bi0  1  0.243770  0.781515  0.864723  1
  Bi  Bi1  1  0.292552  0.644676  0.287530  1
  Bi  Bi2  1  0.707448  0.355324  0.712470  1
  Bi  Bi3  1  0.756230  0.218485  0.135277  1
  B  B4  1  0.320986  0.337260  0.872151  1
  B  B5  1  0.308193  0.155779  0.266402  1
  B  B6  1  0.691807  0.844221  0.733598  1
  B  B7  1  0.679014  0.662740  0.127849  1
  O  O8  1  0.184717  0.479080  0.937314  1
  O  O9  1  0.385790  0.174476  0.941366  1
  O  O10  1  0.001921  0.023096  0.431839  1
  O  O11  1  0.471363  0.778250  0.615393  1
  O  O12  1  0.160482  0.305596  0.259225  1
  O  O13  1  0.220343  0.934415  0.149287  1
  O  O14  1  0.385723  0.387477  0.742007  1
  O  O15  1  0.614277  0.612523  0.257993  1
  O  O16  1  0.779657  0.065585  0.850713  1
  O  O17  1  0.839518  0.694404  0.740775  1
  O  O18  1  0.528637  0.221750  0.384607  1
  O  O19  1  0.998079  0.976904  0.568161  1
  O  O20  1  0.614210  0.825524  0.058634  1
  O  O21  1  0.815283  0.520920  0.062686  1
