# generated using pymatgen
data_Rb2Be2O3
_symmetry_space_group_name_H-M   'P 1'
_cell_length_a   5.40352939
_cell_length_b   7.78548714
_cell_length_c   10.96467880
_cell_angle_alpha   90.00000000
_cell_angle_beta   90.00000000
_cell_angle_gamma   90.00000000
_symmetry_Int_Tables_number   1
_chemical_formula_structural   Rb2Be2O3
_chemical_formula_sum   'Rb8 Be8 O12'
_cell_volume   461.27426294
_cell_formula_units_Z   4
loop_
 _symmetry_equiv_pos_site_id
 _symmetry_equiv_pos_as_xyz
  1  'x, y, z'
loop_
 _atom_site_type_symbol
 _atom_site_label
 _atom_site_symmetry_multiplicity
 _atom_site_fract_x
 _atom_site_fract_y
 _atom_site_fract_z
 _atom_site_occupancy
  Rb  Rb0  1  0.250000  0.869565  0.080265  1
  Rb  Rb1  1  0.750000  0.507032  0.116377  1
  Rb  Rb2  1  0.250000  0.007032  0.383623  1
  Rb  Rb3  1  0.750000  0.369565  0.419735  1
  Rb  Rb4  1  0.250000  0.630435  0.580265  1
  Rb  Rb5  1  0.750000  0.992968  0.616377  1
  Rb  Rb6  1  0.250000  0.492968  0.883623  1
  Rb  Rb7  1  0.750000  0.130435  0.919735  1
  Be  Be8  1  0.250000  0.275444  0.167589  1
  Be  Be9  1  0.750000  0.105318  0.213213  1
  Be  Be10  1  0.250000  0.605318  0.286787  1
  Be  Be11  1  0.750000  0.775444  0.332411  1
  Be  Be12  1  0.250000  0.224556  0.667589  1
  Be  Be13  1  0.750000  0.394682  0.713213  1
  Be  Be14  1  0.250000  0.894682  0.786787  1
  Be  Be15  1  0.750000  0.724556  0.832411  1
  O  O16  1  0.250000  0.475700  0.178641  1
  O  O17  1  0.999491  0.174914  0.160546  1
  O  O18  1  0.500509  0.174914  0.160546  1
  O  O19  1  0.000509  0.674914  0.339454  1
  O  O20  1  0.499491  0.674914  0.339454  1
  O  O21  1  0.750000  0.975700  0.321359  1
  O  O22  1  0.250000  0.024300  0.678641  1
  O  O23  1  0.999491  0.325086  0.660546  1
  O  O24  1  0.500509  0.325086  0.660546  1
  O  O25  1  0.499491  0.825086  0.839454  1
  O  O26  1  0.000509  0.825086  0.839454  1
  O  O27  1  0.750000  0.524300  0.821359  1
