# generated using pymatgen
data_Li4Fe3Co2Sn3O16
_symmetry_space_group_name_H-M   'P 1'
_cell_length_a   6.10519806
_cell_length_b   6.10519806
_cell_length_c   9.48551757
_cell_angle_alpha   89.95237164
_cell_angle_beta   90.04762836
_cell_angle_gamma   119.93465628
_symmetry_Int_Tables_number   1
_chemical_formula_structural   Li4Fe3Co2Sn3O16
_chemical_formula_sum   'Li4 Fe3 Co2 Sn3 O16'
_cell_volume   306.39139425
_cell_formula_units_Z   1
loop_
 _symmetry_equiv_pos_site_id
 _symmetry_equiv_pos_as_xyz
  1  'x, y, z'
loop_
 _atom_site_type_symbol
 _atom_site_label
 _atom_site_symmetry_multiplicity
 _atom_site_fract_x
 _atom_site_fract_y
 _atom_site_fract_z
 _atom_site_occupancy
  Li  Li0  1  0.329792  0.670208  0.111817  1
  Li  Li1  1  0.014990  0.985010  0.011611  1
  Li  Li2  1  0.011999  0.988001  0.499181  1
  Li  Li3  1  0.664751  0.335249  0.601957  1
  Fe  Fe4  1  0.167537  0.832463  0.787546  1
  Fe  Fe5  1  0.344899  0.175357  0.285757  1
  Fe  Fe6  1  0.824643  0.655101  0.285757  1
  Co  Co7  1  0.329958  0.670042  0.510800  1
  Co  Co8  1  0.662184  0.337816  0.022495  1
  Sn  Sn9  1  0.168882  0.339611  0.789329  1
  Sn  Sn10  1  0.660389  0.831118  0.789329  1
  Sn  Sn11  1  0.827387  0.172613  0.288726  1
  O  O12  1  0.172291  0.342926  0.406092  1
  O  O13  1  0.475701  0.524299  0.648420  1
  O  O14  1  0.327574  0.672426  0.902887  1
  O  O15  1  0.002088  0.997912  0.686485  1
  O  O16  1  0.002548  0.997452  0.199607  1
  O  O17  1  0.657074  0.827709  0.406092  1
  O  O18  1  0.049318  0.529948  0.648574  1
  O  O19  1  0.470052  0.950682  0.648574  1
  O  O20  1  0.834553  0.165447  0.906328  1
  O  O21  1  0.175803  0.824197  0.401161  1
  O  O22  1  0.519079  0.050445  0.149494  1
  O  O23  1  0.949555  0.480921  0.149494  1
  O  O24  1  0.660774  0.339226  0.400793  1
  O  O25  1  0.335955  0.165340  0.900686  1
  O  O26  1  0.522928  0.477072  0.152365  1
  O  O27  1  0.834660  0.664045  0.900686  1
