# generated using pymatgen
data_Li3Cr2Fe5O12
_symmetry_space_group_name_H-M   'P 1'
_cell_length_a   5.19021712
_cell_length_b   5.19021712
_cell_length_c   10.03698677
_cell_angle_alpha   84.51652191
_cell_angle_beta   95.48347809
_cell_angle_gamma   59.02673098
_symmetry_Int_Tables_number   1
_chemical_formula_structural   Li3Cr2Fe5O12
_chemical_formula_sum   'Li3 Cr2 Fe5 O12'
_cell_volume   227.42242689
_cell_formula_units_Z   1
loop_
 _symmetry_equiv_pos_site_id
 _symmetry_equiv_pos_as_xyz
  1  'x, y, z'
loop_
 _atom_site_type_symbol
 _atom_site_label
 _atom_site_symmetry_multiplicity
 _atom_site_fract_x
 _atom_site_fract_y
 _atom_site_fract_z
 _atom_site_occupancy
  Li  Li0  1  0.166116  0.672381  0.241220  1
  Li  Li1  1  0.672381  0.166116  0.758780  1
  Li  Li2  1  0.088427  0.088427  0.000000  1
  Cr  Cr3  1  0.753831  0.753831  0.000000  1
  Cr  Cr4  1  0.248662  0.248662  0.500000  1
  Fe  Fe5  1  0.919154  0.919154  0.500000  1
  Fe  Fe6  1  0.481752  0.001706  0.244254  1
  Fe  Fe7  1  0.001706  0.481752  0.755746  1
  Fe  Fe8  1  0.581209  0.581209  0.500000  1
  Fe  Fe9  1  0.426845  0.426845  0.000000  1
  O  O10  1  0.638261  0.870083  0.612668  1
  O  O11  1  0.223194  0.948875  0.389024  1
  O  O12  1  0.460133  0.715138  0.102582  1
  O  O13  1  0.870083  0.638261  0.387332  1
  O  O14  1  0.715138  0.460133  0.897418  1
  O  O15  1  0.010221  0.770192  0.885694  1
  O  O16  1  0.948875  0.223194  0.610976  1
  O  O17  1  0.284139  0.531678  0.610745  1
  O  O18  1  0.148488  0.394008  0.112760  1
  O  O19  1  0.770192  0.010221  0.114306  1
  O  O20  1  0.531678  0.284139  0.389255  1
  O  O21  1  0.394008  0.148488  0.887240  1
