# generated using pymatgen
data_Li4Cr3Cu3(TeO8)2
_symmetry_space_group_name_H-M   'P 1'
_cell_length_a   5.97263157
_cell_length_b   5.97263157
_cell_length_c   9.76651354
_cell_angle_alpha   87.20187311
_cell_angle_beta   92.79812689
_cell_angle_gamma   121.03167192
_symmetry_Int_Tables_number   1
_chemical_formula_structural   Li4Cr3Cu3(TeO8)2
_chemical_formula_sum   'Li4 Cr3 Cu3 Te2 O16'
_cell_volume   298.06313799
_cell_formula_units_Z   1
loop_
 _symmetry_equiv_pos_site_id
 _symmetry_equiv_pos_as_xyz
  1  'x, y, z'
loop_
 _atom_site_type_symbol
 _atom_site_label
 _atom_site_symmetry_multiplicity
 _atom_site_fract_x
 _atom_site_fract_y
 _atom_site_fract_z
 _atom_site_occupancy
  Li  Li0  1  0.664081  0.335919  0.085946  1
  Li  Li1  1  0.998005  0.001995  0.012773  1
  Li  Li2  1  0.004055  0.995945  0.520114  1
  Li  Li3  1  0.342002  0.657998  0.586135  1
  Cr  Cr4  1  0.827445  0.172555  0.785635  1
  Cr  Cr5  1  0.659451  0.832427  0.287335  1
  Cr  Cr6  1  0.167573  0.340549  0.287335  1
  Cu  Cu7  1  0.828218  0.663043  0.790378  1
  Cu  Cu8  1  0.336957  0.171782  0.790378  1
  Cu  Cu9  1  0.168224  0.831776  0.288835  1
  Te  Te10  1  0.671592  0.328408  0.515489  1
  Te  Te11  1  0.326257  0.673743  0.017185  1
  O  O12  1  0.829495  0.662747  0.411919  1
  O  O13  1  0.528989  0.471011  0.645722  1
  O  O14  1  0.666641  0.333359  0.880433  1
  O  O15  1  0.998175  0.001825  0.708334  1
  O  O16  1  0.997755  0.002245  0.199910  1
  O  O17  1  0.337253  0.170505  0.411919  1
  O  O18  1  0.977812  0.461771  0.639505  1
  O  O19  1  0.538229  0.022188  0.639505  1
  O  O20  1  0.159464  0.840536  0.914751  1
  O  O21  1  0.830532  0.169468  0.400903  1
  O  O22  1  0.488958  0.965951  0.148804  1
  O  O23  1  0.034049  0.511042  0.148804  1
  O  O24  1  0.335058  0.664942  0.385842  1
  O  O25  1  0.646444  0.839744  0.915048  1
  O  O26  1  0.478751  0.521249  0.158079  1
  O  O27  1  0.160256  0.353556  0.915048  1
