# generated using pymatgen
data_Na(CuO)2
_symmetry_space_group_name_H-M   'P 1'
_cell_length_a   6.08409287
_cell_length_b   6.08409287
_cell_length_c   13.10415806
_cell_angle_alpha   90.00000000
_cell_angle_beta   90.00000000
_cell_angle_gamma   90.00000000
_symmetry_Int_Tables_number   1
_chemical_formula_structural   Na(CuO)2
_chemical_formula_sum   'Na8 Cu16 O16'
_cell_volume   485.06595279
_cell_formula_units_Z   8
loop_
 _symmetry_equiv_pos_site_id
 _symmetry_equiv_pos_as_xyz
  1  'x, y, z'
loop_
 _atom_site_type_symbol
 _atom_site_label
 _atom_site_symmetry_multiplicity
 _atom_site_fract_x
 _atom_site_fract_y
 _atom_site_fract_z
 _atom_site_occupancy
  Na  Na0  1  0.260212  0.000000  0.078843  1
  Na  Na1  1  0.500000  0.760212  0.578843  1
  Na  Na2  1  0.500000  0.239788  0.578843  1
  Na  Na3  1  0.739788  0.000000  0.078843  1
  Na  Na4  1  0.760212  0.500000  0.421157  1
  Na  Na5  1  0.000000  0.739788  0.921157  1
  Na  Na6  1  0.000000  0.260212  0.921157  1
  Na  Na7  1  0.239788  0.500000  0.421157  1
  Cu  Cu8  1  0.252044  0.500000  0.108735  1
  Cu  Cu9  1  0.251920  0.500000  0.744955  1
  Cu  Cu10  1  0.500000  0.252044  0.891265  1
  Cu  Cu11  1  0.500000  0.251920  0.255045  1
  Cu  Cu12  1  0.500000  0.748080  0.255045  1
  Cu  Cu13  1  0.500000  0.747956  0.891265  1
  Cu  Cu14  1  0.748080  0.500000  0.744955  1
  Cu  Cu15  1  0.747956  0.500000  0.108735  1
  Cu  Cu16  1  0.752044  0.000000  0.391265  1
  Cu  Cu17  1  0.751920  0.000000  0.755045  1
  Cu  Cu18  1  0.000000  0.751920  0.244955  1
  Cu  Cu19  1  0.000000  0.248080  0.244955  1
  Cu  Cu20  1  0.000000  0.752044  0.608735  1
  Cu  Cu21  1  0.000000  0.247956  0.608735  1
  Cu  Cu22  1  0.248080  0.000000  0.755045  1
  Cu  Cu23  1  0.247956  0.000000  0.391265  1
  O  O24  1  0.281659  0.000000  0.896164  1
  O  O25  1  0.284004  0.500000  0.885394  1
  O  O26  1  0.500000  0.284004  0.114606  1
  O  O27  1  0.500000  0.781659  0.396164  1
  O  O28  1  0.500000  0.218341  0.396164  1
  O  O29  1  0.500000  0.715996  0.114606  1
  O  O30  1  0.715996  0.500000  0.885394  1
  O  O31  1  0.718341  0.000000  0.896164  1
  O  O32  1  0.781659  0.500000  0.603836  1
  O  O33  1  0.784004  0.000000  0.614606  1
  O  O34  1  0.000000  0.718341  0.103836  1
  O  O35  1  0.000000  0.281659  0.103836  1
  O  O36  1  0.000000  0.784004  0.385394  1
  O  O37  1  0.000000  0.215996  0.385394  1
  O  O38  1  0.215996  0.000000  0.614606  1
  O  O39  1  0.218341  0.500000  0.603836  1
