# generated using pymatgen
data_Li5FeO3F2
_symmetry_space_group_name_H-M   'P 1'
_cell_length_a   5.34125684
_cell_length_b   5.34125684
_cell_length_c   6.04861763
_cell_angle_alpha   70.65149404
_cell_angle_beta   109.34850596
_cell_angle_gamma   137.38178781
_symmetry_Int_Tables_number   1
_chemical_formula_structural   Li5FeO3F2
_chemical_formula_sum   'Li5 Fe1 O3 F2'
_cell_volume   109.20465188
_cell_formula_units_Z   1
loop_
 _symmetry_equiv_pos_site_id
 _symmetry_equiv_pos_as_xyz
  1  'x, y, z'
loop_
 _atom_site_type_symbol
 _atom_site_label
 _atom_site_symmetry_multiplicity
 _atom_site_fract_x
 _atom_site_fract_y
 _atom_site_fract_z
 _atom_site_occupancy
  Li  Li0  1  0.316092  0.683908  0.135696  1
  Li  Li1  1  0.315667  0.684333  0.650532  1
  Li  Li2  1  0.710721  0.289279  0.311085  1
  Li  Li3  1  0.684788  0.315212  0.868270  1
  Li  Li4  1  0.019680  0.980320  0.471676  1
  Fe  Fe5  1  0.003839  0.996161  0.023428  1
  O  O6  1  0.858284  0.141716  0.165558  1
  O  O7  1  0.506101  0.493899  0.942728  1
  O  O8  1  0.167005  0.832995  0.314526  1
  F  F9  1  0.836938  0.163062  0.653533  1
  F  F10  1  0.163357  0.836643  0.793564  1
