# generated using pymatgen
data_Ti3CoCu2(PO4)6
_symmetry_space_group_name_H-M   'P 1'
_cell_length_a   8.53979017
_cell_length_b   8.53979017
_cell_length_c   8.53979017
_cell_angle_alpha   60.24929318
_cell_angle_beta   60.24929318
_cell_angle_gamma   60.24929318
_symmetry_Int_Tables_number   1
_chemical_formula_structural   Ti3CoCu2(PO4)6
_chemical_formula_sum   'Ti3 Co1 Cu2 P6 O24'
_cell_volume   442.86412539
_cell_formula_units_Z   1
loop_
 _symmetry_equiv_pos_site_id
 _symmetry_equiv_pos_as_xyz
  1  'x, y, z'
loop_
 _atom_site_type_symbol
 _atom_site_label
 _atom_site_symmetry_multiplicity
 _atom_site_fract_x
 _atom_site_fract_y
 _atom_site_fract_z
 _atom_site_occupancy
  Ti  Ti0  1  0.858900  0.858900  0.858900  1
  Ti  Ti1  1  0.642637  0.642637  0.642637  1
  Ti  Ti2  1  0.356889  0.356889  0.356889  1
  Co  Co3  1  0.140878  0.140878  0.140878  1
  Cu  Cu4  1  0.002080  0.002080  0.002080  1
  Cu  Cu5  1  0.500458  0.500458  0.500458  1
  P  P6  1  0.754358  0.455848  0.043816  1
  P  P7  1  0.455848  0.043816  0.754358  1
  P  P8  1  0.043816  0.754358  0.455848  1
  P  P9  1  0.960534  0.247727  0.534863  1
  P  P10  1  0.534863  0.960534  0.247727  1
  P  P11  1  0.247727  0.534863  0.960534  1
  O  O12  1  0.881463  0.689958  0.501076  1
  O  O13  1  0.689958  0.501076  0.881463  1
  O  O14  1  0.944935  0.085760  0.733569  1
  O  O15  1  0.501076  0.881463  0.689958  1
  O  O16  1  0.992554  0.190159  0.377429  1
  O  O17  1  0.765382  0.413463  0.560966  1
  O  O18  1  0.733569  0.944935  0.085760  1
  O  O19  1  0.560966  0.765382  0.413463  1
  O  O20  1  0.811952  0.621742  0.999200  1
  O  O21  1  0.413463  0.560966  0.765382  1
  O  O22  1  0.919937  0.262138  0.055739  1
  O  O23  1  0.621742  0.999200  0.811952  1
  O  O24  1  0.377429  0.992554  0.190159  1
  O  O25  1  0.085760  0.733569  0.944935  1
  O  O26  1  0.586600  0.443113  0.235820  1
  O  O27  1  0.190159  0.377429  0.992554  1
  O  O28  1  0.443113  0.235820  0.586600  1
  O  O29  1  0.262138  0.055739  0.919937  1
  O  O30  1  0.235820  0.586600  0.443113  1
  O  O31  1  0.999200  0.811952  0.621742  1
  O  O32  1  0.495575  0.122227  0.310249  1
  O  O33  1  0.055739  0.919937  0.262138  1
  O  O34  1  0.310249  0.495575  0.122227  1
  O  O35  1  0.122227  0.310249  0.495575  1
