# generated using pymatgen
data_Li9(FeO4)2
_symmetry_space_group_name_H-M   'P 1'
_cell_length_a   6.47797505
_cell_length_b   6.47797505
_cell_length_c   4.69459545
_cell_angle_alpha   89.71485630
_cell_angle_beta   90.28514370
_cell_angle_gamma   90.36005162
_symmetry_Int_Tables_number   1
_chemical_formula_structural   Li9(FeO4)2
_chemical_formula_sum   'Li9 Fe2 O8'
_cell_volume   196.99601939
_cell_formula_units_Z   1
loop_
 _symmetry_equiv_pos_site_id
 _symmetry_equiv_pos_as_xyz
  1  'x, y, z'
loop_
 _atom_site_type_symbol
 _atom_site_label
 _atom_site_symmetry_multiplicity
 _atom_site_fract_x
 _atom_site_fract_y
 _atom_site_fract_z
 _atom_site_occupancy
  Li  Li0  1  0.950580  0.950580  0.500000  1
  Li  Li1  1  0.751608  0.248246  0.561890  1
  Li  Li2  1  0.732881  0.272759  0.072855  1
  Li  Li3  1  0.534383  0.534383  0.500000  1
  Li  Li4  1  0.464030  0.044412  0.004107  1
  Li  Li5  1  0.272760  0.732881  0.927145  1
  Li  Li6  1  0.248246  0.751608  0.438110  1
  Li  Li7  1  0.044412  0.464030  0.995893  1
  Li  Li8  1  0.031635  0.031635  0.000000  1
  Fe  Fe9  1  0.746713  0.746713  0.000000  1
  Fe  Fe10  1  0.249396  0.249396  0.500000  1
  O  O11  1  0.993182  0.229759  0.288291  1
  O  O12  1  0.758180  0.501155  0.810668  1
  O  O13  1  0.753655  0.010295  0.827993  1
  O  O14  1  0.505292  0.256084  0.313430  1
  O  O15  1  0.501155  0.758180  0.189332  1
  O  O16  1  0.256084  0.505292  0.686570  1
  O  O17  1  0.229759  0.993182  0.711709  1
  O  O18  1  0.010295  0.753655  0.172007  1
