# generated using pymatgen
data_V4P9O32
_symmetry_space_group_name_H-M   'P 1'
_cell_length_a   13.86168076
_cell_length_b   13.86168076
_cell_length_c   6.34712786
_cell_angle_alpha   90.00000000
_cell_angle_beta   90.00000000
_cell_angle_gamma   90.00000000
_symmetry_Int_Tables_number   1
_chemical_formula_structural   V4P9O32
_chemical_formula_sum   'V8 P18 O64'
_cell_volume   1219.57645791
_cell_formula_units_Z   2
loop_
 _symmetry_equiv_pos_site_id
 _symmetry_equiv_pos_as_xyz
  1  'x, y, z'
loop_
 _atom_site_type_symbol
 _atom_site_label
 _atom_site_symmetry_multiplicity
 _atom_site_fract_x
 _atom_site_fract_y
 _atom_site_fract_z
 _atom_site_occupancy
  V  V0  1  0.115477  0.803094  0.622638  1
  V  V1  1  0.803094  0.884523  0.377362  1
  V  V2  1  0.384523  0.303094  0.877362  1
  V  V3  1  0.884523  0.196906  0.622638  1
  V  V4  1  0.303094  0.615477  0.122638  1
  V  V5  1  0.615477  0.696906  0.877362  1
  V  V6  1  0.696906  0.384523  0.122638  1
  V  V7  1  0.196906  0.115477  0.377362  1
  P  P8  1  0.305743  0.938209  0.613963  1
  P  P9  1  0.561791  0.194257  0.113963  1
  P  P10  1  0.749025  0.394235  0.633514  1
  P  P11  1  0.394235  0.250975  0.366486  1
  P  P12  1  0.694257  0.061791  0.613963  1
  P  P13  1  0.938209  0.694257  0.386037  1
  P  P14  1  0.605765  0.749025  0.366486  1
  P  P15  1  0.500000  0.500000  0.000000  1
  P  P16  1  0.250975  0.605765  0.633514  1
  P  P17  1  0.194257  0.438209  0.886037  1
  P  P18  1  0.249025  0.105765  0.866486  1
  P  P19  1  0.105765  0.750975  0.133514  1
  P  P20  1  0.894235  0.249025  0.133514  1
  P  P21  1  0.438209  0.805743  0.113963  1
  P  P22  1  0.750975  0.894235  0.866486  1
  P  P23  1  0.000000  0.000000  0.500000  1
  P  P24  1  0.061791  0.305743  0.386037  1
  P  P25  1  0.805743  0.561791  0.886037  1
  O  O26  1  0.155642  0.244902  0.356809  1
  O  O27  1  0.329233  0.161435  0.377592  1
  O  O28  1  0.409102  0.926725  0.580029  1
  O  O29  1  0.502739  0.251157  0.937861  1
  O  O30  1  0.365210  0.317171  0.182649  1
  O  O31  1  0.926725  0.590898  0.419971  1
  O  O32  1  0.195845  0.104279  0.077895  1
  O  O33  1  0.932594  0.936374  0.362380  1
  O  O34  1  0.829233  0.338565  0.122408  1
  O  O35  1  0.804155  0.895721  0.077895  1
  O  O36  1  0.817171  0.865210  0.682649  1
  O  O37  1  0.502515  0.219585  0.328589  1
  O  O38  1  0.563626  0.567406  0.862380  1
  O  O39  1  0.432594  0.563626  0.137620  1
  O  O40  1  0.002739  0.248843  0.562139  1
  O  O41  1  0.634790  0.682829  0.182649  1
  O  O42  1  0.104279  0.804155  0.922105  1
  O  O43  1  0.661435  0.829233  0.877592  1
  O  O44  1  0.670767  0.838565  0.377592  1
  O  O45  1  0.936374  0.067406  0.637620  1
  O  O46  1  0.567406  0.436374  0.137620  1
  O  O47  1  0.497261  0.748843  0.937861  1
  O  O48  1  0.748843  0.502739  0.062139  1
  O  O49  1  0.682829  0.365210  0.817351  1
  O  O50  1  0.844358  0.755098  0.356809  1
  O  O51  1  0.719585  0.002515  0.828589  1
  O  O52  1  0.219585  0.497485  0.671411  1
  O  O53  1  0.134790  0.817171  0.317351  1
  O  O54  1  0.865210  0.182829  0.317351  1
  O  O55  1  0.304155  0.604279  0.422105  1
  O  O56  1  0.170767  0.661435  0.122408  1
  O  O57  1  0.695845  0.395721  0.422105  1
  O  O58  1  0.073275  0.409102  0.419971  1
  O  O59  1  0.838565  0.329233  0.622408  1
  O  O60  1  0.573275  0.090898  0.080029  1
  O  O61  1  0.755098  0.155642  0.643191  1
  O  O62  1  0.255098  0.344358  0.856809  1
  O  O63  1  0.426725  0.909102  0.080029  1
  O  O64  1  0.780415  0.502515  0.671411  1
  O  O65  1  0.909102  0.573275  0.919971  1
  O  O66  1  0.604279  0.695845  0.577895  1
  O  O67  1  0.590898  0.073275  0.580029  1
  O  O68  1  0.436374  0.432594  0.862380  1
  O  O69  1  0.344358  0.744902  0.143191  1
  O  O70  1  0.251157  0.497261  0.062139  1
  O  O71  1  0.067406  0.063626  0.362380  1
  O  O72  1  0.090898  0.426725  0.919971  1
  O  O73  1  0.655642  0.255098  0.143191  1
  O  O74  1  0.997261  0.751157  0.562139  1
  O  O75  1  0.063626  0.932594  0.637620  1
  O  O76  1  0.002515  0.280415  0.171411  1
  O  O77  1  0.997485  0.719585  0.171411  1
  O  O78  1  0.744902  0.655642  0.856809  1
  O  O79  1  0.244902  0.844358  0.643191  1
  O  O80  1  0.497485  0.780415  0.328589  1
  O  O81  1  0.280415  0.997485  0.828589  1
  O  O82  1  0.338565  0.170767  0.877592  1
  O  O83  1  0.895721  0.195845  0.922105  1
  O  O84  1  0.751157  0.002739  0.437861  1
  O  O85  1  0.182829  0.134790  0.682649  1
  O  O86  1  0.248843  0.997261  0.437861  1
  O  O87  1  0.161435  0.670767  0.622408  1
  O  O88  1  0.317171  0.634790  0.817351  1
  O  O89  1  0.395721  0.304155  0.577895  1
