# generated using pymatgen
data_Li2FeO2F
_symmetry_space_group_name_H-M   'P 1'
_cell_length_a   5.16956102
_cell_length_b   5.19022365
_cell_length_c   9.89205595
_cell_angle_alpha   100.18817705
_cell_angle_beta   85.59076130
_cell_angle_gamma   119.31631209
_symmetry_Int_Tables_number   1
_chemical_formula_structural   Li2FeO2F
_chemical_formula_sum   'Li8 Fe4 O8 F4'
_cell_volume   227.76003332
_cell_formula_units_Z   4
loop_
 _symmetry_equiv_pos_site_id
 _symmetry_equiv_pos_as_xyz
  1  'x, y, z'
loop_
 _atom_site_type_symbol
 _atom_site_label
 _atom_site_symmetry_multiplicity
 _atom_site_fract_x
 _atom_site_fract_y
 _atom_site_fract_z
 _atom_site_occupancy
  Li  Li0  1  0.800870  0.117616  0.997848  1
  Li  Li1  1  0.161267  0.307249  0.504347  1
  Li  Li2  1  0.494348  0.494747  0.006408  1
  Li  Li3  1  0.524151  0.760837  0.745638  1
  Li  Li4  1  0.486900  0.223527  0.249613  1
  Li  Li5  1  0.522508  0.032834  0.498752  1
  Li  Li6  1  0.828480  0.657305  0.493543  1
  Li  Li7  1  0.190572  0.868690  0.995501  1
  Fe  Fe8  1  0.788231  0.395730  0.752989  1
  Fe  Fe9  1  0.159121  0.079011  0.749741  1
  Fe  Fe10  1  0.170208  0.590710  0.249598  1
  Fe  Fe11  1  0.859012  0.965716  0.249701  1
  O  O12  1  0.854491  0.075212  0.639265  1
  O  O13  1  0.158909  0.222716  0.133340  1
  O  O14  1  0.492226  0.132566  0.869246  1
  O  O15  1  0.853150  0.304002  0.366887  1
  O  O16  1  0.486177  0.357798  0.633059  1
  O  O17  1  0.503394  0.853299  0.137642  1
  O  O18  1  0.860812  0.786548  0.861515  1
  O  O19  1  0.139023  0.929854  0.361551  1
  F  F20  1  0.165062  0.456342  0.875360  1
  F  F21  1  0.498398  0.632860  0.379570  1
  F  F22  1  0.166308  0.712242  0.624752  1
  F  F23  1  0.836383  0.542592  0.124137  1
