# generated using pymatgen
data_Nb5OF14
_symmetry_space_group_name_H-M   'P 1'
_cell_length_a   5.87483003
_cell_length_b   7.20800709
_cell_length_c   9.33389205
_cell_angle_alpha   105.48089253
_cell_angle_beta   108.15543592
_cell_angle_gamma   89.41172009
_symmetry_Int_Tables_number   1
_chemical_formula_structural   Nb5OF14
_chemical_formula_sum   'Nb5 O1 F14'
_cell_volume   360.79876630
_cell_formula_units_Z   1
loop_
 _symmetry_equiv_pos_site_id
 _symmetry_equiv_pos_as_xyz
  1  'x, y, z'
loop_
 _atom_site_type_symbol
 _atom_site_label
 _atom_site_symmetry_multiplicity
 _atom_site_fract_x
 _atom_site_fract_y
 _atom_site_fract_z
 _atom_site_occupancy
  Nb  Nb0  1  0.403469  0.096205  0.298631  1
  Nb  Nb1  1  0.596531  0.903795  0.701369  1
  Nb  Nb2  1  0.813324  0.683660  0.090864  1
  Nb  Nb3  1  0.000000  0.500000  0.500000  1
  Nb  Nb4  1  0.186676  0.316340  0.909136  1
  O  O5  1  0.000000  0.500000  0.000000  1
  F  F6  1  0.903714  0.100872  0.800993  1
  F  F7  1  0.300299  0.199042  0.099903  1
  F  F8  1  0.200502  0.299893  0.399578  1
  F  F9  1  0.395206  0.105360  0.802638  1
  F  F10  1  0.799498  0.700107  0.600422  1
  F  F11  1  0.500000  0.000000  0.500000  1
  F  F12  1  0.096286  0.899128  0.199007  1
  F  F13  1  0.702470  0.300576  0.400611  1
  F  F14  1  0.297530  0.699424  0.599389  1
  F  F15  1  0.604794  0.894640  0.197362  1
  F  F16  1  0.699701  0.800958  0.900097  1
  F  F17  1  0.101538  0.398584  0.701202  1
  F  F18  1  0.898462  0.601416  0.298798  1
  F  F19  1  0.500000  0.500000  0.000000  1
