# generated using pymatgen
data_Li10Mn3Cr3(CoO8)2
_symmetry_space_group_name_H-M   'P 1'
_cell_length_a   5.93633970
_cell_length_b   6.01945507
_cell_length_c   9.87193628
_cell_angle_alpha   91.11073198
_cell_angle_beta   90.75953025
_cell_angle_gamma   118.94454347
_symmetry_Int_Tables_number   1
_chemical_formula_structural   Li10Mn3Cr3(CoO8)2
_chemical_formula_sum   'Li10 Mn3 Cr3 Co2 O16'
_cell_volume   308.53414661
_cell_formula_units_Z   1
loop_
 _symmetry_equiv_pos_site_id
 _symmetry_equiv_pos_as_xyz
  1  'x, y, z'
loop_
 _atom_site_type_symbol
 _atom_site_label
 _atom_site_symmetry_multiplicity
 _atom_site_fract_x
 _atom_site_fract_y
 _atom_site_fract_z
 _atom_site_occupancy
  Li  Li0  1  0.016847  0.993321  0.482560  1
  Li  Li1  1  0.202608  0.397759  0.062834  1
  Li  Li2  1  0.688916  0.341736  0.782184  1
  Li  Li3  1  0.817026  0.186748  0.563538  1
  Li  Li4  1  0.402184  0.184882  0.565761  1
  Li  Li5  1  0.356242  0.676154  0.282961  1
  Li  Li6  1  0.016625  0.013665  0.982705  1
  Li  Li7  1  0.210814  0.809142  0.055625  1
  Li  Li8  1  0.800061  0.597715  0.554268  1
  Li  Li9  1  0.616956  0.789848  0.058284  1
  Mn  Mn10  1  0.848341  0.171535  0.285549  1
  Mn  Mn11  1  0.678755  0.833472  0.783869  1
  Mn  Mn12  1  0.846667  0.662223  0.284908  1
  Cr  Cr13  1  0.185424  0.340319  0.786395  1
  Cr  Cr14  1  0.352084  0.168038  0.285494  1
  Cr  Cr15  1  0.183653  0.834327  0.785262  1
  Co  Co16  1  0.342281  0.655321  0.529168  1
  Co  Co17  1  0.678846  0.330422  0.028467  1
  O  O18  1  0.340855  0.165294  0.903770  1
  O  O19  1  0.166482  0.314914  0.402076  1
  O  O20  1  0.029758  0.509538  0.666478  1
  O  O21  1  0.529362  0.016850  0.169218  1
  O  O22  1  0.853426  0.167586  0.895383  1
  O  O23  1  0.329748  0.660472  0.907488  1
  O  O24  1  0.506475  0.505562  0.672824  1
  O  O25  1  0.180080  0.839205  0.393801  1
  O  O26  1  0.521030  0.489781  0.172428  1
  O  O27  1  0.673194  0.301659  0.408073  1
  O  O28  1  0.505552  0.974169  0.670645  1
  O  O29  1  0.997987  0.515392  0.161253  1
  O  O30  1  0.853902  0.693202  0.897894  1
  O  O31  1  0.686322  0.799379  0.411215  1
  O  O32  1  0.041441  0.016298  0.668855  1
  O  O33  1  0.021817  0.031305  0.169645  1
