# generated using pymatgen
data_Sm3NbO7
_symmetry_space_group_name_H-M   'P 1'
_cell_length_a   6.51782637
_cell_length_b   6.63079900
_cell_length_c   7.75339594
_cell_angle_alpha   106.75070073
_cell_angle_beta   89.71379214
_cell_angle_gamma   97.10291415
_symmetry_Int_Tables_number   1
_chemical_formula_structural   Sm3NbO7
_chemical_formula_sum   'Sm6 Nb2 O14'
_cell_volume   318.24269972
_cell_formula_units_Z   2
loop_
 _symmetry_equiv_pos_site_id
 _symmetry_equiv_pos_as_xyz
  1  'x, y, z'
loop_
 _atom_site_type_symbol
 _atom_site_label
 _atom_site_symmetry_multiplicity
 _atom_site_fract_x
 _atom_site_fract_y
 _atom_site_fract_z
 _atom_site_occupancy
  Sm  Sm0  1  0.739820  0.463293  0.115664  1
  Sm  Sm1  1  0.737061  0.455654  0.608099  1
  Sm  Sm2  1  0.548267  0.991981  0.750004  1
  Sm  Sm3  1  0.451733  0.008019  0.249996  1
  Sm  Sm4  1  0.262939  0.544346  0.391901  1
  Sm  Sm5  1  0.260180  0.536707  0.884336  1
  Nb  Nb6  1  0.000000  0.000000  0.000000  1
  Nb  Nb7  1  0.000000  0.000000  0.500000  1
  O  O8  1  0.711048  0.068203  0.484521  1
  O  O9  1  0.925508  0.684555  0.954373  1
  O  O10  1  0.710212  0.069377  0.048461  1
  O  O11  1  0.928074  0.675310  0.391520  1
  O  O12  1  0.915835  0.950417  0.736777  1
  O  O13  1  0.560044  0.350522  0.834707  1
  O  O14  1  0.546526  0.363426  0.341932  1
  O  O15  1  0.453474  0.636574  0.658068  1
  O  O16  1  0.439956  0.649478  0.165293  1
  O  O17  1  0.084165  0.049583  0.263223  1
  O  O18  1  0.071926  0.324690  0.608480  1
  O  O19  1  0.289788  0.930623  0.951539  1
  O  O20  1  0.074492  0.315445  0.045627  1
  O  O21  1  0.288952  0.931797  0.515479  1
