# generated using pymatgen
data_Na3Mn8O16
_symmetry_space_group_name_H-M   'P 1'
_cell_length_a   6.16774207
_cell_length_b   8.43208693
_cell_length_c   12.37360863
_cell_angle_alpha   90.00000000
_cell_angle_beta   90.00000000
_cell_angle_gamma   90.00000000
_symmetry_Int_Tables_number   1
_chemical_formula_structural   Na3Mn8O16
_chemical_formula_sum   'Na6 Mn16 O32'
_cell_volume   643.51348890
_cell_formula_units_Z   2
loop_
 _symmetry_equiv_pos_site_id
 _symmetry_equiv_pos_as_xyz
  1  'x, y, z'
loop_
 _atom_site_type_symbol
 _atom_site_label
 _atom_site_symmetry_multiplicity
 _atom_site_fract_x
 _atom_site_fract_y
 _atom_site_fract_z
 _atom_site_occupancy
  Na  Na0  1  0.000000  0.121484  0.500000  1
  Na  Na1  1  0.000000  0.373200  0.750855  1
  Na  Na2  1  0.000000  0.373200  0.249145  1
  Na  Na3  1  0.500000  0.626800  0.749145  1
  Na  Na4  1  0.500000  0.626800  0.250855  1
  Na  Na5  1  0.500000  0.878516  0.000000  1
  Mn  Mn6  1  0.250000  0.000000  0.250000  1
  Mn  Mn7  1  0.250000  0.000000  0.750000  1
  Mn  Mn8  1  0.750000  0.000000  0.750000  1
  Mn  Mn9  1  0.750000  0.000000  0.250000  1
  Mn  Mn10  1  0.500000  0.247923  0.876837  1
  Mn  Mn11  1  0.500000  0.247923  0.123163  1
  Mn  Mn12  1  0.500000  0.247710  0.624458  1
  Mn  Mn13  1  0.500000  0.247710  0.375542  1
  Mn  Mn14  1  0.748509  0.502534  0.500000  1
  Mn  Mn15  1  0.251491  0.502534  0.500000  1
  Mn  Mn16  1  0.248509  0.497466  0.000000  1
  Mn  Mn17  1  0.751491  0.497466  0.000000  1
  Mn  Mn18  1  0.000000  0.752290  0.875542  1
  Mn  Mn19  1  0.000000  0.752077  0.623163  1
  Mn  Mn20  1  0.000000  0.752290  0.124458  1
  Mn  Mn21  1  0.000000  0.752077  0.376837  1
  O  O22  1  0.500000  0.016793  0.644155  1
  O  O23  1  0.500000  0.014106  0.852607  1
  O  O24  1  0.500000  0.016793  0.355845  1
  O  O25  1  0.500000  0.014106  0.147393  1
  O  O26  1  0.290445  0.228934  0.752907  1
  O  O27  1  0.709555  0.228934  0.752907  1
  O  O28  1  0.290445  0.228934  0.247093  1
  O  O29  1  0.709555  0.228934  0.247093  1
  O  O30  1  0.711420  0.263252  0.000000  1
  O  O31  1  0.288580  0.263252  0.000000  1
  O  O32  1  0.716433  0.272775  0.500000  1
  O  O33  1  0.283567  0.272775  0.500000  1
  O  O34  1  0.500000  0.476003  0.106323  1
  O  O35  1  0.500000  0.478659  0.606858  1
  O  O36  1  0.500000  0.476003  0.893677  1
  O  O37  1  0.500000  0.478659  0.393142  1
  O  O38  1  0.000000  0.521341  0.893142  1
  O  O39  1  0.000000  0.523997  0.606323  1
  O  O40  1  0.000000  0.521341  0.106858  1
  O  O41  1  0.000000  0.523997  0.393677  1
  O  O42  1  0.211420  0.736748  0.500000  1
  O  O43  1  0.788580  0.736748  0.500000  1
  O  O44  1  0.216433  0.727225  0.000000  1
  O  O45  1  0.783567  0.727225  0.000000  1
  O  O46  1  0.209555  0.771066  0.747093  1
  O  O47  1  0.790445  0.771066  0.747093  1
  O  O48  1  0.209555  0.771066  0.252907  1
  O  O49  1  0.790445  0.771066  0.252907  1
  O  O50  1  0.000000  0.983207  0.144155  1
  O  O51  1  0.000000  0.983207  0.855845  1
  O  O52  1  0.000000  0.985894  0.647393  1
  O  O53  1  0.000000  0.985894  0.352607  1
