# generated using pymatgen
data_MnCr2Fe3(PO4)6
_symmetry_space_group_name_H-M   'P 1'
_cell_length_a   8.42393051
_cell_length_b   8.42393051
_cell_length_c   8.42393051
_cell_angle_alpha   61.67823191
_cell_angle_beta   61.67823191
_cell_angle_gamma   61.67823191
_symmetry_Int_Tables_number   1
_chemical_formula_structural   MnCr2Fe3(PO4)6
_chemical_formula_sum   'Mn1 Cr2 Fe3 P6 O24'
_cell_volume   438.60100855
_cell_formula_units_Z   1
loop_
 _symmetry_equiv_pos_site_id
 _symmetry_equiv_pos_as_xyz
  1  'x, y, z'
loop_
 _atom_site_type_symbol
 _atom_site_label
 _atom_site_symmetry_multiplicity
 _atom_site_fract_x
 _atom_site_fract_y
 _atom_site_fract_z
 _atom_site_occupancy
  Mn  Mn0  1  0.145109  0.145109  0.145109  1
  Cr  Cr1  1  0.999512  0.999512  0.999512  1
  Cr  Cr2  1  0.500484  0.500484  0.500484  1
  Fe  Fe3  1  0.853680  0.853680  0.853680  1
  Fe  Fe4  1  0.646861  0.646861  0.646861  1
  Fe  Fe5  1  0.353439  0.353439  0.353439  1
  P  P6  1  0.750124  0.451770  0.049636  1
  P  P7  1  0.451770  0.049636  0.750124  1
  P  P8  1  0.049636  0.750124  0.451770  1
  P  P9  1  0.950735  0.250529  0.548071  1
  P  P10  1  0.548071  0.950735  0.250529  1
  P  P11  1  0.250529  0.548071  0.950735  1
  O  O12  1  0.895148  0.675905  0.495550  1
  O  O13  1  0.675905  0.495550  0.895148  1
  O  O14  1  0.937655  0.095494  0.751352  1
  O  O15  1  0.495550  0.895148  0.675905  1
  O  O16  1  0.988811  0.177764  0.395407  1
  O  O17  1  0.747046  0.405441  0.564865  1
  O  O18  1  0.751352  0.937655  0.095494  1
  O  O19  1  0.564865  0.747046  0.405441  1
  O  O20  1  0.824947  0.605577  0.005607  1
  O  O21  1  0.405441  0.564865  0.747046  1
  O  O22  1  0.904536  0.248734  0.061517  1
  O  O23  1  0.605577  0.005607  0.824947  1
  O  O24  1  0.395407  0.988811  0.177764  1
  O  O25  1  0.095494  0.751352  0.937655  1
  O  O26  1  0.595671  0.436986  0.252688  1
  O  O27  1  0.177764  0.395407  0.988811  1
  O  O28  1  0.436986  0.252688  0.595671  1
  O  O29  1  0.248734  0.061517  0.904536  1
  O  O30  1  0.252688  0.595671  0.436986  1
  O  O31  1  0.005607  0.824947  0.605577  1
  O  O32  1  0.502881  0.105273  0.325196  1
  O  O33  1  0.061517  0.904536  0.248734  1
  O  O34  1  0.325196  0.502881  0.105273  1
  O  O35  1  0.105273  0.325196  0.502881  1
