# generated using pymatgen
data_CrNi(PO4)2
_symmetry_space_group_name_H-M   'P 1'
_cell_length_a   8.38723977
_cell_length_b   8.38723977
_cell_length_c   8.38723977
_cell_angle_alpha   61.99453904
_cell_angle_beta   61.99453904
_cell_angle_gamma   61.99453904
_symmetry_Int_Tables_number   1
_chemical_formula_structural   CrNi(PO4)2
_chemical_formula_sum   'Cr3 Ni3 P6 O24'
_cell_volume   435.81114527
_cell_formula_units_Z   3
loop_
 _symmetry_equiv_pos_site_id
 _symmetry_equiv_pos_as_xyz
  1  'x, y, z'
loop_
 _atom_site_type_symbol
 _atom_site_label
 _atom_site_symmetry_multiplicity
 _atom_site_fract_x
 _atom_site_fract_y
 _atom_site_fract_z
 _atom_site_occupancy
  Cr  Cr0  1  0.998480  0.998480  0.998480  1
  Cr  Cr1  1  0.142301  0.142301  0.142301  1
  Cr  Cr2  1  0.499216  0.499216  0.499216  1
  Ni  Ni3  1  0.641721  0.641721  0.641721  1
  Ni  Ni4  1  0.856858  0.856858  0.856858  1
  Ni  Ni5  1  0.357898  0.357898  0.357898  1
  P  P6  1  0.953446  0.251214  0.546716  1
  P  P7  1  0.546716  0.953446  0.251214  1
  P  P8  1  0.251214  0.546716  0.953446  1
  P  P9  1  0.750308  0.452101  0.047973  1
  P  P10  1  0.452101  0.047973  0.750308  1
  P  P11  1  0.047973  0.750308  0.452101  1
  O  O12  1  0.507769  0.103270  0.329026  1
  O  O13  1  0.329026  0.507769  0.103270  1
  O  O14  1  0.103270  0.329026  0.507769  1
  O  O15  1  0.938266  0.097613  0.749537  1
  O  O16  1  0.003402  0.173693  0.388300  1
  O  O17  1  0.750453  0.400838  0.553521  1
  O  O18  1  0.749537  0.938266  0.097613  1
  O  O19  1  0.553521  0.750453  0.400838  1
  O  O20  1  0.829707  0.601662  0.007168  1
  O  O21  1  0.400838  0.553521  0.750453  1
  O  O22  1  0.907525  0.244583  0.067091  1
  O  O23  1  0.601662  0.007168  0.829707  1
  O  O24  1  0.388300  0.003402  0.173693  1
  O  O25  1  0.097613  0.749537  0.938266  1
  O  O26  1  0.599988  0.436077  0.252384  1
  O  O27  1  0.173693  0.388300  0.003402  1
  O  O28  1  0.436077  0.252384  0.599988  1
  O  O29  1  0.244583  0.067091  0.907525  1
  O  O30  1  0.252384  0.599988  0.436077  1
  O  O31  1  0.007168  0.829707  0.601662  1
  O  O32  1  0.067091  0.907525  0.244583  1
  O  O33  1  0.895083  0.680440  0.484361  1
  O  O34  1  0.680440  0.484361  0.895083  1
  O  O35  1  0.484361  0.895083  0.680440  1
