# generated using pymatgen
data_Li4CoO4
_symmetry_space_group_name_H-M   'P 1'
_cell_length_a   5.41280015
_cell_length_b   8.94758037
_cell_length_c   16.07593257
_cell_angle_alpha   90.00000000
_cell_angle_beta   90.00000000
_cell_angle_gamma   90.00000000
_symmetry_Int_Tables_number   1
_chemical_formula_structural   Li4CoO4
_chemical_formula_sum   'Li32 Co8 O32'
_cell_volume   778.58095546
_cell_formula_units_Z   8
loop_
 _symmetry_equiv_pos_site_id
 _symmetry_equiv_pos_as_xyz
  1  'x, y, z'
loop_
 _atom_site_type_symbol
 _atom_site_label
 _atom_site_symmetry_multiplicity
 _atom_site_fract_x
 _atom_site_fract_y
 _atom_site_fract_z
 _atom_site_occupancy
  Li  Li0  1  0.920107  0.947458  0.430154  1
  Li  Li1  1  0.579893  0.947458  0.930154  1
  Li  Li2  1  0.139430  0.898995  0.240298  1
  Li  Li3  1  0.360570  0.898995  0.740298  1
  Li  Li4  1  0.406888  0.833250  0.514427  1
  Li  Li5  1  0.093112  0.833250  0.014427  1
  Li  Li6  1  0.580734  0.828210  0.333678  1
  Li  Li7  1  0.919266  0.828210  0.833678  1
  Li  Li8  1  0.419266  0.671790  0.833678  1
  Li  Li9  1  0.080734  0.671790  0.333678  1
  Li  Li10  1  0.906888  0.666750  0.514427  1
  Li  Li11  1  0.593112  0.666750  0.014427  1
  Li  Li12  1  0.639430  0.601005  0.240298  1
  Li  Li13  1  0.860570  0.601005  0.740298  1
  Li  Li14  1  0.079893  0.552542  0.930154  1
  Li  Li15  1  0.420107  0.552542  0.430154  1
  Li  Li16  1  0.920107  0.447458  0.069846  1
  Li  Li17  1  0.579893  0.447458  0.569846  1
  Li  Li18  1  0.360570  0.398995  0.759702  1
  Li  Li19  1  0.139430  0.398995  0.259702  1
  Li  Li20  1  0.406888  0.333250  0.985573  1
  Li  Li21  1  0.093112  0.333250  0.485573  1
  Li  Li22  1  0.580734  0.328210  0.166322  1
  Li  Li23  1  0.919266  0.328210  0.666322  1
  Li  Li24  1  0.419266  0.171790  0.666322  1
  Li  Li25  1  0.080734  0.171790  0.166322  1
  Li  Li26  1  0.906888  0.166750  0.985573  1
  Li  Li27  1  0.593112  0.166750  0.485573  1
  Li  Li28  1  0.860570  0.101005  0.759702  1
  Li  Li29  1  0.639430  0.101005  0.259702  1
  Li  Li30  1  0.079893  0.052542  0.569846  1
  Li  Li31  1  0.420107  0.052542  0.069846  1
  Co  Co32  1  0.810316  0.943482  0.128132  1
  Co  Co33  1  0.689684  0.943482  0.628132  1
  Co  Co34  1  0.310316  0.556518  0.128132  1
  Co  Co35  1  0.189684  0.556518  0.628132  1
  Co  Co36  1  0.810316  0.443482  0.371868  1
  Co  Co37  1  0.689684  0.443482  0.871868  1
  Co  Co38  1  0.310316  0.056518  0.371868  1
  Co  Co39  1  0.189684  0.056518  0.871868  1
  O  O40  1  0.140619  0.957475  0.118090  1
  O  O41  1  0.359381  0.957475  0.618090  1
  O  O42  1  0.751420  0.872122  0.229720  1
  O  O43  1  0.748580  0.872122  0.729720  1
  O  O44  1  0.692321  0.868866  0.033339  1
  O  O45  1  0.807679  0.868866  0.533339  1
  O  O46  1  0.287002  0.859954  0.870040  1
  O  O47  1  0.212998  0.859954  0.370040  1
  O  O48  1  0.712998  0.640046  0.370040  1
  O  O49  1  0.787002  0.640046  0.870040  1
  O  O50  1  0.192321  0.631134  0.033339  1
  O  O51  1  0.307679  0.631134  0.533339  1
  O  O52  1  0.251420  0.627878  0.229720  1
  O  O53  1  0.248580  0.627878  0.729720  1
  O  O54  1  0.640619  0.542525  0.118090  1
  O  O55  1  0.859381  0.542525  0.618090  1
  O  O56  1  0.140619  0.457475  0.381910  1
  O  O57  1  0.359381  0.457475  0.881910  1
  O  O58  1  0.748580  0.372122  0.770280  1
  O  O59  1  0.751420  0.372122  0.270280  1
  O  O60  1  0.807679  0.368866  0.966661  1
  O  O61  1  0.692321  0.368866  0.466661  1
  O  O62  1  0.287002  0.359954  0.629960  1
  O  O63  1  0.212998  0.359954  0.129960  1
  O  O64  1  0.787002  0.140046  0.629960  1
  O  O65  1  0.712998  0.140046  0.129960  1
  O  O66  1  0.192321  0.131134  0.466661  1
  O  O67  1  0.307679  0.131134  0.966661  1
  O  O68  1  0.248580  0.127878  0.770280  1
  O  O69  1  0.251420  0.127878  0.270280  1
  O  O70  1  0.859381  0.042525  0.881910  1
  O  O71  1  0.640619  0.042525  0.381910  1
