# generated using pymatgen
data_B84O11
_symmetry_space_group_name_H-M   'P 1'
_cell_length_a   7.39569964
_cell_length_b   8.79982277
_cell_length_c   11.80692340
_cell_angle_alpha   95.81374858
_cell_angle_beta   91.22252966
_cell_angle_gamma   112.22429532
_symmetry_Int_Tables_number   1
_chemical_formula_structural   B84O11
_chemical_formula_sum   'B84 O11'
_cell_volume   706.17540822
_cell_formula_units_Z   1
loop_
 _symmetry_equiv_pos_site_id
 _symmetry_equiv_pos_as_xyz
  1  'x, y, z'
loop_
 _atom_site_type_symbol
 _atom_site_label
 _atom_site_symmetry_multiplicity
 _atom_site_fract_x
 _atom_site_fract_y
 _atom_site_fract_z
 _atom_site_occupancy
  B  B0  1  0.090904  0.852528  0.950894  1
  B  B1  1  0.225500  0.567672  0.989809  1
  B  B2  1  0.430451  0.728997  0.949292  1
  B  B3  1  0.848175  0.837288  0.898586  1
  B  B4  1  0.194155  0.716635  0.904541  1
  B  B5  1  0.436590  0.526228  0.950766  1
  B  B6  1  0.234698  0.068859  0.983847  1
  B  B7  1  0.543776  0.653677  0.837173  1
  B  B8  1  0.197175  0.381612  0.904053  1
  B  B9  1  0.472548  0.948645  0.756911  1
  B  B10  1  0.098623  0.194578  0.954852  1
  B  B11  1  0.386609  0.764856  0.808932  1
  B  B12  1  0.051817  0.501640  0.874693  1
  B  B13  1  0.390412  0.431452  0.808435  1
  B  B14  1  0.661474  0.995886  0.663117  1
  B  B15  1  0.855778  0.049177  0.903694  1
  B  B16  1  0.147985  0.621620  0.762420  1
  B  B17  1  0.505393  0.135734  0.844392  1
  B  B18  1  0.709396  0.296353  0.805378  1
  B  B19  1  0.791374  0.715512  0.714713  1
  B  B20  1  0.998580  0.871744  0.665850  1
  B  B21  1  0.061166  0.004184  0.867684  1
  B  B22  1  0.356253  0.579088  0.724130  1
  B  B23  1  0.150814  0.417403  0.763713  1
  B  B24  1  0.416841  0.977924  0.610424  1
  B  B25  1  0.475562  0.285447  0.758956  1
  B  B26  1  0.764365  0.859758  0.621301  1
  B  B27  1  0.007092  0.670366  0.669949  1
  B  B28  1  0.712055  0.092212  0.807147  1
  B  B29  1  0.806653  0.211369  0.694718  1
  B  B30  1  0.112877  0.796655  0.553752  1
  B  B31  1  0.767709  0.526168  0.623845  1
  B  B32  1  0.666073  0.333162  0.664764  1
  B  B33  1  0.957444  0.909144  0.524706  1
  B  B34  1  0.333059  0.071189  0.728226  1
  B  B35  1  0.625231  0.646452  0.592119  1
  B  B36  1  0.961916  0.575427  0.526306  1
  B  B37  1  0.425723  0.189571  0.615134  1
  B  B38  1  0.717718  0.764701  0.478671  1
  B  B39  1  0.080225  0.281900  0.558878  1
  B  B40  1  0.357261  0.856827  0.430670  1
  B  B41  1  0.283578  0.441541  0.518497  1
  B  B42  1  0.631984  0.145598  0.579210  1
  B  B43  1  0.925662  0.722181  0.441397  1
  B  B44  1  0.722939  0.561346  0.481687  1
  B  B45  1  0.049402  0.430497  0.472812  1
  B  B46  1  0.286505  0.238200  0.521161  1
  B  B47  1  0.568936  0.808904  0.387196  1
  B  B48  1  0.380465  0.355666  0.407917  1
  B  B49  1  0.663173  0.925902  0.270746  1
  B  B50  1  0.049268  0.095757  0.474251  1
  B  B51  1  0.331981  0.667952  0.339232  1
  B  B52  1  0.238746  0.475205  0.375853  1
  B  B53  1  0.190150  0.786940  0.307163  1
  B  B54  1  0.907821  0.216505  0.443376  1
  B  B55  1  0.239465  0.142754  0.377983  1
  B  B56  1  0.521285  0.712587  0.242965  1
  B  B57  1  0.282757  0.903442  0.192292  1
  B  B58  1  0.002260  0.333999  0.328078  1
  B  B59  1  0.645222  0.420592  0.276016  1
  B  B60  1  0.564537  0.011276  0.380923  1
  B  B61  1  0.937110  0.995051  0.132443  1
  B  B62  1  0.848299  0.582010  0.236075  1
  B  B63  1  0.214676  0.286459  0.283809  1
  B  B64  1  0.491097  0.860871  0.155405  1
  B  B65  1  0.287712  0.701284  0.196052  1
  B  B66  1  0.006306  0.130979  0.332475  1
  B  B67  1  0.330762  0.999489  0.336031  1
  B  B68  1  0.608196  0.567597  0.192159  1
  B  B69  1  0.852996  0.378063  0.237735  1
  B  B70  1  0.141722  0.949168  0.096162  1
  B  B71  1  0.947076  0.497624  0.125323  1
  B  B72  1  0.899931  0.804709  0.044995  1
  B  B73  1  0.612480  0.233497  0.191762  1
  B  B74  1  0.520551  0.046189  0.240079  1
  B  B75  1  0.801626  0.617992  0.096054  1
  B  B76  1  0.455519  0.345592  0.163737  1
  B  B77  1  0.763871  0.930215  0.016286  1
  B  B78  1  0.804747  0.282513  0.095823  1
  B  B79  1  0.562326  0.473150  0.049633  1
  B  B80  1  0.150496  0.161506  0.100976  1
  B  B81  1  0.773324  0.431614  0.010627  1
  B  B82  1  0.568277  0.269916  0.051046  1
  B  B83  1  0.907909  0.146809  0.049055  1
  O  O84  1  0.445304  0.135188  0.963795  1
  O  O85  1  0.836968  0.432561  0.891352  1
  O  O86  1  0.020658  0.281657  0.677880  1
  O  O87  1  0.123871  0.007061  0.749818  1
  O  O88  1  0.411675  0.578019  0.604327  1
  O  O89  1  0.977545  0.717615  0.321671  1
  O  O90  1  0.593656  0.425019  0.395918  1
  O  O91  1  0.695753  0.148927  0.461779  1
  O  O92  1  0.874826  0.993299  0.250752  1
  O  O93  1  0.161538  0.565344  0.109285  1
  O  O94  1  0.553145  0.862940  0.036710  1
