# generated using pymatgen
data_K2WO4
_symmetry_space_group_name_H-M   'P 1'
_cell_length_a   6.35505893
_cell_length_b   8.24063367
_cell_length_c   12.17732474
_cell_angle_alpha   90.00000000
_cell_angle_beta   116.00580040
_cell_angle_gamma   90.00000000
_symmetry_Int_Tables_number   1
_chemical_formula_structural   K2WO4
_chemical_formula_sum   'K8 W4 O16'
_cell_volume   573.15332844
_cell_formula_units_Z   4
loop_
 _symmetry_equiv_pos_site_id
 _symmetry_equiv_pos_as_xyz
  1  'x, y, z'
loop_
 _atom_site_type_symbol
 _atom_site_label
 _atom_site_symmetry_multiplicity
 _atom_site_fract_x
 _atom_site_fract_y
 _atom_site_fract_z
 _atom_site_occupancy
  K  K0  1  0.216053  0.251582  0.907182  1
  K  K1  1  0.477184  0.510973  0.728909  1
  K  K2  1  0.216053  0.248418  0.407182  1
  K  K3  1  0.522816  0.010973  0.771091  1
  K  K4  1  0.477184  0.989027  0.228909  1
  K  K5  1  0.783947  0.751582  0.592818  1
  K  K6  1  0.522816  0.489027  0.271091  1
  K  K7  1  0.783947  0.748418  0.092818  1
  W  W8  1  0.130652  0.733122  0.931186  1
  W  W9  1  0.130652  0.766878  0.431186  1
  W  W10  1  0.869348  0.233122  0.568814  1
  W  W11  1  0.869348  0.266878  0.068814  1
  O  O12  1  0.254698  0.923539  0.914274  1
  O  O13  1  0.235395  0.571761  0.866870  1
  O  O14  1  0.225068  0.800186  0.594106  1
  O  O15  1  0.189931  0.243679  0.645105  1
  O  O16  1  0.254698  0.576461  0.414274  1
  O  O17  1  0.235395  0.928239  0.366870  1
  O  O18  1  0.810069  0.743679  0.854895  1
  O  O19  1  0.774932  0.300186  0.905894  1
  O  O20  1  0.225068  0.699814  0.094106  1
  O  O21  1  0.189931  0.256321  0.145105  1
  O  O22  1  0.764605  0.071761  0.633130  1
  O  O23  1  0.745302  0.423539  0.585726  1
  O  O24  1  0.810069  0.756321  0.354895  1
  O  O25  1  0.774932  0.199814  0.405894  1
  O  O26  1  0.764605  0.428239  0.133130  1
  O  O27  1  0.745302  0.076461  0.085726  1
