# generated using pymatgen
data_Li2SiSnCO7
_symmetry_space_group_name_H-M   'P 1'
_cell_length_a   5.11357946
_cell_length_b   6.56807887
_cell_length_c   8.66751657
_cell_angle_alpha   90.00000000
_cell_angle_beta   92.16294208
_cell_angle_gamma   90.00000000
_symmetry_Int_Tables_number   1
_chemical_formula_structural   Li2SiSnCO7
_chemical_formula_sum   'Li4 Si2 Sn2 C2 O14'
_cell_volume   290.90321334
_cell_formula_units_Z   2
loop_
 _symmetry_equiv_pos_site_id
 _symmetry_equiv_pos_as_xyz
  1  'x, y, z'
loop_
 _atom_site_type_symbol
 _atom_site_label
 _atom_site_symmetry_multiplicity
 _atom_site_fract_x
 _atom_site_fract_y
 _atom_site_fract_z
 _atom_site_occupancy
  Li  Li0  1  0.779743  0.502652  0.217022  1
  Li  Li1  1  0.779743  0.997348  0.217022  1
  Li  Li2  1  0.220257  0.497348  0.782978  1
  Li  Li3  1  0.220257  0.002652  0.782978  1
  Si  Si4  1  0.287138  0.750000  0.419838  1
  Si  Si5  1  0.712862  0.250000  0.580162  1
  Sn  Sn6  1  0.205511  0.250000  0.353666  1
  Sn  Sn7  1  0.794489  0.750000  0.646334  1
  C  C8  1  0.265721  0.250000  0.054206  1
  C  C9  1  0.734279  0.750000  0.945794  1
  O  O10  1  0.697271  0.750000  0.088771  1
  O  O11  1  0.032763  0.250000  0.113227  1
  O  O12  1  0.464016  0.250000  0.159178  1
  O  O13  1  0.173635  0.946210  0.323494  1
  O  O14  1  0.173635  0.553790  0.323494  1
  O  O15  1  0.812056  0.250000  0.400613  1
  O  O16  1  0.611409  0.750000  0.433869  1
  O  O17  1  0.388591  0.250000  0.566131  1
  O  O18  1  0.187944  0.750000  0.599387  1
  O  O19  1  0.826365  0.446210  0.676506  1
  O  O20  1  0.826365  0.053790  0.676506  1
  O  O21  1  0.535984  0.750000  0.840822  1
  O  O22  1  0.967237  0.750000  0.886773  1
  O  O23  1  0.302729  0.250000  0.911229  1
