# generated using pymatgen
data_Li5MnCr3O8
_symmetry_space_group_name_H-M   'P 1'
_cell_length_a   6.13672750
_cell_length_b   6.13672750
_cell_length_c   6.13672750
_cell_angle_alpha   58.64263086
_cell_angle_beta   58.64263086
_cell_angle_gamma   58.64263086
_symmetry_Int_Tables_number   1
_chemical_formula_structural   Li5MnCr3O8
_chemical_formula_sum   'Li5 Mn1 Cr3 O8'
_cell_volume   158.34619957
_cell_formula_units_Z   1
loop_
 _symmetry_equiv_pos_site_id
 _symmetry_equiv_pos_as_xyz
  1  'x, y, z'
loop_
 _atom_site_type_symbol
 _atom_site_label
 _atom_site_symmetry_multiplicity
 _atom_site_fract_x
 _atom_site_fract_y
 _atom_site_fract_z
 _atom_site_occupancy
  Li  Li0  1  0.935264  0.935264  0.935264  1
  Li  Li1  1  0.000000  0.500000  0.000000  1
  Li  Li2  1  0.500000  0.000000  0.000000  1
  Li  Li3  1  0.064736  0.064736  0.064736  1
  Li  Li4  1  0.000000  0.000000  0.500000  1
  Mn  Mn5  1  0.500000  0.500000  0.500000  1
  Cr  Cr6  1  0.500000  0.500000  0.000000  1
  Cr  Cr7  1  0.000000  0.500000  0.500000  1
  Cr  Cr8  1  0.500000  0.000000  0.500000  1
  O  O9  1  0.740917  0.740917  0.740917  1
  O  O10  1  0.271446  0.750479  0.750479  1
  O  O11  1  0.750479  0.750479  0.271446  1
  O  O12  1  0.750479  0.271446  0.750479  1
  O  O13  1  0.249521  0.728554  0.249521  1
  O  O14  1  0.249521  0.249521  0.728554  1
  O  O15  1  0.728554  0.249521  0.249521  1
  O  O16  1  0.259083  0.259083  0.259083  1
