# generated using pymatgen
data_Ti3Cu2Te(PO4)6
_symmetry_space_group_name_H-M   'P 1'
_cell_length_a   8.76566800
_cell_length_b   8.76566800
_cell_length_c   8.76566800
_cell_angle_alpha   59.83031167
_cell_angle_beta   59.83031167
_cell_angle_gamma   59.83031167
_symmetry_Int_Tables_number   1
_chemical_formula_structural   Ti3Cu2Te(PO4)6
_chemical_formula_sum   'Ti3 Cu2 Te1 P6 O24'
_cell_volume   474.42133228
_cell_formula_units_Z   1
loop_
 _symmetry_equiv_pos_site_id
 _symmetry_equiv_pos_as_xyz
  1  'x, y, z'
loop_
 _atom_site_type_symbol
 _atom_site_label
 _atom_site_symmetry_multiplicity
 _atom_site_fract_x
 _atom_site_fract_y
 _atom_site_fract_z
 _atom_site_occupancy
  Ti  Ti0  1  0.858092  0.858092  0.858092  1
  Ti  Ti1  1  0.642708  0.642708  0.642708  1
  Ti  Ti2  1  0.357939  0.357939  0.357939  1
  Cu  Cu3  1  0.995684  0.995684  0.995684  1
  Cu  Cu4  1  0.499754  0.499754  0.499754  1
  Te  Te5  1  0.142757  0.142757  0.142757  1
  P  P6  1  0.468111  0.038407  0.741052  1
  P  P7  1  0.038407  0.741052  0.468111  1
  P  P8  1  0.741052  0.468111  0.038407  1
  P  P9  1  0.251009  0.549914  0.956234  1
  P  P10  1  0.956234  0.251009  0.549914  1
  P  P11  1  0.549914  0.956234  0.251009  1
  O  O12  1  0.680949  0.514163  0.879354  1
  O  O13  1  0.514163  0.879354  0.680949  1
  O  O14  1  0.083472  0.736213  0.939623  1
  O  O15  1  0.879354  0.680949  0.514163  1
  O  O16  1  0.199704  0.394507  0.977634  1
  O  O17  1  0.415685  0.572866  0.769425  1
  O  O18  1  0.939623  0.083472  0.736213  1
  O  O19  1  0.769425  0.415685  0.572866  1
  O  O20  1  0.625641  0.999308  0.802514  1
  O  O21  1  0.572866  0.769425  0.415685  1
  O  O22  1  0.276449  0.048789  0.903046  1
  O  O23  1  0.999308  0.802514  0.625641  1
  O  O24  1  0.977634  0.199704  0.394507  1
  O  O25  1  0.736213  0.939623  0.083472  1
  O  O26  1  0.448918  0.227958  0.576940  1
  O  O27  1  0.394507  0.977634  0.199704  1
  O  O28  1  0.227958  0.576940  0.448918  1
  O  O29  1  0.048789  0.903046  0.276449  1
  O  O30  1  0.576940  0.448918  0.227958  1
  O  O31  1  0.802514  0.625641  0.999308  1
  O  O32  1  0.126482  0.299823  0.498874  1
  O  O33  1  0.903046  0.276449  0.048789  1
  O  O34  1  0.498874  0.126482  0.299823  1
  O  O35  1  0.299823  0.498874  0.126482  1
