# generated using pymatgen
data_Na2W3O10
_symmetry_space_group_name_H-M   'P 1'
_cell_length_a   7.98290777
_cell_length_b   7.98290777
_cell_length_c   8.59650820
_cell_angle_alpha   80.55299048
_cell_angle_beta   99.44700952
_cell_angle_gamma   120.20511380
_symmetry_Int_Tables_number   1
_chemical_formula_structural   Na2W3O10
_chemical_formula_sum   'Na4 W6 O20'
_cell_volume   464.88622216
_cell_formula_units_Z   2
loop_
 _symmetry_equiv_pos_site_id
 _symmetry_equiv_pos_as_xyz
  1  'x, y, z'
loop_
 _atom_site_type_symbol
 _atom_site_label
 _atom_site_symmetry_multiplicity
 _atom_site_fract_x
 _atom_site_fract_y
 _atom_site_fract_z
 _atom_site_occupancy
  Na  Na0  1  0.573475  0.214301  0.650256  1
  Na  Na1  1  0.785699  0.426525  0.150256  1
  Na  Na2  1  0.214301  0.573475  0.849744  1
  Na  Na3  1  0.426525  0.785699  0.349744  1
  W  W4  1  0.029020  0.803620  0.513930  1
  W  W5  1  0.196380  0.970980  0.013930  1
  W  W6  1  0.803620  0.029020  0.986070  1
  W  W7  1  0.970980  0.196380  0.486070  1
  W  W8  1  0.691349  0.691349  0.750000  1
  W  W9  1  0.308651  0.308651  0.250000  1
  O  O10  1  0.930772  0.881842  0.909409  1
  O  O11  1  0.616880  0.496426  0.901474  1
  O  O12  1  0.118158  0.069228  0.409409  1
  O  O13  1  0.503574  0.383120  0.401474  1
  O  O14  1  0.874168  0.620706  0.678335  1
  O  O15  1  0.333669  0.061892  0.848616  1
  O  O16  1  0.379294  0.125832  0.178335  1
  O  O17  1  0.938108  0.666331  0.348616  1
  O  O18  1  0.263095  0.828373  0.577723  1
  O  O19  1  0.171627  0.736905  0.077723  1
  O  O20  1  0.828373  0.263095  0.922277  1
  O  O21  1  0.736905  0.171627  0.422277  1
  O  O22  1  0.061892  0.333669  0.651384  1
  O  O23  1  0.620706  0.874168  0.821665  1
  O  O24  1  0.666331  0.938108  0.151384  1
  O  O25  1  0.125832  0.379294  0.321665  1
  O  O26  1  0.496426  0.616880  0.598526  1
  O  O27  1  0.881842  0.930772  0.590591  1
  O  O28  1  0.383120  0.503574  0.098526  1
  O  O29  1  0.069228  0.118158  0.090591  1
