# generated using pymatgen
data_LiMnPO4
_symmetry_space_group_name_H-M   'P 1'
_cell_length_a   7.26167506
_cell_length_b   7.26167506
_cell_length_c   7.26167506
_cell_angle_alpha   90.00000000
_cell_angle_beta   90.00000000
_cell_angle_gamma   90.00000000
_symmetry_Int_Tables_number   1
_chemical_formula_structural   LiMnPO4
_chemical_formula_sum   'Li4 Mn4 P4 O16'
_cell_volume   382.92210229
_cell_formula_units_Z   4
loop_
 _symmetry_equiv_pos_site_id
 _symmetry_equiv_pos_as_xyz
  1  'x, y, z'
loop_
 _atom_site_type_symbol
 _atom_site_label
 _atom_site_symmetry_multiplicity
 _atom_site_fract_x
 _atom_site_fract_y
 _atom_site_fract_z
 _atom_site_occupancy
  Li  Li0  1  0.202020  0.702020  0.797980  1
  Li  Li1  1  0.297980  0.297980  0.297980  1
  Li  Li2  1  0.702020  0.797980  0.202020  1
  Li  Li3  1  0.797980  0.202020  0.702020  1
  Mn  Mn4  1  0.253972  0.746028  0.246028  1
  Mn  Mn5  1  0.246028  0.253972  0.746028  1
  Mn  Mn6  1  0.753972  0.753972  0.753972  1
  Mn  Mn7  1  0.746028  0.246028  0.253972  1
  P  P8  1  0.029528  0.029528  0.029528  1
  P  P9  1  0.970472  0.529528  0.470472  1
  P  P10  1  0.470472  0.970472  0.529528  1
  P  P11  1  0.529528  0.470472  0.970472  1
  O  O12  1  0.979854  0.604772  0.672930  1
  O  O13  1  0.149910  0.149910  0.149910  1
  O  O14  1  0.172930  0.520146  0.395228  1
  O  O15  1  0.104772  0.827070  0.020146  1
  O  O16  1  0.395228  0.172930  0.520146  1
  O  O17  1  0.327070  0.479854  0.895228  1
  O  O18  1  0.350090  0.850090  0.649910  1
  O  O19  1  0.520146  0.395228  0.172930  1
  O  O20  1  0.479854  0.895228  0.327070  1
  O  O21  1  0.649910  0.350090  0.850090  1
  O  O22  1  0.672930  0.979854  0.604772  1
  O  O23  1  0.604772  0.672930  0.979854  1
  O  O24  1  0.895228  0.327070  0.479854  1
  O  O25  1  0.827070  0.020146  0.104772  1
  O  O26  1  0.850090  0.649910  0.350090  1
  O  O27  1  0.020146  0.104772  0.827070  1
