# generated using pymatgen
data_Yb19(Mg4H27)2
_symmetry_space_group_name_H-M   'P 1'
_cell_length_a   10.43857184
_cell_length_b   10.43857184
_cell_length_c   10.43857184
_cell_angle_alpha   109.47122063
_cell_angle_beta   109.47122063
_cell_angle_gamma   109.47122063
_symmetry_Int_Tables_number   1
_chemical_formula_structural   Yb19(Mg4H27)2
_chemical_formula_sum   'Yb19 Mg8 H54'
_cell_volume   875.59114779
_cell_formula_units_Z   1
loop_
 _symmetry_equiv_pos_site_id
 _symmetry_equiv_pos_as_xyz
  1  'x, y, z'
loop_
 _atom_site_type_symbol
 _atom_site_label
 _atom_site_symmetry_multiplicity
 _atom_site_fract_x
 _atom_site_fract_y
 _atom_site_fract_z
 _atom_site_occupancy
  Yb  Yb0  1  0.311546  0.965949  0.654404  1
  Yb  Yb1  1  0.688454  0.034051  0.345596  1
  Yb  Yb2  1  0.311546  0.657142  0.345596  1
  Yb  Yb3  1  0.688454  0.342858  0.654404  1
  Yb  Yb4  1  0.654404  0.311546  0.965949  1
  Yb  Yb5  1  0.345596  0.688454  0.034051  1
  Yb  Yb6  1  0.345596  0.311546  0.657142  1
  Yb  Yb7  1  0.654404  0.688454  0.342858  1
  Yb  Yb8  1  0.965949  0.654404  0.311546  1
  Yb  Yb9  1  0.034051  0.345596  0.688454  1
  Yb  Yb10  1  0.657142  0.345596  0.311546  1
  Yb  Yb11  1  0.342858  0.654404  0.688454  1
  Yb  Yb12  1  0.332870  1.000000  0.332870  1
  Yb  Yb13  1  0.667130  1.000000  0.667130  1
  Yb  Yb14  1  0.332870  0.332870  0.000000  1
  Yb  Yb15  1  0.667130  0.667130  0.000000  1
  Yb  Yb16  1  0.000000  0.332870  0.332870  1
  Yb  Yb17  1  0.000000  0.667130  0.667130  1
  Yb  Yb18  1  0.000000  0.000000  0.000000  1
  Mg  Mg19  1  0.314659  0.000000  0.000000  1
  Mg  Mg20  1  0.000000  0.000000  0.314659  1
  Mg  Mg21  1  1.000000  0.314659  0.000000  1
  Mg  Mg22  1  0.685341  0.685341  0.685341  1
  Mg  Mg23  1  0.685341  0.000000  0.000000  1
  Mg  Mg24  1  0.000000  0.000000  0.685341  1
  Mg  Mg25  1  1.000000  0.685341  0.000000  1
  Mg  Mg26  1  0.314659  0.314659  0.314659  1
  H  H27  1  0.425390  0.946294  0.144492  1
  H  H28  1  0.198198  0.053706  0.479097  1
  H  H29  1  0.801802  0.280899  0.855508  1
  H  H30  1  0.574610  0.719101  0.520903  1
  H  H31  1  0.144492  0.425390  0.946294  1
  H  H32  1  0.479097  0.198198  0.053706  1
  H  H33  1  0.855508  0.801802  0.280899  1
  H  H34  1  0.520903  0.574610  0.719101  1
  H  H35  1  0.946294  0.144492  0.425390  1
  H  H36  1  0.053706  0.479097  0.198198  1
  H  H37  1  0.280899  0.855508  0.801802  1
  H  H38  1  0.719101  0.520903  0.574610  1
  H  H39  1  0.574610  0.053706  0.855508  1
  H  H40  1  0.801802  0.946294  0.520903  1
  H  H41  1  0.198198  0.719101  0.144492  1
  H  H42  1  0.425390  0.280899  0.479097  1
  H  H43  1  0.855508  0.574610  0.053706  1
  H  H44  1  0.520903  0.801802  0.946294  1
  H  H45  1  0.144492  0.198198  0.719101  1
  H  H46  1  0.479097  0.425390  0.280899  1
  H  H47  1  0.053706  0.855508  0.574610  1
  H  H48  1  0.946294  0.520903  0.801802  1
  H  H49  1  0.719101  0.144492  0.198198  1
  H  H50  1  0.280899  0.479097  0.425390  1
  H  H51  1  0.398470  0.217531  0.819061  1
  H  H52  1  0.601530  0.782469  0.180939  1
  H  H53  1  0.398470  0.579409  0.180939  1
  H  H54  1  0.601530  0.420591  0.819061  1
  H  H55  1  0.819061  0.398470  0.217531  1
  H  H56  1  0.180939  0.601530  0.782469  1
  H  H57  1  0.180939  0.398470  0.579409  1
  H  H58  1  0.819061  0.601530  0.420591  1
  H  H59  1  0.217531  0.819061  0.398470  1
  H  H60  1  0.782469  0.180939  0.601530  1
  H  H61  1  0.579409  0.180939  0.398470  1
  H  H62  1  0.420591  0.819061  0.601530  1
  H  H63  1  0.170828  0.062356  0.891529  1
  H  H64  1  0.829172  0.937644  0.108471  1
  H  H65  1  0.170828  0.279299  0.108471  1
  H  H66  1  0.829172  0.720701  0.891529  1
  H  H67  1  0.891529  0.170828  0.062356  1
  H  H68  1  0.108471  0.829172  0.937644  1
  H  H69  1  0.108471  0.170828  0.279299  1
  H  H70  1  0.891529  0.829172  0.720701  1
  H  H71  1  0.062356  0.891529  0.170828  1
  H  H72  1  0.937644  0.108471  0.829172  1
  H  H73  1  0.279299  0.108471  0.170828  1
  H  H74  1  0.720701  0.891529  0.829172  1
  H  H75  1  0.617207  0.500000  0.117207  1
  H  H76  1  0.382793  0.500000  0.882793  1
  H  H77  1  0.117207  0.617207  0.500000  1
  H  H78  1  0.882793  0.382793  0.500000  1
  H  H79  1  0.500000  0.117207  0.617207  1
  H  H80  1  0.500000  0.882793  0.382793  1
