# generated using pymatgen
data_Ba3Y2Cl12
_symmetry_space_group_name_H-M   'P 1'
_cell_length_a   12.90062150
_cell_length_b   12.38327469
_cell_length_c   18.34873991
_cell_angle_alpha   90.00000000
_cell_angle_beta   134.26255693
_cell_angle_gamma   90.00000000
_symmetry_Int_Tables_number   1
_chemical_formula_structural   Ba3Y2Cl12
_chemical_formula_sum   'Ba12 Y8 Cl48'
_cell_volume   2099.20945391
_cell_formula_units_Z   4
loop_
 _symmetry_equiv_pos_site_id
 _symmetry_equiv_pos_as_xyz
  1  'x, y, z'
loop_
 _atom_site_type_symbol
 _atom_site_label
 _atom_site_symmetry_multiplicity
 _atom_site_fract_x
 _atom_site_fract_y
 _atom_site_fract_z
 _atom_site_occupancy
  Ba  Ba0  1  0.725170  0.217313  0.701035  1
  Ba  Ba1  1  0.822541  0.611237  0.809626  1
  Ba  Ba2  1  0.174556  0.991718  0.981444  1
  Ba  Ba3  1  0.825444  0.491718  0.518556  1
  Ba  Ba4  1  0.177459  0.111237  0.690374  1
  Ba  Ba5  1  0.274830  0.717313  0.798965  1
  Ba  Ba6  1  0.725170  0.282687  0.201035  1
  Ba  Ba7  1  0.822541  0.888763  0.309626  1
  Ba  Ba8  1  0.174556  0.508282  0.481444  1
  Ba  Ba9  1  0.825444  0.008282  0.018556  1
  Ba  Ba10  1  0.177459  0.388763  0.190374  1
  Ba  Ba11  1  0.274830  0.782687  0.298965  1
  Y  Y12  1  0.766510  0.852928  0.574592  1
  Y  Y13  1  0.543194  0.165191  0.352435  1
  Y  Y14  1  0.233490  0.352928  0.925408  1
  Y  Y15  1  0.456806  0.665191  0.147565  1
  Y  Y16  1  0.543194  0.334809  0.852435  1
  Y  Y17  1  0.766510  0.647072  0.074592  1
  Y  Y18  1  0.456806  0.834809  0.647565  1
  Y  Y19  1  0.233490  0.147072  0.425408  1
  Cl  Cl20  1  0.597455  0.755985  0.597961  1
  Cl  Cl21  1  0.929153  0.138228  0.929024  1
  Cl  Cl22  1  0.745811  0.452372  0.649881  1
  Cl  Cl23  1  0.080959  0.428970  0.959704  1
  Cl  Cl24  1  0.280298  0.118174  0.183999  1
  Cl  Cl25  1  0.299571  0.608389  0.182247  1
  Cl  Cl26  1  0.536098  0.974666  0.424394  1
  Cl  Cl27  1  0.858986  0.982885  0.720658  1
  Cl  Cl28  1  0.619449  0.702547  0.432754  1
  Cl  Cl29  1  0.513887  0.367144  0.296378  1
  Cl  Cl30  1  0.779314  0.225317  0.540124  1
  Cl  Cl31  1  0.947428  0.704320  0.703779  1
  Cl  Cl32  1  0.052572  0.204320  0.796221  1
  Cl  Cl33  1  0.220686  0.725317  0.959876  1
  Cl  Cl34  1  0.486113  0.867144  0.203622  1
  Cl  Cl35  1  0.380551  0.202547  0.067246  1
  Cl  Cl36  1  0.141014  0.482885  0.779342  1
  Cl  Cl37  1  0.463902  0.474666  0.075606  1
  Cl  Cl38  1  0.700429  0.108389  0.317753  1
  Cl  Cl39  1  0.919041  0.928970  0.540296  1
  Cl  Cl40  1  0.719702  0.618174  0.316001  1
  Cl  Cl41  1  0.254189  0.952372  0.850119  1
  Cl  Cl42  1  0.070847  0.638228  0.570976  1
  Cl  Cl43  1  0.402545  0.255985  0.902039  1
  Cl  Cl44  1  0.597455  0.744015  0.097961  1
  Cl  Cl45  1  0.929153  0.361772  0.429024  1
  Cl  Cl46  1  0.745811  0.047628  0.149881  1
  Cl  Cl47  1  0.280298  0.381826  0.683999  1
  Cl  Cl48  1  0.080959  0.071030  0.459704  1
  Cl  Cl49  1  0.299571  0.891611  0.682247  1
  Cl  Cl50  1  0.536098  0.525334  0.924394  1
  Cl  Cl51  1  0.858986  0.517115  0.220658  1
  Cl  Cl52  1  0.619449  0.797453  0.932754  1
  Cl  Cl53  1  0.513887  0.132856  0.796378  1
  Cl  Cl54  1  0.779314  0.274683  0.040124  1
  Cl  Cl55  1  0.947428  0.795680  0.203779  1
  Cl  Cl56  1  0.052572  0.295680  0.296221  1
  Cl  Cl57  1  0.220686  0.774683  0.459876  1
  Cl  Cl58  1  0.486113  0.632856  0.703622  1
  Cl  Cl59  1  0.380551  0.297453  0.567246  1
  Cl  Cl60  1  0.141014  0.017115  0.279342  1
  Cl  Cl61  1  0.463902  0.025334  0.575606  1
  Cl  Cl62  1  0.700429  0.391611  0.817753  1
  Cl  Cl63  1  0.719702  0.881826  0.816001  1
  Cl  Cl64  1  0.919041  0.571030  0.040296  1
  Cl  Cl65  1  0.254189  0.547628  0.350119  1
  Cl  Cl66  1  0.070847  0.861772  0.070976  1
  Cl  Cl67  1  0.402545  0.244015  0.402039  1
