# generated using pymatgen
data_Rb3P3(HO3)4
_symmetry_space_group_name_H-M   'P 1'
_cell_length_a   8.82758233
_cell_length_b   9.70741444
_cell_length_c   9.73409457
_cell_angle_alpha   119.77079540
_cell_angle_beta   94.17458385
_cell_angle_gamma   107.75087695
_symmetry_Int_Tables_number   1
_chemical_formula_structural   Rb3P3(HO3)4
_chemical_formula_sum   'Rb6 P6 H8 O24'
_cell_volume   663.74266237
_cell_formula_units_Z   2
loop_
 _symmetry_equiv_pos_site_id
 _symmetry_equiv_pos_as_xyz
  1  'x, y, z'
loop_
 _atom_site_type_symbol
 _atom_site_label
 _atom_site_symmetry_multiplicity
 _atom_site_fract_x
 _atom_site_fract_y
 _atom_site_fract_z
 _atom_site_occupancy
  Rb  Rb0  1  0.137601  0.060291  0.212333  1
  Rb  Rb1  1  0.593341  0.333382  0.487575  1
  Rb  Rb2  1  0.758168  0.320857  0.981752  1
  Rb  Rb3  1  0.241832  0.679143  0.018248  1
  Rb  Rb4  1  0.406659  0.666618  0.512425  1
  Rb  Rb5  1  0.862399  0.939709  0.787667  1
  P  P6  1  0.958948  0.607331  0.227974  1
  P  P7  1  0.089038  0.303997  0.398241  1
  P  P8  1  0.252152  0.222491  0.754226  1
  P  P9  1  0.747848  0.777509  0.245774  1
  P  P10  1  0.910962  0.696003  0.601759  1
  P  P11  1  0.041052  0.392669  0.772026  1
  H  H12  1  0.378548  0.035294  0.077353  1
  H  H13  1  0.596928  0.065127  0.342860  1
  H  H14  1  0.785083  0.124349  0.394436  1
  H  H15  1  0.493463  0.087759  0.798742  1
  H  H16  1  0.506537  0.912241  0.201258  1
  H  H17  1  0.214917  0.875651  0.605564  1
  H  H18  1  0.403072  0.934873  0.657140  1
  H  H19  1  0.621452  0.964706  0.922647  1
  O  O20  1  0.467865  0.007520  0.182732  1
  O  O21  1  0.969793  0.196873  0.322259  1
  O  O22  1  0.682376  0.093789  0.428668  1
  O  O23  1  0.464848  0.439109  0.046910  1
  O  O24  1  0.987761  0.430439  0.379870  1
  O  O25  1  0.902686  0.598933  0.066362  1
  O  O26  1  0.897358  0.269317  0.745599  1
  O  O27  1  0.124026  0.193983  0.597373  1
  O  O28  1  0.213573  0.076815  0.904114  1
  O  O29  1  0.246975  0.390114  0.350871  1
  O  O30  1  0.426808  0.269585  0.740558  1
  O  O31  1  0.797746  0.619318  0.266211  1
  O  O32  1  0.202254  0.380682  0.733789  1
  O  O33  1  0.573192  0.730415  0.259442  1
  O  O34  1  0.753025  0.609886  0.649129  1
  O  O35  1  0.786427  0.923185  0.095886  1
  O  O36  1  0.875974  0.806017  0.402627  1
  O  O37  1  0.102642  0.730683  0.254401  1
  O  O38  1  0.097314  0.401067  0.933638  1
  O  O39  1  0.012239  0.569561  0.620130  1
  O  O40  1  0.535152  0.560891  0.953090  1
  O  O41  1  0.317624  0.906211  0.571332  1
  O  O42  1  0.030207  0.803127  0.677741  1
  O  O43  1  0.532135  0.992480  0.817268  1
