# generated using pymatgen
data_K2TbO3
_symmetry_space_group_name_H-M   'P 1'
_cell_length_a   6.33283256
_cell_length_b   6.33283256
_cell_length_c   12.61152467
_cell_angle_alpha   85.06137358
_cell_angle_beta   94.93862642
_cell_angle_gamma   59.83637659
_symmetry_Int_Tables_number   1
_chemical_formula_structural   K2TbO3
_chemical_formula_sum   'K8 Tb4 O12'
_cell_volume   430.73304631
_cell_formula_units_Z   4
loop_
 _symmetry_equiv_pos_site_id
 _symmetry_equiv_pos_as_xyz
  1  'x, y, z'
loop_
 _atom_site_type_symbol
 _atom_site_label
 _atom_site_symmetry_multiplicity
 _atom_site_fract_x
 _atom_site_fract_y
 _atom_site_fract_z
 _atom_site_occupancy
  K  K0  1  0.157586  0.684771  0.999819  1
  K  K1  1  0.315229  0.842414  0.499819  1
  K  K2  1  0.085694  0.085694  0.750000  1
  K  K3  1  0.500000  0.000000  0.000000  1
  K  K4  1  0.914306  0.914306  0.250000  1
  K  K5  1  0.000000  0.500000  0.500000  1
  K  K6  1  0.684771  0.157586  0.500181  1
  K  K7  1  0.842414  0.315229  0.000181  1
  Tb  Tb8  1  0.418189  0.418189  0.750000  1
  Tb  Tb9  1  0.752445  0.752445  0.750000  1
  Tb  Tb10  1  0.581811  0.581811  0.250000  1
  Tb  Tb11  1  0.247555  0.247555  0.250000  1
  O  O12  1  0.050958  0.731238  0.651440  1
  O  O13  1  0.119803  0.440926  0.848674  1
  O  O14  1  0.268762  0.949042  0.151440  1
  O  O15  1  0.509361  0.661142  0.848124  1
  O  O16  1  0.559074  0.880197  0.348674  1
  O  O17  1  0.338858  0.490639  0.348124  1
  O  O18  1  0.661142  0.509361  0.651876  1
  O  O19  1  0.440926  0.119803  0.651326  1
  O  O20  1  0.490639  0.338858  0.151876  1
  O  O21  1  0.731238  0.050958  0.848560  1
  O  O22  1  0.880197  0.559074  0.151326  1
  O  O23  1  0.949042  0.268762  0.348560  1
