# generated using pymatgen
data_LiFeF3
_symmetry_space_group_name_H-M   'P 1'
_cell_length_a   8.81401813
_cell_length_b   8.81401813
_cell_length_c   8.81401813
_cell_angle_alpha   111.75792156
_cell_angle_beta   111.75792156
_cell_angle_gamma   111.75792156
_symmetry_Int_Tables_number   1
_chemical_formula_structural   LiFeF3
_chemical_formula_sum   'Li6 Fe6 F18'
_cell_volume   477.30696548
_cell_formula_units_Z   6
loop_
 _symmetry_equiv_pos_site_id
 _symmetry_equiv_pos_as_xyz
  1  'x, y, z'
loop_
 _atom_site_type_symbol
 _atom_site_label
 _atom_site_symmetry_multiplicity
 _atom_site_fract_x
 _atom_site_fract_y
 _atom_site_fract_z
 _atom_site_occupancy
  Li  Li0  1  0.085528  0.278206  0.942786  1
  Li  Li1  1  0.057214  0.914472  0.721794  1
  Li  Li2  1  0.721794  0.057214  0.914472  1
  Li  Li3  1  0.278206  0.942786  0.085528  1
  Li  Li4  1  0.942786  0.085528  0.278206  1
  Li  Li5  1  0.914472  0.721794  0.057214  1
  Fe  Fe6  1  0.010197  0.520394  0.695301  1
  Fe  Fe7  1  0.479606  0.304699  0.989803  1
  Fe  Fe8  1  0.304699  0.989803  0.479606  1
  Fe  Fe9  1  0.695301  0.010197  0.520394  1
  Fe  Fe10  1  0.520394  0.695301  0.010197  1
  Fe  Fe11  1  0.989803  0.479606  0.304699  1
  F  F12  1  0.011906  0.288207  0.117094  1
  F  F13  1  0.319241  0.754646  0.913353  1
  F  F14  1  0.882906  0.988094  0.711793  1
  F  F15  1  0.342026  0.459427  0.001625  1
  F  F16  1  0.998375  0.657974  0.540573  1
  F  F17  1  0.245354  0.086647  0.680759  1
  F  F18  1  0.086647  0.680759  0.245354  1
  F  F19  1  0.711793  0.882906  0.988094  1
  F  F20  1  0.540573  0.998375  0.657974  1
  F  F21  1  0.459427  0.001625  0.342026  1
  F  F22  1  0.288207  0.117094  0.011906  1
  F  F23  1  0.913353  0.319241  0.754646  1
  F  F24  1  0.754646  0.913353  0.319241  1
  F  F25  1  0.001625  0.342026  0.459427  1
  F  F26  1  0.657974  0.540573  0.998375  1
  F  F27  1  0.117094  0.011906  0.288207  1
  F  F28  1  0.680759  0.245354  0.086647  1
  F  F29  1  0.988094  0.711793  0.882906  1
