# generated using pymatgen
data_Na2LiTi3Al(PO4)6
_symmetry_space_group_name_H-M   'P 1'
_cell_length_a   8.56462397
_cell_length_b   8.57556570
_cell_length_c   8.77630156
_cell_angle_alpha   61.14089980
_cell_angle_beta   61.12161110
_cell_angle_gamma   60.23985182
_symmetry_Int_Tables_number   1
_chemical_formula_structural   Na2LiTi3Al(PO4)6
_chemical_formula_sum   'Na2 Li1 Ti3 Al1 P6 O24'
_cell_volume   464.29349911
_cell_formula_units_Z   1
loop_
 _symmetry_equiv_pos_site_id
 _symmetry_equiv_pos_as_xyz
  1  'x, y, z'
loop_
 _atom_site_type_symbol
 _atom_site_label
 _atom_site_symmetry_multiplicity
 _atom_site_fract_x
 _atom_site_fract_y
 _atom_site_fract_z
 _atom_site_occupancy
  Na  Na0  1  0.989354  0.997711  0.998546  1
  Na  Na1  1  0.503170  0.512023  0.497080  1
  Li  Li2  1  0.346076  0.152269  0.743825  1
  Ti  Ti3  1  0.352553  0.360789  0.938633  1
  Ti  Ti4  1  0.856744  0.857780  0.428955  1
  Ti  Ti5  1  0.642468  0.646979  0.068657  1
  Al  Al6  1  0.139539  0.147051  0.562893  1
  P  P7  1  0.457418  0.758449  0.747213  1
  P  P8  1  0.754388  0.039515  0.747532  1
  P  P9  1  0.033549  0.461726  0.748048  1
  P  P10  1  0.962138  0.531882  0.257236  1
  P  P11  1  0.248574  0.966734  0.251715  1
  P  P12  1  0.529791  0.250346  0.260918  1
  O  O13  1  0.279778  0.939620  0.735462  1
  O  O14  1  0.428380  0.586847  0.762163  1
  O  O15  1  0.629971  0.787825  0.575452  1
  O  O16  1  0.717701  0.869358  0.921891  1
  O  O17  1  0.924033  0.068588  0.732308  1
  O  O18  1  0.570232  0.217563  0.759148  1
  O  O19  1  0.864430  0.495856  0.920765  1
  O  O20  1  0.223493  0.429477  0.760750  1
  O  O21  1  0.996460  0.365048  0.426234  1
  O  O22  1  0.940287  0.719549  0.262159  1
  O  O23  1  0.492266  0.720876  0.921608  1
  O  O24  1  0.214898  0.002759  0.420632  1
  O  O25  1  0.785129  0.004566  0.576275  1
  O  O26  1  0.495079  0.287402  0.085302  1
  O  O27  1  0.067572  0.273868  0.734343  1
  O  O28  1  0.002032  0.633469  0.577254  1
  O  O29  1  0.778861  0.558832  0.238924  1
  O  O30  1  0.130388  0.501971  0.079266  1
  O  O31  1  0.422364  0.782117  0.237404  1
  O  O32  1  0.076614  0.941080  0.261710  1
  O  O33  1  0.286704  0.130764  0.069491  1
  O  O34  1  0.364858  0.213830  0.436017  1
  O  O35  1  0.556798  0.425316  0.240885  1
  O  O36  1  0.716909  0.079162  0.263308  1
