# generated using pymatgen
data_LiV2OF7
_symmetry_space_group_name_H-M   'P 1'
_cell_length_a   5.68521687
_cell_length_b   5.43014058
_cell_length_c   11.00046990
_cell_angle_alpha   90.00000000
_cell_angle_beta   106.10834677
_cell_angle_gamma   90.00000000
_symmetry_Int_Tables_number   1
_chemical_formula_structural   LiV2OF7
_chemical_formula_sum   'Li2 V4 O2 F14'
_cell_volume   326.26812846
_cell_formula_units_Z   2
loop_
 _symmetry_equiv_pos_site_id
 _symmetry_equiv_pos_as_xyz
  1  'x, y, z'
loop_
 _atom_site_type_symbol
 _atom_site_label
 _atom_site_symmetry_multiplicity
 _atom_site_fract_x
 _atom_site_fract_y
 _atom_site_fract_z
 _atom_site_occupancy
  Li  Li0  1  0.475930  0.324655  0.503838  1
  Li  Li1  1  0.475930  0.675345  0.003838  1
  V  V2  1  0.885527  0.506650  0.813583  1
  V  V3  1  0.885527  0.493350  0.313583  1
  V  V4  1  0.128044  0.019651  0.682751  1
  V  V5  1  0.128044  0.980349  0.182751  1
  O  O6  1  0.071534  0.319063  0.740006  1
  O  O7  1  0.071534  0.680937  0.240006  1
  F  F8  1  0.362698  0.124895  0.307328  1
  F  F9  1  0.339440  0.939381  0.086878  1
  F  F10  1  0.682964  0.519605  0.413666  1
  F  F11  1  0.907902  0.849567  0.778151  1
  F  F12  1  0.622933  0.523424  0.167036  1
  F  F13  1  0.867335  0.979360  0.548972  1
  F  F14  1  0.155691  0.526880  0.957790  1
  F  F15  1  0.907902  0.150433  0.278151  1
  F  F16  1  0.867335  0.020640  0.048972  1
  F  F17  1  0.155691  0.473120  0.457790  1
  F  F18  1  0.362698  0.875105  0.807328  1
  F  F19  1  0.339440  0.060619  0.586878  1
  F  F20  1  0.682964  0.480395  0.913666  1
  F  F21  1  0.622933  0.476576  0.667036  1
