# generated using pymatgen
data_TiCr3(PO4)6
_symmetry_space_group_name_H-M   'P 1'
_cell_length_a   8.80901774
_cell_length_b   8.80901774
_cell_length_c   8.80901774
_cell_angle_alpha   58.42045468
_cell_angle_beta   58.42045468
_cell_angle_gamma   58.42045468
_symmetry_Int_Tables_number   1
_chemical_formula_structural   TiCr3(PO4)6
_chemical_formula_sum   'Ti1 Cr3 P6 O24'
_cell_volume   465.88327098
_cell_formula_units_Z   1
loop_
 _symmetry_equiv_pos_site_id
 _symmetry_equiv_pos_as_xyz
  1  'x, y, z'
loop_
 _atom_site_type_symbol
 _atom_site_label
 _atom_site_symmetry_multiplicity
 _atom_site_fract_x
 _atom_site_fract_y
 _atom_site_fract_z
 _atom_site_occupancy
  Ti  Ti0  1  0.140476  0.140476  0.140476  1
  Cr  Cr1  1  0.857139  0.857139  0.857139  1
  Cr  Cr2  1  0.642779  0.642779  0.642779  1
  Cr  Cr3  1  0.357119  0.357119  0.357119  1
  P  P4  1  0.249259  0.535187  0.966025  1
  P  P5  1  0.966025  0.249259  0.535187  1
  P  P6  1  0.535187  0.966025  0.249259  1
  P  P7  1  0.469626  0.033078  0.745826  1
  P  P8  1  0.033078  0.745826  0.469626  1
  P  P9  1  0.745826  0.469626  0.033078  1
  O  O10  1  0.716676  0.495243  0.862596  1
  O  O11  1  0.495243  0.862596  0.716676  1
  O  O12  1  0.077174  0.719116  0.937246  1
  O  O13  1  0.862596  0.716676  0.495243  1
  O  O14  1  0.421550  0.566179  0.782694  1
  O  O15  1  0.221674  0.362407  0.994182  1
  O  O16  1  0.937246  0.077174  0.719116  1
  O  O17  1  0.782694  0.421550  0.566179  1
  O  O18  1  0.566179  0.782694  0.421550  1
  O  O19  1  0.639755  0.007754  0.775409  1
  O  O20  1  0.288167  0.060387  0.920542  1
  O  O21  1  0.007754  0.775409  0.639755  1
  O  O22  1  0.994182  0.221674  0.362407  1
  O  O23  1  0.719116  0.937246  0.077174  1
  O  O24  1  0.362407  0.994182  0.221674  1
  O  O25  1  0.442347  0.215049  0.572565  1
  O  O26  1  0.215049  0.572565  0.442347  1
  O  O27  1  0.060387  0.920542  0.288167  1
  O  O28  1  0.775409  0.639755  0.007754  1
  O  O29  1  0.572565  0.442347  0.215049  1
  O  O30  1  0.137159  0.278000  0.509619  1
  O  O31  1  0.920542  0.288167  0.060387  1
  O  O32  1  0.509619  0.137159  0.278000  1
  O  O33  1  0.278000  0.509619  0.137159  1
