# generated using pymatgen
data_K2Mn3V2(HO5)2
_symmetry_space_group_name_H-M   'P 1'
_cell_length_a   8.27389290
_cell_length_b   8.27389290
_cell_length_c   5.48154679
_cell_angle_alpha   75.82018465
_cell_angle_beta   104.17981535
_cell_angle_gamma   135.49730553
_symmetry_Int_Tables_number   1
_chemical_formula_structural   K2Mn3V2(HO5)2
_chemical_formula_sum   'K2 Mn3 V2 H2 O10'
_cell_volume   253.64980227
_cell_formula_units_Z   1
loop_
 _symmetry_equiv_pos_site_id
 _symmetry_equiv_pos_as_xyz
  1  'x, y, z'
loop_
 _atom_site_type_symbol
 _atom_site_label
 _atom_site_symmetry_multiplicity
 _atom_site_fract_x
 _atom_site_fract_y
 _atom_site_fract_z
 _atom_site_occupancy
  K  K0  1  0.237541  0.762459  0.798393  1
  K  K1  1  0.762459  0.237541  0.201607  1
  Mn  Mn2  1  0.737673  0.737673  0.000000  1
  Mn  Mn3  1  0.262327  0.262327  0.000000  1
  Mn  Mn4  1  0.000000  0.000000  0.500000  1
  V  V5  1  0.379234  0.620766  0.409301  1
  V  V6  1  0.620766  0.379234  0.590699  1
  H  H7  1  0.860934  0.139066  0.739961  1
  H  H8  1  0.139066  0.860934  0.260039  1
  O  O9  1  0.927805  0.072195  0.780849  1
  O  O10  1  0.416117  0.583883  0.745286  1
  O  O11  1  0.182790  0.352980  0.278269  1
  O  O12  1  0.647020  0.817210  0.278269  1
  O  O13  1  0.737003  0.262997  0.678466  1
  O  O14  1  0.262997  0.737003  0.321534  1
  O  O15  1  0.817210  0.647020  0.721731  1
  O  O16  1  0.352980  0.182790  0.721731  1
  O  O17  1  0.583883  0.416117  0.254714  1
  O  O18  1  0.072195  0.927805  0.219151  1
