# generated using pymatgen
data_Na6U2Mo4O21
_symmetry_space_group_name_H-M   'P 1'
_cell_length_a   7.79274859
_cell_length_b   8.30857131
_cell_length_c   8.86754765
_cell_angle_alpha   72.07962935
_cell_angle_beta   78.62572004
_cell_angle_gamma   65.39777635
_symmetry_Int_Tables_number   1
_chemical_formula_structural   Na6U2Mo4O21
_chemical_formula_sum   'Na6 U2 Mo4 O21'
_cell_volume   495.10909142
_cell_formula_units_Z   1
loop_
 _symmetry_equiv_pos_site_id
 _symmetry_equiv_pos_as_xyz
  1  'x, y, z'
loop_
 _atom_site_type_symbol
 _atom_site_label
 _atom_site_symmetry_multiplicity
 _atom_site_fract_x
 _atom_site_fract_y
 _atom_site_fract_z
 _atom_site_occupancy
  Na  Na0  1  0.729241  0.904284  0.345250  1
  Na  Na1  1  0.546944  0.599386  0.651164  1
  Na  Na2  1  0.054411  0.754873  0.010526  1
  Na  Na3  1  0.453056  0.400614  0.348836  1
  Na  Na4  1  0.945589  0.245127  0.989474  1
  Na  Na5  1  0.270759  0.095716  0.654750  1
  U  U6  1  0.213591  0.922212  0.314882  1
  U  U7  1  0.786409  0.077788  0.685118  1
  Mo  Mo8  1  0.444244  0.248912  0.016271  1
  Mo  Mo9  1  0.939246  0.413907  0.354998  1
  Mo  Mo10  1  0.555756  0.751088  0.983729  1
  Mo  Mo11  1  0.060754  0.586093  0.645002  1
  O  O12  1  0.394506  0.929093  0.420690  1
  O  O13  1  0.673734  0.915719  0.925289  1
  O  O14  1  0.605494  0.070907  0.579310  1
  O  O15  1  0.153069  0.359433  0.442256  1
  O  O16  1  0.618221  0.179674  0.150956  1
  O  O17  1  0.746552  0.365203  0.498414  1
  O  O18  1  0.280027  0.458131  0.051361  1
  O  O19  1  0.551442  0.296792  0.810330  1
  O  O20  1  0.448558  0.703208  0.189670  1
  O  O21  1  0.253448  0.634797  0.501586  1
  O  O22  1  0.995107  0.740103  0.768996  1
  O  O23  1  0.957577  0.091291  0.796465  1
  O  O24  1  0.381779  0.820326  0.849044  1
  O  O25  1  0.000000  0.000000  0.500000  1
  O  O26  1  0.326266  0.084281  0.074711  1
  O  O27  1  0.846931  0.640567  0.557744  1
  O  O28  1  0.042423  0.908709  0.203535  1
  O  O29  1  0.857148  0.638103  0.228455  1
  O  O30  1  0.004893  0.259897  0.231004  1
  O  O31  1  0.142852  0.361897  0.771545  1
  O  O32  1  0.719973  0.541869  0.948639  1
