# generated using pymatgen
data_Na2Ti12O25
_symmetry_space_group_name_H-M   'P 1'
_cell_length_a   7.52213708
_cell_length_b   10.10485358
_cell_length_c   14.65693745
_cell_angle_alpha   104.68909559
_cell_angle_beta   90.00066665
_cell_angle_gamma   111.85142280
_symmetry_Int_Tables_number   1
_chemical_formula_structural   Na2Ti12O25
_chemical_formula_sum   'Na4 Ti24 O50'
_cell_volume   994.69167688
_cell_formula_units_Z   2
loop_
 _symmetry_equiv_pos_site_id
 _symmetry_equiv_pos_as_xyz
  1  'x, y, z'
loop_
 _atom_site_type_symbol
 _atom_site_label
 _atom_site_symmetry_multiplicity
 _atom_site_fract_x
 _atom_site_fract_y
 _atom_site_fract_z
 _atom_site_occupancy
  Na  Na0  1  0.897365  0.294949  0.041649  1
  Na  Na1  1  0.510443  0.020624  0.493354  1
  Na  Na2  1  0.102951  0.705771  0.958801  1
  Na  Na3  1  0.601710  0.703513  0.959533  1
  Ti  Ti4  1  0.495179  0.991186  0.123799  1
  Ti  Ti5  1  0.996089  0.991347  0.123487  1
  Ti  Ti6  1  0.842734  0.684351  0.175409  1
  Ti  Ti7  1  0.342393  0.685290  0.176078  1
  Ti  Ti8  1  0.735115  0.967886  0.293093  1
  Ti  Ti9  1  0.232554  0.967126  0.293595  1
  Ti  Ti10  1  0.695779  0.393956  0.239414  1
  Ti  Ti11  1  0.198420  0.394441  0.239113  1
  Ti  Ti12  1  0.089408  0.678879  0.352353  1
  Ti  Ti13  1  0.590028  0.679917  0.352969  1
  Ti  Ti14  1  0.431401  0.363125  0.406388  1
  Ti  Ti15  1  0.931937  0.363279  0.405820  1
  Ti  Ti16  1  0.568895  0.637352  0.593320  1
  Ti  Ti17  1  0.068028  0.636325  0.592925  1
  Ti  Ti18  1  0.410197  0.321469  0.647571  1
  Ti  Ti19  1  0.910866  0.321011  0.647466  1
  Ti  Ti20  1  0.803499  0.606524  0.758916  1
  Ti  Ti21  1  0.303469  0.607066  0.758877  1
  Ti  Ti22  1  0.265140  0.031602  0.705569  1
  Ti  Ti23  1  0.766473  0.032049  0.706592  1
  Ti  Ti24  1  0.657258  0.315303  0.823885  1
  Ti  Ti25  1  0.158021  0.316032  0.824541  1
  Ti  Ti26  1  0.507380  0.016061  0.878130  1
  Ti  Ti27  1  0.008460  0.015702  0.878153  1
  O  O28  1  0.379450  0.760755  0.075013  1
  O  O29  1  0.881195  0.760434  0.074552  1
  O  O30  1  0.243722  0.987710  0.157199  1
  O  O31  1  0.743136  0.985884  0.156857  1
  O  O32  1  0.994565  0.997441  0.999641  1
  O  O33  1  0.502804  0.997512  0.999774  1
  O  O34  1  0.752737  0.481210  0.136394  1
  O  O35  1  0.228990  0.481825  0.136433  1
  O  O36  1  0.109739  0.719907  0.217880  1
  O  O37  1  0.609014  0.717156  0.216955  1
  O  O38  1  0.963550  0.926981  0.258254  1
  O  O39  1  0.463959  0.927677  0.258140  1
  O  O40  1  0.607663  0.203374  0.175807  1
  O  O41  1  0.095635  0.203345  0.175743  1
  O  O42  1  0.966536  0.433089  0.279420  1
  O  O43  1  0.466611  0.433145  0.279118  1
  O  O44  1  0.822104  0.644692  0.317710  1
  O  O45  1  0.321579  0.642405  0.317241  1
  O  O46  1  0.200722  0.878609  0.396997  1
  O  O47  1  0.678274  0.879232  0.396879  1
  O  O48  1  0.186526  0.372544  0.377647  1
  O  O49  1  0.686935  0.374258  0.378085  1
  O  O50  1  0.333017  0.156441  0.365478  1
  O  O51  1  0.823774  0.156453  0.365398  1
  O  O52  1  0.552840  0.607063  0.461268  1
  O  O53  1  0.054148  0.606951  0.461012  1
  O  O54  1  0.447521  0.392869  0.538848  1
  O  O55  1  0.945415  0.392978  0.538605  1
  O  O56  1  0.668921  0.842861  0.635472  1
  O  O57  1  0.173292  0.842464  0.635169  1
  O  O58  1  0.813465  0.626877  0.621897  1
  O  O59  1  0.312897  0.625810  0.621647  1
  O  O60  1  0.322550  0.122046  0.602526  1
  O  O61  1  0.799457  0.121949  0.602747  1
  O  O62  1  0.678651  0.357835  0.683061  1
  O  O63  1  0.178203  0.356110  0.682938  1
  O  O64  1  0.033822  0.567391  0.721149  1
  O  O65  1  0.533638  0.567365  0.721350  1
  O  O66  1  0.897615  0.794554  0.826346  1
  O  O67  1  0.397244  0.794711  0.826412  1
  O  O68  1  0.536051  0.072898  0.741439  1
  O  O69  1  0.036982  0.073600  0.740773  1
  O  O70  1  0.390710  0.282315  0.783159  1
  O  O71  1  0.891636  0.282948  0.782191  1
  O  O72  1  0.761397  0.520829  0.865198  1
  O  O73  1  0.259363  0.521410  0.865410  1
  O  O74  1  0.255286  0.010956  0.841933  1
  O  O75  1  0.754856  0.009444  0.841465  1
  O  O76  1  0.629219  0.235209  0.922230  1
  O  O77  1  0.105835  0.235221  0.922535  1
