# generated using pymatgen
data_Li10Sn(PS6)2
_symmetry_space_group_name_H-M   'P 1'
_cell_length_a   8.66527857
_cell_length_b   8.94964883
_cell_length_c   13.14190796
_cell_angle_alpha   91.99858081
_cell_angle_beta   90.60843533
_cell_angle_gamma   90.07788170
_symmetry_Int_Tables_number   1
_chemical_formula_structural   Li10Sn(PS6)2
_chemical_formula_sum   'Li20 Sn2 P4 S24'
_cell_volume   1018.49181070
_cell_formula_units_Z   2
loop_
 _symmetry_equiv_pos_site_id
 _symmetry_equiv_pos_as_xyz
  1  'x, y, z'
loop_
 _atom_site_type_symbol
 _atom_site_label
 _atom_site_symmetry_multiplicity
 _atom_site_fract_x
 _atom_site_fract_y
 _atom_site_fract_z
 _atom_site_occupancy
  Li  Li0  1  0.988948  0.517418  0.950024  1
  Li  Li1  1  0.963662  0.517455  0.427827  1
  Li  Li2  1  0.511012  0.964077  0.547404  1
  Li  Li3  1  0.496621  0.996357  0.052168  1
  Li  Li4  1  0.262159  0.287304  0.157609  1
  Li  Li5  1  0.741984  0.747997  0.283219  1
  Li  Li6  1  0.213768  0.816530  0.753042  1
  Li  Li7  1  0.231283  0.758581  0.252864  1
  Li  Li8  1  0.753289  0.218830  0.352220  1
  Li  Li9  1  0.461644  0.514862  0.750837  1
  Li  Li10  1  0.230219  0.227150  0.366779  1
  Li  Li11  1  0.736259  0.257662  0.857589  1
  Li  Li12  1  0.244894  0.760935  0.005568  1
  Li  Li13  1  0.739841  0.260880  0.130953  1
  Li  Li14  1  0.765197  0.727225  0.688349  1
  Li  Li15  1  0.220075  0.258850  0.919740  1
  Li  Li16  1  0.748377  0.761141  0.008349  1
  Li  Li17  1  0.244191  0.719725  0.485277  1
  Li  Li18  1  0.784041  0.215517  0.625375  1
  Li  Li19  1  0.240541  0.212957  0.649335  1
  Sn  Sn20  1  0.996205  0.489836  0.183305  1
  Sn  Sn21  1  0.510327  0.989647  0.815154  1
  P  P22  1  0.993307  0.965151  0.501675  1
  P  P23  1  0.492358  0.515569  0.992901  1
  P  P24  1  0.008690  0.482815  0.684219  1
  P  P25  1  0.487946  0.009260  0.310628  1
  S  S26  1  0.988565  0.174712  0.443639  1
  S  S27  1  0.004989  0.794518  0.391016  1
  S  S28  1  0.297052  0.530640  0.901908  1
  S  S29  1  0.683218  0.530216  0.900872  1
  S  S30  1  0.495259  0.693974  0.095799  1
  S  S31  1  0.487030  0.311560  0.058852  1
  S  S32  1  0.194233  0.947687  0.587740  1
  S  S33  1  0.802298  0.946281  0.589619  1
  S  S34  1  0.007667  0.285308  0.058474  1
  S  S35  1  0.001306  0.723460  0.097690  1
  S  S36  1  0.210090  0.486045  0.601837  1
  S  S37  1  0.817157  0.491126  0.590040  1
  S  S38  1  0.484615  0.802235  0.374324  1
  S  S39  1  0.495519  0.176619  0.421831  1
  S  S40  1  0.272000  0.988239  0.910473  1
  S  S41  1  0.726254  0.001996  0.929643  1
  S  S42  1  0.993071  0.661429  0.786979  1
  S  S43  1  0.003046  0.282981  0.759752  1
  S  S44  1  0.765551  0.465059  0.279997  1
  S  S45  1  0.213855  0.477736  0.298247  1
  S  S46  1  0.519157  0.214163  0.715561  1
  S  S47  1  0.490502  0.780172  0.694516  1
  S  S48  1  0.684181  0.015895  0.222071  1
  S  S49  1  0.293944  0.031320  0.219910  1
