# generated using pymatgen
data_LiFeSiO4
_symmetry_space_group_name_H-M   'P 1'
_cell_length_a   8.76516490
_cell_length_b   8.76516490
_cell_length_c   8.15492788
_cell_angle_alpha   90.00000000
_cell_angle_beta   90.00000000
_cell_angle_gamma   120.00000000
_symmetry_Int_Tables_number   1
_chemical_formula_structural   LiFeSiO4
_chemical_formula_sum   'Li6 Fe6 Si6 O24'
_cell_volume   542.58894171
_cell_formula_units_Z   6
loop_
 _symmetry_equiv_pos_site_id
 _symmetry_equiv_pos_as_xyz
  1  'x, y, z'
loop_
 _atom_site_type_symbol
 _atom_site_label
 _atom_site_symmetry_multiplicity
 _atom_site_fract_x
 _atom_site_fract_y
 _atom_site_fract_z
 _atom_site_occupancy
  Li  Li0  1  0.333333  0.666667  0.252966  1
  Li  Li1  1  0.333333  0.666667  0.661642  1
  Li  Li2  1  0.000000  0.000000  0.068374  1
  Li  Li3  1  0.000000  0.000000  0.568374  1
  Li  Li4  1  0.666667  0.333333  0.752966  1
  Li  Li5  1  0.666667  0.333333  0.161642  1
  Fe  Fe6  1  0.044087  0.686388  0.007447  1
  Fe  Fe7  1  0.313612  0.357699  0.007447  1
  Fe  Fe8  1  0.642301  0.955913  0.007447  1
  Fe  Fe9  1  0.357699  0.044087  0.507447  1
  Fe  Fe10  1  0.686388  0.642301  0.507447  1
  Fe  Fe11  1  0.955913  0.313612  0.507447  1
  Si  Si12  1  0.041329  0.688445  0.395868  1
  Si  Si13  1  0.311555  0.352884  0.395868  1
  Si  Si14  1  0.647116  0.958671  0.395868  1
  Si  Si15  1  0.352884  0.041329  0.895868  1
  Si  Si16  1  0.688445  0.647116  0.895868  1
  Si  Si17  1  0.958671  0.311555  0.895868  1
  O  O18  1  0.110497  0.875082  0.495936  1
  O  O19  1  0.147227  0.732688  0.219277  1
  O  O20  1  0.239565  0.826280  0.868162  1
  O  O21  1  0.099144  0.561762  0.497166  1
  O  O22  1  0.462617  0.900856  0.497166  1
  O  O23  1  0.124918  0.235414  0.495936  1
  O  O24  1  0.173720  0.413284  0.868162  1
  O  O25  1  0.267312  0.414539  0.219277  1
  O  O26  1  0.235414  0.110497  0.995936  1
  O  O27  1  0.585461  0.852773  0.219277  1
  O  O28  1  0.586716  0.760435  0.868162  1
  O  O29  1  0.438238  0.537383  0.497166  1
  O  O30  1  0.561762  0.462617  0.997166  1
  O  O31  1  0.413284  0.239565  0.368162  1
  O  O32  1  0.414539  0.147227  0.719277  1
  O  O33  1  0.764586  0.889503  0.495936  1
  O  O34  1  0.732688  0.585461  0.719277  1
  O  O35  1  0.826280  0.586716  0.368162  1
  O  O36  1  0.875082  0.764586  0.995936  1
  O  O37  1  0.537383  0.099144  0.997166  1
  O  O38  1  0.900856  0.438238  0.997166  1
  O  O39  1  0.760435  0.173720  0.368162  1
  O  O40  1  0.852773  0.267312  0.719277  1
  O  O41  1  0.889503  0.124918  0.995936  1
