# generated using pymatgen
data_LiVF6
_symmetry_space_group_name_H-M   'P 1'
_cell_length_a   5.00240832
_cell_length_b   8.69418707
_cell_length_c   9.69381280
_cell_angle_alpha   90.00000000
_cell_angle_beta   90.00000000
_cell_angle_gamma   90.00000000
_symmetry_Int_Tables_number   1
_chemical_formula_structural   LiVF6
_chemical_formula_sum   'Li4 V4 F24'
_cell_volume   421.60208230
_cell_formula_units_Z   4
loop_
 _symmetry_equiv_pos_site_id
 _symmetry_equiv_pos_as_xyz
  1  'x, y, z'
loop_
 _atom_site_type_symbol
 _atom_site_label
 _atom_site_symmetry_multiplicity
 _atom_site_fract_x
 _atom_site_fract_y
 _atom_site_fract_z
 _atom_site_occupancy
  Li  Li0  1  0.985332  0.124119  0.119119  1
  Li  Li1  1  0.485332  0.624119  0.380881  1
  Li  Li2  1  0.985332  0.375881  0.619119  1
  Li  Li3  1  0.485332  0.875881  0.880881  1
  V  V4  1  0.999874  0.752650  0.128619  1
  V  V5  1  0.499874  0.252650  0.371381  1
  V  V6  1  0.999874  0.747350  0.628619  1
  V  V7  1  0.499874  0.247350  0.871381  1
  F  F8  1  0.170748  0.895412  0.015259  1
  F  F9  1  0.708818  0.756966  0.015041  1
  F  F10  1  0.144503  0.603424  0.031878  1
  F  F11  1  0.870124  0.925536  0.215309  1
  F  F12  1  0.821726  0.629377  0.246456  1
  F  F13  1  0.284562  0.754931  0.246026  1
  F  F14  1  0.784562  0.254931  0.253974  1
  F  F15  1  0.321726  0.129377  0.253544  1
  F  F16  1  0.370124  0.425536  0.284691  1
  F  F17  1  0.644503  0.103424  0.468122  1
  F  F18  1  0.208818  0.256966  0.484959  1
  F  F19  1  0.670748  0.395412  0.484741  1
  F  F20  1  0.170748  0.604588  0.515259  1
  F  F21  1  0.708818  0.743034  0.515041  1
  F  F22  1  0.144503  0.896576  0.531878  1
  F  F23  1  0.870124  0.574464  0.715309  1
  F  F24  1  0.821726  0.870623  0.746456  1
  F  F25  1  0.284562  0.745069  0.746026  1
  F  F26  1  0.784562  0.245069  0.753974  1
  F  F27  1  0.321726  0.370623  0.753544  1
  F  F28  1  0.370124  0.074464  0.784691  1
  F  F29  1  0.644503  0.396576  0.968122  1
  F  F30  1  0.208818  0.243034  0.984959  1
  F  F31  1  0.670748  0.104588  0.984741  1
