# generated using pymatgen
data_Li7Mn(O2F)2
_symmetry_space_group_name_H-M   'P 1'
_cell_length_a   5.42799964
_cell_length_b   5.77824253
_cell_length_c   10.03887391
_cell_angle_alpha   105.19299889
_cell_angle_beta   87.17869146
_cell_angle_gamma   115.50172486
_symmetry_Int_Tables_number   1
_chemical_formula_structural   Li7Mn(O2F)2
_chemical_formula_sum   'Li14 Mn2 O8 F4'
_cell_volume   273.52090940
_cell_formula_units_Z   2
loop_
 _symmetry_equiv_pos_site_id
 _symmetry_equiv_pos_as_xyz
  1  'x, y, z'
loop_
 _atom_site_type_symbol
 _atom_site_label
 _atom_site_symmetry_multiplicity
 _atom_site_fract_x
 _atom_site_fract_y
 _atom_site_fract_z
 _atom_site_occupancy
  Li  Li0  1  0.053415  0.964310  0.765303  1
  Li  Li1  1  0.484910  0.375561  0.252024  1
  Li  Li2  1  0.531671  0.045593  0.611224  1
  Li  Li3  1  0.967877  0.449252  0.883636  1
  Li  Li4  1  0.053963  0.789675  0.556161  1
  Li  Li5  1  0.527737  0.290770  0.041752  1
  Li  Li6  1  0.958137  0.642457  0.335840  1
  Li  Li7  1  0.473826  0.755723  0.941495  1
  Li  Li8  1  0.957837  0.196125  0.469359  1
  Li  Li9  1  0.988875  0.505422  0.109921  1
  Li  Li10  1  0.492545  0.973219  0.382984  1
  Li  Li11  1  0.474603  0.570451  0.727292  1
  Li  Li12  1  0.004138  0.098717  0.252627  1
  Li  Li13  1  0.527673  0.861054  0.171893  1
  Mn  Mn14  1  0.003096  0.962351  0.039372  1
  Mn  Mn15  1  0.503934  0.501535  0.493415  1
  O  O16  1  0.249354  0.164551  0.598026  1
  O  O17  1  0.293036  0.039728  0.198346  1
  O  O18  1  0.160194  0.800293  0.963384  1
  O  O19  1  0.670325  0.313542  0.434385  1
  O  O20  1  0.696160  0.631713  0.108381  1
  O  O21  1  0.340219  0.700351  0.539390  1
  O  O22  1  0.827241  0.174920  0.060449  1
  O  O23  1  0.776664  0.841316  0.389025  1
  F  F24  1  0.835184  0.593595  0.710564  1
  F  F25  1  0.290092  0.389067  0.891213  1
  F  F26  1  0.684763  0.925607  0.786577  1
  F  F27  1  0.172531  0.443103  0.285962  1
