# generated using pymatgen
data_Co2C2O7
_symmetry_space_group_name_H-M   'P 1'
_cell_length_a   8.04653591
_cell_length_b   7.88042863
_cell_length_c   11.40728180
_cell_angle_alpha   90.00000000
_cell_angle_beta   101.32785906
_cell_angle_gamma   90.00000000
_symmetry_Int_Tables_number   1
_chemical_formula_structural   Co2C2O7
_chemical_formula_sum   'Co8 C8 O28'
_cell_volume   709.24632883
_cell_formula_units_Z   4
loop_
 _symmetry_equiv_pos_site_id
 _symmetry_equiv_pos_as_xyz
  1  'x, y, z'
loop_
 _atom_site_type_symbol
 _atom_site_label
 _atom_site_symmetry_multiplicity
 _atom_site_fract_x
 _atom_site_fract_y
 _atom_site_fract_z
 _atom_site_occupancy
  Co  Co0  1  0.203785  0.431942  0.125847  1
  Co  Co1  1  0.358369  0.627304  0.382905  1
  Co  Co2  1  0.203785  0.068058  0.625847  1
  Co  Co3  1  0.358369  0.872696  0.882905  1
  Co  Co4  1  0.641631  0.127304  0.117095  1
  Co  Co5  1  0.796215  0.931942  0.374153  1
  Co  Co6  1  0.641631  0.372696  0.617095  1
  Co  Co7  1  0.796215  0.568058  0.874153  1
  C  C8  1  0.161287  0.913772  0.395595  1
  C  C9  1  0.161287  0.586228  0.895595  1
  C  C10  1  0.274359  0.121360  0.046266  1
  C  C11  1  0.274359  0.378640  0.546266  1
  C  C12  1  0.725641  0.621360  0.453734  1
  C  C13  1  0.725641  0.878640  0.953734  1
  C  C14  1  0.838713  0.413772  0.104405  1
  C  C15  1  0.838713  0.086228  0.604405  1
  O  O16  1  0.022451  0.999037  0.366609  1
  O  O17  1  0.209406  0.809912  0.321110  1
  O  O18  1  0.022451  0.500963  0.866609  1
  O  O19  1  0.147049  0.201327  0.072999  1
  O  O20  1  0.338280  0.468180  0.268421  1
  O  O21  1  0.256745  0.968425  0.006857  1
  O  O22  1  0.260011  0.563822  0.999577  1
  O  O23  1  0.209406  0.690088  0.821110  1
  O  O24  1  0.147049  0.298673  0.572999  1
  O  O25  1  0.419180  0.203626  0.059465  1
  O  O26  1  0.580820  0.703626  0.440535  1
  O  O27  1  0.739989  0.063822  0.500423  1
  O  O28  1  0.338280  0.031820  0.768421  1
  O  O29  1  0.256745  0.531575  0.506857  1
  O  O30  1  0.743255  0.468425  0.493143  1
  O  O31  1  0.661720  0.968180  0.231579  1
  O  O32  1  0.260011  0.936178  0.499577  1
  O  O33  1  0.419180  0.296374  0.559465  1
  O  O34  1  0.580820  0.796374  0.940535  1
  O  O35  1  0.852951  0.701327  0.427001  1
  O  O36  1  0.790594  0.309912  0.178890  1
  O  O37  1  0.739989  0.436178  0.000423  1
  O  O38  1  0.743255  0.031575  0.993143  1
  O  O39  1  0.661720  0.531820  0.731579  1
  O  O40  1  0.852951  0.798673  0.927001  1
  O  O41  1  0.977549  0.499037  0.133391  1
  O  O42  1  0.790594  0.190088  0.678890  1
  O  O43  1  0.977549  0.000963  0.633391  1
