# generated using pymatgen
data_Li2BiAsCO7
_symmetry_space_group_name_H-M   'P 1'
_cell_length_a   5.13904516
_cell_length_b   7.17260209
_cell_length_c   9.34412839
_cell_angle_alpha   90.00000000
_cell_angle_beta   90.29749888
_cell_angle_gamma   90.00000000
_symmetry_Int_Tables_number   1
_chemical_formula_structural   Li2BiAsCO7
_chemical_formula_sum   'Li4 Bi2 As2 C2 O14'
_cell_volume   344.42297590
_cell_formula_units_Z   2
loop_
 _symmetry_equiv_pos_site_id
 _symmetry_equiv_pos_as_xyz
  1  'x, y, z'
loop_
 _atom_site_type_symbol
 _atom_site_label
 _atom_site_symmetry_multiplicity
 _atom_site_fract_x
 _atom_site_fract_y
 _atom_site_fract_z
 _atom_site_occupancy
  Li  Li0  1  0.213454  0.056957  0.210072  1
  Li  Li1  1  0.213454  0.443043  0.210072  1
  Li  Li2  1  0.786546  0.556957  0.789928  1
  Li  Li3  1  0.786546  0.943043  0.789928  1
  Bi  Bi4  1  0.778611  0.750000  0.360048  1
  Bi  Bi5  1  0.221389  0.250000  0.639952  1
  As  As6  1  0.727672  0.250000  0.386764  1
  As  As7  1  0.272328  0.750000  0.613236  1
  C  C8  1  0.743886  0.750000  0.069021  1
  C  C9  1  0.256114  0.250000  0.930979  1
  O  O10  1  0.261457  0.250000  0.067308  1
  O  O11  1  0.967779  0.750000  0.140180  1
  O  O12  1  0.532280  0.750000  0.146639  1
  O  O13  1  0.879073  0.059410  0.311979  1
  O  O14  1  0.879073  0.440590  0.311979  1
  O  O15  1  0.227350  0.750000  0.428101  1
  O  O16  1  0.399079  0.250000  0.358528  1
  O  O17  1  0.600921  0.750000  0.641472  1
  O  O18  1  0.772650  0.250000  0.571899  1
  O  O19  1  0.120927  0.559410  0.688021  1
  O  O20  1  0.120927  0.940590  0.688021  1
  O  O21  1  0.467720  0.250000  0.853361  1
  O  O22  1  0.032221  0.250000  0.859820  1
  O  O23  1  0.738543  0.750000  0.932692  1
