# generated using pymatgen
data_PrHfO4
_symmetry_space_group_name_H-M   'P 1'
_cell_length_a   7.68046143
_cell_length_b   7.68046143
_cell_length_c   10.73774450
_cell_angle_alpha   90.00000000
_cell_angle_beta   90.00000000
_cell_angle_gamma   90.00000000
_symmetry_Int_Tables_number   1
_chemical_formula_structural   PrHfO4
_chemical_formula_sum   'Pr8 Hf8 O32'
_cell_volume   633.41404802
_cell_formula_units_Z   8
loop_
 _symmetry_equiv_pos_site_id
 _symmetry_equiv_pos_as_xyz
  1  'x, y, z'
loop_
 _atom_site_type_symbol
 _atom_site_label
 _atom_site_symmetry_multiplicity
 _atom_site_fract_x
 _atom_site_fract_y
 _atom_site_fract_z
 _atom_site_occupancy
  Pr  Pr0  1  0.001496  0.249446  0.874434  1
  Pr  Pr1  1  0.501457  0.250627  0.876578  1
  Pr  Pr2  1  0.750554  0.001496  0.624434  1
  Pr  Pr3  1  0.749373  0.501457  0.626578  1
  Pr  Pr4  1  0.998504  0.750554  0.374434  1
  Pr  Pr5  1  0.498543  0.749373  0.376578  1
  Pr  Pr6  1  0.249446  0.998504  0.124434  1
  Pr  Pr7  1  0.250627  0.498543  0.126578  1
  Hf  Hf8  1  0.994769  0.761990  0.876105  1
  Hf  Hf9  1  0.497531  0.739119  0.876044  1
  Hf  Hf10  1  0.238010  0.994769  0.626105  1
  Hf  Hf11  1  0.260881  0.497531  0.626044  1
  Hf  Hf12  1  0.005231  0.238010  0.376105  1
  Hf  Hf13  1  0.502469  0.260881  0.376044  1
  Hf  Hf14  1  0.761990  0.005231  0.126105  1
  Hf  Hf15  1  0.739119  0.502469  0.126044  1
  O  O16  1  0.244998  0.755303  0.968498  1
  O  O17  1  0.518920  0.526760  0.998980  1
  O  O18  1  0.968653  0.529954  0.998787  1
  O  O19  1  0.251968  0.249339  0.000505  1
  O  O20  1  0.776007  0.726885  0.007974  1
  O  O21  1  0.973830  0.984279  0.000230  1
  O  O22  1  0.549782  0.950553  0.999999  1
  O  O23  1  0.049447  0.549782  0.749999  1
  O  O24  1  0.015721  0.973830  0.750230  1
  O  O25  1  0.273115  0.776007  0.757974  1
  O  O26  1  0.745472  0.743715  0.786211  1
  O  O27  1  0.470046  0.968653  0.748787  1
  O  O28  1  0.750661  0.251968  0.750505  1
  O  O29  1  0.244697  0.244998  0.718498  1
  O  O30  1  0.473240  0.518920  0.748980  1
  O  O31  1  0.256285  0.745472  0.536211  1
  O  O32  1  0.748032  0.750661  0.500505  1
  O  O33  1  0.223993  0.273115  0.507974  1
  O  O34  1  0.481080  0.473240  0.498980  1
  O  O35  1  0.450218  0.049447  0.499999  1
  O  O36  1  0.031347  0.470046  0.498787  1
  O  O37  1  0.026170  0.015721  0.500230  1
  O  O38  1  0.755002  0.244697  0.468498  1
  O  O39  1  0.950553  0.450218  0.249999  1
  O  O40  1  0.984279  0.026170  0.250230  1
  O  O41  1  0.726885  0.223993  0.257974  1
  O  O42  1  0.254528  0.256285  0.286211  1
  O  O43  1  0.529954  0.031347  0.248787  1
  O  O44  1  0.249339  0.748032  0.250505  1
  O  O45  1  0.755303  0.755002  0.218498  1
  O  O46  1  0.526760  0.481080  0.248980  1
  O  O47  1  0.743715  0.254528  0.036211  1
