# generated using pymatgen
data_MnFeBO4
_symmetry_space_group_name_H-M   'P 1'
_cell_length_a   9.50826151
_cell_length_b   3.22477456
_cell_length_c   9.53667814
_cell_angle_alpha   90.00000000
_cell_angle_beta   90.58207075
_cell_angle_gamma   90.00000000
_symmetry_Int_Tables_number   1
_chemical_formula_structural   MnFeBO4
_chemical_formula_sum   'Mn4 Fe4 B4 O16'
_cell_volume   292.39853395
_cell_formula_units_Z   4
loop_
 _symmetry_equiv_pos_site_id
 _symmetry_equiv_pos_as_xyz
  1  'x, y, z'
loop_
 _atom_site_type_symbol
 _atom_site_label
 _atom_site_symmetry_multiplicity
 _atom_site_fract_x
 _atom_site_fract_y
 _atom_site_fract_z
 _atom_site_occupancy
  Mn  Mn0  1  0.101941  0.000000  0.186112  1
  Mn  Mn1  1  0.402135  0.500000  0.694111  1
  Mn  Mn2  1  0.602275  0.000000  0.309155  1
  Mn  Mn3  1  0.894529  0.500000  0.812319  1
  Fe  Fe4  1  0.117550  0.000000  0.568093  1
  Fe  Fe5  1  0.387114  0.500000  0.064037  1
  Fe  Fe6  1  0.621524  0.000000  0.936022  1
  Fe  Fe7  1  0.883481  0.500000  0.430062  1
  B  B8  1  0.167400  0.000000  0.874230  1
  B  B9  1  0.335984  0.500000  0.372586  1
  B  B10  1  0.665743  0.000000  0.623799  1
  B  B11  1  0.828851  0.500000  0.125328  1
  O  O12  1  0.004650  0.000000  0.388458  1
  O  O13  1  0.025243  0.000000  0.875275  1
  O  O14  1  0.245105  0.000000  0.000581  1
  O  O15  1  0.239814  0.000000  0.745805  1
  O  O16  1  0.262026  0.500000  0.246136  1
  O  O17  1  0.261498  0.500000  0.501522  1
  O  O18  1  0.478670  0.500000  0.374039  1
  O  O19  1  0.489250  0.500000  0.888277  1
  O  O20  1  0.505129  0.000000  0.121616  1
  O  O21  1  0.523071  0.000000  0.624890  1
  O  O22  1  0.735596  0.000000  0.491871  1
  O  O23  1  0.744221  0.000000  0.746952  1
  O  O24  1  0.752612  0.500000  0.252495  1
  O  O25  1  0.758965  0.500000  0.997359  1
  O  O26  1  0.970573  0.500000  0.135747  1
  O  O27  1  0.995050  0.500000  0.613125  1
