# generated using pymatgen
data_LuCrO3
_symmetry_space_group_name_H-M   'P 1'
_cell_length_a   5.21140066
_cell_length_b   5.56340813
_cell_length_c   7.57531282
_cell_angle_alpha   90.00000000
_cell_angle_beta   90.00000000
_cell_angle_gamma   90.00000000
_symmetry_Int_Tables_number   1
_chemical_formula_structural   LuCrO3
_chemical_formula_sum   'Lu4 Cr4 O12'
_cell_volume   219.63217180
_cell_formula_units_Z   4
loop_
 _symmetry_equiv_pos_site_id
 _symmetry_equiv_pos_as_xyz
  1  'x, y, z'
loop_
 _atom_site_type_symbol
 _atom_site_label
 _atom_site_symmetry_multiplicity
 _atom_site_fract_x
 _atom_site_fract_y
 _atom_site_fract_z
 _atom_site_occupancy
  Lu  Lu0  1  0.022737  0.927292  0.750000  1
  Lu  Lu1  1  0.477263  0.427292  0.750000  1
  Lu  Lu2  1  0.522737  0.572708  0.250000  1
  Lu  Lu3  1  0.977263  0.072708  0.250000  1
  Cr  Cr4  1  0.000000  0.500000  0.000000  1
  Cr  Cr5  1  0.000000  0.500000  0.500000  1
  Cr  Cr6  1  0.500000  0.000000  0.000000  1
  Cr  Cr7  1  0.500000  0.000000  0.500000  1
  O  O8  1  0.125806  0.450346  0.250000  1
  O  O9  1  0.187895  0.193595  0.563595  1
  O  O10  1  0.187895  0.193595  0.936405  1
  O  O11  1  0.312105  0.693595  0.563595  1
  O  O12  1  0.312105  0.693595  0.936405  1
  O  O13  1  0.374194  0.950346  0.250000  1
  O  O14  1  0.625806  0.049654  0.750000  1
  O  O15  1  0.687895  0.306405  0.063595  1
  O  O16  1  0.687895  0.306405  0.436405  1
  O  O17  1  0.812105  0.806405  0.063595  1
  O  O18  1  0.812105  0.806405  0.436405  1
  O  O19  1  0.874194  0.549654  0.750000  1
