# generated using pymatgen
data_LiMn2F5
_symmetry_space_group_name_H-M   'P 1'
_cell_length_a   7.88435488
_cell_length_b   7.88435488
_cell_length_c   10.98506142
_cell_angle_alpha   88.66042865
_cell_angle_beta   91.33957135
_cell_angle_gamma   94.18143016
_symmetry_Int_Tables_number   1
_chemical_formula_structural   LiMn2F5
_chemical_formula_sum   'Li6 Mn12 F30'
_cell_volume   680.70026682
_cell_formula_units_Z   6
loop_
 _symmetry_equiv_pos_site_id
 _symmetry_equiv_pos_as_xyz
  1  'x, y, z'
loop_
 _atom_site_type_symbol
 _atom_site_label
 _atom_site_symmetry_multiplicity
 _atom_site_fract_x
 _atom_site_fract_y
 _atom_site_fract_z
 _atom_site_occupancy
  Li  Li0  1  0.716858  0.057026  0.449130  1
  Li  Li1  1  0.942974  0.283142  0.949130  1
  Li  Li2  1  0.654025  0.654025  0.250000  1
  Li  Li3  1  0.345975  0.345975  0.750000  1
  Li  Li4  1  0.057026  0.716858  0.050870  1
  Li  Li5  1  0.283142  0.942974  0.550870  1
  Mn  Mn6  1  0.709753  0.010510  0.064324  1
  Mn  Mn7  1  0.989490  0.290247  0.564324  1
  Mn  Mn8  1  0.365864  0.000566  0.250020  1
  Mn  Mn9  1  0.999434  0.634136  0.750020  1
  Mn  Mn10  1  0.376930  0.344823  0.437826  1
  Mn  Mn11  1  0.344823  0.376930  0.062174  1
  Mn  Mn12  1  0.655177  0.623070  0.937826  1
  Mn  Mn13  1  0.623070  0.655177  0.562174  1
  Mn  Mn14  1  0.000566  0.365864  0.249980  1
  Mn  Mn15  1  0.634136  0.999434  0.749980  1
  Mn  Mn16  1  0.010510  0.709753  0.435676  1
  Mn  Mn17  1  0.290247  0.989490  0.935676  1
  F  F18  1  0.894133  0.211338  0.388700  1
  F  F19  1  0.788662  0.105867  0.888700  1
  F  F20  1  0.862827  0.225519  0.116374  1
  F  F21  1  0.774481  0.137173  0.616374  1
  F  F22  1  0.506000  0.131585  0.393591  1
  F  F23  1  0.472604  0.139918  0.073651  1
  F  F24  1  0.868415  0.494000  0.893591  1
  F  F25  1  0.860082  0.527396  0.573651  1
  F  F26  1  0.887113  0.596650  0.281096  1
  F  F27  1  0.403350  0.112887  0.781096  1
  F  F28  1  0.831678  0.785387  0.041422  1
  F  F29  1  0.553562  0.539604  0.112121  1
  F  F30  1  0.214613  0.168322  0.541422  1
  F  F31  1  0.256426  0.256426  0.250000  1
  F  F32  1  0.460396  0.446438  0.612121  1
  F  F33  1  0.539604  0.553562  0.387879  1
  F  F34  1  0.743574  0.743574  0.750000  1
  F  F35  1  0.785387  0.831678  0.458578  1
  F  F36  1  0.446438  0.460396  0.887879  1
  F  F37  1  0.168322  0.214613  0.958578  1
  F  F38  1  0.596650  0.887113  0.218904  1
  F  F39  1  0.112887  0.403350  0.718904  1
  F  F40  1  0.139918  0.472604  0.426349  1
  F  F41  1  0.131585  0.506000  0.106409  1
  F  F42  1  0.527396  0.860082  0.926349  1
  F  F43  1  0.494000  0.868415  0.606409  1
  F  F44  1  0.225519  0.862827  0.383626  1
  F  F45  1  0.137173  0.774481  0.883626  1
  F  F46  1  0.211338  0.894133  0.111300  1
  F  F47  1  0.105867  0.788662  0.611300  1
