# generated using pymatgen
data_Na11(WO3)13
_symmetry_space_group_name_H-M   'P 1'
_cell_length_a   6.85860280
_cell_length_b   8.92620073
_cell_length_c   14.30685155
_cell_angle_alpha   75.36292532
_cell_angle_beta   80.77266697
_cell_angle_gamma   74.92010728
_symmetry_Int_Tables_number   1
_chemical_formula_structural   Na11(WO3)13
_chemical_formula_sum   'Na11 W13 O39'
_cell_volume   814.06767093
_cell_formula_units_Z   1
loop_
 _symmetry_equiv_pos_site_id
 _symmetry_equiv_pos_as_xyz
  1  'x, y, z'
loop_
 _atom_site_type_symbol
 _atom_site_label
 _atom_site_symmetry_multiplicity
 _atom_site_fract_x
 _atom_site_fract_y
 _atom_site_fract_z
 _atom_site_occupancy
  Na  Na0  1  0.615949  0.192569  0.461121  1
  Na  Na1  1  0.461310  0.270571  0.846164  1
  Na  Na2  1  0.000000  0.500000  0.000000  1
  Na  Na3  1  0.847104  0.576545  0.384012  1
  Na  Na4  1  0.152896  0.423455  0.615988  1
  Na  Na5  1  0.231813  0.884304  0.922698  1
  Na  Na6  1  0.768187  0.115696  0.077302  1
  Na  Na7  1  0.538690  0.729429  0.153836  1
  Na  Na8  1  0.076704  0.962546  0.308120  1
  Na  Na9  1  0.384051  0.807431  0.538879  1
  Na  Na10  1  0.923296  0.037454  0.691880  1
  W  W11  1  0.652588  0.424429  0.616844  1
  W  W12  1  0.347412  0.575571  0.383156  1
  W  W13  1  0.500000  0.500000  0.000000  1
  W  W14  1  0.423879  0.034985  0.691800  1
  W  W15  1  0.576121  0.965015  0.308200  1
  W  W16  1  0.807210  0.346412  0.230199  1
  W  W17  1  0.960460  0.273126  0.846189  1
  W  W18  1  0.113009  0.194426  0.460736  1
  W  W19  1  0.268139  0.116974  0.078273  1
  W  W20  1  0.886991  0.805574  0.539264  1
  W  W21  1  0.731861  0.883026  0.921727  1
  W  W22  1  0.039540  0.726874  0.153811  1
  W  W23  1  0.192790  0.653588  0.769801  1
  O  O24  1  0.500000  0.500000  0.500000  1
  O  O25  1  0.571855  0.468529  0.312176  1
  O  O26  1  0.654119  0.425813  0.108954  1
  O  O27  1  0.345881  0.574187  0.891046  1
  O  O28  1  0.263582  0.624824  0.077589  1
  O  O29  1  0.428145  0.531471  0.687824  1
  O  O30  1  0.702688  0.148728  0.269470  1
  O  O31  1  0.766557  0.609012  0.574684  1
  O  O32  1  0.536275  0.236154  0.652999  1
  O  O33  1  0.233443  0.390988  0.425316  1
  O  O34  1  0.913266  0.543775  0.191578  1
  O  O35  1  0.086734  0.456225  0.808422  1
  O  O36  1  0.386076  0.301130  0.035804  1
  O  O37  1  0.353791  0.067983  0.384601  1
  O  O38  1  0.191282  0.153794  0.768700  1
  O  O39  1  0.045220  0.223670  0.148588  1
  O  O40  1  0.122640  0.189366  0.962173  1
  O  O41  1  0.736418  0.375176  0.922411  1
  O  O42  1  0.807536  0.342915  0.727498  1
  O  O43  1  0.646209  0.932017  0.615399  1
  O  O44  1  0.575558  0.964653  0.811356  1
  O  O45  1  0.424442  0.035347  0.188644  1
  O  O46  1  0.877433  0.310101  0.540436  1
  O  O47  1  0.500000  0.000000  0.000000  1
  O  O48  1  0.264025  0.119209  0.573898  1
  O  O49  1  0.962974  0.268944  0.350728  1
  O  O50  1  0.297312  0.851272  0.730530  1
  O  O51  1  0.843665  0.072820  0.885598  1
  O  O52  1  0.000000  0.000000  0.500000  1
  O  O53  1  0.613924  0.698870  0.964196  1
  O  O54  1  0.463725  0.763846  0.347001  1
  O  O55  1  0.156335  0.927180  0.114402  1
  O  O56  1  0.122567  0.689899  0.459564  1
  O  O57  1  0.735975  0.880791  0.426102  1
  O  O58  1  0.808718  0.846206  0.231300  1
  O  O59  1  0.954780  0.776330  0.851412  1
  O  O60  1  0.037026  0.731056  0.649272  1
  O  O61  1  0.192464  0.657085  0.272502  1
  O  O62  1  0.877360  0.810634  0.037827  1
