# generated using pymatgen
data_LiCrB2O5
_symmetry_space_group_name_H-M   'P 1'
_cell_length_a   5.64160339
_cell_length_b   9.58283318
_cell_length_c   6.94574375
_cell_angle_alpha   90.00000000
_cell_angle_beta   107.09021961
_cell_angle_gamma   90.00000000
_symmetry_Int_Tables_number   1
_chemical_formula_structural   LiCrB2O5
_chemical_formula_sum   'Li4 Cr4 B8 O20'
_cell_volume   358.92349483
_cell_formula_units_Z   4
loop_
 _symmetry_equiv_pos_site_id
 _symmetry_equiv_pos_as_xyz
  1  'x, y, z'
loop_
 _atom_site_type_symbol
 _atom_site_label
 _atom_site_symmetry_multiplicity
 _atom_site_fract_x
 _atom_site_fract_y
 _atom_site_fract_z
 _atom_site_occupancy
  Li  Li0  1  0.177212  0.437283  0.214478  1
  Li  Li1  1  0.677212  0.062717  0.214478  1
  Li  Li2  1  0.322788  0.937283  0.785522  1
  Li  Li3  1  0.822788  0.562717  0.785522  1
  Cr  Cr4  1  0.284837  0.826800  0.245908  1
  Cr  Cr5  1  0.784837  0.673200  0.245908  1
  Cr  Cr6  1  0.215163  0.326800  0.754092  1
  Cr  Cr7  1  0.715163  0.173200  0.754092  1
  B  B8  1  0.171014  0.114716  0.086615  1
  B  B9  1  0.671014  0.385284  0.086615  1
  B  B10  1  0.238801  0.087890  0.451995  1
  B  B11  1  0.261199  0.587890  0.548005  1
  B  B12  1  0.738801  0.412110  0.451995  1
  B  B13  1  0.761199  0.912110  0.548005  1
  B  B14  1  0.328986  0.614716  0.913385  1
  B  B15  1  0.828986  0.885284  0.913385  1
  O  O16  1  0.428228  0.700731  0.075376  1
  O  O17  1  0.293745  0.994689  0.071039  1
  O  O18  1  0.928228  0.799269  0.075376  1
  O  O19  1  0.793745  0.505311  0.071039  1
  O  O20  1  0.147379  0.162865  0.270667  1
  O  O21  1  0.165288  0.661406  0.372246  1
  O  O22  1  0.647379  0.337135  0.270667  1
  O  O23  1  0.236847  0.946885  0.462927  1
  O  O24  1  0.665288  0.838594  0.372246  1
  O  O25  1  0.263153  0.446885  0.537073  1
  O  O26  1  0.736847  0.553115  0.462927  1
  O  O27  1  0.334712  0.161406  0.627754  1
  O  O28  1  0.763153  0.053115  0.537073  1
  O  O29  1  0.352621  0.662865  0.729333  1
  O  O30  1  0.834712  0.338594  0.627754  1
  O  O31  1  0.852621  0.837135  0.729333  1
  O  O32  1  0.206255  0.494689  0.928961  1
  O  O33  1  0.071772  0.200731  0.924624  1
  O  O34  1  0.706255  0.005311  0.928961  1
  O  O35  1  0.571772  0.299269  0.924624  1
