# generated using pymatgen
data_BaYF5
_symmetry_space_group_name_H-M   'P 1'
_cell_length_a   5.73670022
_cell_length_b   10.29858515
_cell_length_c   8.18318501
_cell_angle_alpha   90.00000000
_cell_angle_beta   91.11514427
_cell_angle_gamma   90.00000000
_symmetry_Int_Tables_number   1
_chemical_formula_structural   BaYF5
_chemical_formula_sum   'Ba4 Y4 F20'
_cell_volume   483.37015005
_cell_formula_units_Z   4
loop_
 _symmetry_equiv_pos_site_id
 _symmetry_equiv_pos_as_xyz
  1  'x, y, z'
loop_
 _atom_site_type_symbol
 _atom_site_label
 _atom_site_symmetry_multiplicity
 _atom_site_fract_x
 _atom_site_fract_y
 _atom_site_fract_z
 _atom_site_occupancy
  Ba  Ba0  1  0.011653  0.018401  0.174648  1
  Ba  Ba1  1  0.501493  0.342116  0.362294  1
  Ba  Ba2  1  0.498507  0.842116  0.637706  1
  Ba  Ba3  1  0.988347  0.518401  0.825352  1
  Y  Y4  1  0.006210  0.626722  0.380079  1
  Y  Y5  1  0.500966  0.210458  0.900545  1
  Y  Y6  1  0.499034  0.710458  0.099455  1
  Y  Y7  1  0.993790  0.126722  0.619921  1
  F  F8  1  0.991325  0.768040  0.577844  1
  F  F9  1  0.219384  0.553438  0.162591  1
  F  F10  1  0.164230  0.285111  0.769868  1
  F  F11  1  0.239295  0.513151  0.535344  1
  F  F12  1  0.267020  0.220830  0.107410  1
  F  F13  1  0.252085  0.038894  0.459850  1
  F  F14  1  0.269804  0.711662  0.883054  1
  F  F15  1  0.343332  0.748128  0.348770  1
  F  F16  1  0.278607  0.043151  0.792033  1
  F  F17  1  0.435327  0.918397  0.089177  1
  F  F18  1  0.564673  0.418397  0.910823  1
  F  F19  1  0.721393  0.543151  0.207967  1
  F  F20  1  0.656668  0.248128  0.651230  1
  F  F21  1  0.730196  0.211662  0.116946  1
  F  F22  1  0.747915  0.538894  0.540150  1
  F  F23  1  0.732980  0.720830  0.892590  1
  F  F24  1  0.760705  0.013151  0.464656  1
  F  F25  1  0.835770  0.785111  0.230132  1
  F  F26  1  0.780616  0.053438  0.837409  1
  F  F27  1  0.008675  0.268040  0.422156  1
