# generated using pymatgen
data_Li3Fe3OF7
_symmetry_space_group_name_H-M   'P 1'
_cell_length_a   6.18517741
_cell_length_b   6.18517741
_cell_length_c   10.74862682
_cell_angle_alpha   72.90544332
_cell_angle_beta   107.09455668
_cell_angle_gamma   121.15985977
_symmetry_Int_Tables_number   1
_chemical_formula_structural   Li3Fe3OF7
_chemical_formula_sum   'Li6 Fe6 O2 F14'
_cell_volume   331.23598114
_cell_formula_units_Z   2
loop_
 _symmetry_equiv_pos_site_id
 _symmetry_equiv_pos_as_xyz
  1  'x, y, z'
loop_
 _atom_site_type_symbol
 _atom_site_label
 _atom_site_symmetry_multiplicity
 _atom_site_fract_x
 _atom_site_fract_y
 _atom_site_fract_z
 _atom_site_occupancy
  Li  Li0  1  0.992349  0.495231  0.999704  1
  Li  Li1  1  0.563318  0.443294  0.689758  1
  Li  Li2  1  0.643501  0.884125  0.870630  1
  Li  Li3  1  0.115875  0.356499  0.370630  1
  Li  Li4  1  0.504769  0.007651  0.499704  1
  Li  Li5  1  0.556706  0.436682  0.189758  1
  Fe  Fe6  1  0.303436  0.190813  0.932859  1
  Fe  Fe7  1  0.060278  0.424466  0.694287  1
  Fe  Fe8  1  0.060266  0.946099  0.691910  1
  Fe  Fe9  1  0.053901  0.939734  0.191910  1
  Fe  Fe10  1  0.575534  0.939721  0.194287  1
  Fe  Fe11  1  0.809187  0.696564  0.432859  1
  O  O12  1  0.973333  0.088464  0.810959  1
  O  O13  1  0.911536  0.026667  0.310959  1
  F  F14  1  0.205304  0.320175  0.569457  1
  F  F15  1  0.436507  0.079736  0.801546  1
  F  F16  1  0.697348  0.346633  0.557876  1
  F  F17  1  0.179003  0.793961  0.575060  1
  F  F18  1  0.449530  0.561105  0.805720  1
  F  F19  1  0.931193  0.568361  0.803377  1
  F  F20  1  0.699257  0.802160  0.571854  1
  F  F21  1  0.197840  0.300743  0.071854  1
  F  F22  1  0.431639  0.068807  0.303377  1
  F  F23  1  0.206039  0.820997  0.075060  1
  F  F24  1  0.653367  0.302652  0.057876  1
  F  F25  1  0.438895  0.550470  0.305720  1
  F  F26  1  0.920264  0.563493  0.301546  1
  F  F27  1  0.679825  0.794696  0.069457  1
