# generated using pymatgen
data_Mn3Cr3(CoO8)2
_symmetry_space_group_name_H-M   'P 1'
_cell_length_a   5.81591929
_cell_length_b   5.81591929
_cell_length_c   8.69840060
_cell_angle_alpha   89.42729547
_cell_angle_beta   90.57270453
_cell_angle_gamma   120.00274590
_symmetry_Int_Tables_number   1
_chemical_formula_structural   Mn3Cr3(CoO8)2
_chemical_formula_sum   'Mn3 Cr3 Co2 O16'
_cell_volume   254.78029309
_cell_formula_units_Z   1
loop_
 _symmetry_equiv_pos_site_id
 _symmetry_equiv_pos_as_xyz
  1  'x, y, z'
loop_
 _atom_site_type_symbol
 _atom_site_label
 _atom_site_symmetry_multiplicity
 _atom_site_fract_x
 _atom_site_fract_y
 _atom_site_fract_z
 _atom_site_occupancy
  Mn  Mn0  1  0.170599  0.829401  0.788666  1
  Mn  Mn1  1  0.338108  0.166192  0.287442  1
  Mn  Mn2  1  0.833808  0.661892  0.287442  1
  Cr  Cr3  1  0.167124  0.329695  0.799521  1
  Cr  Cr4  1  0.670305  0.832876  0.799521  1
  Cr  Cr5  1  0.837870  0.162130  0.298886  1
  Co  Co6  1  0.330946  0.669054  0.516891  1
  Co  Co7  1  0.666199  0.333801  0.017532  1
  O  O8  1  0.167735  0.340757  0.393848  1
  O  O9  1  0.470185  0.529815  0.660206  1
  O  O10  1  0.330049  0.669951  0.907108  1
  O  O11  1  0.002612  0.997388  0.685935  1
  O  O12  1  0.003944  0.996056  0.181294  1
  O  O13  1  0.659243  0.832265  0.393848  1
  O  O14  1  0.047467  0.523743  0.657696  1
  O  O15  1  0.476257  0.952533  0.657696  1
  O  O16  1  0.825782  0.174218  0.893482  1
  O  O17  1  0.170212  0.829788  0.397829  1
  O  O18  1  0.526161  0.049333  0.155917  1
  O  O19  1  0.950667  0.473839  0.155917  1
  O  O20  1  0.664104  0.335896  0.400279  1
  O  O21  1  0.343263  0.175305  0.896535  1
  O  O22  1  0.522625  0.477375  0.154212  1
  O  O23  1  0.824695  0.656737  0.896535  1
