# generated using pymatgen
data_LiVP4(H2O7)2
_symmetry_space_group_name_H-M   'P 1'
_cell_length_a   5.14991726
_cell_length_b   7.02620205
_cell_length_c   7.47463682
_cell_angle_alpha   86.12889136
_cell_angle_beta   81.03173234
_cell_angle_gamma   71.51041107
_symmetry_Int_Tables_number   1
_chemical_formula_structural   LiVP4(H2O7)2
_chemical_formula_sum   'Li1 V1 P4 H4 O14'
_cell_volume   253.32092125
_cell_formula_units_Z   1
loop_
 _symmetry_equiv_pos_site_id
 _symmetry_equiv_pos_as_xyz
  1  'x, y, z'
loop_
 _atom_site_type_symbol
 _atom_site_label
 _atom_site_symmetry_multiplicity
 _atom_site_fract_x
 _atom_site_fract_y
 _atom_site_fract_z
 _atom_site_occupancy
  Li  Li0  1  0.000000  0.500000  0.000000  1
  V  V1  1  0.000000  0.000000  0.000000  1
  P  P2  1  0.663399  0.813589  0.723777  1
  P  P3  1  0.601672  0.379994  0.766074  1
  P  P4  1  0.398328  0.620006  0.233926  1
  P  P5  1  0.336601  0.186411  0.276223  1
  H  H6  1  0.908190  0.233307  0.532656  1
  H  H7  1  0.291974  0.030758  0.638092  1
  H  H8  1  0.708026  0.969242  0.361908  1
  H  H9  1  0.091810  0.766693  0.467344  1
  O  O10  1  0.807543  0.857129  0.870593  1
  O  O11  1  0.782170  0.847928  0.530610  1
  O  O12  1  0.784471  0.258652  0.904745  1
  O  O13  1  0.701617  0.577544  0.187135  1
  O  O14  1  0.687612  0.585176  0.757132  1
  O  O15  1  0.700143  0.283942  0.575631  1
  O  O16  1  0.341858  0.945413  0.755250  1
  O  O17  1  0.658142  0.054587  0.244750  1
  O  O18  1  0.299857  0.716058  0.424369  1
  O  O19  1  0.312388  0.414824  0.242868  1
  O  O20  1  0.298383  0.422456  0.812865  1
  O  O21  1  0.215529  0.741348  0.095255  1
  O  O22  1  0.217830  0.152072  0.469390  1
  O  O23  1  0.192457  0.142871  0.129407  1
