# generated using pymatgen
data_Li3Nb4ZnO12
_symmetry_space_group_name_H-M   'P 1'
_cell_length_a   5.24293791
_cell_length_b   5.60835246
_cell_length_c   7.67989688
_cell_angle_alpha   95.30268883
_cell_angle_beta   90.07455016
_cell_angle_gamma   90.07808192
_symmetry_Int_Tables_number   1
_chemical_formula_structural   Li3Nb4ZnO12
_chemical_formula_sum   'Li3 Nb4 Zn1 O12'
_cell_volume   224.85468524
_cell_formula_units_Z   1
loop_
 _symmetry_equiv_pos_site_id
 _symmetry_equiv_pos_as_xyz
  1  'x, y, z'
loop_
 _atom_site_type_symbol
 _atom_site_label
 _atom_site_symmetry_multiplicity
 _atom_site_fract_x
 _atom_site_fract_y
 _atom_site_fract_z
 _atom_site_occupancy
  Li  Li0  1  0.500096  0.943190  0.779838  1
  Li  Li1  1  0.501184  0.943985  0.277604  1
  Li  Li2  1  0.999609  0.439712  0.780369  1
  Nb  Nb3  1  0.502520  0.506671  0.988864  1
  Nb  Nb4  1  0.498877  0.519855  0.498236  1
  Nb  Nb5  1  0.998723  0.019336  0.495800  1
  Nb  Nb6  1  0.004912  0.001629  0.990518  1
  Zn  Zn7  1  0.998339  0.445111  0.274882  1
  O  O8  1  0.816767  0.343368  0.543531  1
  O  O9  1  0.631832  0.537495  0.236075  1
  O  O10  1  0.681541  0.842650  0.542823  1
  O  O11  1  0.877966  0.041967  0.236273  1
  O  O12  1  0.804799  0.720449  0.919103  1
  O  O13  1  0.319805  0.846888  0.043040  1
  O  O14  1  0.693451  0.222305  0.918549  1
  O  O15  1  0.125735  0.038381  0.737945  1
  O  O16  1  0.176435  0.352773  0.046615  1
  O  O17  1  0.374464  0.537871  0.738026  1
  O  O18  1  0.304234  0.221092  0.418659  1
  O  O19  1  0.188710  0.714178  0.413800  1
