# generated using pymatgen
data_Ti3(WO6)2
_symmetry_space_group_name_H-M   'P 1'
_cell_length_a   9.24458702
_cell_length_b   9.40564908
_cell_length_c   15.90173139
_cell_angle_alpha   90.00000000
_cell_angle_beta   125.32742437
_cell_angle_gamma   90.00000000
_symmetry_Int_Tables_number   1
_chemical_formula_structural   Ti3(WO6)2
_chemical_formula_sum   'Ti12 W8 O48'
_cell_volume   1128.07201032
_cell_formula_units_Z   4
loop_
 _symmetry_equiv_pos_site_id
 _symmetry_equiv_pos_as_xyz
  1  'x, y, z'
loop_
 _atom_site_type_symbol
 _atom_site_label
 _atom_site_symmetry_multiplicity
 _atom_site_fract_x
 _atom_site_fract_y
 _atom_site_fract_z
 _atom_site_occupancy
  Ti  Ti0  1  0.038265  0.747688  0.010406  1
  Ti  Ti1  1  0.751772  0.615835  0.643408  1
  Ti  Ti2  1  0.471724  0.890621  0.359761  1
  Ti  Ti3  1  0.248228  0.115835  0.856592  1
  Ti  Ti4  1  0.528276  0.390621  0.140239  1
  Ti  Ti5  1  0.961735  0.247688  0.489594  1
  Ti  Ti6  1  0.038265  0.752312  0.510406  1
  Ti  Ti7  1  0.471724  0.609379  0.859761  1
  Ti  Ti8  1  0.751772  0.884165  0.143408  1
  Ti  Ti9  1  0.528276  0.109379  0.640239  1
  Ti  Ti10  1  0.248228  0.384165  0.356592  1
  Ti  Ti11  1  0.961735  0.252312  0.989594  1
  W  W12  1  0.870907  0.972608  0.617804  1
  W  W13  1  0.129093  0.472608  0.882196  1
  W  W14  1  0.870907  0.527392  0.117804  1
  W  W15  1  0.129093  0.027392  0.382196  1
  W  W16  1  0.370566  0.031483  0.120018  1
  W  W17  1  0.629434  0.531483  0.379982  1
  W  W18  1  0.370566  0.468517  0.620018  1
  W  W19  1  0.629434  0.968517  0.879982  1
  O  O20  1  0.152725  0.136031  0.064910  1
  O  O21  1  0.696554  0.091546  0.614215  1
  O  O22  1  0.975317  0.340866  0.891759  1
  O  O23  1  0.416797  0.427310  0.335213  1
  O  O24  1  0.040858  0.624209  0.922476  1
  O  O25  1  0.785627  0.808475  0.651166  1
  O  O26  1  0.671906  0.558078  0.515826  1
  O  O27  1  0.406514  0.006201  0.249730  1
  O  O28  1  0.494904  0.706630  0.332973  1
  O  O29  1  0.237300  0.855793  0.070915  1
  O  O30  1  0.956563  0.517498  0.740297  1
  O  O31  1  0.043437  0.017498  0.759703  1
  O  O32  1  0.688796  0.939857  0.469181  1
  O  O33  1  0.311204  0.439857  0.030819  1
  O  O34  1  0.762700  0.355793  0.429085  1
  O  O35  1  0.505096  0.206630  0.167027  1
  O  O36  1  0.328094  0.058078  0.984174  1
  O  O37  1  0.593486  0.506201  0.250270  1
  O  O38  1  0.214373  0.308475  0.848834  1
  O  O39  1  0.959142  0.124209  0.577524  1
  O  O40  1  0.024683  0.840866  0.608241  1
  O  O41  1  0.303446  0.591546  0.885785  1
  O  O42  1  0.583203  0.927310  0.164787  1
  O  O43  1  0.847275  0.636031  0.435090  1
  O  O44  1  0.152725  0.363969  0.564910  1
  O  O45  1  0.416797  0.072690  0.835213  1
  O  O46  1  0.696554  0.408454  0.114215  1
  O  O47  1  0.975317  0.159134  0.391759  1
  O  O48  1  0.040858  0.875791  0.422476  1
  O  O49  1  0.785627  0.691525  0.151166  1
  O  O50  1  0.406514  0.493799  0.749730  1
  O  O51  1  0.671906  0.941922  0.015826  1
  O  O52  1  0.494904  0.793370  0.832973  1
  O  O53  1  0.237300  0.644207  0.570915  1
  O  O54  1  0.688796  0.560143  0.969181  1
  O  O55  1  0.311204  0.060143  0.530819  1
  O  O56  1  0.956563  0.982502  0.240297  1
  O  O57  1  0.043437  0.482502  0.259703  1
  O  O58  1  0.762700  0.144207  0.929085  1
  O  O59  1  0.505096  0.293370  0.667027  1
  O  O60  1  0.593486  0.993799  0.750270  1
  O  O61  1  0.328094  0.441922  0.484174  1
  O  O62  1  0.214373  0.191525  0.348834  1
  O  O63  1  0.959142  0.375791  0.077524  1
  O  O64  1  0.583203  0.572690  0.664787  1
  O  O65  1  0.024683  0.659134  0.108241  1
  O  O66  1  0.303446  0.908454  0.385785  1
  O  O67  1  0.847275  0.863969  0.935090  1
