# generated using pymatgen
data_Li5V2OF11
_symmetry_space_group_name_H-M   'P 1'
_cell_length_a   5.58768122
_cell_length_b   8.91008128
_cell_length_c   9.14322310
_cell_angle_alpha   79.91698257
_cell_angle_beta   84.50098338
_cell_angle_gamma   73.04972199
_symmetry_Int_Tables_number   1
_chemical_formula_structural   Li5V2OF11
_chemical_formula_sum   'Li10 V4 O2 F22'
_cell_volume   428.22533694
_cell_formula_units_Z   2
loop_
 _symmetry_equiv_pos_site_id
 _symmetry_equiv_pos_as_xyz
  1  'x, y, z'
loop_
 _atom_site_type_symbol
 _atom_site_label
 _atom_site_symmetry_multiplicity
 _atom_site_fract_x
 _atom_site_fract_y
 _atom_site_fract_z
 _atom_site_occupancy
  Li  Li0  1  0.163805  0.191261  0.780724  1
  Li  Li1  1  0.672975  0.057045  0.897046  1
  Li  Li2  1  0.974145  0.640224  0.986168  1
  Li  Li3  1  0.132375  0.061922  0.436011  1
  Li  Li4  1  0.577621  0.284135  0.527656  1
  Li  Li5  1  0.464334  0.657226  0.481517  1
  Li  Li6  1  0.912345  0.611871  0.634898  1
  Li  Li7  1  0.682760  0.190752  0.234137  1
  Li  Li8  1  0.291319  0.960817  0.097879  1
  Li  Li9  1  0.416580  0.593795  0.130531  1
  V  V10  1  0.607086  0.430731  0.866927  1
  V  V11  1  0.275636  0.821970  0.758208  1
  V  V12  1  0.099866  0.428732  0.363728  1
  V  V13  1  0.775248  0.817089  0.253790  1
  O  O14  1  0.509729  0.625696  0.741835  1
  O  O15  1  0.005496  0.625377  0.238378  1
  F  F16  1  0.299572  0.477837  0.980977  1
  F  F17  1  0.275436  0.784791  0.973924  1
  F  F18  1  0.329276  0.113687  0.950685  1
  F  F19  1  0.005191  0.020132  0.772640  1
  F  F20  1  0.528041  0.308697  0.741233  1
  F  F21  1  0.488247  0.944702  0.735297  1
  F  F22  1  0.932875  0.400372  0.767998  1
  F  F23  1  0.245521  0.852052  0.545966  1
  F  F24  1  0.216193  0.528217  0.504668  1
  F  F25  1  0.009847  0.722041  0.775926  1
  F  F26  1  0.236583  0.237176  0.508467  1
  F  F27  1  0.037282  0.302466  0.248323  1
  F  F28  1  0.992877  0.946032  0.230288  1
  F  F29  1  0.780477  0.465289  0.471158  1
  F  F30  1  0.756655  0.769646  0.464203  1
  F  F31  1  0.791119  0.137649  0.431943  1
  F  F32  1  0.436072  0.398422  0.276082  1
  F  F33  1  0.498990  0.722703  0.261082  1
  F  F34  1  0.499045  0.010359  0.256656  1
  F  F35  1  0.752742  0.849988  0.041325  1
  F  F36  1  0.723762  0.526582  0.006890  1
  F  F37  1  0.724683  0.232517  0.003037  1
