# generated using pymatgen
data_Li8Te2O9
_symmetry_space_group_name_H-M   'P 1'
_cell_length_a   6.02130078
_cell_length_b   9.14449341
_cell_length_c   15.71093067
_cell_angle_alpha   86.97267150
_cell_angle_beta   100.69367086
_cell_angle_gamma   109.06995593
_symmetry_Int_Tables_number   1
_chemical_formula_structural   Li8Te2O9
_chemical_formula_sum   'Li32 Te8 O36'
_cell_volume   803.36907964
_cell_formula_units_Z   4
loop_
 _symmetry_equiv_pos_site_id
 _symmetry_equiv_pos_as_xyz
  1  'x, y, z'
loop_
 _atom_site_type_symbol
 _atom_site_label
 _atom_site_symmetry_multiplicity
 _atom_site_fract_x
 _atom_site_fract_y
 _atom_site_fract_z
 _atom_site_occupancy
  Li  Li0  1  0.912969  0.128858  0.974171  1
  Li  Li1  1  0.677014  0.618500  0.963127  1
  Li  Li2  1  0.441248  0.132026  0.957359  1
  Li  Li3  1  0.158819  0.616410  0.952113  1
  Li  Li4  1  0.262891  0.409917  0.853982  1
  Li  Li5  1  0.974734  0.837531  0.852007  1
  Li  Li6  1  0.594476  0.621526  0.763748  1
  Li  Li7  1  0.331549  0.121984  0.738777  1
  Li  Li8  1  0.053804  0.624392  0.761943  1
  Li  Li9  1  0.791920  0.121819  0.738166  1
  Li  Li10  1  0.126084  0.326820  0.653020  1
  Li  Li11  1  0.401865  0.911563  0.639361  1
  Li  Li12  1  0.488824  0.635510  0.546766  1
  Li  Li13  1  0.203288  0.117009  0.545751  1
  Li  Li14  1  0.711287  0.119065  0.540384  1
  Li  Li15  1  0.940294  0.631202  0.525954  1
  Li  Li16  1  0.059706  0.368798  0.474046  1
  Li  Li17  1  0.288713  0.880935  0.459616  1
  Li  Li18  1  0.796712  0.882991  0.454249  1
  Li  Li19  1  0.511176  0.364490  0.453234  1
  Li  Li20  1  0.598135  0.088437  0.360639  1
  Li  Li21  1  0.873916  0.673180  0.346980  1
  Li  Li22  1  0.208080  0.878181  0.261834  1
  Li  Li23  1  0.946196  0.375608  0.238057  1
  Li  Li24  1  0.668451  0.878016  0.261223  1
  Li  Li25  1  0.405524  0.378474  0.236252  1
  Li  Li26  1  0.025266  0.162469  0.147993  1
  Li  Li27  1  0.737109  0.590083  0.146018  1
  Li  Li28  1  0.841181  0.383590  0.047887  1
  Li  Li29  1  0.558752  0.867974  0.042641  1
  Li  Li30  1  0.322986  0.381500  0.036873  1
  Li  Li31  1  0.087031  0.871142  0.025829  1
  Te  Te32  1  0.744880  0.371844  0.857386  1
  Te  Te33  1  0.495118  0.866840  0.857858  1
  Te  Te34  1  0.637488  0.369124  0.635901  1
  Te  Te35  1  0.894674  0.878280  0.647528  1
  Te  Te36  1  0.105326  0.121720  0.352472  1
  Te  Te37  1  0.362512  0.630876  0.364099  1
  Te  Te38  1  0.504882  0.133160  0.142142  1
  Te  Te39  1  0.255120  0.628156  0.142614  1
  O  O40  1  0.556287  0.375058  0.945887  1
  O  O41  1  0.775692  0.874974  0.947388  1
  O  O42  1  0.291280  0.880944  0.938544  1
  O  O43  1  0.017007  0.366752  0.945504  1
  O  O44  1  0.618719  0.147267  0.852033  1
  O  O45  1  0.373643  0.643005  0.846947  1
  O  O46  1  0.859263  0.598679  0.854265  1
  O  O47  1  0.721815  0.879906  0.742276  1
  O  O48  1  0.458125  0.371420  0.767815  1
  O  O49  1  0.171439  0.873906  0.736038  1
  O  O50  1  0.946699  0.365851  0.770020  1
  O  O51  1  0.522815  0.143640  0.642226  1
  O  O52  1  0.011917  0.105555  0.652550  1
  O  O53  1  0.772169  0.651587  0.648071  1
  O  O54  1  0.345655  0.380694  0.560604  1
  O  O55  1  0.077348  0.873797  0.556962  1
  O  O56  1  0.823868  0.370860  0.545114  1
  O  O57  1  0.614272  0.878413  0.560309  1
  O  O58  1  0.385728  0.121587  0.439691  1
  O  O59  1  0.176132  0.629140  0.454886  1
  O  O60  1  0.922652  0.126203  0.443038  1
  O  O61  1  0.654345  0.619306  0.439396  1
  O  O62  1  0.227831  0.348413  0.351929  1
  O  O63  1  0.988083  0.894445  0.347450  1
  O  O64  1  0.477185  0.856360  0.357774  1
  O  O65  1  0.053301  0.634149  0.229980  1
  O  O66  1  0.828561  0.126094  0.263962  1
  O  O67  1  0.541875  0.628580  0.232185  1
  O  O68  1  0.278185  0.120094  0.257724  1
  O  O69  1  0.626357  0.356995  0.153053  1
  O  O70  1  0.381281  0.852733  0.147967  1
  O  O71  1  0.140737  0.401321  0.145735  1
  O  O72  1  0.982993  0.633248  0.054496  1
  O  O73  1  0.708720  0.119056  0.061456  1
  O  O74  1  0.224308  0.125026  0.052612  1
  O  O75  1  0.443713  0.624942  0.054113  1
