# generated using pymatgen
data_Li2Cr2O7
_symmetry_space_group_name_H-M   'P 1'
_cell_length_a   6.44121535
_cell_length_b   6.44121535
_cell_length_c   13.92075371
_cell_angle_alpha   90.00000000
_cell_angle_beta   90.00000000
_cell_angle_gamma   117.60808895
_symmetry_Int_Tables_number   1
_chemical_formula_structural   Li2Cr2O7
_chemical_formula_sum   'Li8 Cr8 O28'
_cell_volume   511.79946715
_cell_formula_units_Z   4
loop_
 _symmetry_equiv_pos_site_id
 _symmetry_equiv_pos_as_xyz
  1  'x, y, z'
loop_
 _atom_site_type_symbol
 _atom_site_label
 _atom_site_symmetry_multiplicity
 _atom_site_fract_x
 _atom_site_fract_y
 _atom_site_fract_z
 _atom_site_occupancy
  Li  Li0  1  0.244980  0.244980  0.000000  1
  Li  Li1  1  0.255020  0.255020  0.500000  1
  Li  Li2  1  0.690540  0.309460  0.357511  1
  Li  Li3  1  0.809460  0.190540  0.857511  1
  Li  Li4  1  0.190540  0.809460  0.142489  1
  Li  Li5  1  0.309460  0.690540  0.642489  1
  Li  Li6  1  0.744980  0.744980  0.500000  1
  Li  Li7  1  0.755020  0.755020  0.000000  1
  Cr  Cr8  1  0.173169  0.326831  0.250000  1
  Cr  Cr9  1  0.326831  0.173169  0.750000  1
  Cr  Cr10  1  0.251793  0.748207  0.920526  1
  Cr  Cr11  1  0.748207  0.251793  0.079474  1
  Cr  Cr12  1  0.751793  0.248207  0.579474  1
  Cr  Cr13  1  0.248207  0.751793  0.420526  1
  Cr  Cr14  1  0.826831  0.673169  0.750000  1
  Cr  Cr15  1  0.673169  0.826831  0.250000  1
  O  O16  1  0.208662  0.182768  0.161299  1
  O  O17  1  0.182768  0.208662  0.838701  1
  O  O18  1  0.557780  0.035729  0.148756  1
  O  O19  1  0.535729  0.057780  0.648756  1
  O  O20  1  0.035729  0.557780  0.851244  1
  O  O21  1  0.057780  0.535729  0.351244  1
  O  O22  1  0.317232  0.291338  0.338701  1
  O  O23  1  0.291338  0.317232  0.661299  1
  O  O24  1  0.638427  0.361573  0.498669  1
  O  O25  1  0.625460  0.374540  0.783478  1
  O  O26  1  0.884449  0.115551  0.524825  1
  O  O27  1  0.125460  0.874540  0.716522  1
  O  O28  1  0.861573  0.138427  0.998669  1
  O  O29  1  0.874540  0.125460  0.283478  1
  O  O30  1  0.361573  0.638427  0.501331  1
  O  O31  1  0.615551  0.384449  0.024825  1
  O  O32  1  0.374540  0.625460  0.216522  1
  O  O33  1  0.115551  0.884449  0.475175  1
  O  O34  1  0.138427  0.861573  0.001331  1
  O  O35  1  0.384449  0.615551  0.975175  1
  O  O36  1  0.708662  0.682768  0.338701  1
  O  O37  1  0.682768  0.708662  0.661299  1
  O  O38  1  0.464271  0.942220  0.351244  1
  O  O39  1  0.442220  0.964271  0.851244  1
  O  O40  1  0.964271  0.442220  0.148756  1
  O  O41  1  0.942220  0.464271  0.648756  1
  O  O42  1  0.817232  0.791338  0.161299  1
  O  O43  1  0.791338  0.817232  0.838701  1
