# generated using pymatgen
data_Li5MnO4
_symmetry_space_group_name_H-M   'P 1'
_cell_length_a   12.80422241
_cell_length_b   12.80422241
_cell_length_c   4.70173660
_cell_angle_alpha   90.00000000
_cell_angle_beta   90.00000000
_cell_angle_gamma   90.00000000
_symmetry_Int_Tables_number   1
_chemical_formula_structural   Li5MnO4
_chemical_formula_sum   'Li40 Mn8 O32'
_cell_volume   770.84083646
_cell_formula_units_Z   8
loop_
 _symmetry_equiv_pos_site_id
 _symmetry_equiv_pos_as_xyz
  1  'x, y, z'
loop_
 _atom_site_type_symbol
 _atom_site_label
 _atom_site_symmetry_multiplicity
 _atom_site_fract_x
 _atom_site_fract_y
 _atom_site_fract_z
 _atom_site_occupancy
  Li  Li0  1  0.764005  0.235995  0.000000  1
  Li  Li1  1  0.735995  0.264005  0.500000  1
  Li  Li2  1  0.235995  0.235995  0.000000  1
  Li  Li3  1  0.264005  0.264005  0.500000  1
  Li  Li4  1  0.106849  0.359760  0.556502  1
  Li  Li5  1  0.893151  0.359760  0.556502  1
  Li  Li6  1  0.371918  0.371918  0.000000  1
  Li  Li7  1  0.628082  0.371918  0.000000  1
  Li  Li8  1  0.859760  0.393151  0.056502  1
  Li  Li9  1  0.140240  0.393151  0.056502  1
  Li  Li10  1  0.000000  0.500000  0.107978  1
  Li  Li11  1  0.500000  0.500000  0.500000  1
  Li  Li12  1  0.500000  0.500000  0.000000  1
  Li  Li13  1  0.000000  0.500000  0.607978  1
  Li  Li14  1  0.859760  0.606849  0.056502  1
  Li  Li15  1  0.140240  0.606849  0.056502  1
  Li  Li16  1  0.371918  0.628082  0.000000  1
  Li  Li17  1  0.628082  0.628082  0.000000  1
  Li  Li18  1  0.893151  0.640240  0.556502  1
  Li  Li19  1  0.106849  0.640240  0.556502  1
  Li  Li20  1  0.235995  0.764005  0.000000  1
  Li  Li21  1  0.264005  0.735995  0.500000  1
  Li  Li22  1  0.764005  0.764005  0.000000  1
  Li  Li23  1  0.735995  0.735995  0.500000  1
  Li  Li24  1  0.393151  0.859760  0.943498  1
  Li  Li25  1  0.606849  0.859760  0.943498  1
  Li  Li26  1  0.871918  0.871918  0.500000  1
  Li  Li27  1  0.128082  0.871918  0.500000  1
  Li  Li28  1  0.359760  0.893151  0.443498  1
  Li  Li29  1  0.640240  0.893151  0.443498  1
  Li  Li30  1  0.000000  0.000000  0.000000  1
  Li  Li31  1  0.000000  0.000000  0.500000  1
  Li  Li32  1  0.500000  0.000000  0.892022  1
  Li  Li33  1  0.500000  0.000000  0.392022  1
  Li  Li34  1  0.359760  0.106849  0.443498  1
  Li  Li35  1  0.640240  0.106849  0.443498  1
  Li  Li36  1  0.871918  0.128082  0.500000  1
  Li  Li37  1  0.128082  0.128082  0.500000  1
  Li  Li38  1  0.393151  0.140240  0.943498  1
  Li  Li39  1  0.606849  0.140240  0.943498  1
  Mn  Mn40  1  0.500000  0.271159  0.462613  1
  Mn  Mn41  1  0.271159  0.500000  0.537387  1
  Mn  Mn42  1  0.728841  0.500000  0.537387  1
  Mn  Mn43  1  0.500000  0.728841  0.462613  1
  Mn  Mn44  1  0.000000  0.771159  0.037387  1
  Mn  Mn45  1  0.771159  0.000000  0.962613  1
  Mn  Mn46  1  0.228841  0.000000  0.962613  1
  Mn  Mn47  1  0.000000  0.228841  0.037387  1
  O  O48  1  0.875027  0.256213  0.262217  1
  O  O49  1  0.124973  0.256213  0.262217  1
  O  O50  1  0.756213  0.375027  0.762217  1
  O  O51  1  0.243787  0.375027  0.762217  1
  O  O52  1  0.000000  0.378405  0.845464  1
  O  O53  1  0.500000  0.376236  0.751695  1
  O  O54  1  0.878405  0.500000  0.345464  1
  O  O55  1  0.376236  0.500000  0.248305  1
  O  O56  1  0.623764  0.500000  0.248305  1
  O  O57  1  0.121595  0.500000  0.345464  1
  O  O58  1  0.500000  0.623764  0.751695  1
  O  O59  1  0.000000  0.621595  0.845464  1
  O  O60  1  0.243787  0.624973  0.762217  1
  O  O61  1  0.756213  0.624973  0.762217  1
  O  O62  1  0.875027  0.743787  0.262217  1
  O  O63  1  0.124973  0.743787  0.262217  1
  O  O64  1  0.375027  0.756213  0.237783  1
  O  O65  1  0.624973  0.756213  0.237783  1
  O  O66  1  0.743787  0.875027  0.737783  1
  O  O67  1  0.256213  0.875027  0.737783  1
  O  O68  1  0.500000  0.878405  0.654536  1
  O  O69  1  0.000000  0.876236  0.748305  1
  O  O70  1  0.876236  0.000000  0.251695  1
  O  O71  1  0.123764  0.000000  0.251695  1
  O  O72  1  0.378405  0.000000  0.154536  1
  O  O73  1  0.621595  0.000000  0.154536  1
  O  O74  1  0.000000  0.123764  0.748305  1
  O  O75  1  0.500000  0.121595  0.654536  1
  O  O76  1  0.743787  0.124973  0.737783  1
  O  O77  1  0.256213  0.124973  0.737783  1
  O  O78  1  0.375027  0.243787  0.237783  1
  O  O79  1  0.624973  0.243787  0.237783  1
