# generated using pymatgen
data_LiNbSn3(PO4)6
_symmetry_space_group_name_H-M   'P 1'
_cell_length_a   8.82269244
_cell_length_b   8.83393671
_cell_length_c   8.85968252
_cell_angle_alpha   89.97922259
_cell_angle_beta   119.75821835
_cell_angle_gamma   119.84061770
_symmetry_Int_Tables_number   1
_chemical_formula_structural   LiNbSn3(PO4)6
_chemical_formula_sum   'Li1 Nb1 Sn3 P6 O24'
_cell_volume   491.30073818
_cell_formula_units_Z   1
loop_
 _symmetry_equiv_pos_site_id
 _symmetry_equiv_pos_as_xyz
  1  'x, y, z'
loop_
 _atom_site_type_symbol
 _atom_site_label
 _atom_site_symmetry_multiplicity
 _atom_site_fract_x
 _atom_site_fract_y
 _atom_site_fract_z
 _atom_site_occupancy
  Li  Li0  1  0.913587  0.266024  0.736857  1
  Nb  Nb1  1  0.713287  0.848680  0.576311  1
  Sn  Sn2  1  0.278765  0.139165  0.416105  1
  Sn  Sn3  1  0.717492  0.358511  0.083783  1
  Sn  Sn4  1  0.292510  0.649586  0.925173  1
  P  P5  1  0.203611  0.457483  0.241690  1
  P  P6  1  0.787925  0.748260  0.244292  1
  P  P7  1  0.501520  0.964303  0.752575  1
  P  P8  1  0.500728  0.039849  0.251703  1
  P  P9  1  0.215627  0.248081  0.754297  1
  P  P10  1  0.778421  0.526085  0.742243  1
  O  O11  1  0.394688  0.008195  0.578953  1
  O  O12  1  0.761961  0.496809  0.904445  1
  O  O13  1  0.205415  0.197799  0.583863  1
  O  O14  1  0.651064  0.129581  0.929087  1
  O  O15  1  0.167628  0.270908  0.252940  1
  O  O16  1  0.984391  0.902225  0.256481  1
  O  O17  1  0.036489  0.471113  0.240006  1
  O  O18  1  0.404302  0.276712  0.933961  1
  O  O19  1  0.648504  0.921011  0.739405  1
  O  O20  1  0.785013  0.573534  0.251384  1
  O  O21  1  0.679447  0.212259  0.255341  1
  O  O22  1  0.325484  0.788431  0.749082  1
  O  O23  1  0.345636  0.074765  0.248282  1
  O  O24  1  0.192771  0.411962  0.753853  1
  O  O25  1  0.592924  0.717174  0.066027  1
  O  O26  1  0.006486  0.089703  0.733734  1
  O  O27  1  0.959743  0.520082  0.759370  1
  O  O28  1  0.575651  0.382092  0.556072  1
  O  O29  1  0.820940  0.719017  0.732575  1
  O  O30  1  0.362926  0.869729  0.082317  1
  O  O31  1  0.787929  0.804228  0.412402  1
  O  O32  1  0.205835  0.479752  0.069843  1
  O  O33  1  0.620459  0.000922  0.431347  1
  O  O34  1  0.423705  0.622251  0.415665  1
