# generated using pymatgen
data_Hf2N2O
_symmetry_space_group_name_H-M   'P 1'
_cell_length_a   3.09200221
_cell_length_b   5.88479951
_cell_length_c   12.22619753
_cell_angle_alpha   90.00000000
_cell_angle_beta   90.00000000
_cell_angle_gamma   90.00000000
_symmetry_Int_Tables_number   1
_chemical_formula_structural   Hf2N2O
_chemical_formula_sum   'Hf8 N8 O4'
_cell_volume   222.46560506
_cell_formula_units_Z   4
loop_
 _symmetry_equiv_pos_site_id
 _symmetry_equiv_pos_as_xyz
  1  'x, y, z'
loop_
 _atom_site_type_symbol
 _atom_site_label
 _atom_site_symmetry_multiplicity
 _atom_site_fract_x
 _atom_site_fract_y
 _atom_site_fract_z
 _atom_site_occupancy
  Hf  Hf0  1  0.750000  0.854458  0.206365  1
  Hf  Hf1  1  0.250000  0.744848  0.455946  1
  Hf  Hf2  1  0.750000  0.755152  0.955946  1
  Hf  Hf3  1  0.250000  0.645542  0.706365  1
  Hf  Hf4  1  0.750000  0.354458  0.293635  1
  Hf  Hf5  1  0.250000  0.244848  0.044054  1
  Hf  Hf6  1  0.750000  0.255152  0.544054  1
  Hf  Hf7  1  0.250000  0.145542  0.793635  1
  N  N8  1  0.250000  0.863531  0.067529  1
  N  N9  1  0.750000  0.852673  0.780788  1
  N  N10  1  0.250000  0.647327  0.280788  1
  N  N11  1  0.750000  0.636469  0.567529  1
  N  N12  1  0.250000  0.363531  0.432471  1
  N  N13  1  0.750000  0.352673  0.719212  1
  N  N14  1  0.250000  0.147327  0.219212  1
  N  N15  1  0.750000  0.136469  0.932471  1
  O  O16  1  0.750000  0.970274  0.398854  1
  O  O17  1  0.250000  0.529726  0.898854  1
  O  O18  1  0.750000  0.470274  0.101146  1
  O  O19  1  0.250000  0.029726  0.601146  1
