# generated using pymatgen
data_LiCrPO4
_symmetry_space_group_name_H-M   'P 1'
_cell_length_a   5.77438294
_cell_length_b   7.78185309
_cell_length_c   14.14579249
_cell_angle_alpha   90.00000000
_cell_angle_beta   90.00000000
_cell_angle_gamma   90.00000000
_symmetry_Int_Tables_number   1
_chemical_formula_structural   LiCrPO4
_chemical_formula_sum   'Li8 Cr8 P8 O32'
_cell_volume   635.64683996
_cell_formula_units_Z   8
loop_
 _symmetry_equiv_pos_site_id
 _symmetry_equiv_pos_as_xyz
  1  'x, y, z'
loop_
 _atom_site_type_symbol
 _atom_site_label
 _atom_site_symmetry_multiplicity
 _atom_site_fract_x
 _atom_site_fract_y
 _atom_site_fract_z
 _atom_site_occupancy
  Li  Li0  1  0.921993  0.173613  0.526967  1
  Li  Li1  1  0.421993  0.173613  0.973033  1
  Li  Li2  1  0.921993  0.326387  0.026967  1
  Li  Li3  1  0.421993  0.326387  0.473033  1
  Li  Li4  1  0.578007  0.673613  0.526967  1
  Li  Li5  1  0.078007  0.673613  0.973033  1
  Li  Li6  1  0.578007  0.826387  0.026967  1
  Li  Li7  1  0.078007  0.826387  0.473033  1
  Cr  Cr8  1  0.629188  0.140473  0.188486  1
  Cr  Cr9  1  0.129188  0.140473  0.311514  1
  Cr  Cr10  1  0.129188  0.359527  0.811514  1
  Cr  Cr11  1  0.629188  0.359527  0.688486  1
  Cr  Cr12  1  0.870812  0.640473  0.188486  1
  Cr  Cr13  1  0.370812  0.640473  0.311514  1
  Cr  Cr14  1  0.870812  0.859527  0.688486  1
  Cr  Cr15  1  0.370812  0.859527  0.811514  1
  P  P16  1  0.391981  0.031966  0.627240  1
  P  P17  1  0.891981  0.031966  0.872760  1
  P  P18  1  0.391981  0.468034  0.127240  1
  P  P19  1  0.891981  0.468034  0.372760  1
  P  P20  1  0.108019  0.531966  0.627240  1
  P  P21  1  0.608019  0.531966  0.872760  1
  P  P22  1  0.108019  0.968034  0.127240  1
  P  P23  1  0.608019  0.968034  0.372760  1
  O  O24  1  0.324391  0.991589  0.066475  1
  O  O25  1  0.824391  0.991589  0.433525  1
  O  O26  1  0.820782  0.076580  0.768780  1
  O  O27  1  0.320782  0.076580  0.731220  1
  O  O28  1  0.963642  0.138242  0.133869  1
  O  O29  1  0.463642  0.138242  0.366131  1
  O  O30  1  0.550751  0.178971  0.588900  1
  O  O31  1  0.050751  0.178971  0.911100  1
  O  O32  1  0.550751  0.321029  0.088900  1
  O  O33  1  0.050751  0.321029  0.411100  1
  O  O34  1  0.963642  0.361758  0.633869  1
  O  O35  1  0.463642  0.361758  0.866131  1
  O  O36  1  0.320782  0.423420  0.231220  1
  O  O37  1  0.820782  0.423420  0.268780  1
  O  O38  1  0.324391  0.508411  0.566475  1
  O  O39  1  0.824391  0.508411  0.933525  1
  O  O40  1  0.675609  0.491589  0.433525  1
  O  O41  1  0.175609  0.491589  0.066475  1
  O  O42  1  0.179218  0.576580  0.731220  1
  O  O43  1  0.679218  0.576580  0.768780  1
  O  O44  1  0.536358  0.638242  0.133869  1
  O  O45  1  0.036358  0.638242  0.366131  1
  O  O46  1  0.949249  0.678971  0.588900  1
  O  O47  1  0.449249  0.678971  0.911100  1
  O  O48  1  0.949249  0.821029  0.088900  1
  O  O49  1  0.449249  0.821029  0.411100  1
  O  O50  1  0.536358  0.861758  0.633869  1
  O  O51  1  0.036358  0.861758  0.866131  1
  O  O52  1  0.179218  0.923420  0.231220  1
  O  O53  1  0.679218  0.923420  0.268780  1
  O  O54  1  0.175609  0.008411  0.566475  1
  O  O55  1  0.675609  0.008411  0.933525  1
