# generated using pymatgen
data_Li2Co(CO3)2
_symmetry_space_group_name_H-M   'P 1'
_cell_length_a   7.57704268
_cell_length_b   9.72345926
_cell_length_c   9.12939697
_cell_angle_alpha   90.00000000
_cell_angle_beta   124.01979538
_cell_angle_gamma   90.00000000
_symmetry_Int_Tables_number   1
_chemical_formula_structural   Li2Co(CO3)2
_chemical_formula_sum   'Li8 Co4 C8 O24'
_cell_volume   557.48808875
_cell_formula_units_Z   4
loop_
 _symmetry_equiv_pos_site_id
 _symmetry_equiv_pos_as_xyz
  1  'x, y, z'
loop_
 _atom_site_type_symbol
 _atom_site_label
 _atom_site_symmetry_multiplicity
 _atom_site_fract_x
 _atom_site_fract_y
 _atom_site_fract_z
 _atom_site_occupancy
  Li  Li0  1  0.155854  0.683245  0.789482  1
  Li  Li1  1  0.364656  0.378538  0.856914  1
  Li  Li2  1  0.155854  0.816755  0.289482  1
  Li  Li3  1  0.364656  0.121462  0.356914  1
  Li  Li4  1  0.635344  0.878538  0.643086  1
  Li  Li5  1  0.844146  0.183245  0.710518  1
  Li  Li6  1  0.635344  0.621462  0.143086  1
  Li  Li7  1  0.844146  0.316755  0.210518  1
  Co  Co8  1  0.539639  0.881042  0.952218  1
  Co  Co9  1  0.460361  0.381042  0.547782  1
  Co  Co10  1  0.539639  0.618958  0.452218  1
  Co  Co11  1  0.460361  0.118958  0.047782  1
  C  C12  1  0.076038  0.984571  0.802397  1
  C  C13  1  0.076038  0.515429  0.302397  1
  C  C14  1  0.510255  0.618126  0.768985  1
  C  C15  1  0.489745  0.118126  0.731015  1
  C  C16  1  0.510255  0.881874  0.268985  1
  C  C17  1  0.489745  0.381874  0.231015  1
  C  C18  1  0.923962  0.484571  0.697603  1
  C  C19  1  0.923962  0.015429  0.197603  1
  O  O20  1  0.123197  0.475648  0.816403  1
  O  O21  1  0.145489  0.102034  0.888093  1
  O  O22  1  0.206866  0.883065  0.838492  1
  O  O23  1  0.123197  0.024352  0.316403  1
  O  O24  1  0.145489  0.397966  0.388093  1
  O  O25  1  0.206866  0.616935  0.338492  1
  O  O26  1  0.478873  0.674964  0.882896  1
  O  O27  1  0.515581  0.986277  0.752099  1
  O  O28  1  0.439788  0.192451  0.818824  1
  O  O29  1  0.560212  0.692451  0.681176  1
  O  O30  1  0.484419  0.486277  0.747901  1
  O  O31  1  0.521127  0.174964  0.617104  1
  O  O32  1  0.478873  0.825036  0.382896  1
  O  O33  1  0.515581  0.513723  0.252099  1
  O  O34  1  0.439788  0.307549  0.318824  1
  O  O35  1  0.560212  0.807549  0.181176  1
  O  O36  1  0.484419  0.013723  0.247901  1
  O  O37  1  0.521127  0.325036  0.117104  1
  O  O38  1  0.793134  0.383065  0.661508  1
  O  O39  1  0.854511  0.602034  0.611907  1
  O  O40  1  0.876803  0.975648  0.683597  1
  O  O41  1  0.793134  0.116935  0.161508  1
  O  O42  1  0.854511  0.897966  0.111907  1
  O  O43  1  0.876803  0.524352  0.183597  1
