# generated using pymatgen
data_Li3VCr3O8
_symmetry_space_group_name_H-M   'P 1'
_cell_length_a   5.93850531
_cell_length_b   5.93850531
_cell_length_c   5.94832173
_cell_angle_alpha   60.37732105
_cell_angle_beta   119.62267895
_cell_angle_gamma   120.83135684
_symmetry_Int_Tables_number   1
_chemical_formula_structural   Li3VCr3O8
_chemical_formula_sum   'Li3 V1 Cr3 O8'
_cell_volume   148.20194962
_cell_formula_units_Z   1
loop_
 _symmetry_equiv_pos_site_id
 _symmetry_equiv_pos_as_xyz
  1  'x, y, z'
loop_
 _atom_site_type_symbol
 _atom_site_label
 _atom_site_symmetry_multiplicity
 _atom_site_fract_x
 _atom_site_fract_y
 _atom_site_fract_z
 _atom_site_occupancy
  Li  Li0  1  0.500000  0.500000  0.500000  1
  Li  Li1  1  0.500000  1.000000  0.500000  1
  Li  Li2  1  0.000000  0.500000  0.500000  1
  V  V3  1  0.000000  0.000000  0.000000  1
  Cr  Cr4  1  0.500000  0.500000  0.000000  1
  Cr  Cr5  1  0.000000  0.500000  0.000000  1
  Cr  Cr6  1  0.500000  1.000000  0.000000  1
  O  O7  1  0.733397  0.266603  0.214072  1
  O  O8  1  0.745471  0.765533  0.216124  1
  O  O9  1  0.234467  0.254529  0.216124  1
  O  O10  1  0.761854  0.238146  0.775081  1
  O  O11  1  0.238146  0.761854  0.224919  1
  O  O12  1  0.765533  0.745471  0.783876  1
  O  O13  1  0.254529  0.234467  0.783876  1
  O  O14  1  0.266603  0.733397  0.785928  1
