# generated using pymatgen
data_FeOF
_symmetry_space_group_name_H-M   'P 1'
_cell_length_a   4.78374118
_cell_length_b   3.08140656
_cell_length_c   9.55164542
_cell_angle_alpha   90.00000000
_cell_angle_beta   93.34827202
_cell_angle_gamma   90.00000000
_symmetry_Int_Tables_number   1
_chemical_formula_structural   FeOF
_chemical_formula_sum   'Fe4 O4 F4'
_cell_volume   140.55712961
_cell_formula_units_Z   4
loop_
 _symmetry_equiv_pos_site_id
 _symmetry_equiv_pos_as_xyz
  1  'x, y, z'
loop_
 _atom_site_type_symbol
 _atom_site_label
 _atom_site_symmetry_multiplicity
 _atom_site_fract_x
 _atom_site_fract_y
 _atom_site_fract_z
 _atom_site_occupancy
  Fe  Fe0  1  0.946978  0.000000  0.000026  1
  Fe  Fe1  1  0.013307  0.000000  0.501039  1
  Fe  Fe2  1  0.483598  0.500000  0.751438  1
  Fe  Fe3  1  0.558928  0.500000  0.250055  1
  O  O4  1  0.802965  0.500000  0.097324  1
  O  O5  1  0.682149  0.000000  0.842260  1
  O  O6  1  0.709724  0.000000  0.353279  1
  O  O7  1  0.295921  0.000000  0.647526  1
  F  F8  1  0.813137  0.500000  0.594709  1
  F  F9  1  0.308090  0.000000  0.154617  1
  F  F10  1  0.182974  0.500000  0.908570  1
  F  F11  1  0.202229  0.500000  0.399156  1
