# generated using pymatgen
data_V5O12
_symmetry_space_group_name_H-M   'P 1'
_cell_length_a   4.97915268
_cell_length_b   4.97915268
_cell_length_c   9.06172637
_cell_angle_alpha   87.08954121
_cell_angle_beta   92.91045879
_cell_angle_gamma   66.79446697
_symmetry_Int_Tables_number   1
_chemical_formula_structural   V5O12
_chemical_formula_sum   'V5 O12'
_cell_volume   205.60216540
_cell_formula_units_Z   1
loop_
 _symmetry_equiv_pos_site_id
 _symmetry_equiv_pos_as_xyz
  1  'x, y, z'
loop_
 _atom_site_type_symbol
 _atom_site_label
 _atom_site_symmetry_multiplicity
 _atom_site_fract_x
 _atom_site_fract_y
 _atom_site_fract_z
 _atom_site_occupancy
  V  V0  1  0.947420  0.947420  0.000000  1
  V  V1  1  0.961505  0.515724  0.279962  1
  V  V2  1  0.515724  0.961505  0.720038  1
  V  V3  1  0.568522  0.568522  0.000000  1
  V  V4  1  0.399586  0.399586  0.500000  1
  O  O5  1  0.083777  0.722285  0.398240  1
  O  O6  1  0.722285  0.083777  0.601760  1
  O  O7  1  0.801005  0.714044  0.867709  1
  O  O8  1  0.714044  0.801005  0.132291  1
  O  O9  1  0.708030  0.460143  0.378690  1
  O  O10  1  0.460143  0.708030  0.621310  1
  O  O11  1  0.611386  0.241895  0.895492  1
  O  O12  1  0.241895  0.611386  0.104508  1
  O  O13  1  0.313461  0.206858  0.357341  1
  O  O14  1  0.206858  0.313461  0.642659  1
  O  O15  1  0.247680  0.918099  0.887082  1
  O  O16  1  0.918099  0.247680  0.112918  1
