# generated using pymatgen
data_Li4Mn3Fe2Co3O16
_symmetry_space_group_name_H-M   'P 1'
_cell_length_a   5.75407508
_cell_length_b   5.75407508
_cell_length_c   9.44751375
_cell_angle_alpha   89.98684987
_cell_angle_beta   90.01315013
_cell_angle_gamma   119.77700564
_symmetry_Int_Tables_number   1
_chemical_formula_structural   Li4Mn3Fe2Co3O16
_chemical_formula_sum   'Li4 Mn3 Fe2 Co3 O16'
_cell_volume   271.50053879
_cell_formula_units_Z   1
loop_
 _symmetry_equiv_pos_site_id
 _symmetry_equiv_pos_as_xyz
  1  'x, y, z'
loop_
 _atom_site_type_symbol
 _atom_site_label
 _atom_site_symmetry_multiplicity
 _atom_site_fract_x
 _atom_site_fract_y
 _atom_site_fract_z
 _atom_site_occupancy
  Li  Li0  1  0.330788  0.669212  0.107367  1
  Li  Li1  1  0.995671  0.004329  0.001842  1
  Li  Li2  1  0.993273  0.006727  0.503440  1
  Li  Li3  1  0.665596  0.334404  0.611645  1
  Mn  Mn4  1  0.167722  0.832278  0.784791  1
  Mn  Mn5  1  0.337906  0.171769  0.285117  1
  Mn  Mn6  1  0.828231  0.662094  0.285117  1
  Fe  Fe7  1  0.334818  0.665182  0.509055  1
  Fe  Fe8  1  0.667060  0.332940  0.006236  1
  Co  Co9  1  0.170460  0.342949  0.785757  1
  Co  Co10  1  0.657051  0.829540  0.785757  1
  Co  Co11  1  0.828317  0.171683  0.285560  1
  O  O12  1  0.163930  0.327511  0.397969  1
  O  O13  1  0.479995  0.520005  0.671440  1
  O  O14  1  0.331913  0.668087  0.891237  1
  O  O15  1  0.997499  0.002501  0.690862  1
  O  O16  1  0.997660  0.002340  0.188930  1
  O  O17  1  0.672489  0.836070  0.397969  1
  O  O18  1  0.037733  0.522471  0.664450  1
  O  O19  1  0.477529  0.962267  0.664450  1
  O  O20  1  0.838170  0.161830  0.892493  1
  O  O21  1  0.159728  0.840272  0.398238  1
  O  O22  1  0.517453  0.038585  0.164708  1
  O  O23  1  0.961415  0.482547  0.164708  1
  O  O24  1  0.664338  0.335662  0.392790  1
  O  O25  1  0.322599  0.163312  0.897495  1
  O  O26  1  0.515357  0.484643  0.165122  1
  O  O27  1  0.836688  0.677401  0.897495  1
