# generated using pymatgen
data_TbNbO4
_symmetry_space_group_name_H-M   'P 1'
_cell_length_a   6.19863032
_cell_length_b   6.19863032
_cell_length_c   6.19863032
_cell_angle_alpha   107.08480401
_cell_angle_beta   107.08480401
_cell_angle_gamma   114.35734642
_symmetry_Int_Tables_number   1
_chemical_formula_structural   TbNbO4
_chemical_formula_sum   'Tb2 Nb2 O8'
_cell_volume   182.33463725
_cell_formula_units_Z   2
loop_
 _symmetry_equiv_pos_site_id
 _symmetry_equiv_pos_as_xyz
  1  'x, y, z'
loop_
 _atom_site_type_symbol
 _atom_site_label
 _atom_site_symmetry_multiplicity
 _atom_site_fract_x
 _atom_site_fract_y
 _atom_site_fract_z
 _atom_site_occupancy
  Tb  Tb0  1  0.000000  0.000000  0.000000  1
  Tb  Tb1  1  0.250000  0.750000  0.500000  1
  Nb  Nb2  1  0.500000  0.500000  0.000000  1
  Nb  Nb3  1  0.750000  0.250000  0.500000  1
  O  O4  1  0.316617  0.507927  0.191309  1
  O  O5  1  0.874692  0.683383  0.191309  1
  O  O6  1  0.375308  0.066617  0.308691  1
  O  O7  1  0.492073  0.683383  0.808691  1
  O  O8  1  0.316617  0.125308  0.808691  1
  O  O9  1  0.933383  0.242073  0.308691  1
  O  O10  1  0.933383  0.624692  0.691309  1
  O  O11  1  0.757927  0.066617  0.691309  1
