# generated using pymatgen
data_Ca5Dy3Ti5Mn3O24
_symmetry_space_group_name_H-M   'P 1'
_cell_length_a   5.38336548
_cell_length_b   5.61603511
_cell_length_c   15.27216300
_cell_angle_alpha   90.12317215
_cell_angle_beta   90.16801573
_cell_angle_gamma   90.35729862
_symmetry_Int_Tables_number   1
_chemical_formula_structural   Ca5Dy3Ti5Mn3O24
_chemical_formula_sum   'Ca5 Dy3 Ti5 Mn3 O24'
_cell_volume   461.71384529
_cell_formula_units_Z   1
loop_
 _symmetry_equiv_pos_site_id
 _symmetry_equiv_pos_as_xyz
  1  'x, y, z'
loop_
 _atom_site_type_symbol
 _atom_site_label
 _atom_site_symmetry_multiplicity
 _atom_site_fract_x
 _atom_site_fract_y
 _atom_site_fract_z
 _atom_site_occupancy
  Ca  Ca0  1  0.012615  0.050861  0.623612  1
  Ca  Ca1  1  0.012605  0.057906  0.128292  1
  Ca  Ca2  1  0.490427  0.552967  0.623601  1
  Ca  Ca3  1  0.510888  0.454697  0.872632  1
  Ca  Ca4  1  0.991580  0.954355  0.872419  1
  Dy  Dy5  1  0.485253  0.569217  0.129274  1
  Dy  Dy6  1  0.517103  0.429322  0.373886  1
  Dy  Dy7  1  0.979502  0.928619  0.374343  1
  Ti  Ti8  1  0.992712  0.517412  0.001206  1
  Ti  Ti9  1  0.011292  0.504227  0.747986  1
  Ti  Ti10  1  0.007670  0.495685  0.500443  1
  Ti  Ti11  1  0.513331  0.998934  0.748994  1
  Ti  Ti12  1  0.506252  0.022894  0.001348  1
  Mn  Mn13  1  0.002213  0.495410  0.250039  1
  Mn  Mn14  1  0.496544  0.000331  0.250519  1
  Mn  Mn15  1  0.493142  0.994228  0.499592  1
  O  O16  1  0.078387  0.521081  0.876167  1
  O  O17  1  0.109045  0.531663  0.374548  1
  O  O18  1  0.185437  0.799144  0.520549  1
  O  O19  1  0.209499  0.781548  0.026633  1
  O  O20  1  0.202974  0.787332  0.728743  1
  O  O21  1  0.211599  0.806902  0.225523  1
  O  O22  1  0.303107  0.318182  0.226985  1
  O  O23  1  0.285783  0.291762  0.729217  1
  O  O24  1  0.295675  0.316735  0.520080  1
  O  O25  1  0.305143  0.295731  0.027736  1
  O  O26  1  0.416335  0.021909  0.876682  1
  O  O27  1  0.390195  0.029836  0.377944  1
  O  O28  1  0.591743  0.965938  0.122498  1
  O  O29  1  0.580163  0.974130  0.624741  1
  O  O30  1  0.706413  0.700507  0.980558  1
  O  O31  1  0.705543  0.713917  0.771632  1
  O  O32  1  0.712051  0.688310  0.466941  1
  O  O33  1  0.707524  0.684448  0.275503  1
  O  O34  1  0.784323  0.209438  0.771710  1
  O  O35  1  0.789386  0.186497  0.280183  1
  O  O36  1  0.796867  0.201820  0.978130  1
  O  O37  1  0.801220  0.202556  0.470149  1
  O  O38  1  0.912579  0.472853  0.625058  1
  O  O39  1  0.895881  0.470695  0.123905  1
