# generated using pymatgen
data_Zr2N2O
_symmetry_space_group_name_H-M   'P 1'
_cell_length_a   5.58660913
_cell_length_b   5.58660913
_cell_length_c   10.44656528
_cell_angle_alpha   73.88798367
_cell_angle_beta   106.11201633
_cell_angle_gamma   120.66407597
_symmetry_Int_Tables_number   1
_chemical_formula_structural   Zr2N2O
_chemical_formula_sum   'Zr8 N8 O4'
_cell_volume   265.76149741
_cell_formula_units_Z   4
loop_
 _symmetry_equiv_pos_site_id
 _symmetry_equiv_pos_as_xyz
  1  'x, y, z'
loop_
 _atom_site_type_symbol
 _atom_site_label
 _atom_site_symmetry_multiplicity
 _atom_site_fract_x
 _atom_site_fract_y
 _atom_site_fract_z
 _atom_site_occupancy
  Zr  Zr0  1  0.415216  0.816752  0.411789  1
  Zr  Zr1  1  0.324785  0.906360  0.087130  1
  Zr  Zr2  1  0.167692  0.045947  0.661686  1
  Zr  Zr3  1  0.045947  0.167692  0.338314  1
  Zr  Zr4  1  0.906360  0.324785  0.912870  1
  Zr  Zr5  1  0.562927  0.678394  0.837737  1
  Zr  Zr6  1  0.678394  0.562927  0.162263  1
  Zr  Zr7  1  0.816752  0.415216  0.588211  1
  N  N8  1  0.135734  0.833682  0.505480  1
  N  N9  1  0.080699  0.586769  0.250899  1
  N  N10  1  0.624900  0.329846  0.002735  1
  N  N11  1  0.329846  0.624900  0.997265  1
  N  N12  1  0.673110  0.880698  0.243540  1
  N  N13  1  0.586769  0.080699  0.749101  1
  N  N14  1  0.833682  0.135734  0.494520  1
  N  N15  1  0.880698  0.673110  0.756460  1
  O  O16  1  0.184614  0.379462  0.742346  1
  O  O17  1  0.440550  0.440550  0.500000  1
  O  O18  1  0.379462  0.184614  0.257654  1
  O  O19  1  0.931862  0.931862  0.000000  1
