# generated using pymatgen
data_Na3Li3Mn2P2(CO7)2
_symmetry_space_group_name_H-M   'P 1'
_cell_length_a   5.10516120
_cell_length_b   6.63555426
_cell_length_c   8.81447566
_cell_angle_alpha   90.74608951
_cell_angle_beta   90.31859659
_cell_angle_gamma   90.34096183
_symmetry_Int_Tables_number   1
_chemical_formula_structural   Na3Li3Mn2P2(CO7)2
_chemical_formula_sum   'Na3 Li3 Mn2 P2 C2 O14'
_cell_volume   298.56007555
_cell_formula_units_Z   1
loop_
 _symmetry_equiv_pos_site_id
 _symmetry_equiv_pos_as_xyz
  1  'x, y, z'
loop_
 _atom_site_type_symbol
 _atom_site_label
 _atom_site_symmetry_multiplicity
 _atom_site_fract_x
 _atom_site_fract_y
 _atom_site_fract_z
 _atom_site_occupancy
  Na  Na0  1  0.241146  0.256732  0.082813  1
  Na  Na1  1  0.753255  0.000791  0.254881  1
  Na  Na2  1  0.758500  0.747208  0.915663  1
  Li  Li3  1  0.766479  0.485632  0.268657  1
  Li  Li4  1  0.233805  0.512721  0.733347  1
  Li  Li5  1  0.232548  0.988193  0.732933  1
  Mn  Mn6  1  0.222011  0.746573  0.361587  1
  Mn  Mn7  1  0.778475  0.249067  0.641131  1
  P  P8  1  0.301020  0.253950  0.415269  1
  P  P9  1  0.703221  0.744852  0.589113  1
  C  C10  1  0.263520  0.747701  0.052027  1
  C  C11  1  0.733469  0.257092  0.944861  1
  O  O12  1  0.713987  0.271151  0.091446  1
  O  O13  1  0.036227  0.749096  0.117787  1
  O  O14  1  0.473426  0.743889  0.136264  1
  O  O15  1  0.217391  0.061681  0.324805  1
  O  O16  1  0.187965  0.432411  0.324039  1
  O  O17  1  0.606870  0.269318  0.419198  1
  O  O18  1  0.799360  0.734340  0.422403  1
  O  O19  1  0.202312  0.251843  0.582417  1
  O  O20  1  0.395318  0.747932  0.587570  1
  O  O21  1  0.802275  0.563969  0.682940  1
  O  O22  1  0.809847  0.934528  0.674751  1
  O  O23  1  0.524322  0.248386  0.859000  1
  O  O24  1  0.963037  0.251016  0.881012  1
  O  O25  1  0.280213  0.749934  0.904087  1
