# generated using pymatgen
data_Li3MnV(PO4)3
_symmetry_space_group_name_H-M   'P 1'
_cell_length_a   8.65850175
_cell_length_b   8.65850175
_cell_length_c   6.32692492
_cell_angle_alpha   74.21412173
_cell_angle_beta   105.78587827
_cell_angle_gamma   84.63431056
_symmetry_Int_Tables_number   1
_chemical_formula_structural   Li3MnV(PO4)3
_chemical_formula_sum   'Li6 Mn2 V2 P6 O24'
_cell_volume   431.97642228
_cell_formula_units_Z   2
loop_
 _symmetry_equiv_pos_site_id
 _symmetry_equiv_pos_as_xyz
  1  'x, y, z'
loop_
 _atom_site_type_symbol
 _atom_site_label
 _atom_site_symmetry_multiplicity
 _atom_site_fract_x
 _atom_site_fract_y
 _atom_site_fract_z
 _atom_site_occupancy
  Li  Li0  1  0.996639  0.995361  0.248898  1
  Li  Li1  1  0.712585  0.710723  0.749252  1
  Li  Li2  1  0.500216  0.500042  0.500412  1
  Li  Li3  1  0.499958  0.499784  0.000412  1
  Li  Li4  1  0.289277  0.287415  0.249252  1
  Li  Li5  1  0.004639  0.003361  0.748898  1
  Mn  Mn6  1  0.375309  0.943779  0.130738  1
  Mn  Mn7  1  0.056221  0.624691  0.630738  1
  V  V8  1  0.941706  0.376277  0.360413  1
  V  V9  1  0.623723  0.058294  0.860413  1
  P  P10  1  0.713130  0.714212  0.249317  1
  P  P11  1  0.860914  0.334587  0.863361  1
  P  P12  1  0.665413  0.139086  0.363361  1
  P  P13  1  0.339341  0.866253  0.634577  1
  P  P14  1  0.133747  0.660659  0.134577  1
  P  P15  1  0.285788  0.286870  0.749317  1
  O  O16  1  0.986721  0.338306  0.089890  1
  O  O17  1  0.946192  0.386025  0.673197  1
  O  O18  1  0.742052  0.825886  0.032730  1
  O  O19  1  0.828010  0.736427  0.473719  1
  O  O20  1  0.848832  0.158561  0.400962  1
  O  O21  1  0.734169  0.538558  0.231970  1
  O  O22  1  0.841439  0.151168  0.900962  1
  O  O23  1  0.702122  0.454680  0.795393  1
  O  O24  1  0.613975  0.053808  0.173197  1
  O  O25  1  0.661694  0.013279  0.589890  1
  O  O26  1  0.537814  0.742055  0.271105  1
  O  O27  1  0.545320  0.297878  0.295393  1
  O  O28  1  0.453739  0.703795  0.705343  1
  O  O29  1  0.461442  0.265831  0.731970  1
  O  O30  1  0.341605  0.988208  0.403247  1
  O  O31  1  0.404737  0.953366  0.825882  1
  O  O32  1  0.296205  0.546261  0.205343  1
  O  O33  1  0.144536  0.843266  0.109596  1
  O  O34  1  0.257945  0.462186  0.771105  1
  O  O35  1  0.156734  0.855464  0.609596  1
  O  O36  1  0.174114  0.257948  0.532730  1
  O  O37  1  0.263573  0.171990  0.973719  1
  O  O38  1  0.046634  0.595263  0.325882  1
  O  O39  1  0.011792  0.658395  0.903247  1
