# generated using pymatgen
data_Li4NbV3O8
_symmetry_space_group_name_H-M   'P 1'
_cell_length_a   6.03991295
_cell_length_b   6.03991295
_cell_length_c   6.08416944
_cell_angle_alpha   60.16122360
_cell_angle_beta   119.83877640
_cell_angle_gamma   118.97232739
_symmetry_Int_Tables_number   1
_chemical_formula_structural   Li4NbV3O8
_chemical_formula_sum   'Li4 Nb1 V3 O8'
_cell_volume   158.51786452
_cell_formula_units_Z   1
loop_
 _symmetry_equiv_pos_site_id
 _symmetry_equiv_pos_as_xyz
  1  'x, y, z'
loop_
 _atom_site_type_symbol
 _atom_site_label
 _atom_site_symmetry_multiplicity
 _atom_site_fract_x
 _atom_site_fract_y
 _atom_site_fract_z
 _atom_site_occupancy
  Li  Li0  1  0.500000  0.500000  0.000000  1
  Li  Li1  1  0.500000  0.000000  0.000000  1
  Li  Li2  1  0.000000  0.000000  0.000000  1
  Li  Li3  1  0.000000  0.500000  0.000000  1
  Nb  Nb4  1  0.000000  0.000000  0.500000  1
  V  V5  1  0.000000  0.500000  0.500000  1
  V  V6  1  0.500000  0.500000  0.500000  1
  V  V7  1  0.500000  0.000000  0.500000  1
  O  O8  1  0.262307  0.737693  0.269334  1
  O  O9  1  0.241222  0.243985  0.264650  1
  O  O10  1  0.757625  0.242375  0.260725  1
  O  O11  1  0.737693  0.262307  0.730666  1
  O  O12  1  0.756015  0.758778  0.264650  1
  O  O13  1  0.758778  0.756015  0.735350  1
  O  O14  1  0.242375  0.757625  0.739275  1
  O  O15  1  0.243985  0.241222  0.735350  1
