# generated using pymatgen
data_VO2
_symmetry_space_group_name_H-M   'P 1'
_cell_length_a   5.11241575
_cell_length_b   5.11241575
_cell_length_c   6.27354445
_cell_angle_alpha   90.00000000
_cell_angle_beta   90.00000000
_cell_angle_gamma   112.66701325
_symmetry_Int_Tables_number   1
_chemical_formula_structural   VO2
_chemical_formula_sum   'V4 O8'
_cell_volume   151.30529314
_cell_formula_units_Z   4
loop_
 _symmetry_equiv_pos_site_id
 _symmetry_equiv_pos_as_xyz
  1  'x, y, z'
loop_
 _atom_site_type_symbol
 _atom_site_label
 _atom_site_symmetry_multiplicity
 _atom_site_fract_x
 _atom_site_fract_y
 _atom_site_fract_z
 _atom_site_occupancy
  V  V0  1  0.000000  0.000000  0.000000  1
  V  V1  1  0.000000  0.000000  0.500000  1
  V  V2  1  0.645667  0.354333  0.250000  1
  V  V3  1  0.354333  0.645667  0.750000  1
  O  O4  1  0.764067  0.235933  0.034097  1
  O  O5  1  0.764067  0.235933  0.465903  1
  O  O6  1  0.259937  0.209946  0.250000  1
  O  O7  1  0.209946  0.259937  0.750000  1
  O  O8  1  0.790054  0.740063  0.250000  1
  O  O9  1  0.740063  0.790054  0.750000  1
  O  O10  1  0.235933  0.764067  0.965903  1
  O  O11  1  0.235933  0.764067  0.534097  1
