# generated using pymatgen
data_Cu2O3
_symmetry_space_group_name_H-M   'P 1'
_cell_length_a   7.69282691
_cell_length_b   6.22719221
_cell_length_c   5.18778034
_cell_angle_alpha   84.21596147
_cell_angle_beta   53.64495368
_cell_angle_gamma   42.13908484
_symmetry_Int_Tables_number   1
_chemical_formula_structural   Cu2O3
_chemical_formula_sum   'Cu4 O6'
_cell_volume   104.61295745
_cell_formula_units_Z   2
loop_
 _symmetry_equiv_pos_site_id
 _symmetry_equiv_pos_as_xyz
  1  'x, y, z'
loop_
 _atom_site_type_symbol
 _atom_site_label
 _atom_site_symmetry_multiplicity
 _atom_site_fract_x
 _atom_site_fract_y
 _atom_site_fract_z
 _atom_site_occupancy
  Cu  Cu0  1  0.677275  0.918283  0.092404  1
  Cu  Cu1  1  0.331717  0.572725  0.937963  1
  Cu  Cu2  1  0.157596  0.937963  0.572725  1
  Cu  Cu3  1  0.312037  0.092404  0.918283  1
  O  O4  1  0.177306  0.322694  0.322694  1
  O  O5  1  0.219494  0.444682  0.812635  1
  O  O6  1  0.805318  0.030506  0.726811  1
  O  O7  1  0.927306  0.072694  0.072694  1
  O  O8  1  0.437365  0.726811  0.030506  1
  O  O9  1  0.523189  0.812635  0.444682  1
