# generated using pymatgen
data_KB5(H2O3)4
_symmetry_space_group_name_H-M   'P 1'
_cell_length_a   7.21114692
_cell_length_b   7.21114692
_cell_length_c   11.17699414
_cell_angle_alpha   90.00000000
_cell_angle_beta   90.00000000
_cell_angle_gamma   101.88430899
_symmetry_Int_Tables_number   1
_chemical_formula_structural   KB5(H2O3)4
_chemical_formula_sum   'K2 B10 H16 O24'
_cell_volume   568.75283713
_cell_formula_units_Z   2
loop_
 _symmetry_equiv_pos_site_id
 _symmetry_equiv_pos_as_xyz
  1  'x, y, z'
loop_
 _atom_site_type_symbol
 _atom_site_label
 _atom_site_symmetry_multiplicity
 _atom_site_fract_x
 _atom_site_fract_y
 _atom_site_fract_z
 _atom_site_occupancy
  K  K0  1  0.492771  0.492771  0.500000  1
  K  K1  1  0.992771  0.992771  0.000000  1
  B  B2  1  0.894814  0.894814  0.500000  1
  B  B3  1  0.394814  0.394814  0.000000  1
  B  B4  1  0.895671  0.704626  0.688251  1
  B  B5  1  0.704626  0.895671  0.311749  1
  B  B6  1  0.395671  0.204626  0.811749  1
  B  B7  1  0.204626  0.395671  0.188251  1
  B  B8  1  0.930318  0.041129  0.704714  1
  B  B9  1  0.041129  0.930318  0.295286  1
  B  B10  1  0.430318  0.541129  0.795286  1
  B  B11  1  0.541129  0.430318  0.204714  1
  H  H12  1  0.527438  0.008785  0.489007  1
  H  H13  1  0.008785  0.527438  0.510993  1
  H  H14  1  0.027438  0.508785  0.010993  1
  H  H15  1  0.508785  0.027438  0.989007  1
  H  H16  1  0.308093  0.013375  0.480021  1
  H  H17  1  0.013375  0.308093  0.519979  1
  H  H18  1  0.808093  0.513375  0.019979  1
  H  H19  1  0.513375  0.808093  0.980021  1
  H  H20  1  0.398010  0.049588  0.666093  1
  H  H21  1  0.049588  0.398010  0.333907  1
  H  H22  1  0.898010  0.549588  0.833907  1
  H  H23  1  0.549588  0.898010  0.166093  1
  H  H24  1  0.939188  0.314172  0.746268  1
  H  H25  1  0.314172  0.939188  0.253732  1
  H  H26  1  0.439188  0.814172  0.753732  1
  H  H27  1  0.814172  0.439188  0.246268  1
  O  O28  1  0.884610  0.712681  0.566007  1
  O  O29  1  0.712681  0.884610  0.433993  1
  O  O30  1  0.384610  0.212681  0.933993  1
  O  O31  1  0.212681  0.384610  0.066007  1
  O  O32  1  0.922426  0.058158  0.582844  1
  O  O33  1  0.058158  0.922426  0.417156  1
  O  O34  1  0.422426  0.558158  0.917156  1
  O  O35  1  0.558158  0.422426  0.082844  1
  O  O36  1  0.918109  0.865957  0.759440  1
  O  O37  1  0.865957  0.918109  0.240560  1
  O  O38  1  0.418109  0.365957  0.740560  1
  O  O39  1  0.365957  0.418109  0.259440  1
  O  O40  1  0.886334  0.533676  0.744091  1
  O  O41  1  0.533676  0.886334  0.255909  1
  O  O42  1  0.386334  0.033676  0.755909  1
  O  O43  1  0.033676  0.386334  0.244091  1
  O  O44  1  0.953676  0.191693  0.781389  1
  O  O45  1  0.191693  0.953676  0.218611  1
  O  O46  1  0.453676  0.691693  0.718611  1
  O  O47  1  0.691693  0.453676  0.281389  1
  O  O48  1  0.427913  0.071790  0.520240  1
  O  O49  1  0.071790  0.427913  0.479760  1
  O  O50  1  0.927913  0.571790  0.979760  1
  O  O51  1  0.571790  0.927913  0.020240  1
