# generated using pymatgen
data_Li4Nb3Co3(SnO8)2
_symmetry_space_group_name_H-M   'P 1'
_cell_length_a   6.09637719
_cell_length_b   6.09637719
_cell_length_c   10.03239602
_cell_angle_alpha   89.55845405
_cell_angle_beta   90.44154595
_cell_angle_gamma   119.57544248
_symmetry_Int_Tables_number   1
_chemical_formula_structural   Li4Nb3Co3(SnO8)2
_chemical_formula_sum   'Li4 Nb3 Co3 Sn2 O16'
_cell_volume   324.26778211
_cell_formula_units_Z   1
loop_
 _symmetry_equiv_pos_site_id
 _symmetry_equiv_pos_as_xyz
  1  'x, y, z'
loop_
 _atom_site_type_symbol
 _atom_site_label
 _atom_site_symmetry_multiplicity
 _atom_site_fract_x
 _atom_site_fract_y
 _atom_site_fract_z
 _atom_site_occupancy
  Li  Li0  1  0.331971  0.668029  0.905559  1
  Li  Li1  1  0.999970  0.000030  0.997199  1
  Li  Li2  1  0.978520  0.021480  0.485139  1
  Li  Li3  1  0.664603  0.335397  0.385188  1
  Nb  Nb4  1  0.173994  0.826006  0.220820  1
  Nb  Nb5  1  0.838437  0.653460  0.712645  1
  Nb  Nb6  1  0.346540  0.161563  0.712645  1
  Co  Co7  1  0.655656  0.826457  0.211318  1
  Co  Co8  1  0.173543  0.344344  0.211318  1
  Co  Co9  1  0.809221  0.190779  0.711247  1
  Sn  Sn10  1  0.351802  0.648198  0.482695  1
  Sn  Sn11  1  0.677408  0.322592  0.005949  1
  O  O12  1  0.679039  0.828616  0.601550  1
  O  O13  1  0.485401  0.514599  0.337508  1
  O  O14  1  0.321770  0.678230  0.099345  1
  O  O15  1  0.006106  0.993894  0.304596  1
  O  O16  1  0.006564  0.993436  0.805272  1
  O  O17  1  0.171384  0.320961  0.601550  1
  O  O18  1  0.469208  0.964387  0.350474  1
  O  O19  1  0.035613  0.530792  0.350474  1
  O  O20  1  0.845692  0.154308  0.096280  1
  O  O21  1  0.173885  0.826115  0.606459  1
  O  O22  1  0.959389  0.496392  0.848280  1
  O  O23  1  0.503608  0.040611  0.848280  1
  O  O24  1  0.647096  0.352904  0.589504  1
  O  O25  1  0.846472  0.667013  0.099231  1
  O  O26  1  0.517485  0.482515  0.828056  1
  O  O27  1  0.332987  0.153528  0.099231  1
