# generated using pymatgen
data_SrLiVPO6
_symmetry_space_group_name_H-M   'P 1'
_cell_length_a   5.42075401
_cell_length_b   10.84009240
_cell_length_c   8.36719577
_cell_angle_alpha   90.00000000
_cell_angle_beta   90.23822385
_cell_angle_gamma   90.00000000
_symmetry_Int_Tables_number   1
_chemical_formula_structural   SrLiVPO6
_chemical_formula_sum   'Sr4 Li4 V4 P4 O24'
_cell_volume   491.66450948
_cell_formula_units_Z   4
loop_
 _symmetry_equiv_pos_site_id
 _symmetry_equiv_pos_as_xyz
  1  'x, y, z'
loop_
 _atom_site_type_symbol
 _atom_site_label
 _atom_site_symmetry_multiplicity
 _atom_site_fract_x
 _atom_site_fract_y
 _atom_site_fract_z
 _atom_site_occupancy
  Sr  Sr0  1  0.319047  0.272338  0.887042  1
  Sr  Sr1  1  0.319047  0.227662  0.387042  1
  Sr  Sr2  1  0.680953  0.772338  0.612958  1
  Sr  Sr3  1  0.680953  0.727662  0.112958  1
  Li  Li4  1  0.313632  0.983281  0.626306  1
  Li  Li5  1  0.313632  0.516719  0.126306  1
  Li  Li6  1  0.686368  0.483281  0.873694  1
  Li  Li7  1  0.686368  0.016719  0.373694  1
  V  V8  1  0.140053  0.910172  0.918156  1
  V  V9  1  0.140053  0.589828  0.418156  1
  V  V10  1  0.859947  0.410172  0.581844  1
  V  V11  1  0.859947  0.089828  0.081844  1
  P  P12  1  0.175733  0.608933  0.801907  1
  P  P13  1  0.175733  0.891067  0.301907  1
  P  P14  1  0.824267  0.108933  0.698093  1
  P  P15  1  0.824267  0.391067  0.198093  1
  O  O16  1  0.394343  0.873673  0.801977  1
  O  O17  1  0.394343  0.626327  0.301977  1
  O  O18  1  0.396694  0.596520  0.919479  1
  O  O19  1  0.396694  0.903480  0.419479  1
  O  O20  1  0.278309  0.645008  0.635052  1
  O  O21  1  0.278309  0.854992  0.135052  1
  O  O22  1  0.172955  0.077431  0.979028  1
  O  O23  1  0.172955  0.422569  0.479028  1
  O  O24  1  0.037977  0.480730  0.798867  1
  O  O25  1  0.037977  0.019270  0.298867  1
  O  O26  1  0.012569  0.209106  0.639441  1
  O  O27  1  0.987431  0.709106  0.860559  1
  O  O28  1  0.012569  0.290894  0.139441  1
  O  O29  1  0.987431  0.790894  0.360559  1
  O  O30  1  0.962023  0.980730  0.701133  1
  O  O31  1  0.962023  0.519270  0.201133  1
  O  O32  1  0.827045  0.577431  0.520972  1
  O  O33  1  0.827045  0.922569  0.020972  1
  O  O34  1  0.721691  0.145008  0.864948  1
  O  O35  1  0.721691  0.354992  0.364948  1
  O  O36  1  0.603306  0.096520  0.580521  1
  O  O37  1  0.603306  0.403480  0.080521  1
  O  O38  1  0.605657  0.373673  0.698023  1
  O  O39  1  0.605657  0.126327  0.198023  1
