# generated using pymatgen
data_K4Li3(FeO4)2
_symmetry_space_group_name_H-M   'P 1'
_cell_length_a   5.57798981
_cell_length_b   8.78759568
_cell_length_c   10.77936139
_cell_angle_alpha   87.60953890
_cell_angle_beta   80.15897892
_cell_angle_gamma   86.94595015
_symmetry_Int_Tables_number   1
_chemical_formula_structural   K4Li3(FeO4)2
_chemical_formula_sum   'K8 Li6 Fe4 O16'
_cell_volume   519.57374610
_cell_formula_units_Z   2
loop_
 _symmetry_equiv_pos_site_id
 _symmetry_equiv_pos_as_xyz
  1  'x, y, z'
loop_
 _atom_site_type_symbol
 _atom_site_label
 _atom_site_symmetry_multiplicity
 _atom_site_fract_x
 _atom_site_fract_y
 _atom_site_fract_z
 _atom_site_occupancy
  K  K0  1  0.185917  0.963381  0.156445  1
  K  K1  1  0.156174  0.219897  0.618527  1
  K  K2  1  0.407448  0.521102  0.332301  1
  K  K3  1  0.305769  0.770979  0.868754  1
  K  K4  1  0.672012  0.249631  0.117677  1
  K  K5  1  0.631076  0.469209  0.657927  1
  K  K6  1  0.901148  0.707977  0.382524  1
  K  K7  1  0.769194  0.041000  0.856360  1
  Li  Li8  1  0.100160  0.242237  0.304482  1
  Li  Li9  1  0.267438  0.516416  0.071424  1
  Li  Li10  1  0.599142  0.977750  0.299380  1
  Li  Li11  1  0.721442  0.505438  0.924981  1
  Li  Li12  1  0.808438  0.974296  0.553254  1
  Li  Li13  1  0.897617  0.744158  0.709911  1
  Fe  Fe14  1  0.204187  0.286083  0.942671  1
  Fe  Fe15  1  0.328169  0.795698  0.561710  1
  Fe  Fe16  1  0.676121  0.213302  0.434646  1
  Fe  Fe17  1  0.774038  0.727093  0.065354  1
  O  O18  1  0.160883  0.292595  0.110943  1
  O  O19  1  0.050017  0.684912  0.127971  1
  O  O20  1  0.091812  0.918095  0.639848  1
  O  O21  1  0.174525  0.625675  0.599619  1
  O  O22  1  0.419599  0.210430  0.350209  1
  O  O23  1  0.417917  0.816276  0.398794  1
  O  O24  1  0.298629  0.096589  0.920752  1
  O  O25  1  0.387836  0.443129  0.891596  1
  O  O26  1  0.602729  0.556479  0.099837  1
  O  O27  1  0.691081  0.919462  0.117475  1
  O  O28  1  0.669645  0.177719  0.599646  1
  O  O29  1  0.614666  0.789317  0.614713  1
  O  O30  1  0.822251  0.392873  0.403441  1
  O  O31  1  0.867640  0.048141  0.370691  1
  O  O32  1  0.944786  0.330185  0.873408  1
  O  O33  1  0.793549  0.727691  0.889587  1
