# generated using pymatgen
data_LiNi6O6F
_symmetry_space_group_name_H-M   'P 1'
_cell_length_a   15.00139599
_cell_length_b   15.00139599
_cell_length_c   15.00139599
_cell_angle_alpha   168.62413062
_cell_angle_beta   168.62413062
_cell_angle_gamma   16.11455718
_symmetry_Int_Tables_number   1
_chemical_formula_structural   LiNi6O6F
_chemical_formula_sum   'Li1 Ni6 O6 F1'
_cell_volume   131.33586552
_cell_formula_units_Z   1
loop_
 _symmetry_equiv_pos_site_id
 _symmetry_equiv_pos_as_xyz
  1  'x, y, z'
loop_
 _atom_site_type_symbol
 _atom_site_label
 _atom_site_symmetry_multiplicity
 _atom_site_fract_x
 _atom_site_fract_y
 _atom_site_fract_z
 _atom_site_occupancy
  Li  Li0  1  0.000000  0.000000  0.000000  1
  Ni  Ni1  1  0.572899  0.572899  0.000000  1
  Ni  Ni2  1  0.142962  0.142962  0.000000  1
  Ni  Ni3  1  0.714453  0.714453  0.000000  1
  Ni  Ni4  1  0.285547  0.285547  0.000000  1
  Ni  Ni5  1  0.857038  0.857038  0.000000  1
  Ni  Ni6  1  0.427101  0.427101  0.000000  1
  O  O7  1  0.071593  0.071593  0.000000  1
  O  O8  1  0.643310  0.643310  0.000000  1
  O  O9  1  0.214418  0.214418  0.000000  1
  O  O10  1  0.785582  0.785582  0.000000  1
  O  O11  1  0.356690  0.356690  0.000000  1
  O  O12  1  0.928407  0.928407  0.000000  1
  F  F13  1  0.500000  0.500000  0.000000  1
