# generated using pymatgen
data_P4WO13
_symmetry_space_group_name_H-M   'P 1'
_cell_length_a   5.21283750
_cell_length_b   7.99310556
_cell_length_c   13.95489243
_cell_angle_alpha   78.48245784
_cell_angle_beta   86.59211221
_cell_angle_gamma   81.32080741
_symmetry_Int_Tables_number   1
_chemical_formula_structural   P4WO13
_chemical_formula_sum   'P8 W2 O26'
_cell_volume   562.96448276
_cell_formula_units_Z   2
loop_
 _symmetry_equiv_pos_site_id
 _symmetry_equiv_pos_as_xyz
  1  'x, y, z'
loop_
 _atom_site_type_symbol
 _atom_site_label
 _atom_site_symmetry_multiplicity
 _atom_site_fract_x
 _atom_site_fract_y
 _atom_site_fract_z
 _atom_site_occupancy
  P  P0  1  0.119121  0.795011  0.127369  1
  P  P1  1  0.338348  0.574877  0.315344  1
  P  P2  1  0.303843  0.647621  0.803067  1
  P  P3  1  0.679681  0.349131  0.203206  1
  P  P4  1  0.638801  0.430105  0.677729  1
  P  P5  1  0.990193  0.103522  0.351738  1
  P  P6  1  0.872491  0.207992  0.863128  1
  P  P7  1  0.995533  0.880123  0.651219  1
  W  W8  1  0.433627  0.048750  0.754137  1
  W  W9  1  0.555129  0.947482  0.240866  1
  O  O10  1  0.170560  0.019664  0.669899  1
  O  O11  1  0.270600  0.013431  0.330097  1
  O  O12  1  0.160718  0.124534  0.843029  1
  O  O13  1  0.153178  0.757475  0.029440  1
  O  O14  1  0.032211  0.739378  0.754369  1
  O  O15  1  0.167553  0.633798  0.217878  1
  O  O16  1  0.064036  0.807873  0.563826  1
  O  O17  1  0.191302  0.559101  0.407610  1
  O  O18  1  0.302976  0.924099  0.150786  1
  O  O19  1  0.285133  0.506265  0.885313  1
  O  O20  1  0.553266  0.190566  0.183958  1
  O  O21  1  0.504439  0.397921  0.296778  1
  O  O22  1  0.450541  0.286189  0.691902  1
  O  O23  1  0.468697  0.596208  0.708429  1
  O  O24  1  0.542948  0.708438  0.298857  1
  O  O25  1  0.430787  0.809213  0.817965  1
  O  O26  1  0.705656  0.492557  0.122756  1
  O  O27  1  0.698799  0.073457  0.838610  1
  O  O28  1  0.765538  0.468046  0.582073  1
  O  O29  1  0.947398  0.255816  0.253692  1
  O  O30  1  0.818178  0.252092  0.959047  1
  O  O31  1  0.940265  0.164213  0.443570  1
  O  O32  1  0.832243  0.362376  0.768244  1
  O  O33  1  0.708618  0.968171  0.664605  1
  O  O34  1  0.838210  0.883457  0.153924  1
  O  O35  1  0.805184  0.972490  0.331420  1
