# generated using pymatgen
data_Li2FeCo3O8
_symmetry_space_group_name_H-M   'P 1'
_cell_length_a   8.17110203
_cell_length_b   8.17448196
_cell_length_c   8.17818438
_cell_angle_alpha   90.05144009
_cell_angle_beta   90.01051567
_cell_angle_gamma   90.08060679
_symmetry_Int_Tables_number   1
_chemical_formula_structural   Li2FeCo3O8
_chemical_formula_sum   'Li8 Fe4 Co12 O32'
_cell_volume   546.25718034
_cell_formula_units_Z   4
loop_
 _symmetry_equiv_pos_site_id
 _symmetry_equiv_pos_as_xyz
  1  'x, y, z'
loop_
 _atom_site_type_symbol
 _atom_site_label
 _atom_site_symmetry_multiplicity
 _atom_site_fract_x
 _atom_site_fract_y
 _atom_site_fract_z
 _atom_site_occupancy
  Li  Li0  1  0.001302  0.997789  0.998272  1
  Li  Li1  1  0.748908  0.251772  0.252291  1
  Li  Li2  1  0.247674  0.746393  0.247408  1
  Li  Li3  1  0.502323  0.003048  0.501932  1
  Li  Li4  1  0.997382  0.502811  0.497411  1
  Li  Li5  1  0.252242  0.247761  0.752268  1
  Li  Li6  1  0.753658  0.751219  0.748601  1
  Li  Li7  1  0.497531  0.498649  0.002731  1
  Fe  Fe8  1  0.627377  0.873753  0.124727  1
  Fe  Fe9  1  0.123947  0.127026  0.376136  1
  Fe  Fe10  1  0.373363  0.622676  0.624723  1
  Fe  Fe11  1  0.877505  0.378911  0.875650  1
  Co  Co12  1  0.374436  0.128688  0.122994  1
  Co  Co13  1  0.127212  0.378852  0.124180  1
  Co  Co14  1  0.878208  0.624128  0.127749  1
  Co  Co15  1  0.378374  0.374889  0.371628  1
  Co  Co16  1  0.627348  0.621899  0.375647  1
  Co  Co17  1  0.874830  0.872148  0.377802  1
  Co  Co18  1  0.625701  0.371608  0.621815  1
  Co  Co19  1  0.871263  0.121564  0.624897  1
  Co  Co20  1  0.121761  0.875067  0.627796  1
  Co  Co21  1  0.623830  0.126666  0.871219  1
  Co  Co22  1  0.371454  0.876915  0.874441  1
  Co  Co23  1  0.124613  0.627908  0.878279  1
  O  O24  1  0.605364  0.120993  0.107167  1
  O  O25  1  0.378306  0.894208  0.105913  1
  O  O26  1  0.111345  0.609552  0.111317  1
  O  O27  1  0.144856  0.143314  0.127967  1
  O  O28  1  0.895265  0.389120  0.120810  1
  O  O29  1  0.360606  0.360856  0.138165  1
  O  O30  1  0.640408  0.629525  0.145050  1
  O  O31  1  0.871696  0.860493  0.145713  1
  O  O32  1  0.371100  0.139451  0.352646  1
  O  O33  1  0.141667  0.370465  0.355350  1
  O  O34  1  0.858785  0.640359  0.362780  1
  O  O35  1  0.397428  0.610376  0.379118  1
  O  O36  1  0.643178  0.857081  0.372204  1
  O  O37  1  0.612587  0.388496  0.390421  1
  O  O38  1  0.879365  0.103532  0.389780  1
  O  O39  1  0.106431  0.877840  0.394480  1
  O  O40  1  0.394784  0.379417  0.608611  1
  O  O41  1  0.621669  0.605881  0.605727  1
  O  O42  1  0.889998  0.887913  0.610611  1
  O  O43  1  0.854476  0.357704  0.630631  1
  O  O44  1  0.108539  0.104623  0.620589  1
  O  O45  1  0.638108  0.139605  0.638465  1
  O  O46  1  0.355877  0.872365  0.644527  1
  O  O47  1  0.130189  0.645445  0.640947  1
  O  O48  1  0.625975  0.354878  0.854903  1
  O  O49  1  0.850961  0.128782  0.859750  1
  O  O50  1  0.138962  0.862298  0.860118  1
  O  O51  1  0.606126  0.893895  0.878339  1
  O  O52  1  0.361136  0.648051  0.871018  1
  O  O53  1  0.390462  0.110504  0.889523  1
  O  O54  1  0.122301  0.391307  0.894180  1
  O  O55  1  0.889667  0.619670  0.892582  1
