# generated using pymatgen
data_Y2Hf2O7
_symmetry_space_group_name_H-M   'P 1'
_cell_length_a   7.31417119
_cell_length_b   7.31417119
_cell_length_c   12.52360611
_cell_angle_alpha   90.00000000
_cell_angle_beta   90.00000000
_cell_angle_gamma   90.00000000
_symmetry_Int_Tables_number   1
_chemical_formula_structural   Y2Hf2O7
_chemical_formula_sum   'Y8 Hf8 O28'
_cell_volume   669.97660998
_cell_formula_units_Z   4
loop_
 _symmetry_equiv_pos_site_id
 _symmetry_equiv_pos_as_xyz
  1  'x, y, z'
loop_
 _atom_site_type_symbol
 _atom_site_label
 _atom_site_symmetry_multiplicity
 _atom_site_fract_x
 _atom_site_fract_y
 _atom_site_fract_z
 _atom_site_occupancy
  Y  Y0  1  0.136983  0.625342  0.134058  1
  Y  Y1  1  0.125342  0.363017  0.884058  1
  Y  Y2  1  0.374658  0.863017  0.365942  1
  Y  Y3  1  0.363017  0.125342  0.115942  1
  Y  Y4  1  0.636983  0.874658  0.615942  1
  Y  Y5  1  0.625342  0.136983  0.865942  1
  Y  Y6  1  0.874658  0.636983  0.384058  1
  Y  Y7  1  0.863017  0.374658  0.634058  1
  Hf  Hf8  1  0.098975  0.871607  0.594652  1
  Hf  Hf9  1  0.128393  0.901025  0.905348  1
  Hf  Hf10  1  0.371607  0.401025  0.344652  1
  Hf  Hf11  1  0.401025  0.371607  0.655348  1
  Hf  Hf12  1  0.598975  0.628393  0.155348  1
  Hf  Hf13  1  0.628393  0.598975  0.844652  1
  Hf  Hf14  1  0.871607  0.098975  0.405348  1
  Hf  Hf15  1  0.901025  0.128393  0.094652  1
  O  O16  1  0.069715  0.908931  0.415328  1
  O  O17  1  0.081770  0.325935  0.073799  1
  O  O18  1  0.091069  0.930285  0.084672  1
  O  O19  1  0.152909  0.640283  0.953065  1
  O  O20  1  0.174065  0.581770  0.323799  1
  O  O21  1  0.140283  0.347091  0.703065  1
  O  O22  1  0.143188  0.856812  0.750000  1
  O  O23  1  0.356812  0.356812  0.500000  1
  O  O24  1  0.359717  0.847091  0.546935  1
  O  O25  1  0.325935  0.081770  0.926201  1
  O  O26  1  0.347091  0.140283  0.296935  1
  O  O27  1  0.408931  0.430285  0.165328  1
  O  O28  1  0.418230  0.825935  0.176201  1
  O  O29  1  0.430285  0.408931  0.834672  1
  O  O30  1  0.569715  0.591069  0.334672  1
  O  O31  1  0.581770  0.174065  0.676201  1
  O  O32  1  0.591069  0.569715  0.665328  1
  O  O33  1  0.652909  0.859717  0.796935  1
  O  O34  1  0.674065  0.918230  0.426201  1
  O  O35  1  0.640283  0.152909  0.046935  1
  O  O36  1  0.643188  0.643188  0.000000  1
  O  O37  1  0.856812  0.143188  0.250000  1
  O  O38  1  0.859717  0.652909  0.203065  1
  O  O39  1  0.825935  0.418230  0.823799  1
  O  O40  1  0.847091  0.359717  0.453065  1
  O  O41  1  0.908931  0.069715  0.584672  1
  O  O42  1  0.918230  0.674065  0.573799  1
  O  O43  1  0.930285  0.091069  0.915328  1
