# generated using pymatgen
data_Fe6O7F5
_symmetry_space_group_name_H-M   'P 1'
_cell_length_a   4.72740008
_cell_length_b   5.60896114
_cell_length_c   7.74244178
_cell_angle_alpha   85.76878015
_cell_angle_beta   89.39582586
_cell_angle_gamma   89.20211907
_symmetry_Int_Tables_number   1
_chemical_formula_structural   Fe6O7F5
_chemical_formula_sum   'Fe6 O7 F5'
_cell_volume   204.70833484
_cell_formula_units_Z   1
loop_
 _symmetry_equiv_pos_site_id
 _symmetry_equiv_pos_as_xyz
  1  'x, y, z'
loop_
 _atom_site_type_symbol
 _atom_site_label
 _atom_site_symmetry_multiplicity
 _atom_site_fract_x
 _atom_site_fract_y
 _atom_site_fract_z
 _atom_site_occupancy
  Fe  Fe0  1  0.478836  0.848272  0.666837  1
  Fe  Fe1  1  0.494723  0.499422  0.998209  1
  Fe  Fe2  1  0.543083  0.162248  0.340795  1
  Fe  Fe3  1  0.028354  0.324382  0.663205  1
  Fe  Fe4  1  0.941797  0.656617  0.324218  1
  Fe  Fe5  1  0.005712  0.003739  0.004381  1
  O  O6  1  0.817836  0.365602  0.444440  1
  O  O7  1  0.796941  0.709487  0.093687  1
  O  O8  1  0.697714  0.212163  0.102775  1
  O  O9  1  0.689329  0.860697  0.443347  1
  O  O10  1  0.313925  0.136836  0.561333  1
  O  O11  1  0.301583  0.792079  0.895227  1
  O  O12  1  0.195612  0.294340  0.895289  1
  F  F13  1  0.802238  0.036198  0.767042  1
  F  F14  1  0.702031  0.537014  0.760817  1
  F  F15  1  0.299362  0.467610  0.238479  1
  F  F16  1  0.195791  0.958328  0.238823  1
  F  F17  1  0.195133  0.634969  0.561096  1
