# generated using pymatgen
data_Li3Co2(SiO4)2
_symmetry_space_group_name_H-M   'P 1'
_cell_length_a   5.21621901
_cell_length_b   5.21621901
_cell_length_c   6.74235372
_cell_angle_alpha   87.63079874
_cell_angle_beta   92.36920126
_cell_angle_gamma   92.84234386
_symmetry_Int_Tables_number   1
_chemical_formula_structural   Li3Co2(SiO4)2
_chemical_formula_sum   'Li3 Co2 Si2 O8'
_cell_volume   182.92805083
_cell_formula_units_Z   1
loop_
 _symmetry_equiv_pos_site_id
 _symmetry_equiv_pos_as_xyz
  1  'x, y, z'
loop_
 _atom_site_type_symbol
 _atom_site_label
 _atom_site_symmetry_multiplicity
 _atom_site_fract_x
 _atom_site_fract_y
 _atom_site_fract_z
 _atom_site_occupancy
  Li  Li0  1  0.579718  0.896659  0.549618  1
  Li  Li1  1  0.896659  0.579718  0.450382  1
  Li  Li2  1  0.138324  0.138324  0.500000  1
  Co  Co3  1  0.806397  0.806397  0.000000  1
  Co  Co4  1  0.200307  0.200307  0.000000  1
  Si  Si5  1  0.331814  0.681406  0.250162  1
  Si  Si6  1  0.681406  0.331814  0.749838  1
  O  O7  1  0.192503  0.832500  0.053241  1
  O  O8  1  0.645049  0.722155  0.251735  1
  O  O9  1  0.224717  0.787815  0.451276  1
  O  O10  1  0.722155  0.645049  0.748265  1
  O  O11  1  0.237470  0.371911  0.232843  1
  O  O12  1  0.787815  0.224717  0.548724  1
  O  O13  1  0.371911  0.237470  0.767157  1
  O  O14  1  0.832500  0.192503  0.946759  1
