# generated using pymatgen
data_Li3Ti2(PO4)3
_symmetry_space_group_name_H-M   'P 1'
_cell_length_a   4.96862571
_cell_length_b   4.96862571
_cell_length_c   18.61473453
_cell_angle_alpha   89.63124503
_cell_angle_beta   90.36875497
_cell_angle_gamma   113.15980947
_symmetry_Int_Tables_number   1
_chemical_formula_structural   Li3Ti2(PO4)3
_chemical_formula_sum   'Li6 Ti4 P6 O24'
_cell_volume   422.49970195
_cell_formula_units_Z   2
loop_
 _symmetry_equiv_pos_site_id
 _symmetry_equiv_pos_as_xyz
  1  'x, y, z'
loop_
 _atom_site_type_symbol
 _atom_site_label
 _atom_site_symmetry_multiplicity
 _atom_site_fract_x
 _atom_site_fract_y
 _atom_site_fract_z
 _atom_site_occupancy
  Li  Li0  1  0.000093  0.999907  0.167521  1
  Li  Li1  1  0.670628  0.329372  0.912493  1
  Li  Li2  1  0.669908  0.330092  0.245555  1
  Li  Li3  1  0.999907  0.000093  0.832479  1
  Li  Li4  1  0.330092  0.669908  0.754445  1
  Li  Li5  1  0.329372  0.670628  0.087507  1
  Ti  Ti6  1  0.000000  0.000000  0.500000  1
  Ti  Ti7  1  0.001664  0.998336  0.336391  1
  Ti  Ti8  1  0.998336  0.001664  0.663609  1
  Ti  Ti9  1  0.000000  0.000000  0.000000  1
  P  P10  1  0.652282  0.347718  0.747150  1
  P  P11  1  0.653747  0.346253  0.416802  1
  P  P12  1  0.648951  0.351049  0.080575  1
  P  P13  1  0.346253  0.653747  0.583198  1
  P  P14  1  0.351049  0.648951  0.919425  1
  P  P15  1  0.347718  0.652282  0.252850  1
  O  O16  1  0.774119  0.690531  0.417722  1
  O  O17  1  0.764824  0.692274  0.741427  1
  O  O18  1  0.761172  0.695183  0.076967  1
  O  O19  1  0.690531  0.774119  0.582278  1
  O  O20  1  0.695183  0.761172  0.923033  1
  O  O21  1  0.692274  0.764824  0.258573  1
  O  O22  1  0.235946  0.764054  0.517177  1
  O  O23  1  0.250089  0.749911  0.851285  1
  O  O24  1  0.755061  0.244939  0.347280  1
  O  O25  1  0.767927  0.232073  0.682397  1
  O  O26  1  0.764054  0.235946  0.482823  1
  O  O27  1  0.253012  0.746988  0.183010  1
  O  O28  1  0.242778  0.757222  0.987467  1
  O  O29  1  0.244939  0.755061  0.652720  1
  O  O30  1  0.746988  0.253012  0.816990  1
  O  O31  1  0.757222  0.242778  0.012533  1
  O  O32  1  0.232073  0.767927  0.317603  1
  O  O33  1  0.749911  0.250089  0.148715  1
  O  O34  1  0.225881  0.309469  0.582278  1
  O  O35  1  0.235176  0.307726  0.258573  1
  O  O36  1  0.309469  0.225881  0.417722  1
  O  O37  1  0.238828  0.304817  0.923033  1
  O  O38  1  0.304817  0.238828  0.076967  1
  O  O39  1  0.307726  0.235176  0.741427  1
