# generated using pymatgen
data_LiV2F7
_symmetry_space_group_name_H-M   'P 1'
_cell_length_a   7.82071435
_cell_length_b   7.14814105
_cell_length_c   10.18393454
_cell_angle_alpha   90.00000000
_cell_angle_beta   90.85935770
_cell_angle_gamma   90.00000000
_symmetry_Int_Tables_number   1
_chemical_formula_structural   LiV2F7
_chemical_formula_sum   'Li4 V8 F28'
_cell_volume   569.25425496
_cell_formula_units_Z   4
loop_
 _symmetry_equiv_pos_site_id
 _symmetry_equiv_pos_as_xyz
  1  'x, y, z'
loop_
 _atom_site_type_symbol
 _atom_site_label
 _atom_site_symmetry_multiplicity
 _atom_site_fract_x
 _atom_site_fract_y
 _atom_site_fract_z
 _atom_site_occupancy
  Li  Li0  1  0.304336  0.592184  0.351145  1
  Li  Li1  1  0.828710  0.106767  0.355461  1
  Li  Li2  1  0.304336  0.407816  0.851145  1
  Li  Li3  1  0.828710  0.893233  0.855461  1
  V  V4  1  0.118257  0.116169  0.082766  1
  V  V5  1  0.602355  0.617142  0.092069  1
  V  V6  1  0.396511  0.108465  0.408164  1
  V  V7  1  0.881572  0.609483  0.420645  1
  V  V8  1  0.118257  0.883831  0.582766  1
  V  V9  1  0.602355  0.382858  0.592069  1
  V  V10  1  0.396511  0.891535  0.908164  1
  V  V11  1  0.881572  0.390517  0.920645  1
  F  F12  1  0.193742  0.865081  0.025186  1
  F  F13  1  0.062334  0.380820  0.065330  1
  F  F14  1  0.694797  0.365914  0.052601  1
  F  F15  1  0.548014  0.882111  0.070086  1
  F  F16  1  0.409456  0.561488  0.189130  1
  F  F17  1  0.944398  0.060951  0.199502  1
  F  F18  1  0.275192  0.140334  0.240595  1
  F  F19  1  0.735913  0.640272  0.264057  1
  F  F20  1  0.069992  0.545285  0.317694  1
  F  F21  1  0.599112  0.052259  0.320922  1
  F  F22  1  0.446070  0.388740  0.427380  1
  F  F23  1  0.313192  0.836035  0.443997  1
  F  F24  1  0.936875  0.887360  0.434944  1
  F  F25  1  0.808674  0.337319  0.463175  1
  F  F26  1  0.193742  0.134919  0.525186  1
  F  F27  1  0.062334  0.619180  0.565330  1
  F  F28  1  0.694797  0.634086  0.552601  1
  F  F29  1  0.548014  0.117889  0.570086  1
  F  F30  1  0.409456  0.438512  0.689130  1
  F  F31  1  0.944398  0.939049  0.699502  1
  F  F32  1  0.275192  0.859666  0.740595  1
  F  F33  1  0.735913  0.359728  0.764057  1
  F  F34  1  0.069992  0.454715  0.817694  1
  F  F35  1  0.599112  0.947741  0.820922  1
  F  F36  1  0.446070  0.611260  0.927380  1
  F  F37  1  0.313192  0.163965  0.943997  1
  F  F38  1  0.936875  0.112640  0.934944  1
  F  F39  1  0.808674  0.662681  0.963175  1
