# generated using pymatgen
data_LiSnP2O7
_symmetry_space_group_name_H-M   'P 1'
_cell_length_a   5.26884657
_cell_length_b   8.48746863
_cell_length_c   14.04348471
_cell_angle_alpha   75.21783791
_cell_angle_beta   87.54026915
_cell_angle_gamma   88.50251479
_symmetry_Int_Tables_number   1
_chemical_formula_structural   LiSnP2O7
_chemical_formula_sum   'Li4 Sn4 P8 O28'
_cell_volume   606.59313520
_cell_formula_units_Z   4
loop_
 _symmetry_equiv_pos_site_id
 _symmetry_equiv_pos_as_xyz
  1  'x, y, z'
loop_
 _atom_site_type_symbol
 _atom_site_label
 _atom_site_symmetry_multiplicity
 _atom_site_fract_x
 _atom_site_fract_y
 _atom_site_fract_z
 _atom_site_occupancy
  Li  Li0  1  0.250918  0.717431  0.830743  1
  Li  Li1  1  0.198220  0.654586  0.335607  1
  Li  Li2  1  0.801780  0.345414  0.664393  1
  Li  Li3  1  0.749082  0.282569  0.169257  1
  Sn  Sn4  1  0.775469  0.907628  0.354670  1
  Sn  Sn5  1  0.754706  0.390299  0.879562  1
  Sn  Sn6  1  0.245294  0.609701  0.120438  1
  Sn  Sn7  1  0.224531  0.092372  0.645330  1
  P  P8  1  0.712020  0.010492  0.789850  1
  P  P9  1  0.743444  0.724422  0.956245  1
  P  P10  1  0.274090  0.787006  0.514292  1
  P  P11  1  0.288020  0.493881  0.686008  1
  P  P12  1  0.711980  0.506119  0.313992  1
  P  P13  1  0.725910  0.212994  0.485708  1
  P  P14  1  0.256556  0.275578  0.043755  1
  P  P15  1  0.287980  0.989508  0.210150  1
  O  O16  1  0.981757  0.959807  0.755784  1
  O  O17  1  0.677413  0.918657  0.903177  1
  O  O18  1  0.499043  0.951081  0.732244  1
  O  O19  1  0.196402  0.899037  0.579112  1
  O  O20  1  0.030402  0.700497  0.947640  1
  O  O21  1  0.554715  0.798734  0.476870  1
  O  O22  1  0.592776  0.636137  0.893653  1
  O  O23  1  0.109365  0.808435  0.423188  1
  O  O24  1  0.318021  0.810747  0.220030  1
  O  O25  1  0.128239  0.567955  0.755102  1
  O  O26  1  0.230320  0.602095  0.571658  1
  O  O27  1  0.572170  0.497186  0.695563  1
  O  O28  1  0.819465  0.676915  0.317524  1
  O  O29  1  0.640608  0.698065  0.061779  1
  O  O30  1  0.359392  0.301935  0.938221  1
  O  O31  1  0.180535  0.323085  0.682476  1
  O  O32  1  0.427830  0.502814  0.304437  1
  O  O33  1  0.769680  0.397905  0.428342  1
  O  O34  1  0.871761  0.432045  0.244898  1
  O  O35  1  0.681979  0.189253  0.779970  1
  O  O36  1  0.890635  0.191565  0.576812  1
  O  O37  1  0.407224  0.363863  0.106347  1
  O  O38  1  0.445285  0.201266  0.523130  1
  O  O39  1  0.969598  0.299503  0.052360  1
  O  O40  1  0.803598  0.100963  0.420888  1
  O  O41  1  0.500957  0.048919  0.267756  1
  O  O42  1  0.322587  0.081343  0.096823  1
  O  O43  1  0.018243  0.040193  0.244216  1
