# generated using pymatgen
data_Mn3Cr2Ni(PO4)6
_symmetry_space_group_name_H-M   'P 1'
_cell_length_a   8.40485018
_cell_length_b   8.40485018
_cell_length_c   8.40485018
_cell_angle_alpha   61.64954271
_cell_angle_beta   61.64954271
_cell_angle_gamma   61.64954271
_symmetry_Int_Tables_number   1
_chemical_formula_structural   Mn3Cr2Ni(PO4)6
_chemical_formula_sum   'Mn3 Cr2 Ni1 P6 O24'
_cell_volume   435.36056666
_cell_formula_units_Z   1
loop_
 _symmetry_equiv_pos_site_id
 _symmetry_equiv_pos_as_xyz
  1  'x, y, z'
loop_
 _atom_site_type_symbol
 _atom_site_label
 _atom_site_symmetry_multiplicity
 _atom_site_fract_x
 _atom_site_fract_y
 _atom_site_fract_z
 _atom_site_occupancy
  Mn  Mn0  1  0.856098  0.856098  0.856098  1
  Mn  Mn1  1  0.643591  0.643591  0.643591  1
  Mn  Mn2  1  0.355180  0.355180  0.355180  1
  Cr  Cr3  1  0.001286  0.001286  0.001286  1
  Cr  Cr4  1  0.499757  0.499757  0.499757  1
  Ni  Ni5  1  0.143403  0.143403  0.143403  1
  P  P6  1  0.953587  0.249555  0.547508  1
  P  P7  1  0.547508  0.953587  0.249555  1
  P  P8  1  0.249555  0.547508  0.953587  1
  P  P9  1  0.750502  0.452493  0.045042  1
  P  P10  1  0.452493  0.045042  0.750502  1
  P  P11  1  0.045042  0.750502  0.452493  1
  O  O12  1  0.886451  0.678170  0.496280  1
  O  O13  1  0.678170  0.496280  0.886451  1
  O  O14  1  0.934089  0.098617  0.754355  1
  O  O15  1  0.496280  0.886451  0.678170  1
  O  O16  1  0.984310  0.182072  0.396199  1
  O  O17  1  0.747978  0.411913  0.563163  1
  O  O18  1  0.754355  0.934089  0.098617  1
  O  O19  1  0.563163  0.747978  0.411913  1
  O  O20  1  0.819147  0.606879  0.010705  1
  O  O21  1  0.411913  0.563163  0.747978  1
  O  O22  1  0.901352  0.249446  0.060247  1
  O  O23  1  0.606879  0.010705  0.819147  1
  O  O24  1  0.396199  0.984310  0.182072  1
  O  O25  1  0.098617  0.754355  0.934089  1
  O  O26  1  0.591319  0.440768  0.248119  1
  O  O27  1  0.182072  0.396199  0.984310  1
  O  O28  1  0.440768  0.248119  0.591318  1
  O  O29  1  0.249446  0.060247  0.901352  1
  O  O30  1  0.248119  0.591319  0.440768  1
  O  O31  1  0.010705  0.819147  0.606879  1
  O  O32  1  0.512957  0.108190  0.319275  1
  O  O33  1  0.060247  0.901352  0.249446  1
  O  O34  1  0.319275  0.512957  0.108190  1
  O  O35  1  0.108190  0.319275  0.512957  1
