# generated using pymatgen
data_Li2Mn3F8
_symmetry_space_group_name_H-M   'P 1'
_cell_length_a   6.44171195
_cell_length_b   6.44171195
_cell_length_c   9.33906662
_cell_angle_alpha   90.00000000
_cell_angle_beta   90.00000000
_cell_angle_gamma   120.00000000
_symmetry_Int_Tables_number   1
_chemical_formula_structural   Li2Mn3F8
_chemical_formula_sum   'Li4 Mn6 F16'
_cell_volume   335.61140175
_cell_formula_units_Z   2
loop_
 _symmetry_equiv_pos_site_id
 _symmetry_equiv_pos_as_xyz
  1  'x, y, z'
loop_
 _atom_site_type_symbol
 _atom_site_label
 _atom_site_symmetry_multiplicity
 _atom_site_fract_x
 _atom_site_fract_y
 _atom_site_fract_z
 _atom_site_occupancy
  Li  Li0  1  0.333333  0.666667  0.543607  1
  Li  Li1  1  0.333333  0.666667  0.915361  1
  Li  Li2  1  0.666667  0.333333  0.043607  1
  Li  Li3  1  0.666667  0.333333  0.415361  1
  Mn  Mn4  1  0.164955  0.835045  0.246908  1
  Mn  Mn5  1  0.164955  0.329911  0.246908  1
  Mn  Mn6  1  0.329911  0.164955  0.746908  1
  Mn  Mn7  1  0.670089  0.835045  0.246908  1
  Mn  Mn8  1  0.835045  0.670089  0.746908  1
  Mn  Mn9  1  0.835045  0.164955  0.746908  1
  F  F10  1  0.171327  0.828673  0.640736  1
  F  F11  1  0.025501  0.512750  0.375100  1
  F  F12  1  0.333333  0.666667  0.124432  1
  F  F13  1  0.000000  0.000000  0.362200  1
  F  F14  1  0.000000  0.000000  0.862200  1
  F  F15  1  0.171327  0.342654  0.640736  1
  F  F16  1  0.487250  0.974499  0.375100  1
  F  F17  1  0.487250  0.512750  0.375100  1
  F  F18  1  0.657346  0.828673  0.640736  1
  F  F19  1  0.342654  0.171327  0.140736  1
  F  F20  1  0.512750  0.487250  0.875100  1
  F  F21  1  0.512750  0.025501  0.875100  1
  F  F22  1  0.828673  0.657346  0.140736  1
  F  F23  1  0.666667  0.333333  0.624432  1
  F  F24  1  0.974499  0.487250  0.875100  1
  F  F25  1  0.828673  0.171327  0.140736  1
