# generated using pymatgen
data_Li2MnF6
_symmetry_space_group_name_H-M   'P 1'
_cell_length_a   5.73957852
_cell_length_b   5.73957852
_cell_length_c   4.85998991
_cell_angle_alpha   90.00000000
_cell_angle_beta   90.00000000
_cell_angle_gamma   120.00000000
_symmetry_Int_Tables_number   1
_chemical_formula_structural   Li2MnF6
_chemical_formula_sum   'Li2 Mn1 F6'
_cell_volume   138.65195680
_cell_formula_units_Z   1
loop_
 _symmetry_equiv_pos_site_id
 _symmetry_equiv_pos_as_xyz
  1  'x, y, z'
loop_
 _atom_site_type_symbol
 _atom_site_label
 _atom_site_symmetry_multiplicity
 _atom_site_fract_x
 _atom_site_fract_y
 _atom_site_fract_z
 _atom_site_occupancy
  Li  Li0  1  0.333333  0.666667  0.273514  1
  Li  Li1  1  0.666667  0.333333  0.726486  1
  Mn  Mn2  1  0.000000  0.000000  0.000000  1
  F  F3  1  0.151130  0.848870  0.218350  1
  F  F4  1  0.151130  0.302260  0.218350  1
  F  F5  1  0.302260  0.151130  0.781650  1
  F  F6  1  0.697740  0.848870  0.218350  1
  F  F7  1  0.848870  0.697740  0.781650  1
  F  F8  1  0.848870  0.151130  0.781650  1
