# generated using pymatgen
data_TiFe3Sb2(PO4)6
_symmetry_space_group_name_H-M   'P 1'
_cell_length_a   8.90544704
_cell_length_b   8.90544704
_cell_length_c   8.90544704
_cell_angle_alpha   58.80270039
_cell_angle_beta   58.80270039
_cell_angle_gamma   58.80270039
_symmetry_Int_Tables_number   1
_chemical_formula_structural   TiFe3Sb2(PO4)6
_chemical_formula_sum   'Ti1 Fe3 Sb2 P6 O24'
_cell_volume   485.74937528
_cell_formula_units_Z   1
loop_
 _symmetry_equiv_pos_site_id
 _symmetry_equiv_pos_as_xyz
  1  'x, y, z'
loop_
 _atom_site_type_symbol
 _atom_site_label
 _atom_site_symmetry_multiplicity
 _atom_site_fract_x
 _atom_site_fract_y
 _atom_site_fract_z
 _atom_site_occupancy
  Ti  Ti0  1  0.145211  0.145211  0.145211  1
  Fe  Fe1  1  0.844007  0.844007  0.844007  1
  Fe  Fe2  1  0.649050  0.649050  0.649050  1
  Fe  Fe3  1  0.351935  0.351935  0.351935  1
  Sb  Sb4  1  0.985915  0.985915  0.985915  1
  Sb  Sb5  1  0.499086  0.499086  0.499086  1
  P  P6  1  0.453788  0.047365  0.751097  1
  P  P7  1  0.047365  0.751097  0.453788  1
  P  P8  1  0.751097  0.453788  0.047365  1
  P  P9  1  0.248135  0.539231  0.964483  1
  P  P10  1  0.964483  0.248135  0.539231  1
  P  P11  1  0.539231  0.964483  0.248135  1
  O  O12  1  0.705585  0.473272  0.895137  1
  O  O13  1  0.473272  0.895137  0.705585  1
  O  O14  1  0.077800  0.733970  0.941732  1
  O  O15  1  0.895137  0.705585  0.473272  1
  O  O16  1  0.181905  0.384627  0.015411  1
  O  O17  1  0.406638  0.555280  0.771957  1
  O  O18  1  0.941732  0.077800  0.733970  1
  O  O19  1  0.771957  0.406638  0.555280  1
  O  O20  1  0.615346  0.010694  0.798836  1
  O  O21  1  0.555280  0.771957  0.406638  1
  O  O22  1  0.266253  0.080141  0.918535  1
  O  O23  1  0.010694  0.798836  0.615346  1
  O  O24  1  0.015411  0.181905  0.384627  1
  O  O25  1  0.733970  0.941732  0.077800  1
  O  O26  1  0.435745  0.239264  0.583170  1
  O  O27  1  0.384627  0.015411  0.181905  1
  O  O28  1  0.239264  0.583170  0.435745  1
  O  O29  1  0.080141  0.918535  0.266253  1
  O  O30  1  0.583170  0.435745  0.239264  1
  O  O31  1  0.798836  0.615346  0.010694  1
  O  O32  1  0.116724  0.301580  0.511096  1
  O  O33  1  0.918535  0.266253  0.080141  1
  O  O34  1  0.511096  0.116724  0.301580  1
  O  O35  1  0.301580  0.511096  0.116724  1
