# generated using pymatgen
data_Y2Sb2O7
_symmetry_space_group_name_H-M   'P 1'
_cell_length_a   7.55935829
_cell_length_b   7.55935829
_cell_length_c   18.57285267
_cell_angle_alpha   90.00000000
_cell_angle_beta   90.00000000
_cell_angle_gamma   120.00000000
_symmetry_Int_Tables_number   1
_chemical_formula_structural   Y2Sb2O7
_chemical_formula_sum   'Y12 Sb12 O42'
_cell_volume   919.13457890
_cell_formula_units_Z   6
loop_
 _symmetry_equiv_pos_site_id
 _symmetry_equiv_pos_as_xyz
  1  'x, y, z'
loop_
 _atom_site_type_symbol
 _atom_site_label
 _atom_site_symmetry_multiplicity
 _atom_site_fract_x
 _atom_site_fract_y
 _atom_site_fract_z
 _atom_site_occupancy
  Y  Y0  1  0.000000  0.821462  0.666667  1
  Y  Y1  1  0.000000  0.834603  0.166667  1
  Y  Y2  1  0.181108  0.680999  0.011331  1
  Y  Y3  1  0.178538  0.178538  0.000000  1
  Y  Y4  1  0.499891  0.818892  0.677998  1
  Y  Y5  1  0.165397  0.165397  0.500000  1
  Y  Y6  1  0.319001  0.500109  0.344665  1
  Y  Y7  1  0.500109  0.319001  0.655335  1
  Y  Y8  1  0.680999  0.181108  0.988669  1
  Y  Y9  1  0.818892  0.499891  0.322002  1
  Y  Y10  1  0.834603  0.000000  0.833333  1
  Y  Y11  1  0.821462  0.000000  0.333333  1
  Sb  Sb12  1  0.000000  0.323595  0.166667  1
  Sb  Sb13  1  0.000000  0.299040  0.666667  1
  Sb  Sb14  1  0.163989  0.665454  0.500677  1
  Sb  Sb15  1  0.501464  0.836011  0.167344  1
  Sb  Sb16  1  0.334546  0.498536  0.834011  1
  Sb  Sb17  1  0.299040  0.000000  0.333333  1
  Sb  Sb18  1  0.676405  0.676405  0.500000  1
  Sb  Sb19  1  0.323595  0.000000  0.833333  1
  Sb  Sb20  1  0.700960  0.700960  0.000000  1
  Sb  Sb21  1  0.498536  0.334546  0.165989  1
  Sb  Sb22  1  0.665454  0.163989  0.499323  1
  Sb  Sb23  1  0.836011  0.501464  0.832656  1
  O  O24  1  0.017942  0.852023  0.284526  1
  O  O25  1  0.994055  0.801758  0.805744  1
  O  O26  1  0.106039  0.656489  0.393807  1
  O  O27  1  0.056818  0.443166  0.806221  1
  O  O28  1  0.327250  0.993058  0.955777  1
  O  O29  1  0.226354  0.694763  0.606241  1
  O  O30  1  0.006942  0.334192  0.289111  1
  O  O31  1  0.203404  0.685984  0.139943  1
  O  O32  1  0.386349  0.943182  0.472887  1
  O  O33  1  0.468409  0.773646  0.272908  1
  O  O34  1  0.482580  0.796596  0.806610  1
  O  O35  1  0.343511  0.449550  0.727140  1
  O  O36  1  0.147977  0.165918  0.617859  1
  O  O37  1  0.314016  0.517420  0.473276  1
  O  O38  1  0.198242  0.192297  0.139078  1
  O  O39  1  0.165918  0.147977  0.382141  1
  O  O40  1  0.305237  0.531591  0.939575  1
  O  O41  1  0.192297  0.198242  0.860922  1
  O  O42  1  0.550450  0.893961  0.060474  1
  O  O43  1  0.556834  0.613651  0.139554  1
  O  O44  1  0.807703  0.005945  0.472411  1
  O  O45  1  0.665808  0.672750  0.622444  1
  O  O46  1  0.449550  0.343511  0.272860  1
  O  O47  1  0.613651  0.556834  0.860446  1
  O  O48  1  0.334192  0.006942  0.710889  1
  O  O49  1  0.834082  0.982058  0.951193  1
  O  O50  1  0.531591  0.305237  0.060425  1
  O  O51  1  0.672750  0.665808  0.377556  1
  O  O52  1  0.517420  0.314016  0.526724  1
  O  O53  1  0.443166  0.056818  0.193779  1
  O  O54  1  0.694763  0.226354  0.393759  1
  O  O55  1  0.685984  0.203404  0.860057  1
  O  O56  1  0.893961  0.550450  0.939526  1
  O  O57  1  0.982058  0.834082  0.048807  1
  O  O58  1  0.796596  0.482580  0.193390  1
  O  O59  1  0.005945  0.807703  0.527589  1
  O  O60  1  0.773646  0.468409  0.727092  1
  O  O61  1  0.656489  0.106039  0.606193  1
  O  O62  1  0.943182  0.386349  0.527113  1
  O  O63  1  0.801758  0.994055  0.194256  1
  O  O64  1  0.993058  0.327250  0.044223  1
  O  O65  1  0.852023  0.017942  0.715474  1
