# generated using pymatgen
data_V2Cu2O7
_symmetry_space_group_name_H-M   'P 1'
_cell_length_a   6.65393594
_cell_length_b   6.65393594
_cell_length_c   6.77188983
_cell_angle_alpha   74.41236372
_cell_angle_beta   105.58763628
_cell_angle_gamma   78.94534806
_symmetry_Int_Tables_number   1
_chemical_formula_structural   V2Cu2O7
_chemical_formula_sum   'V4 Cu4 O14'
_cell_volume   266.68055965
_cell_formula_units_Z   2
loop_
 _symmetry_equiv_pos_site_id
 _symmetry_equiv_pos_as_xyz
  1  'x, y, z'
loop_
 _atom_site_type_symbol
 _atom_site_label
 _atom_site_symmetry_multiplicity
 _atom_site_fract_x
 _atom_site_fract_y
 _atom_site_fract_z
 _atom_site_occupancy
  V  V0  1  0.246281  0.855335  0.117881  1
  V  V1  1  0.144665  0.753719  0.617881  1
  V  V2  1  0.855335  0.246281  0.382119  1
  V  V3  1  0.753719  0.144665  0.882119  1
  Cu  Cu4  1  0.606956  0.699877  0.977368  1
  Cu  Cu5  1  0.300123  0.393044  0.477368  1
  Cu  Cu6  1  0.699877  0.606956  0.522632  1
  Cu  Cu7  1  0.393044  0.300123  0.022632  1
  O  O8  1  0.191579  0.717248  0.366944  1
  O  O9  1  0.717248  0.191579  0.133056  1
  O  O10  1  0.871307  0.875853  0.954561  1
  O  O11  1  0.124147  0.128693  0.454561  1
  O  O12  1  0.169230  0.480670  0.732722  1
  O  O13  1  0.875853  0.871307  0.545439  1
  O  O14  1  0.128693  0.124147  0.045439  1
  O  O15  1  0.282752  0.808421  0.866944  1
  O  O16  1  0.808421  0.282752  0.633056  1
  O  O17  1  0.411910  0.411910  0.250000  1
  O  O18  1  0.519330  0.830770  0.232722  1
  O  O19  1  0.480670  0.169230  0.767278  1
  O  O20  1  0.588090  0.588090  0.750000  1
  O  O21  1  0.830770  0.519330  0.267278  1
