# generated using pymatgen
data_LiFe3O4
_symmetry_space_group_name_H-M   'P 1'
_cell_length_a   5.19036644
_cell_length_b   3.05541372
_cell_length_c   5.22177761
_cell_angle_alpha   90.00000000
_cell_angle_beta   107.34378447
_cell_angle_gamma   90.00000000
_symmetry_Int_Tables_number   1
_chemical_formula_structural   LiFe3O4
_chemical_formula_sum   'Li1 Fe3 O4'
_cell_volume   79.04556103
_cell_formula_units_Z   1
loop_
 _symmetry_equiv_pos_site_id
 _symmetry_equiv_pos_as_xyz
  1  'x, y, z'
loop_
 _atom_site_type_symbol
 _atom_site_label
 _atom_site_symmetry_multiplicity
 _atom_site_fract_x
 _atom_site_fract_y
 _atom_site_fract_z
 _atom_site_occupancy
  Li  Li0  1  0.000000  0.500000  0.000000  1
  Fe  Fe1  1  0.500000  0.000000  0.000000  1
  Fe  Fe2  1  0.500000  0.500000  0.500000  1
  Fe  Fe3  1  0.000000  0.000000  0.500000  1
  O  O4  1  0.742558  0.000000  0.748093  1
  O  O5  1  0.736685  0.500000  0.225363  1
  O  O6  1  0.263315  0.500000  0.774637  1
  O  O7  1  0.257442  0.000000  0.251907  1
