# generated using pymatgen
data_LiCrAsCO7
_symmetry_space_group_name_H-M   'P 1'
_cell_length_a   5.17348161
_cell_length_b   6.45871393
_cell_length_c   8.84790694
_cell_angle_alpha   90.00000000
_cell_angle_beta   93.87045474
_cell_angle_gamma   90.00000000
_symmetry_Int_Tables_number   1
_chemical_formula_structural   LiCrAsCO7
_chemical_formula_sum   'Li2 Cr2 As2 C2 O14'
_cell_volume   294.96999630
_cell_formula_units_Z   2
loop_
 _symmetry_equiv_pos_site_id
 _symmetry_equiv_pos_as_xyz
  1  'x, y, z'
loop_
 _atom_site_type_symbol
 _atom_site_label
 _atom_site_symmetry_multiplicity
 _atom_site_fract_x
 _atom_site_fract_y
 _atom_site_fract_z
 _atom_site_occupancy
  Li  Li0  1  0.782299  0.495757  0.202488  1
  Li  Li1  1  0.217701  0.995757  0.797512  1
  Cr  Cr2  1  0.200057  0.243206  0.327777  1
  Cr  Cr3  1  0.799943  0.743206  0.672223  1
  As  As4  1  0.281901  0.750162  0.428120  1
  As  As5  1  0.718099  0.250162  0.571880  1
  C  C6  1  0.271440  0.253815  0.063577  1
  C  C7  1  0.728560  0.753815  0.936423  1
  O  O8  1  0.675546  0.721367  0.067596  1
  O  O9  1  0.038793  0.254694  0.116482  1
  O  O10  1  0.453243  0.283026  0.179461  1
  O  O11  1  0.201123  0.956382  0.309888  1
  O  O12  1  0.165730  0.549712  0.318104  1
  O  O13  1  0.860402  0.264258  0.402003  1
  O  O14  1  0.609170  0.729856  0.470143  1
  O  O15  1  0.390830  0.229856  0.529857  1
  O  O16  1  0.139598  0.764258  0.597997  1
  O  O17  1  0.834270  0.049712  0.681896  1
  O  O18  1  0.798877  0.456382  0.690112  1
  O  O19  1  0.546757  0.783026  0.820539  1
  O  O20  1  0.961207  0.754694  0.883518  1
  O  O21  1  0.324454  0.221367  0.932404  1
