# generated using pymatgen
data_VOF
_symmetry_space_group_name_H-M   'P 1'
_cell_length_a   4.71854555
_cell_length_b   4.73010049
_cell_length_c   9.38948383
_cell_angle_alpha   90.00000000
_cell_angle_beta   90.12947318
_cell_angle_gamma   90.00000000
_symmetry_Int_Tables_number   1
_chemical_formula_structural   VOF
_chemical_formula_sum   'V6 O6 F6'
_cell_volume   209.56518162
_cell_formula_units_Z   6
loop_
 _symmetry_equiv_pos_site_id
 _symmetry_equiv_pos_as_xyz
  1  'x, y, z'
loop_
 _atom_site_type_symbol
 _atom_site_label
 _atom_site_symmetry_multiplicity
 _atom_site_fract_x
 _atom_site_fract_y
 _atom_site_fract_z
 _atom_site_occupancy
  V  V0  1  0.220419  0.963995  0.083321  1
  V  V1  1  0.277893  0.021725  0.750939  1
  V  V2  1  0.288224  0.012313  0.416181  1
  V  V3  1  0.779581  0.463995  0.916679  1
  V  V4  1  0.722107  0.521725  0.249061  1
  V  V5  1  0.711776  0.512313  0.583819  1
  O  O6  1  0.445609  0.816990  0.584593  1
  O  O7  1  0.436027  0.810047  0.248067  1
  O  O8  1  0.563973  0.310047  0.751933  1
  O  O9  1  0.554391  0.316990  0.415407  1
  O  O10  1  0.933340  0.673478  0.083044  1
  O  O11  1  0.066660  0.173478  0.916956  1
  F  F12  1  0.458414  0.784963  0.916878  1
  F  F13  1  0.541586  0.284963  0.083122  1
  F  F14  1  0.961419  0.697835  0.749443  1
  F  F15  1  0.944873  0.718656  0.417020  1
  F  F16  1  0.038581  0.197835  0.250557  1
  F  F17  1  0.055127  0.218656  0.582980  1
