# generated using pymatgen
data_Ti2O3
_symmetry_space_group_name_H-M   'P 1'
_cell_length_a   5.16780262
_cell_length_b   5.16780262
_cell_length_c   9.60760334
_cell_angle_alpha   90.00000000
_cell_angle_beta   90.00000000
_cell_angle_gamma   120.00000000
_symmetry_Int_Tables_number   1
_chemical_formula_structural   Ti2O3
_chemical_formula_sum   'Ti8 O12'
_cell_volume   222.20689570
_cell_formula_units_Z   4
loop_
 _symmetry_equiv_pos_site_id
 _symmetry_equiv_pos_as_xyz
  1  'x, y, z'
loop_
 _atom_site_type_symbol
 _atom_site_label
 _atom_site_symmetry_multiplicity
 _atom_site_fract_x
 _atom_site_fract_y
 _atom_site_fract_z
 _atom_site_occupancy
  Ti  Ti0  1  0.333333  0.666667  0.976548  1
  Ti  Ti1  1  0.333333  0.666667  0.250000  1
  Ti  Ti2  1  0.000000  0.000000  0.000000  1
  Ti  Ti3  1  0.000000  0.000000  0.500000  1
  Ti  Ti4  1  0.333333  0.666667  0.523452  1
  Ti  Ti5  1  0.666667  0.333333  0.750000  1
  Ti  Ti6  1  0.666667  0.333333  0.023452  1
  Ti  Ti7  1  0.666667  0.333333  0.476548  1
  O  O8  1  0.025857  0.675555  0.116417  1
  O  O9  1  0.974143  0.649699  0.616417  1
  O  O10  1  0.025857  0.350301  0.383583  1
  O  O11  1  0.974143  0.324445  0.883583  1
  O  O12  1  0.324445  0.350301  0.116417  1
  O  O13  1  0.350301  0.324445  0.616417  1
  O  O14  1  0.324445  0.974143  0.383583  1
  O  O15  1  0.350301  0.025857  0.883583  1
  O  O16  1  0.649699  0.675555  0.383583  1
  O  O17  1  0.675555  0.649699  0.883583  1
  O  O18  1  0.649699  0.974143  0.116417  1
  O  O19  1  0.675555  0.025857  0.616417  1
