# generated using pymatgen
data_Li3TiCr3O8
_symmetry_space_group_name_H-M   'P 1'
_cell_length_a   5.93314824
_cell_length_b   5.93314824
_cell_length_c   5.94290735
_cell_angle_alpha   60.53366142
_cell_angle_beta   119.46633858
_cell_angle_gamma   120.28039994
_symmetry_Int_Tables_number   1
_chemical_formula_structural   Li3TiCr3O8
_chemical_formula_sum   'Li3 Ti1 Cr3 O8'
_cell_volume   148.78788684
_cell_formula_units_Z   1
loop_
 _symmetry_equiv_pos_site_id
 _symmetry_equiv_pos_as_xyz
  1  'x, y, z'
loop_
 _atom_site_type_symbol
 _atom_site_label
 _atom_site_symmetry_multiplicity
 _atom_site_fract_x
 _atom_site_fract_y
 _atom_site_fract_z
 _atom_site_occupancy
  Li  Li0  1  0.500000  0.000000  0.000000  1
  Li  Li1  1  0.000000  0.500000  0.000000  1
  Li  Li2  1  0.500000  0.500000  0.000000  1
  Ti  Ti3  1  0.000000  0.000000  0.500000  1
  Cr  Cr4  1  0.500000  0.000000  0.500000  1
  Cr  Cr5  1  0.000000  0.500000  0.500000  1
  Cr  Cr6  1  0.500000  0.500000  0.500000  1
  O  O7  1  0.734296  0.265704  0.713643  1
  O  O8  1  0.762145  0.237855  0.274635  1
  O  O9  1  0.256108  0.237758  0.283460  1
  O  O10  1  0.762242  0.743892  0.283460  1
  O  O11  1  0.237758  0.256108  0.716540  1
  O  O12  1  0.743892  0.762242  0.716540  1
  O  O13  1  0.237855  0.762145  0.725365  1
  O  O14  1  0.265704  0.734296  0.286357  1
