# generated using pymatgen
data_CsGaP3HO10
_symmetry_space_group_name_H-M   'P 1'
_cell_length_a   5.03507264
_cell_length_b   11.91602385
_cell_length_c   15.87450342
_cell_angle_alpha   90.00000000
_cell_angle_beta   90.00000000
_cell_angle_gamma   90.00000000
_symmetry_Int_Tables_number   1
_chemical_formula_structural   CsGaP3HO10
_chemical_formula_sum   'Cs4 Ga4 P12 H4 O40'
_cell_volume   952.43918110
_cell_formula_units_Z   4
loop_
 _symmetry_equiv_pos_site_id
 _symmetry_equiv_pos_as_xyz
  1  'x, y, z'
loop_
 _atom_site_type_symbol
 _atom_site_label
 _atom_site_symmetry_multiplicity
 _atom_site_fract_x
 _atom_site_fract_y
 _atom_site_fract_z
 _atom_site_occupancy
  Cs  Cs0  1  0.027585  0.886812  0.999729  1
  Cs  Cs1  1  0.972415  0.113188  0.499729  1
  Cs  Cs2  1  0.027585  0.613188  0.499729  1
  Cs  Cs3  1  0.972415  0.386812  0.999729  1
  Ga  Ga4  1  0.999104  0.318995  0.734228  1
  Ga  Ga5  1  0.000896  0.681005  0.234228  1
  Ga  Ga6  1  0.999104  0.181005  0.234228  1
  Ga  Ga7  1  0.000896  0.818995  0.734228  1
  P  P8  1  0.499159  0.259552  0.347945  1
  P  P9  1  0.500841  0.740448  0.847945  1
  P  P10  1  0.499159  0.240448  0.847945  1
  P  P11  1  0.500841  0.759552  0.347945  1
  P  P12  1  0.241405  0.430669  0.238158  1
  P  P13  1  0.758595  0.569331  0.738158  1
  P  P14  1  0.241405  0.069331  0.738158  1
  P  P15  1  0.758595  0.930669  0.238158  1
  P  P16  1  0.504846  0.596183  0.124309  1
  P  P17  1  0.495154  0.403817  0.624309  1
  P  P18  1  0.504846  0.903817  0.624309  1
  P  P19  1  0.495154  0.096183  0.124309  1
  H  H20  1  0.504679  0.139527  0.986774  1
  H  H21  1  0.495321  0.860473  0.486774  1
  H  H22  1  0.504679  0.360473  0.486774  1
  H  H23  1  0.495321  0.639527  0.986774  1
  O  O24  1  0.683479  0.184500  0.158711  1
  O  O25  1  0.316521  0.815500  0.658711  1
  O  O26  1  0.683479  0.315500  0.658711  1
  O  O27  1  0.316521  0.684500  0.158711  1
  O  O28  1  0.200583  0.120320  0.136040  1
  O  O29  1  0.799417  0.879680  0.636040  1
  O  O30  1  0.200583  0.379680  0.636040  1
  O  O31  1  0.799417  0.620320  0.136040  1
  O  O32  1  0.088670  0.336392  0.196477  1
  O  O33  1  0.911330  0.663608  0.696477  1
  O  O34  1  0.088670  0.163608  0.696477  1
  O  O35  1  0.911330  0.836392  0.196477  1
  O  O36  1  0.449936  0.231417  0.942737  1
  O  O37  1  0.550064  0.768583  0.442737  1
  O  O38  1  0.449936  0.268583  0.442737  1
  O  O39  1  0.550064  0.731417  0.942737  1
  O  O40  1  0.547621  0.067730  0.029731  1
  O  O41  1  0.452379  0.932270  0.529731  1
  O  O42  1  0.547621  0.432270  0.529731  1
  O  O43  1  0.452379  0.567730  0.029731  1
  O  O44  1  0.427524  0.385164  0.311102  1
  O  O45  1  0.572476  0.614836  0.811102  1
  O  O46  1  0.427524  0.114836  0.811102  1
  O  O47  1  0.572476  0.885164  0.311102  1
  O  O48  1  0.083688  0.526472  0.274117  1
  O  O49  1  0.916312  0.473528  0.774117  1
  O  O50  1  0.083688  0.973528  0.774117  1
  O  O51  1  0.916312  0.026472  0.274117  1
  O  O52  1  0.317132  0.173619  0.306688  1
  O  O53  1  0.682868  0.826381  0.806688  1
  O  O54  1  0.317132  0.326381  0.806688  1
  O  O55  1  0.682868  0.673619  0.306688  1
  O  O56  1  0.794603  0.257949  0.830138  1
  O  O57  1  0.205397  0.742051  0.330138  1
  O  O58  1  0.794603  0.242051  0.330138  1
  O  O59  1  0.205397  0.757949  0.830138  1
  O  O60  1  0.553790  0.975063  0.168055  1
  O  O61  1  0.446210  0.024937  0.668055  1
  O  O62  1  0.553790  0.524937  0.668055  1
  O  O63  1  0.446210  0.475063  0.168055  1
