# generated using pymatgen
data_CaTb2O4
_symmetry_space_group_name_H-M   'P 1'
_cell_length_a   6.87604801
_cell_length_b   6.87604801
_cell_length_c   6.87604801
_cell_angle_alpha   60.00000000
_cell_angle_beta   60.00000000
_cell_angle_gamma   60.00000000
_symmetry_Int_Tables_number   1
_chemical_formula_structural   CaTb2O4
_chemical_formula_sum   'Ca2 Tb4 O8'
_cell_volume   229.88027216
_cell_formula_units_Z   2
loop_
 _symmetry_equiv_pos_site_id
 _symmetry_equiv_pos_as_xyz
  1  'x, y, z'
loop_
 _atom_site_type_symbol
 _atom_site_label
 _atom_site_symmetry_multiplicity
 _atom_site_fract_x
 _atom_site_fract_y
 _atom_site_fract_z
 _atom_site_occupancy
  Ca  Ca0  1  0.750000  0.750000  0.750000  1
  Ca  Ca1  1  0.500000  0.500000  0.500000  1
  Tb  Tb2  1  0.125000  0.125000  0.125000  1
  Tb  Tb3  1  0.125000  0.625000  0.125000  1
  Tb  Tb4  1  0.625000  0.125000  0.125000  1
  Tb  Tb5  1  0.125000  0.125000  0.625000  1
  O  O6  1  0.337030  0.887657  0.887657  1
  O  O7  1  0.362343  0.362343  0.912970  1
  O  O8  1  0.887657  0.337030  0.887657  1
  O  O9  1  0.887657  0.887657  0.887657  1
  O  O10  1  0.912970  0.362343  0.362343  1
  O  O11  1  0.887657  0.887657  0.337030  1
  O  O12  1  0.362343  0.912970  0.362343  1
  O  O13  1  0.362343  0.362343  0.362343  1
