# generated using pymatgen
data_BaTl2O4
_symmetry_space_group_name_H-M   'P 1'
_cell_length_a   6.15141598
_cell_length_b   6.15141598
_cell_length_c   22.13781997
_cell_angle_alpha   89.82886097
_cell_angle_beta   90.17113903
_cell_angle_gamma   118.75600259
_symmetry_Int_Tables_number   1
_chemical_formula_structural   BaTl2O4
_chemical_formula_sum   'Ba6 Tl12 O24'
_cell_volume   734.38149394
_cell_formula_units_Z   6
loop_
 _symmetry_equiv_pos_site_id
 _symmetry_equiv_pos_as_xyz
  1  'x, y, z'
loop_
 _atom_site_type_symbol
 _atom_site_label
 _atom_site_symmetry_multiplicity
 _atom_site_fract_x
 _atom_site_fract_y
 _atom_site_fract_z
 _atom_site_occupancy
  Ba  Ba0  1  0.545701  0.215363  0.355971  1
  Ba  Ba1  1  0.784637  0.454299  0.855971  1
  Ba  Ba2  1  0.888343  0.888343  0.250000  1
  Ba  Ba3  1  0.111657  0.111657  0.750000  1
  Ba  Ba4  1  0.454299  0.784637  0.644029  1
  Ba  Ba5  1  0.215363  0.545701  0.144029  1
  Tl  Tl6  1  0.543718  0.210664  0.194630  1
  Tl  Tl7  1  0.789336  0.456282  0.694630  1
  Tl  Tl8  1  0.535213  0.211817  0.053781  1
  Tl  Tl9  1  0.788183  0.464787  0.553781  1
  Tl  Tl10  1  0.871005  0.869649  0.068978  1
  Tl  Tl11  1  0.130351  0.128995  0.568978  1
  Tl  Tl12  1  0.869649  0.871005  0.431022  1
  Tl  Tl13  1  0.128995  0.130351  0.931022  1
  Tl  Tl14  1  0.211817  0.535213  0.446219  1
  Tl  Tl15  1  0.464787  0.788183  0.946219  1
  Tl  Tl16  1  0.210664  0.543718  0.305370  1
  Tl  Tl17  1  0.456282  0.789336  0.805370  1
  O  O18  1  0.800347  0.093157  0.997805  1
  O  O19  1  0.906843  0.199653  0.497805  1
  O  O20  1  0.624446  0.980344  0.124246  1
  O  O21  1  0.019656  0.375554  0.624246  1
  O  O22  1  0.684641  0.108056  0.744277  1
  O  O23  1  0.891944  0.315359  0.244277  1
  O  O24  1  0.779857  0.528088  0.118646  1
  O  O25  1  0.471912  0.220143  0.618646  1
  O  O26  1  0.214709  0.116783  0.127918  1
  O  O27  1  0.883217  0.785291  0.627918  1
  O  O28  1  0.469876  0.469876  0.250000  1
  O  O29  1  0.500000  0.500000  0.500000  1
  O  O30  1  0.500000  0.500000  0.000000  1
  O  O31  1  0.530124  0.530124  0.750000  1
  O  O32  1  0.116783  0.214709  0.372082  1
  O  O33  1  0.785291  0.883217  0.872082  1
  O  O34  1  0.528088  0.779857  0.381354  1
  O  O35  1  0.220143  0.471912  0.881354  1
  O  O36  1  0.315359  0.891944  0.255723  1
  O  O37  1  0.108056  0.684641  0.755723  1
  O  O38  1  0.980344  0.624446  0.375754  1
  O  O39  1  0.375554  0.019656  0.875754  1
  O  O40  1  0.199653  0.906843  0.002195  1
  O  O41  1  0.093157  0.800347  0.502195  1
