# generated using pymatgen
data_K2FeH4(SO5)2
_symmetry_space_group_name_H-M   'P 1'
_cell_length_a   6.57199809
_cell_length_b   7.46552358
_cell_length_c   10.79970560
_cell_angle_alpha   72.90134251
_cell_angle_beta   73.86646751
_cell_angle_gamma   69.75505229
_symmetry_Int_Tables_number   1
_chemical_formula_structural   K2FeH4(SO5)2
_chemical_formula_sum   'K4 Fe2 H8 S4 O20'
_cell_volume   465.90661960
_cell_formula_units_Z   2
loop_
 _symmetry_equiv_pos_site_id
 _symmetry_equiv_pos_as_xyz
  1  'x, y, z'
loop_
 _atom_site_type_symbol
 _atom_site_label
 _atom_site_symmetry_multiplicity
 _atom_site_fract_x
 _atom_site_fract_y
 _atom_site_fract_z
 _atom_site_occupancy
  K  K0  1  0.291923  0.248566  0.899589  1
  K  K1  1  0.239987  0.760983  0.577820  1
  K  K2  1  0.708077  0.751434  0.100411  1
  K  K3  1  0.760013  0.239017  0.422180  1
  Fe  Fe4  1  0.753098  0.521613  0.751156  1
  Fe  Fe5  1  0.246902  0.478387  0.248844  1
  H  H6  1  0.773701  0.152379  0.859328  1
  H  H7  1  0.867234  0.177775  0.703966  1
  H  H8  1  0.863489  0.819488  0.795904  1
  H  H9  1  0.665214  0.915776  0.714089  1
  H  H10  1  0.226299  0.847621  0.140672  1
  H  H11  1  0.132766  0.822225  0.296034  1
  H  H12  1  0.136511  0.180512  0.204096  1
  H  H13  1  0.334786  0.084224  0.285911  1
  S  S14  1  0.249562  0.721427  0.927346  1
  S  S15  1  0.230889  0.269818  0.584154  1
  S  S16  1  0.750438  0.278573  0.072654  1
  S  S17  1  0.769111  0.730182  0.415846  1
  O  O18  1  0.192928  0.569295  0.047407  1
  O  O19  1  0.042850  0.844084  0.878895  1
  O  O20  1  0.356039  0.842254  0.960493  1
  O  O21  1  0.402680  0.617607  0.820847  1
  O  O22  1  0.104644  0.406966  0.676992  1
  O  O23  1  0.082372  0.164661  0.573922  1
  O  O24  1  0.427489  0.131876  0.635694  1
  O  O25  1  0.305766  0.391095  0.452114  1
  O  O26  1  0.737060  0.226415  0.772372  1
  O  O27  1  0.792098  0.801265  0.732283  1
  O  O28  1  0.807072  0.430705  0.952593  1
  O  O29  1  0.957150  0.155916  0.121105  1
  O  O30  1  0.643961  0.157746  0.039507  1
  O  O31  1  0.597320  0.382393  0.179153  1
  O  O32  1  0.895356  0.593034  0.323008  1
  O  O33  1  0.917628  0.835339  0.426078  1
  O  O34  1  0.572511  0.868124  0.364306  1
  O  O35  1  0.694234  0.608905  0.547886  1
  O  O36  1  0.262940  0.773585  0.227628  1
  O  O37  1  0.207902  0.198735  0.267717  1
