# generated using pymatgen
data_Li8TiS6
_symmetry_space_group_name_H-M   'P 1'
_cell_length_a   7.23144335
_cell_length_b   7.23144335
_cell_length_c   7.23144335
_cell_angle_alpha   55.37846059
_cell_angle_beta   55.37846059
_cell_angle_gamma   55.37846059
_symmetry_Int_Tables_number   1
_chemical_formula_structural   Li8TiS6
_chemical_formula_sum   'Li8 Ti1 S6'
_cell_volume   238.69124096
_cell_formula_units_Z   1
loop_
 _symmetry_equiv_pos_site_id
 _symmetry_equiv_pos_as_xyz
  1  'x, y, z'
loop_
 _atom_site_type_symbol
 _atom_site_label
 _atom_site_symmetry_multiplicity
 _atom_site_fract_x
 _atom_site_fract_y
 _atom_site_fract_z
 _atom_site_occupancy
  Li  Li0  1  0.102797  0.483356  0.772472  1
  Li  Li1  1  0.516644  0.227528  0.897203  1
  Li  Li2  1  0.227528  0.897203  0.516644  1
  Li  Li3  1  0.341435  0.341435  0.341435  1
  Li  Li4  1  0.658565  0.658565  0.658565  1
  Li  Li5  1  0.772472  0.102797  0.483356  1
  Li  Li6  1  0.483356  0.772472  0.102797  1
  Li  Li7  1  0.897203  0.516644  0.227528  1
  Ti  Ti8  1  0.000000  0.000000  0.000000  1
  S  S9  1  0.235798  0.621920  0.911613  1
  S  S10  1  0.378080  0.088387  0.764202  1
  S  S11  1  0.088387  0.764202  0.378080  1
  S  S12  1  0.911613  0.235798  0.621920  1
  S  S13  1  0.621920  0.911613  0.235798  1
  S  S14  1  0.764202  0.378080  0.088387  1
