# generated using pymatgen
data_Na2CrO4
_symmetry_space_group_name_H-M   'P 1'
_cell_length_a   9.71780938
_cell_length_b   9.71780938
_cell_length_c   9.71780938
_cell_angle_alpha   107.55988046
_cell_angle_beta   107.55988046
_cell_angle_gamma   107.55988046
_symmetry_Int_Tables_number   1
_chemical_formula_structural   Na2CrO4
_chemical_formula_sum   'Na12 Cr6 O24'
_cell_volume   752.29916396
_cell_formula_units_Z   6
loop_
 _symmetry_equiv_pos_site_id
 _symmetry_equiv_pos_as_xyz
  1  'x, y, z'
loop_
 _atom_site_type_symbol
 _atom_site_label
 _atom_site_symmetry_multiplicity
 _atom_site_fract_x
 _atom_site_fract_y
 _atom_site_fract_z
 _atom_site_occupancy
  Na  Na0  1  0.705769  0.940740  0.112271  1
  Na  Na1  1  0.059260  0.887729  0.294231  1
  Na  Na2  1  0.603966  0.774702  0.377655  1
  Na  Na3  1  0.887729  0.294231  0.059260  1
  Na  Na4  1  0.225298  0.622345  0.396034  1
  Na  Na5  1  0.622345  0.396034  0.225298  1
  Na  Na6  1  0.377655  0.603966  0.774702  1
  Na  Na7  1  0.774702  0.377655  0.603966  1
  Na  Na8  1  0.112271  0.705769  0.940740  1
  Na  Na9  1  0.396035  0.225298  0.622345  1
  Na  Na10  1  0.940740  0.112271  0.705769  1
  Na  Na11  1  0.294231  0.059260  0.887729  1
  Cr  Cr12  1  0.265434  0.447472  0.039897  1
  Cr  Cr13  1  0.552528  0.960103  0.734566  1
  Cr  Cr14  1  0.960103  0.734566  0.552528  1
  Cr  Cr15  1  0.039897  0.265434  0.447472  1
  Cr  Cr16  1  0.447472  0.039897  0.265434  1
  Cr  Cr17  1  0.734566  0.552528  0.960103  1
  O  O18  1  0.256350  0.913736  0.199279  1
  O  O19  1  0.558347  0.938778  0.260725  1
  O  O20  1  0.800721  0.743650  0.086264  1
  O  O21  1  0.739275  0.441653  0.061222  1
  O  O22  1  0.451173  0.515747  0.177562  1
  O  O23  1  0.869054  0.853484  0.536956  1
  O  O24  1  0.146516  0.463044  0.130946  1
  O  O25  1  0.061222  0.739275  0.441653  1
  O  O26  1  0.484253  0.822438  0.548827  1
  O  O27  1  0.822438  0.548827  0.484253  1
  O  O28  1  0.086264  0.800721  0.743650  1
  O  O29  1  0.463044  0.130946  0.146516  1
  O  O30  1  0.536956  0.869054  0.853484  1
  O  O31  1  0.913736  0.199279  0.256350  1
  O  O32  1  0.177562  0.451173  0.515747  1
  O  O33  1  0.515747  0.177562  0.451173  1
  O  O34  1  0.938778  0.260725  0.558347  1
  O  O35  1  0.853484  0.536956  0.869054  1
  O  O36  1  0.130946  0.146516  0.463044  1
  O  O37  1  0.548827  0.484253  0.822438  1
  O  O38  1  0.260725  0.558347  0.938778  1
  O  O39  1  0.199279  0.256350  0.913736  1
  O  O40  1  0.441653  0.061222  0.739275  1
  O  O41  1  0.743650  0.086264  0.800721  1
