# generated using pymatgen
data_Li3Fe4P9O32
_symmetry_space_group_name_H-M   'P 1'
_cell_length_a   13.94536687
_cell_length_b   13.94536687
_cell_length_c   6.36582113
_cell_angle_alpha   90.00000000
_cell_angle_beta   90.00000000
_cell_angle_gamma   90.00000000
_symmetry_Int_Tables_number   1
_chemical_formula_structural   Li3Fe4P9O32
_chemical_formula_sum   'Li6 Fe8 P18 O64'
_cell_volume   1237.98196951
_cell_formula_units_Z   2
loop_
 _symmetry_equiv_pos_site_id
 _symmetry_equiv_pos_as_xyz
  1  'x, y, z'
loop_
 _atom_site_type_symbol
 _atom_site_label
 _atom_site_symmetry_multiplicity
 _atom_site_fract_x
 _atom_site_fract_y
 _atom_site_fract_z
 _atom_site_occupancy
  Li  Li0  1  0.500000  0.000000  0.355697  1
  Li  Li1  1  0.000000  0.500000  0.644303  1
  Li  Li2  1  0.000000  0.500000  0.144303  1
  Li  Li3  1  0.500000  0.500000  0.500000  1
  Li  Li4  1  0.500000  0.000000  0.855697  1
  Li  Li5  1  0.000000  0.000000  0.000000  1
  Fe  Fe6  1  0.802790  0.879495  0.376186  1
  Fe  Fe7  1  0.697210  0.379495  0.123814  1
  Fe  Fe8  1  0.197210  0.120505  0.376186  1
  Fe  Fe9  1  0.120505  0.802790  0.623814  1
  Fe  Fe10  1  0.302790  0.620505  0.123814  1
  Fe  Fe11  1  0.620505  0.697210  0.876186  1
  Fe  Fe12  1  0.379495  0.302790  0.876186  1
  Fe  Fe13  1  0.879495  0.197210  0.623814  1
  P  P14  1  0.745687  0.393415  0.634497  1
  P  P15  1  0.606585  0.745687  0.365503  1
  P  P16  1  0.106585  0.754313  0.134497  1
  P  P17  1  0.940885  0.695892  0.385678  1
  P  P18  1  0.804108  0.559115  0.885678  1
  P  P19  1  0.254313  0.606585  0.634497  1
  P  P20  1  0.304108  0.940885  0.614322  1
  P  P21  1  0.245687  0.106585  0.865503  1
  P  P22  1  0.695892  0.059115  0.614322  1
  P  P23  1  0.000000  0.000000  0.500000  1
  P  P24  1  0.754313  0.893415  0.865503  1
  P  P25  1  0.440885  0.804108  0.114322  1
  P  P26  1  0.559115  0.195892  0.114322  1
  P  P27  1  0.500000  0.500000  0.000000  1
  P  P28  1  0.059115  0.304108  0.385678  1
  P  P29  1  0.195892  0.440885  0.885678  1
  P  P30  1  0.893415  0.245687  0.134497  1
  P  P31  1  0.393415  0.254313  0.365503  1
  O  O32  1  0.687685  0.392749  0.432545  1
  O  O33  1  0.337005  0.160308  0.374875  1
  O  O34  1  0.761353  0.659574  0.859760  1
  O  O35  1  0.990976  0.745507  0.571503  1
  O  O36  1  0.444762  0.912871  0.100065  1
  O  O37  1  0.939362  0.063344  0.650710  1
  O  O38  1  0.340426  0.761353  0.140240  1
  O  O39  1  0.503820  0.224344  0.330281  1
  O  O40  1  0.312315  0.607251  0.432545  1
  O  O41  1  0.587129  0.055238  0.600065  1
  O  O42  1  0.496180  0.775656  0.330281  1
  O  O43  1  0.607251  0.687685  0.567455  1
  O  O44  1  0.560638  0.563344  0.849290  1
  O  O45  1  0.180105  0.135012  0.682323  1
  O  O46  1  0.864988  0.180105  0.317677  1
  O  O47  1  0.738647  0.159574  0.640240  1
  O  O48  1  0.563344  0.439362  0.150710  1
  O  O49  1  0.159574  0.261353  0.359760  1
  O  O50  1  0.812315  0.892749  0.067455  1
  O  O51  1  0.060638  0.936656  0.650710  1
  O  O52  1  0.275656  0.996180  0.830281  1
  O  O53  1  0.840426  0.738647  0.359760  1
  O  O54  1  0.659574  0.238647  0.140240  1
  O  O55  1  0.439362  0.436656  0.849290  1
  O  O56  1  0.107251  0.812315  0.932545  1
  O  O57  1  0.775656  0.503820  0.669719  1
  O  O58  1  0.912871  0.555238  0.899935  1
  O  O59  1  0.055238  0.412871  0.399935  1
  O  O60  1  0.063344  0.060638  0.349290  1
  O  O61  1  0.996180  0.724344  0.169719  1
  O  O62  1  0.555238  0.087129  0.100065  1
  O  O63  1  0.009024  0.254493  0.571503  1
  O  O64  1  0.319895  0.635012  0.817677  1
  O  O65  1  0.509024  0.245507  0.928497  1
  O  O66  1  0.254493  0.990976  0.428497  1
  O  O67  1  0.936656  0.939362  0.349290  1
  O  O68  1  0.660308  0.837005  0.874875  1
  O  O69  1  0.837005  0.339692  0.125125  1
  O  O70  1  0.364988  0.319895  0.182323  1
  O  O71  1  0.412871  0.944762  0.600065  1
  O  O72  1  0.819895  0.864988  0.682323  1
  O  O73  1  0.087129  0.444762  0.899935  1
  O  O74  1  0.745507  0.009024  0.428497  1
  O  O75  1  0.135012  0.819895  0.317677  1
  O  O76  1  0.261353  0.840426  0.640240  1
  O  O77  1  0.003820  0.275656  0.169719  1
  O  O78  1  0.187685  0.107251  0.067455  1
  O  O79  1  0.392749  0.312315  0.567455  1
  O  O80  1  0.339692  0.162995  0.874875  1
  O  O81  1  0.944762  0.587129  0.399935  1
  O  O82  1  0.224344  0.496180  0.669719  1
  O  O83  1  0.754493  0.509024  0.071503  1
  O  O84  1  0.490976  0.754493  0.928497  1
  O  O85  1  0.160308  0.662995  0.625125  1
  O  O86  1  0.892749  0.187685  0.932545  1
  O  O87  1  0.662995  0.839692  0.374875  1
  O  O88  1  0.680105  0.364988  0.817677  1
  O  O89  1  0.238647  0.340426  0.859760  1
  O  O90  1  0.162995  0.660308  0.125125  1
  O  O91  1  0.245507  0.490976  0.071503  1
  O  O92  1  0.436656  0.560638  0.150710  1
  O  O93  1  0.724344  0.003820  0.830281  1
  O  O94  1  0.839692  0.337005  0.625125  1
  O  O95  1  0.635012  0.680105  0.182323  1
