# generated using pymatgen
data_Na2V2O5
_symmetry_space_group_name_H-M   'P 1'
_cell_length_a   8.71149403
_cell_length_b   5.44023023
_cell_length_c   12.44444686
_cell_angle_alpha   90.00000000
_cell_angle_beta   102.41085712
_cell_angle_gamma   90.00000000
_symmetry_Int_Tables_number   1
_chemical_formula_structural   Na2V2O5
_chemical_formula_sum   'Na8 V8 O20'
_cell_volume   575.99177134
_cell_formula_units_Z   4
loop_
 _symmetry_equiv_pos_site_id
 _symmetry_equiv_pos_as_xyz
  1  'x, y, z'
loop_
 _atom_site_type_symbol
 _atom_site_label
 _atom_site_symmetry_multiplicity
 _atom_site_fract_x
 _atom_site_fract_y
 _atom_site_fract_z
 _atom_site_occupancy
  Na  Na0  1  0.147281  0.697254  0.968904  1
  Na  Na1  1  0.384846  0.268034  0.942647  1
  Na  Na2  1  0.615154  0.768034  0.557353  1
  Na  Na3  1  0.147281  0.802746  0.468904  1
  Na  Na4  1  0.852719  0.197254  0.531096  1
  Na  Na5  1  0.384846  0.231966  0.442647  1
  Na  Na6  1  0.615154  0.731966  0.057353  1
  Na  Na7  1  0.852719  0.302746  0.031096  1
  V  V8  1  0.397642  0.801002  0.773852  1
  V  V9  1  0.022202  0.666592  0.673611  1
  V  V10  1  0.977798  0.166592  0.826389  1
  V  V11  1  0.602358  0.301002  0.726148  1
  V  V12  1  0.397642  0.698998  0.273852  1
  V  V13  1  0.022202  0.833408  0.173611  1
  V  V14  1  0.977798  0.333408  0.326389  1
  V  V15  1  0.602358  0.198998  0.226148  1
  O  O16  1  0.113383  0.267959  0.939351  1
  O  O17  1  0.396216  0.712199  0.908624  1
  O  O18  1  0.004256  0.340825  0.702035  1
  O  O19  1  0.440796  0.133242  0.773619  1
  O  O20  1  0.773919  0.242491  0.839241  1
  O  O21  1  0.226081  0.742491  0.660759  1
  O  O22  1  0.559204  0.633242  0.726381  1
  O  O23  1  0.995744  0.840825  0.797965  1
  O  O24  1  0.603784  0.212199  0.591376  1
  O  O25  1  0.113383  0.232041  0.439351  1
  O  O26  1  0.886617  0.767959  0.560649  1
  O  O27  1  0.396216  0.787801  0.408624  1
  O  O28  1  0.004256  0.159175  0.202035  1
  O  O29  1  0.440796  0.366758  0.273619  1
  O  O30  1  0.773919  0.257509  0.339241  1
  O  O31  1  0.226081  0.757509  0.160759  1
  O  O32  1  0.559204  0.866758  0.226381  1
  O  O33  1  0.995744  0.659175  0.297965  1
  O  O34  1  0.603784  0.287801  0.091376  1
  O  O35  1  0.886617  0.732041  0.060649  1
