# generated using pymatgen
data_FePO4
_symmetry_space_group_name_H-M   'P 1'
_cell_length_a   5.36044903
_cell_length_b   8.65674825
_cell_length_c   7.97156904
_cell_angle_alpha   90.00000000
_cell_angle_beta   114.94992147
_cell_angle_gamma   90.00000000
_symmetry_Int_Tables_number   1
_chemical_formula_structural   FePO4
_chemical_formula_sum   'Fe4 P4 O16'
_cell_volume   335.39168030
_cell_formula_units_Z   4
loop_
 _symmetry_equiv_pos_site_id
 _symmetry_equiv_pos_as_xyz
  1  'x, y, z'
loop_
 _atom_site_type_symbol
 _atom_site_label
 _atom_site_symmetry_multiplicity
 _atom_site_fract_x
 _atom_site_fract_y
 _atom_site_fract_z
 _atom_site_occupancy
  Fe  Fe0  1  0.751361  0.468778  0.210426  1
  Fe  Fe1  1  0.248639  0.968778  0.289574  1
  Fe  Fe2  1  0.751361  0.031222  0.710426  1
  Fe  Fe3  1  0.248639  0.531222  0.789574  1
  P  P4  1  0.303736  0.311748  0.185177  1
  P  P5  1  0.696264  0.811748  0.314823  1
  P  P6  1  0.303736  0.188252  0.685177  1
  P  P7  1  0.696264  0.688252  0.814823  1
  O  O8  1  0.342143  0.402693  0.025178  1
  O  O9  1  0.396236  0.822021  0.162942  1
  O  O10  1  0.211862  0.143578  0.132198  1
  O  O11  1  0.903647  0.897398  0.262851  1
  O  O12  1  0.603764  0.322021  0.337058  1
  O  O13  1  0.096353  0.397398  0.237149  1
  O  O14  1  0.788138  0.643578  0.367802  1
  O  O15  1  0.657857  0.902693  0.474822  1
  O  O16  1  0.342143  0.097307  0.525178  1
  O  O17  1  0.211862  0.356422  0.632198  1
  O  O18  1  0.903647  0.602602  0.762851  1
  O  O19  1  0.396236  0.677979  0.662942  1
  O  O20  1  0.096353  0.102602  0.737149  1
  O  O21  1  0.788138  0.856422  0.867802  1
  O  O22  1  0.603764  0.177979  0.837058  1
  O  O23  1  0.657857  0.597307  0.974822  1
