# generated using pymatgen
data_Li4Cr3Sn3(TeO8)2
_symmetry_space_group_name_H-M   'P 1'
_cell_length_a   6.27617366
_cell_length_b   6.27617366
_cell_length_c   10.14648055
_cell_angle_alpha   88.60007272
_cell_angle_beta   91.39992728
_cell_angle_gamma   120.28040245
_symmetry_Int_Tables_number   1
_chemical_formula_structural   Li4Cr3Sn3(TeO8)2
_chemical_formula_sum   'Li4 Cr3 Sn3 Te2 O16'
_cell_volume   345.00827566
_cell_formula_units_Z   1
loop_
 _symmetry_equiv_pos_site_id
 _symmetry_equiv_pos_as_xyz
  1  'x, y, z'
loop_
 _atom_site_type_symbol
 _atom_site_label
 _atom_site_symmetry_multiplicity
 _atom_site_fract_x
 _atom_site_fract_y
 _atom_site_fract_z
 _atom_site_occupancy
  Li  Li0  1  0.672924  0.327076  0.895505  1
  Li  Li1  1  0.995291  0.004709  0.989140  1
  Li  Li2  1  0.993731  0.006269  0.496341  1
  Li  Li3  1  0.333627  0.666373  0.408673  1
  Cr  Cr4  1  0.832502  0.167498  0.209349  1
  Cr  Cr5  1  0.166638  0.335699  0.713271  1
  Cr  Cr6  1  0.664301  0.833362  0.713271  1
  Sn  Sn7  1  0.335918  0.167041  0.215346  1
  Sn  Sn8  1  0.832959  0.664082  0.215346  1
  Sn  Sn9  1  0.166615  0.833385  0.712765  1
  Te  Te10  1  0.675508  0.324492  0.491979  1
  Te  Te11  1  0.348211  0.651789  0.980265  1
  O  O12  1  0.302869  0.162231  0.604329  1
  O  O13  1  0.511931  0.488069  0.331490  1
  O  O14  1  0.665705  0.334295  0.107922  1
  O  O15  1  0.997011  0.002989  0.312712  1
  O  O16  1  0.996334  0.003666  0.808815  1
  O  O17  1  0.837769  0.697131  0.604329  1
  O  O18  1  0.510520  0.039813  0.352215  1
  O  O19  1  0.960187  0.489480  0.352215  1
  O  O20  1  0.152060  0.847940  0.107307  1
  O  O21  1  0.844080  0.155920  0.598844  1
  O  O22  1  0.035301  0.506451  0.830671  1
  O  O23  1  0.493549  0.964699  0.830671  1
  O  O24  1  0.334977  0.665023  0.611944  1
  O  O25  1  0.175870  0.315979  0.087123  1
  O  O26  1  0.479894  0.520106  0.838906  1
  O  O27  1  0.684021  0.824130  0.087123  1
