# generated using pymatgen
data_Li2Ti3O7
_symmetry_space_group_name_H-M   'P 1'
_cell_length_a   7.84633241
_cell_length_b   3.79495763
_cell_length_c   9.33044307
_cell_angle_alpha   90.00000000
_cell_angle_beta   99.25777036
_cell_angle_gamma   90.00000000
_symmetry_Int_Tables_number   1
_chemical_formula_structural   Li2Ti3O7
_chemical_formula_sum   'Li4 Ti6 O14'
_cell_volume   274.20909746
_cell_formula_units_Z   2
loop_
 _symmetry_equiv_pos_site_id
 _symmetry_equiv_pos_as_xyz
  1  'x, y, z'
loop_
 _atom_site_type_symbol
 _atom_site_label
 _atom_site_symmetry_multiplicity
 _atom_site_fract_x
 _atom_site_fract_y
 _atom_site_fract_z
 _atom_site_occupancy
  Li  Li0  1  0.301787  0.250000  0.414845  1
  Li  Li1  1  0.509314  0.250000  0.856662  1
  Li  Li2  1  0.490686  0.750000  0.143338  1
  Li  Li3  1  0.698213  0.750000  0.585155  1
  Ti  Ti4  1  0.157375  0.750000  0.975785  1
  Ti  Ti5  1  0.043695  0.750000  0.278083  1
  Ti  Ti6  1  0.274679  0.750000  0.668962  1
  Ti  Ti7  1  0.725321  0.250000  0.331038  1
  Ti  Ti8  1  0.956305  0.250000  0.721917  1
  Ti  Ti9  1  0.842625  0.250000  0.024215  1
  O  O10  1  0.090548  0.250000  0.948214  1
  O  O11  1  0.992373  0.250000  0.249806  1
  O  O12  1  0.180963  0.750000  0.452406  1
  O  O13  1  0.208434  0.250000  0.674024  1
  O  O14  1  0.356403  0.750000  0.899103  1
  O  O15  1  0.239820  0.750000  0.170569  1
  O  O16  1  0.489026  0.750000  0.652761  1
  O  O17  1  0.510974  0.250000  0.347239  1
  O  O18  1  0.760180  0.250000  0.829431  1
  O  O19  1  0.643597  0.250000  0.100897  1
  O  O20  1  0.791566  0.750000  0.325976  1
  O  O21  1  0.819037  0.250000  0.547594  1
  O  O22  1  0.007627  0.750000  0.750194  1
  O  O23  1  0.909452  0.750000  0.051786  1
