# generated using pymatgen
data_Li3Fe(BO2)5
_symmetry_space_group_name_H-M   'P 1'
_cell_length_a   6.97547431
_cell_length_b   7.12291431
_cell_length_c   9.42600195
_cell_angle_alpha   80.67781783
_cell_angle_beta   111.07525511
_cell_angle_gamma   118.02909808
_symmetry_Int_Tables_number   1
_chemical_formula_structural   Li3Fe(BO2)5
_chemical_formula_sum   'Li6 Fe2 B10 O20'
_cell_volume   385.73873625
_cell_formula_units_Z   2
loop_
 _symmetry_equiv_pos_site_id
 _symmetry_equiv_pos_as_xyz
  1  'x, y, z'
loop_
 _atom_site_type_symbol
 _atom_site_label
 _atom_site_symmetry_multiplicity
 _atom_site_fract_x
 _atom_site_fract_y
 _atom_site_fract_z
 _atom_site_occupancy
  Li  Li0  1  0.238337  0.503471  0.750464  1
  Li  Li1  1  0.803081  0.993045  0.834061  1
  Li  Li2  1  0.025617  0.814766  0.536250  1
  Li  Li3  1  0.974383  0.185234  0.463750  1
  Li  Li4  1  0.196919  0.006955  0.165939  1
  Li  Li5  1  0.761663  0.496529  0.249536  1
  Fe  Fe6  1  0.214859  0.475459  0.117990  1
  Fe  Fe7  1  0.785141  0.524541  0.882010  1
  B  B8  1  0.307086  0.191453  0.927398  1
  B  B9  1  0.410425  0.140947  0.709049  1
  B  B10  1  0.361315  0.244714  0.432164  1
  B  B11  1  0.218315  0.831152  0.864298  1
  B  B12  1  0.742952  0.281957  0.602796  1
  B  B13  1  0.257048  0.718043  0.397204  1
  B  B14  1  0.781685  0.168848  0.135702  1
  B  B15  1  0.638685  0.755286  0.567836  1
  B  B16  1  0.589575  0.859053  0.290951  1
  B  B17  1  0.692914  0.808547  0.072602  1
  O  O18  1  0.278968  0.302022  0.011466  1
  O  O19  1  0.271852  0.158055  0.551912  1
  O  O20  1  0.407737  0.277095  0.813244  1
  O  O21  1  0.216846  0.247046  0.293631  1
  O  O22  1  0.132245  0.619880  0.893659  1
  O  O23  1  0.655511  0.216970  0.726488  1
  O  O24  1  0.050882  0.697722  0.379044  1
  O  O25  1  0.693156  0.087252  0.253570  1
  O  O26  1  0.597689  0.316343  0.461724  1
  O  O27  1  0.775226  0.028944  0.043225  1
  O  O28  1  0.224774  0.971056  0.956775  1
  O  O29  1  0.402311  0.683657  0.538276  1
  O  O30  1  0.306844  0.912748  0.746430  1
  O  O31  1  0.949118  0.302278  0.620956  1
  O  O32  1  0.344489  0.783030  0.273512  1
  O  O33  1  0.867755  0.380120  0.106341  1
  O  O34  1  0.783154  0.752954  0.706369  1
  O  O35  1  0.592263  0.722905  0.186756  1
  O  O36  1  0.728148  0.841945  0.448088  1
  O  O37  1  0.721032  0.697978  0.988534  1
