# generated using pymatgen
data_Li4ZrNb(TeO6)2
_symmetry_space_group_name_H-M   'P 1'
_cell_length_a   5.26262117
_cell_length_b   5.57322981
_cell_length_c   7.65502641
_cell_angle_alpha   94.59336166
_cell_angle_beta   89.99990952
_cell_angle_gamma   90.01383052
_symmetry_Int_Tables_number   1
_chemical_formula_structural   Li4ZrNb(TeO6)2
_chemical_formula_sum   'Li4 Zr1 Nb1 Te2 O12'
_cell_volume   223.79924282
_cell_formula_units_Z   1
loop_
 _symmetry_equiv_pos_site_id
 _symmetry_equiv_pos_as_xyz
  1  'x, y, z'
loop_
 _atom_site_type_symbol
 _atom_site_label
 _atom_site_symmetry_multiplicity
 _atom_site_fract_x
 _atom_site_fract_y
 _atom_site_fract_z
 _atom_site_occupancy
  Li  Li0  1  0.497187  0.941120  0.780120  1
  Li  Li1  1  0.504727  0.946548  0.277097  1
  Li  Li2  1  0.001340  0.436651  0.279178  1
  Li  Li3  1  0.997332  0.441674  0.778705  1
  Zr  Zr4  1  0.000722  0.993082  0.002758  1
  Nb  Nb5  1  0.499480  0.494435  0.502909  1
  Te  Te6  1  0.500538  0.497269  0.001656  1
  Te  Te7  1  0.999030  0.993211  0.501915  1
  O  O8  1  0.816569  0.329986  0.558199  1
  O  O9  1  0.629854  0.511498  0.242814  1
  O  O10  1  0.673614  0.822664  0.556851  1
  O  O11  1  0.869385  0.020404  0.256385  1
  O  O12  1  0.793175  0.680658  0.925874  1
  O  O13  1  0.335311  0.807512  0.057892  1
  O  O14  1  0.680863  0.204261  0.928218  1
  O  O15  1  0.131070  0.012733  0.745637  1
  O  O16  1  0.195424  0.330803  0.059771  1
  O  O17  1  0.370997  0.511131  0.754473  1
  O  O18  1  0.314627  0.194567  0.430021  1
  O  O19  1  0.188751  0.687392  0.430728  1
