# generated using pymatgen
data_V2OF5
_symmetry_space_group_name_H-M   'P 1'
_cell_length_a   4.85702015
_cell_length_b   4.87780708
_cell_length_c   10.01470998
_cell_angle_alpha   90.00000000
_cell_angle_beta   118.55029083
_cell_angle_gamma   90.00000000
_symmetry_Int_Tables_number   1
_chemical_formula_structural   V2OF5
_chemical_formula_sum   'V4 O2 F10'
_cell_volume   208.41271756
_cell_formula_units_Z   2
loop_
 _symmetry_equiv_pos_site_id
 _symmetry_equiv_pos_as_xyz
  1  'x, y, z'
loop_
 _atom_site_type_symbol
 _atom_site_label
 _atom_site_symmetry_multiplicity
 _atom_site_fract_x
 _atom_site_fract_y
 _atom_site_fract_z
 _atom_site_occupancy
  V  V0  1  0.335998  0.763544  0.826810  1
  V  V1  1  0.676551  0.239535  0.686987  1
  V  V2  1  0.335998  0.236456  0.326810  1
  V  V3  1  0.676551  0.760465  0.186987  1
  O  O4  1  0.599540  0.044501  0.807482  1
  O  O5  1  0.599540  0.955499  0.307482  1
  F  F6  1  0.036309  0.468746  0.817005  1
  F  F7  1  0.391640  0.539064  0.676459  1
  F  F8  1  0.958469  0.968508  0.673300  1
  F  F9  1  0.683983  0.419124  0.509458  1
  F  F10  1  0.318251  0.068229  0.500552  1
  F  F11  1  0.036309  0.531254  0.317005  1
  F  F12  1  0.958469  0.031492  0.173300  1
  F  F13  1  0.391640  0.460936  0.176459  1
  F  F14  1  0.683983  0.580876  0.009458  1
  F  F15  1  0.318251  0.931771  0.000552  1
