# generated using pymatgen
data_LiMn3(BO3)3
_symmetry_space_group_name_H-M   'P 1'
_cell_length_a   5.78419220
_cell_length_b   8.11875973
_cell_length_c   9.17200633
_cell_angle_alpha   110.57430351
_cell_angle_beta   105.00978133
_cell_angle_gamma   100.77927295
_symmetry_Int_Tables_number   1
_chemical_formula_structural   LiMn3(BO3)3
_chemical_formula_sum   'Li2 Mn6 B6 O18'
_cell_volume   370.62291636
_cell_formula_units_Z   2
loop_
 _symmetry_equiv_pos_site_id
 _symmetry_equiv_pos_as_xyz
  1  'x, y, z'
loop_
 _atom_site_type_symbol
 _atom_site_label
 _atom_site_symmetry_multiplicity
 _atom_site_fract_x
 _atom_site_fract_y
 _atom_site_fract_z
 _atom_site_occupancy
  Li  Li0  1  0.485156  0.172733  0.896050  1
  Li  Li1  1  0.514844  0.827267  0.103950  1
  Mn  Mn2  1  0.568942  0.823469  0.770331  1
  Mn  Mn3  1  0.785498  0.526261  0.864707  1
  Mn  Mn4  1  0.077228  0.829602  0.513105  1
  Mn  Mn5  1  0.922772  0.170398  0.486895  1
  Mn  Mn6  1  0.214502  0.473739  0.135293  1
  Mn  Mn7  1  0.431058  0.176531  0.229669  1
  B  B8  1  0.458856  0.192337  0.574924  1
  B  B9  1  0.881276  0.141564  0.128139  1
  B  B10  1  0.753291  0.506430  0.206855  1
  B  B11  1  0.246709  0.493570  0.793145  1
  B  B12  1  0.118724  0.858436  0.871861  1
  B  B13  1  0.541144  0.807663  0.425076  1
  O  O14  1  0.759101  0.076946  0.962733  1
  O  O15  1  0.401351  0.781866  0.522372  1
  O  O16  1  0.117474  0.277532  0.205735  1
  O  O17  1  0.554021  0.269351  0.743517  1
  O  O18  1  0.209921  0.072909  0.487553  1
  O  O19  1  0.894741  0.531469  0.110316  1
  O  O20  1  0.227072  0.912810  0.770053  1
  O  O21  1  0.492476  0.620678  0.879449  1
  O  O22  1  0.845245  0.586822  0.374891  1
  O  O23  1  0.154755  0.413178  0.625109  1
  O  O24  1  0.507524  0.379322  0.120551  1
  O  O25  1  0.772928  0.087190  0.229947  1
  O  O26  1  0.105259  0.468531  0.889684  1
  O  O27  1  0.790079  0.927091  0.512447  1
  O  O28  1  0.445979  0.730649  0.256483  1
  O  O29  1  0.882526  0.722468  0.794265  1
  O  O30  1  0.598649  0.218134  0.477628  1
  O  O31  1  0.240899  0.923054  0.037267  1
