# generated using pymatgen
data_Sm3Bi5O12
_symmetry_space_group_name_H-M   'P 1'
_cell_length_a   9.62744769
_cell_length_b   9.63233979
_cell_length_c   9.64375387
_cell_angle_alpha   109.48016955
_cell_angle_beta   109.41592933
_cell_angle_gamma   109.40316895
_symmetry_Int_Tables_number   1
_chemical_formula_structural   Sm3Bi5O12
_chemical_formula_sum   'Sm6 Bi10 O24'
_cell_volume   689.41167679
_cell_formula_units_Z   2
loop_
 _symmetry_equiv_pos_site_id
 _symmetry_equiv_pos_as_xyz
  1  'x, y, z'
loop_
 _atom_site_type_symbol
 _atom_site_label
 _atom_site_symmetry_multiplicity
 _atom_site_fract_x
 _atom_site_fract_y
 _atom_site_fract_z
 _atom_site_occupancy
  Sm  Sm0  1  0.033653  0.783900  0.750757  1
  Sm  Sm1  1  0.998550  0.000783  0.499846  1
  Sm  Sm2  1  0.218905  0.249680  0.968517  1
  Sm  Sm3  1  0.499147  0.997708  0.999619  1
  Sm  Sm4  1  0.501941  0.501072  0.500613  1
  Sm  Sm5  1  0.999234  0.500823  0.999133  1
  Bi  Bi6  1  0.278246  0.750574  0.529273  1
  Bi  Bi7  1  0.248343  0.969365  0.217146  1
  Bi  Bi8  1  0.249760  0.470416  0.720319  1
  Bi  Bi9  1  0.527561  0.278381  0.749947  1
  Bi  Bi10  1  0.469615  0.718408  0.249774  1
  Bi  Bi11  1  0.748514  0.528051  0.282180  1
  Bi  Bi12  1  0.751740  0.029952  0.780694  1
  Bi  Bi13  1  0.780867  0.748235  0.030305  1
  Bi  Bi14  1  0.718662  0.250408  0.470632  1
  Bi  Bi15  1  0.971097  0.221189  0.249236  1
  O  O16  1  0.988018  0.723889  0.951675  1
  O  O17  1  0.235131  0.506967  0.964509  1
  O  O18  1  0.258799  0.730313  0.775000  1
  O  O19  1  0.018289  0.277711  0.045572  1
  O  O20  1  0.485235  0.032148  0.763267  1
  O  O21  1  0.230700  0.467970  0.451636  1
  O  O22  1  0.267517  0.223627  0.739774  1
  O  O23  1  0.549825  0.771882  0.533551  1
  O  O24  1  0.534668  0.549046  0.771626  1
  O  O25  1  0.219735  0.738725  0.268964  1
  O  O26  1  0.272707  0.041271  0.003555  1
  O  O27  1  0.763865  0.484562  0.032649  1
  O  O28  1  0.513594  0.964763  0.235917  1
  O  O29  1  0.771538  0.535523  0.547403  1
  O  O30  1  0.728655  0.778541  0.265006  1
  O  O31  1  0.451552  0.230746  0.468156  1
  O  O32  1  0.033941  0.766394  0.493435  1
  O  O33  1  0.465489  0.449480  0.229421  1
  O  O34  1  0.724011  0.952290  0.986498  1
  O  O35  1  0.777996  0.263015  0.728955  1
  O  O36  1  0.962476  0.991254  0.731278  1
  O  O37  1  0.966036  0.237261  0.513838  1
  O  O38  1  0.735610  0.268874  0.219641  1
  O  O39  1  0.048778  0.014808  0.280687  1
