# generated using pymatgen
data_Li4Nb2V3Cu3O16
_symmetry_space_group_name_H-M   'P 1'
_cell_length_a   6.06477501
_cell_length_b   6.06477501
_cell_length_c   9.84113647
_cell_angle_alpha   88.54484810
_cell_angle_beta   91.45515190
_cell_angle_gamma   122.02233376
_symmetry_Int_Tables_number   1
_chemical_formula_structural   Li4Nb2V3Cu3O16
_chemical_formula_sum   'Li4 Nb2 V3 Cu3 O16'
_cell_volume   306.76527701
_cell_formula_units_Z   1
loop_
 _symmetry_equiv_pos_site_id
 _symmetry_equiv_pos_as_xyz
  1  'x, y, z'
loop_
 _atom_site_type_symbol
 _atom_site_label
 _atom_site_symmetry_multiplicity
 _atom_site_fract_x
 _atom_site_fract_y
 _atom_site_fract_z
 _atom_site_occupancy
  Li  Li0  1  0.665287  0.334713  0.092376  1
  Li  Li1  1  0.991069  0.008931  0.004274  1
  Li  Li2  1  0.002346  0.997654  0.516988  1
  Li  Li3  1  0.355032  0.644968  0.596602  1
  Nb  Nb4  1  0.657953  0.342047  0.500008  1
  Nb  Nb5  1  0.325957  0.674043  0.001828  1
  V  V6  1  0.823560  0.176440  0.761416  1
  V  V7  1  0.649071  0.841254  0.281362  1
  V  V8  1  0.158746  0.350929  0.281362  1
  Cu  Cu9  1  0.825749  0.659341  0.795790  1
  Cu  Cu10  1  0.340659  0.174251  0.795790  1
  Cu  Cu11  1  0.163528  0.836472  0.277401  1
  O  O12  1  0.834002  0.669237  0.407478  1
  O  O13  1  0.538496  0.461504  0.649935  1
  O  O14  1  0.683942  0.316058  0.880767  1
  O  O15  1  0.992644  0.007356  0.712181  1
  O  O16  1  0.981981  0.018019  0.193536  1
  O  O17  1  0.330763  0.165998  0.407478  1
  O  O18  1  0.986919  0.447511  0.648040  1
  O  O19  1  0.552489  0.013081  0.648040  1
  O  O20  1  0.158039  0.841961  0.924266  1
  O  O21  1  0.835265  0.164735  0.402426  1
  O  O22  1  0.495330  0.969687  0.164634  1
  O  O23  1  0.030313  0.504670  0.164634  1
  O  O24  1  0.362572  0.637428  0.398895  1
  O  O25  1  0.649493  0.856644  0.910863  1
  O  O26  1  0.475460  0.524540  0.162761  1
  O  O27  1  0.143356  0.350507  0.910863  1
