# generated using pymatgen
data_MnVHPbO5
_symmetry_space_group_name_H-M   'P 1'
_cell_length_a   6.32976225
_cell_length_b   7.76839531
_cell_length_c   9.59842489
_cell_angle_alpha   90.00000000
_cell_angle_beta   90.00000000
_cell_angle_gamma   90.00000000
_symmetry_Int_Tables_number   1
_chemical_formula_structural   MnVHPbO5
_chemical_formula_sum   'Mn4 V4 H4 Pb4 O20'
_cell_volume   471.97466416
_cell_formula_units_Z   4
loop_
 _symmetry_equiv_pos_site_id
 _symmetry_equiv_pos_as_xyz
  1  'x, y, z'
loop_
 _atom_site_type_symbol
 _atom_site_label
 _atom_site_symmetry_multiplicity
 _atom_site_fract_x
 _atom_site_fract_y
 _atom_site_fract_z
 _atom_site_occupancy
  Mn  Mn0  1  0.500000  0.000000  0.500000  1
  Mn  Mn1  1  0.000000  0.000000  0.500000  1
  Mn  Mn2  1  0.500000  0.500000  0.000000  1
  Mn  Mn3  1  0.000000  0.500000  0.000000  1
  V  V4  1  0.250000  0.872546  0.818571  1
  V  V5  1  0.750000  0.627454  0.318571  1
  V  V6  1  0.250000  0.372546  0.681429  1
  V  V7  1  0.750000  0.127454  0.181429  1
  H  H8  1  0.250000  0.729516  0.480641  1
  H  H9  1  0.750000  0.770484  0.980641  1
  H  H10  1  0.250000  0.229516  0.019359  1
  H  H11  1  0.750000  0.270484  0.519359  1
  Pb  Pb12  1  0.250000  0.861915  0.182878  1
  Pb  Pb13  1  0.750000  0.638085  0.682878  1
  Pb  Pb14  1  0.250000  0.361915  0.317122  1
  Pb  Pb15  1  0.750000  0.138085  0.817122  1
  O  O16  1  0.750000  0.957103  0.070473  1
  O  O17  1  0.484664  0.884074  0.715568  1
  O  O18  1  0.015336  0.884074  0.715568  1
  O  O19  1  0.250000  0.843717  0.431884  1
  O  O20  1  0.750000  0.811076  0.429106  1
  O  O21  1  0.250000  0.688924  0.929106  1
  O  O22  1  0.750000  0.656283  0.931884  1
  O  O23  1  0.984664  0.615926  0.215568  1
  O  O24  1  0.515336  0.615926  0.215568  1
  O  O25  1  0.250000  0.542897  0.570473  1
  O  O26  1  0.750000  0.457103  0.429527  1
  O  O27  1  0.484664  0.384074  0.784432  1
  O  O28  1  0.015336  0.384074  0.784432  1
  O  O29  1  0.250000  0.343717  0.068116  1
  O  O30  1  0.750000  0.311076  0.070894  1
  O  O31  1  0.250000  0.188924  0.570894  1
  O  O32  1  0.750000  0.156283  0.568116  1
  O  O33  1  0.984664  0.115926  0.284432  1
  O  O34  1  0.515336  0.115926  0.284432  1
  O  O35  1  0.250000  0.042897  0.929527  1
