# generated using pymatgen
data_NaMnO4
_symmetry_space_group_name_H-M   'P 1'
_cell_length_a   5.40504437
_cell_length_b   5.40504437
_cell_length_c   7.04613122
_cell_angle_alpha   90.00000000
_cell_angle_beta   90.00000000
_cell_angle_gamma   114.01403694
_symmetry_Int_Tables_number   1
_chemical_formula_structural   NaMnO4
_chemical_formula_sum   'Na2 Mn2 O8'
_cell_volume   188.03211417
_cell_formula_units_Z   2
loop_
 _symmetry_equiv_pos_site_id
 _symmetry_equiv_pos_as_xyz
  1  'x, y, z'
loop_
 _atom_site_type_symbol
 _atom_site_label
 _atom_site_symmetry_multiplicity
 _atom_site_fract_x
 _atom_site_fract_y
 _atom_site_fract_z
 _atom_site_occupancy
  Na  Na0  1  0.000000  0.000000  0.000000  1
  Na  Na1  1  0.000000  0.000000  0.500000  1
  Mn  Mn2  1  0.361125  0.638875  0.750000  1
  Mn  Mn3  1  0.638875  0.361125  0.250000  1
  O  O4  1  0.309444  0.238810  0.250000  1
  O  O5  1  0.238810  0.309444  0.750000  1
  O  O6  1  0.259780  0.740220  0.562953  1
  O  O7  1  0.740220  0.259780  0.062953  1
  O  O8  1  0.740220  0.259780  0.437047  1
  O  O9  1  0.259780  0.740220  0.937047  1
  O  O10  1  0.761190  0.690556  0.250000  1
  O  O11  1  0.690556  0.761190  0.750000  1
