# generated using pymatgen
data_Li3Fe5OF11
_symmetry_space_group_name_H-M   'P 1'
_cell_length_a   5.30406664
_cell_length_b   5.67615009
_cell_length_c   9.22458788
_cell_angle_alpha   105.66523526
_cell_angle_beta   89.82003506
_cell_angle_gamma   117.19135743
_symmetry_Int_Tables_number   1
_chemical_formula_structural   Li3Fe5OF11
_chemical_formula_sum   'Li3 Fe5 O1 F11'
_cell_volume   235.49761678
_cell_formula_units_Z   1
loop_
 _symmetry_equiv_pos_site_id
 _symmetry_equiv_pos_as_xyz
  1  'x, y, z'
loop_
 _atom_site_type_symbol
 _atom_site_label
 _atom_site_symmetry_multiplicity
 _atom_site_fract_x
 _atom_site_fract_y
 _atom_site_fract_z
 _atom_site_occupancy
  Li  Li0  1  0.792168  0.625466  0.942787  1
  Li  Li1  1  0.271524  0.127543  0.422090  1
  Li  Li2  1  0.225205  0.353477  0.073651  1
  Fe  Fe3  1  0.479788  0.125809  0.829679  1
  Fe  Fe4  1  0.967272  0.636808  0.331784  1
  Fe  Fe5  1  0.016727  0.395680  0.669944  1
  Fe  Fe6  1  0.742240  0.861399  0.572248  1
  Fe  Fe7  1  0.521145  0.866511  0.170774  1
  O  O8  1  0.976018  0.722455  0.522404  1
  F  F9  1  0.511097  0.463078  0.271230  1
  F  F10  1  0.022653  0.979874  0.783481  1
  F  F11  1  0.574825  0.102342  0.630308  1
  F  F12  1  0.929708  0.378322  0.878904  1
  F  F13  1  0.475694  0.226260  0.028479  1
  F  F14  1  0.525658  0.779766  0.965133  1
  F  F15  1  0.031878  0.276327  0.470947  1
  F  F16  1  0.074469  0.645586  0.132954  1
  F  F17  1  0.437041  0.884636  0.371755  1
  F  F18  1  0.470187  0.512152  0.725205  1
  F  F19  1  0.954704  0.036509  0.206243  1
