# generated using pymatgen
data_Ti3MnV2(PO4)6
_symmetry_space_group_name_H-M   'P 1'
_cell_length_a   8.59099467
_cell_length_b   8.59099467
_cell_length_c   8.59099467
_cell_angle_alpha   60.88869136
_cell_angle_beta   60.88869136
_cell_angle_gamma   60.88869136
_symmetry_Int_Tables_number   1
_chemical_formula_structural   Ti3MnV2(PO4)6
_chemical_formula_sum   'Ti3 Mn1 V2 P6 O24'
_cell_volume   457.32973593
_cell_formula_units_Z   1
loop_
 _symmetry_equiv_pos_site_id
 _symmetry_equiv_pos_as_xyz
  1  'x, y, z'
loop_
 _atom_site_type_symbol
 _atom_site_label
 _atom_site_symmetry_multiplicity
 _atom_site_fract_x
 _atom_site_fract_y
 _atom_site_fract_z
 _atom_site_occupancy
  Ti  Ti0  1  0.645846  0.645846  0.645846  1
  Ti  Ti1  1  0.856704  0.856704  0.856704  1
  Ti  Ti2  1  0.354133  0.354133  0.354133  1
  Mn  Mn3  1  0.144747  0.144747  0.144747  1
  V  V4  1  0.000794  0.000794  0.000794  1
  V  V5  1  0.501572  0.501572  0.501572  1
  P  P6  1  0.952114  0.248556  0.547113  1
  P  P7  1  0.547113  0.952114  0.248556  1
  P  P8  1  0.248556  0.547113  0.952114  1
  P  P9  1  0.746243  0.458152  0.044622  1
  P  P10  1  0.458152  0.044622  0.746243  1
  P  P11  1  0.044622  0.746243  0.458152  1
  O  O12  1  0.496878  0.119790  0.310885  1
  O  O13  1  0.310885  0.496878  0.119790  1
  O  O14  1  0.119790  0.310885  0.496878  1
  O  O15  1  0.940416  0.090163  0.744618  1
  O  O16  1  0.978279  0.184966  0.400258  1
  O  O17  1  0.758359  0.412172  0.571905  1
  O  O18  1  0.744618  0.940416  0.090163  1
  O  O19  1  0.571905  0.758359  0.412172  1
  O  O20  1  0.813412  0.619291  0.998904  1
  O  O21  1  0.412172  0.571905  0.758359  1
  O  O22  1  0.898253  0.266120  0.049713  1
  O  O23  1  0.619291  0.998904  0.813412  1
  O  O24  1  0.400258  0.978279  0.184966  1
  O  O25  1  0.090163  0.744618  0.940416  1
  O  O26  1  0.585128  0.446748  0.239424  1
  O  O27  1  0.184966  0.400258  0.978279  1
  O  O28  1  0.446748  0.239424  0.585128  1
  O  O29  1  0.266120  0.049713  0.898253  1
  O  O30  1  0.239424  0.585128  0.446748  1
  O  O31  1  0.998904  0.813412  0.619291  1
  O  O32  1  0.049713  0.898253  0.266120  1
  O  O33  1  0.888427  0.667451  0.517854  1
  O  O34  1  0.667451  0.517854  0.888427  1
  O  O35  1  0.517854  0.888427  0.667451  1
