# generated using pymatgen
data_Li3FeSiO5
_symmetry_space_group_name_H-M   'P 1'
_cell_length_a   5.12386516
_cell_length_b   5.74877863
_cell_length_c   6.27260416
_cell_angle_alpha   76.23657864
_cell_angle_beta   75.97100213
_cell_angle_gamma   73.49318222
_symmetry_Int_Tables_number   1
_chemical_formula_structural   Li3FeSiO5
_chemical_formula_sum   'Li6 Fe2 Si2 O10'
_cell_volume   169.00520252
_cell_formula_units_Z   2
loop_
 _symmetry_equiv_pos_site_id
 _symmetry_equiv_pos_as_xyz
  1  'x, y, z'
loop_
 _atom_site_type_symbol
 _atom_site_label
 _atom_site_symmetry_multiplicity
 _atom_site_fract_x
 _atom_site_fract_y
 _atom_site_fract_z
 _atom_site_occupancy
  Li  Li0  1  0.512832  0.244934  0.994394  1
  Li  Li1  1  0.298213  0.445635  0.398858  1
  Li  Li2  1  0.319084  0.950198  0.392392  1
  Li  Li3  1  0.680916  0.049802  0.607608  1
  Li  Li4  1  0.701787  0.554365  0.601142  1
  Li  Li5  1  0.487168  0.755066  0.005606  1
  Fe  Fe6  1  0.896727  0.345547  0.222861  1
  Fe  Fe7  1  0.103273  0.654453  0.777139  1
  Si  Si8  1  0.899325  0.848826  0.210679  1
  Si  Si9  1  0.100675  0.151174  0.789321  1
  O  O10  1  0.645671  0.119269  0.284040  1
  O  O11  1  0.647153  0.668765  0.281663  1
  O  O12  1  0.159211  0.045906  0.090714  1
  O  O13  1  0.999751  0.759827  0.474182  1
  O  O14  1  0.160639  0.579186  0.110569  1
  O  O15  1  0.839361  0.420814  0.889431  1
  O  O16  1  0.000249  0.240173  0.525818  1
  O  O17  1  0.840789  0.954094  0.909286  1
  O  O18  1  0.352847  0.331235  0.718337  1
  O  O19  1  0.354329  0.880731  0.715960  1
