# generated using pymatgen
data_Li4Ti3V3(WO8)2
_symmetry_space_group_name_H-M   'P 1'
_cell_length_a   6.01259549
_cell_length_b   6.01259549
_cell_length_c   9.87631062
_cell_angle_alpha   88.66453880
_cell_angle_beta   91.33546120
_cell_angle_gamma   120.18968821
_symmetry_Int_Tables_number   1
_chemical_formula_structural   Li4Ti3V3(WO8)2
_chemical_formula_sum   'Li4 Ti3 V3 W2 O16'
_cell_volume   308.50274006
_cell_formula_units_Z   1
loop_
 _symmetry_equiv_pos_site_id
 _symmetry_equiv_pos_as_xyz
  1  'x, y, z'
loop_
 _atom_site_type_symbol
 _atom_site_label
 _atom_site_symmetry_multiplicity
 _atom_site_fract_x
 _atom_site_fract_y
 _atom_site_fract_z
 _atom_site_occupancy
  Li  Li0  1  0.665206  0.334794  0.898921  1
  Li  Li1  1  0.996163  0.003837  0.988457  1
  Li  Li2  1  0.002693  0.997307  0.494252  1
  Li  Li3  1  0.332451  0.667549  0.401260  1
  Ti  Ti4  1  0.336446  0.161093  0.214332  1
  Ti  Ti5  1  0.838907  0.663554  0.214332  1
  Ti  Ti6  1  0.173584  0.826416  0.720118  1
  V  V7  1  0.826072  0.173928  0.212055  1
  V  V8  1  0.185423  0.348234  0.711194  1
  V  V9  1  0.651766  0.814577  0.711194  1
  W  W10  1  0.669792  0.330208  0.489200  1
  W  W11  1  0.339333  0.660667  0.987528  1
  O  O12  1  0.336771  0.163886  0.595032  1
  O  O13  1  0.522399  0.477601  0.342712  1
  O  O14  1  0.650623  0.349377  0.105790  1
  O  O15  1  0.005288  0.994712  0.308338  1
  O  O16  1  0.007153  0.992847  0.802289  1
  O  O17  1  0.836114  0.663229  0.595032  1
  O  O18  1  0.507318  0.038808  0.344451  1
  O  O19  1  0.961192  0.492682  0.344451  1
  O  O20  1  0.162994  0.837006  0.108476  1
  O  O21  1  0.829960  0.170040  0.589048  1
  O  O22  1  0.038098  0.525727  0.842476  1
  O  O23  1  0.474273  0.961902  0.842476  1
  O  O24  1  0.319356  0.680644  0.600999  1
  O  O25  1  0.169862  0.325422  0.099451  1
  O  O26  1  0.485730  0.514270  0.844504  1
  O  O27  1  0.674578  0.830138  0.099451  1
