# generated using pymatgen
data_Li3Mo4P5O24
_symmetry_space_group_name_H-M   'P 1'
_cell_length_a   9.39180513
_cell_length_b   9.39180513
_cell_length_c   15.41986557
_cell_angle_alpha   65.20595801
_cell_angle_beta   114.79404199
_cell_angle_gamma   125.53916171
_symmetry_Int_Tables_number   1
_chemical_formula_structural   Li3Mo4P5O24
_chemical_formula_sum   'Li6 Mo8 P10 O48'
_cell_volume   975.93801027
_cell_formula_units_Z   2
loop_
 _symmetry_equiv_pos_site_id
 _symmetry_equiv_pos_as_xyz
  1  'x, y, z'
loop_
 _atom_site_type_symbol
 _atom_site_label
 _atom_site_symmetry_multiplicity
 _atom_site_fract_x
 _atom_site_fract_y
 _atom_site_fract_z
 _atom_site_occupancy
  Li  Li0  1  0.948509  0.022524  0.970555  1
  Li  Li1  1  0.674409  0.356352  0.736648  1
  Li  Li2  1  0.363156  0.684149  0.751530  1
  Li  Li3  1  0.315851  0.636844  0.251530  1
  Li  Li4  1  0.643648  0.325591  0.236648  1
  Li  Li5  1  0.977476  0.051491  0.470555  1
  Mo  Mo6  1  0.015319  0.352460  0.679165  1
  Mo  Mo7  1  0.989612  0.649590  0.319296  1
  Mo  Mo8  1  0.406918  0.206462  0.478234  1
  Mo  Mo9  1  0.209915  0.399521  0.022392  1
  Mo  Mo10  1  0.350410  0.010388  0.819296  1
  Mo  Mo11  1  0.600479  0.790085  0.522392  1
  Mo  Mo12  1  0.647540  0.984681  0.179165  1
  Mo  Mo13  1  0.793538  0.593082  0.978234  1
  P  P14  1  0.331612  0.314276  0.892009  1
  P  P15  1  0.245802  0.761445  0.539230  1
  P  P16  1  0.685724  0.668388  0.392009  1
  P  P17  1  0.317647  0.332063  0.604801  1
  P  P18  1  0.238555  0.754198  0.039230  1
  P  P19  1  0.898677  0.896811  0.751487  1
  P  P20  1  0.761518  0.240415  0.957693  1
  P  P21  1  0.103189  0.101323  0.251487  1
  P  P22  1  0.759585  0.238482  0.457693  1
  P  P23  1  0.667937  0.682353  0.104801  1
  O  O24  1  0.927500  0.217991  0.983397  1
  O  O25  1  0.519048  0.473190  0.920414  1
  O  O26  1  0.486540  0.516562  0.583138  1
  O  O27  1  0.807983  0.779011  0.838698  1
  O  O28  1  0.456806  0.792691  0.408454  1
  O  O29  1  0.793265  0.454308  0.094149  1
  O  O30  1  0.526810  0.480952  0.420414  1
  O  O31  1  0.235299  0.230213  0.522173  1
  O  O32  1  0.220989  0.192017  0.338698  1
  O  O33  1  0.243340  0.408742  0.792719  1
  O  O34  1  0.366354  0.882094  0.772174  1
  O  O35  1  0.328846  0.843209  0.954059  1
  O  O36  1  0.555508  0.182061  0.422758  1
  O  O37  1  0.156432  0.630972  0.627716  1
  O  O38  1  0.817939  0.444492  0.922758  1
  O  O39  1  0.079937  0.906323  0.773896  1
  O  O40  1  0.841663  0.369112  0.368754  1
  O  O41  1  0.830539  0.658439  0.380768  1
  O  O42  1  0.545692  0.206735  0.594149  1
  O  O43  1  0.769787  0.764701  0.022173  1
  O  O44  1  0.782009  0.072500  0.483397  1
  O  O45  1  0.445884  0.804954  0.580055  1
  O  O46  1  0.093677  0.920063  0.273896  1
  O  O47  1  0.766416  0.776740  0.470240  1
  O  O48  1  0.207309  0.543194  0.908454  1
  O  O49  1  0.629635  0.111393  0.224591  1
  O  O50  1  0.764610  0.597454  0.203184  1
  O  O51  1  0.341561  0.169461  0.880768  1
  O  O52  1  0.780017  0.816403  0.660675  1
  O  O53  1  0.369028  0.843568  0.127716  1
  O  O54  1  0.846595  0.323090  0.544973  1
  O  O55  1  0.195046  0.554116  0.080055  1
  O  O56  1  0.171345  0.346349  0.612882  1
  O  O57  1  0.231540  0.931743  0.509275  1
  O  O58  1  0.927035  0.085739  0.733296  1
  O  O59  1  0.402546  0.235390  0.703184  1
  O  O60  1  0.914261  0.072965  0.233296  1
  O  O61  1  0.630888  0.158337  0.868754  1
  O  O62  1  0.591258  0.756660  0.292719  1
  O  O63  1  0.183597  0.219983  0.160675  1
  O  O64  1  0.117906  0.633646  0.272174  1
  O  O65  1  0.888607  0.370365  0.724591  1
  O  O66  1  0.156791  0.671154  0.454059  1
  O  O67  1  0.483438  0.513460  0.083138  1
  O  O68  1  0.653651  0.828655  0.112882  1
  O  O69  1  0.223260  0.233584  0.970240  1
  O  O70  1  0.068257  0.768460  0.009275  1
  O  O71  1  0.676910  0.153405  0.044973  1
