# generated using pymatgen
data_FePO4
_symmetry_space_group_name_H-M   'P 1'
_cell_length_a   8.73167453
_cell_length_b   8.73167453
_cell_length_c   8.73167453
_cell_angle_alpha   108.14477924
_cell_angle_beta   108.14477924
_cell_angle_gamma   108.14477924
_symmetry_Int_Tables_number   1
_chemical_formula_structural   FePO4
_chemical_formula_sum   'Fe6 P6 O24'
_cell_volume   536.16429035
_cell_formula_units_Z   6
loop_
 _symmetry_equiv_pos_site_id
 _symmetry_equiv_pos_as_xyz
  1  'x, y, z'
loop_
 _atom_site_type_symbol
 _atom_site_label
 _atom_site_symmetry_multiplicity
 _atom_site_fract_x
 _atom_site_fract_y
 _atom_site_fract_z
 _atom_site_occupancy
  Fe  Fe0  1  0.529573  0.943674  0.761891  1
  Fe  Fe1  1  0.761891  0.529573  0.943674  1
  Fe  Fe2  1  0.047611  0.237845  0.453010  1
  Fe  Fe3  1  0.453010  0.047611  0.237845  1
  Fe  Fe4  1  0.943674  0.761891  0.529573  1
  Fe  Fe5  1  0.237845  0.453010  0.047611  1
  P  P6  1  0.285114  0.091369  0.875684  1
  P  P7  1  0.568845  0.796421  0.388120  1
  P  P8  1  0.875684  0.285114  0.091369  1
  P  P9  1  0.796421  0.388120  0.568845  1
  P  P10  1  0.388120  0.568845  0.796421  1
  P  P11  1  0.091369  0.875684  0.285114  1
  O  O12  1  0.283160  0.577492  0.911186  1
  O  O13  1  0.995729  0.321254  0.994773  1
  O  O14  1  0.992627  0.735821  0.082914  1
  O  O15  1  0.577492  0.911186  0.283160  1
  O  O16  1  0.583458  0.610560  0.914149  1
  O  O17  1  0.321254  0.994773  0.995729  1
  O  O18  1  0.632841  0.291184  0.377788  1
  O  O19  1  0.334028  0.288342  0.996981  1
  O  O20  1  0.082914  0.992627  0.735821  1
  O  O21  1  0.088225  0.775892  0.404459  1
  O  O22  1  0.610560  0.914149  0.583458  1
  O  O23  1  0.291184  0.377788  0.632841  1
  O  O24  1  0.994773  0.995729  0.321254  1
  O  O25  1  0.724981  0.390468  0.710244  1
  O  O26  1  0.377788  0.632841  0.291184  1
  O  O27  1  0.288342  0.996981  0.334028  1
  O  O28  1  0.911186  0.283160  0.577492  1
  O  O29  1  0.404459  0.088225  0.775892  1
  O  O30  1  0.775892  0.404459  0.088225  1
  O  O31  1  0.735821  0.082914  0.992627  1
  O  O32  1  0.914149  0.583458  0.610560  1
  O  O33  1  0.996981  0.334028  0.288342  1
  O  O34  1  0.710244  0.724981  0.390468  1
  O  O35  1  0.390468  0.710244  0.724981  1
