# generated using pymatgen
data_Li2MnFe3O8
_symmetry_space_group_name_H-M   'P 1'
_cell_length_a   5.91143824
_cell_length_b   5.91143824
_cell_length_c   6.00216305
_cell_angle_alpha   60.07251466
_cell_angle_beta   119.92748534
_cell_angle_gamma   120.61063511
_symmetry_Int_Tables_number   1
_chemical_formula_structural   Li2MnFe3O8
_chemical_formula_sum   'Li2 Mn1 Fe3 O8'
_cell_volume   147.77655878
_cell_formula_units_Z   1
loop_
 _symmetry_equiv_pos_site_id
 _symmetry_equiv_pos_as_xyz
  1  'x, y, z'
loop_
 _atom_site_type_symbol
 _atom_site_label
 _atom_site_symmetry_multiplicity
 _atom_site_fract_x
 _atom_site_fract_y
 _atom_site_fract_z
 _atom_site_occupancy
  Li  Li0  1  0.000000  0.500000  0.500000  1
  Li  Li1  1  0.500000  0.000000  0.500000  1
  Mn  Mn2  1  0.000000  0.000000  0.000000  1
  Fe  Fe3  1  0.500000  0.000000  0.000000  1
  Fe  Fe4  1  0.500000  0.500000  0.000000  1
  Fe  Fe5  1  0.000000  0.500000  0.000000  1
  O  O6  1  0.743659  0.752948  0.206934  1
  O  O7  1  0.729568  0.270432  0.212464  1
  O  O8  1  0.247052  0.256341  0.206934  1
  O  O9  1  0.229177  0.770823  0.213232  1
  O  O10  1  0.770823  0.229177  0.786768  1
  O  O11  1  0.752948  0.743659  0.793066  1
  O  O12  1  0.270432  0.729568  0.787536  1
  O  O13  1  0.256341  0.247052  0.793066  1
