# generated using pymatgen
data_LaSmO3
_symmetry_space_group_name_H-M   'P 1'
_cell_length_a   6.03017724
_cell_length_b   6.21450192
_cell_length_c   8.73191203
_cell_angle_alpha   90.00000000
_cell_angle_beta   90.00000000
_cell_angle_gamma   90.00000000
_symmetry_Int_Tables_number   1
_chemical_formula_structural   LaSmO3
_chemical_formula_sum   'La4 Sm4 O12'
_cell_volume   327.22445681
_cell_formula_units_Z   4
loop_
 _symmetry_equiv_pos_site_id
 _symmetry_equiv_pos_as_xyz
  1  'x, y, z'
loop_
 _atom_site_type_symbol
 _atom_site_label
 _atom_site_symmetry_multiplicity
 _atom_site_fract_x
 _atom_site_fract_y
 _atom_site_fract_z
 _atom_site_occupancy
  La  La0  1  0.508153  0.958336  0.483465  1
  La  La1  1  0.008153  0.541664  0.983465  1
  La  La2  1  0.991847  0.458336  0.483465  1
  La  La3  1  0.491847  0.041664  0.983465  1
  Sm  Sm4  1  0.000035  0.994071  0.740024  1
  Sm  Sm5  1  0.500035  0.505929  0.240024  1
  Sm  Sm6  1  0.499965  0.494071  0.740024  1
  Sm  Sm7  1  0.999965  0.005929  0.240024  1
  O  O8  1  0.863120  0.924364  0.993269  1
  O  O9  1  0.332747  0.838217  0.183130  1
  O  O10  1  0.308072  0.797812  0.823913  1
  O  O11  1  0.808072  0.702188  0.323913  1
  O  O12  1  0.832747  0.661783  0.683130  1
  O  O13  1  0.363120  0.575636  0.493269  1
  O  O14  1  0.636880  0.424364  0.993269  1
  O  O15  1  0.167253  0.338217  0.183130  1
  O  O16  1  0.191928  0.297812  0.823913  1
  O  O17  1  0.691928  0.202188  0.323913  1
  O  O18  1  0.667253  0.161783  0.683130  1
  O  O19  1  0.136880  0.075636  0.493269  1
