# generated using pymatgen
data_Ti(SO4)2
_symmetry_space_group_name_H-M   'P 1'
_cell_length_a   8.88581877
_cell_length_b   8.88581877
_cell_length_c   8.88581877
_cell_angle_alpha   56.11035416
_cell_angle_beta   56.11035416
_cell_angle_gamma   56.11035416
_symmetry_Int_Tables_number   1
_chemical_formula_structural   Ti(SO4)2
_chemical_formula_sum   'Ti3 S6 O24'
_cell_volume   451.42644010
_cell_formula_units_Z   3
loop_
 _symmetry_equiv_pos_site_id
 _symmetry_equiv_pos_as_xyz
  1  'x, y, z'
loop_
 _atom_site_type_symbol
 _atom_site_label
 _atom_site_symmetry_multiplicity
 _atom_site_fract_x
 _atom_site_fract_y
 _atom_site_fract_z
 _atom_site_occupancy
  Ti  Ti0  1  0.852710  0.852710  0.852710  1
  Ti  Ti1  1  0.355742  0.355742  0.355742  1
  Ti  Ti2  1  0.149312  0.149312  0.149312  1
  S  S3  1  0.252151  0.541451  0.953405  1
  S  S4  1  0.953405  0.252151  0.541451  1
  S  S5  1  0.541451  0.953405  0.252151  1
  S  S6  1  0.466074  0.035295  0.745069  1
  S  S7  1  0.035295  0.745069  0.466074  1
  S  S8  1  0.745069  0.466074  0.035295  1
  O  O9  1  0.716790  0.482108  0.883676  1
  O  O10  1  0.482108  0.883676  0.716790  1
  O  O11  1  0.038416  0.673312  0.987368  1
  O  O12  1  0.883676  0.716790  0.482108  1
  O  O13  1  0.269466  0.347289  0.986097  1
  O  O14  1  0.376058  0.621309  0.765655  1
  O  O15  1  0.765655  0.376058  0.621309  1
  O  O16  1  0.987368  0.038416  0.673312  1
  O  O17  1  0.621309  0.765655  0.376058  1
  O  O18  1  0.320668  0.043399  0.944278  1
  O  O19  1  0.653881  0.018938  0.726726  1
  O  O20  1  0.018938  0.726726  0.653881  1
  O  O21  1  0.986097  0.269466  0.347289  1
  O  O22  1  0.347289  0.986097  0.269466  1
  O  O23  1  0.673312  0.987368  0.038416  1
  O  O24  1  0.396056  0.234467  0.601722  1
  O  O25  1  0.043399  0.944278  0.320668  1
  O  O26  1  0.234467  0.601722  0.396056  1
  O  O27  1  0.601722  0.396056  0.234467  1
  O  O28  1  0.726726  0.653881  0.018938  1
  O  O29  1  0.119087  0.288744  0.508318  1
  O  O30  1  0.944278  0.320668  0.043399  1
  O  O31  1  0.508318  0.119087  0.288744  1
  O  O32  1  0.288744  0.508318  0.119087  1
