# generated using pymatgen
data_LiV2(OF)3
_symmetry_space_group_name_H-M   'P 1'
_cell_length_a   5.11075213
_cell_length_b   5.14327921
_cell_length_c   13.50720527
_cell_angle_alpha   88.33578455
_cell_angle_beta   88.88282840
_cell_angle_gamma   61.43737370
_symmetry_Int_Tables_number   1
_chemical_formula_structural   LiV2(OF)3
_chemical_formula_sum   'Li3 V6 O9 F9'
_cell_volume   311.70139730
_cell_formula_units_Z   3
loop_
 _symmetry_equiv_pos_site_id
 _symmetry_equiv_pos_as_xyz
  1  'x, y, z'
loop_
 _atom_site_type_symbol
 _atom_site_label
 _atom_site_symmetry_multiplicity
 _atom_site_fract_x
 _atom_site_fract_y
 _atom_site_fract_z
 _atom_site_occupancy
  Li  Li0  1  0.689494  0.652671  0.374361  1
  Li  Li1  1  0.339364  0.323663  0.038092  1
  Li  Li2  1  0.029043  0.986346  0.709154  1
  V  V3  1  0.685674  0.678278  0.666453  1
  V  V4  1  0.971543  0.021963  0.486890  1
  V  V5  1  0.988336  0.984725  0.003256  1
  V  V6  1  0.629563  0.676677  0.153663  1
  V  V7  1  0.409665  0.314272  0.825722  1
  V  V8  1  0.342992  0.327492  0.332551  1
  O  O9  1  0.912921  0.756732  0.591206  1
  O  O10  1  0.707008  0.952955  0.084439  1
  O  O11  1  0.657246  0.273038  0.914824  1
  O  O12  1  0.564736  0.419273  0.257292  1
  O  O13  1  0.401220  0.602659  0.749327  1
  O  O14  1  0.682841  0.039170  0.417614  1
  O  O15  1  0.344004  0.695172  0.083868  1
  O  O16  1  0.620871  0.004291  0.755581  1
  O  O17  1  0.064975  0.285129  0.419102  1
  F  F18  1  0.966591  0.605014  0.256892  1
  F  F19  1  0.963602  0.332248  0.084369  1
  F  F20  1  0.739916  0.329505  0.586682  1
  F  F21  1  0.390579  0.989479  0.253712  1
  F  F22  1  0.311576  0.940885  0.592072  1
  F  F23  1  0.302162  0.674589  0.421501  1
  F  F24  1  0.082665  0.646315  0.916888  1
  F  F25  1  0.261593  0.090502  0.918904  1
  F  F26  1  0.010447  0.369864  0.750331  1
