# generated using pymatgen
data_LiCu2F7
_symmetry_space_group_name_H-M   'P 1'
_cell_length_a   5.28644647
_cell_length_b   6.59706575
_cell_length_c   7.21482268
_cell_angle_alpha   95.78423413
_cell_angle_beta   89.82422754
_cell_angle_gamma   113.40011858
_symmetry_Int_Tables_number   1
_chemical_formula_structural   LiCu2F7
_chemical_formula_sum   'Li2 Cu4 F14'
_cell_volume   229.55861244
_cell_formula_units_Z   2
loop_
 _symmetry_equiv_pos_site_id
 _symmetry_equiv_pos_as_xyz
  1  'x, y, z'
loop_
 _atom_site_type_symbol
 _atom_site_label
 _atom_site_symmetry_multiplicity
 _atom_site_fract_x
 _atom_site_fract_y
 _atom_site_fract_z
 _atom_site_occupancy
  Li  Li0  1  0.012618  0.000512  0.250790  1
  Li  Li1  1  0.994606  0.011214  0.759488  1
  Cu  Cu2  1  0.363261  0.700353  0.285465  1
  Cu  Cu3  1  0.663958  0.298801  0.214344  1
  Cu  Cu4  1  0.343959  0.701939  0.785038  1
  Cu  Cu5  1  0.638306  0.294806  0.714518  1
  F  F6  1  0.775581  0.299959  0.466995  1
  F  F7  1  0.472773  0.699375  0.031848  1
  F  F8  1  0.362041  0.001284  0.249105  1
  F  F9  1  0.598372  0.581895  0.701846  1
  F  F10  1  0.882311  0.156792  0.111064  1
  F  F11  1  0.281882  0.159778  0.615936  1
  F  F12  1  0.974946  0.584733  0.200516  1
  F  F13  1  0.015677  0.415618  0.796770  1
  F  F14  1  0.720194  0.840944  0.385056  1
  F  F15  1  0.388975  0.413831  0.300046  1
  F  F16  1  0.123335  0.836211  0.882215  1
  F  F17  1  0.636937  0.002896  0.748549  1
  F  F18  1  0.226518  0.700783  0.533358  1
  F  F19  1  0.523746  0.298273  0.967049  1
