# generated using pymatgen
data_Li5Fe8(BO3)8
_symmetry_space_group_name_H-M   'P 1'
_cell_length_a   5.25618843
_cell_length_b   9.08572426
_cell_length_c   11.36921632
_cell_angle_alpha   113.29222635
_cell_angle_beta   102.85745105
_cell_angle_gamma   89.91080731
_symmetry_Int_Tables_number   1
_chemical_formula_structural   Li5Fe8(BO3)8
_chemical_formula_sum   'Li5 Fe8 B8 O24'
_cell_volume   483.92662737
_cell_formula_units_Z   1
loop_
 _symmetry_equiv_pos_site_id
 _symmetry_equiv_pos_as_xyz
  1  'x, y, z'
loop_
 _atom_site_type_symbol
 _atom_site_label
 _atom_site_symmetry_multiplicity
 _atom_site_fract_x
 _atom_site_fract_y
 _atom_site_fract_z
 _atom_site_occupancy
  Li  Li0  1  0.167569  0.841216  0.662013  1
  Li  Li1  1  0.607631  0.943549  0.904258  1
  Li  Li2  1  0.928373  0.573744  0.166511  1
  Li  Li3  1  0.676474  0.345850  0.663412  1
  Li  Li4  1  0.424816  0.067260  0.166254  1
  Fe  Fe5  1  0.399687  0.718541  0.129937  1
  Fe  Fe6  1  0.091150  0.761458  0.879371  1
  Fe  Fe7  1  0.845950  0.861234  0.381844  1
  Fe  Fe8  1  0.649479  0.657220  0.625294  1
  Fe  Fe9  1  0.349082  0.359799  0.383366  1
  Fe  Fe10  1  0.149987  0.161598  0.629745  1
  Fe  Fe11  1  0.909213  0.220769  0.130522  1
  Fe  Fe12  1  0.597748  0.276734  0.880526  1
  B  B13  1  0.648920  0.987161  0.632456  1
  B  B14  1  0.899699  0.895655  0.129499  1
  B  B15  1  0.143528  0.483648  0.624461  1
  B  B16  1  0.399546  0.392156  0.128024  1
  B  B17  1  0.847548  0.519640  0.374481  1
  B  B18  1  0.592294  0.607414  0.876297  1
  B  B19  1  0.346931  0.019553  0.376370  1
  B  B20  1  0.107330  0.103115  0.875702  1
  O  O21  1  0.140662  0.884273  0.099139  1
  O  O22  1  0.477166  0.881441  0.342919  1
  O  O23  1  0.222971  0.967063  0.866885  1
  O  O24  1  0.513802  0.866095  0.640797  1
  O  O25  1  0.880641  0.960998  0.586724  1
  O  O26  1  0.811437  0.788489  0.176646  1
  O  O27  1  0.259218  0.518292  0.132019  1
  O  O28  1  0.058149  0.636843  0.661248  1
  O  O29  1  0.701410  0.717271  0.838000  1
  O  O30  1  0.625352  0.521076  0.419952  1
  O  O31  1  0.937545  0.651149  0.359673  1
  O  O32  1  0.383109  0.646453  0.931204  1
  O  O33  1  0.634148  0.373279  0.082428  1
  O  O34  1  0.382193  0.457564  0.582851  1
  O  O35  1  0.318559  0.277723  0.170092  1
  O  O36  1  0.978505  0.380953  0.337396  1
  O  O37  1  0.694917  0.461779  0.855450  1
  O  O38  1  0.224389  0.215345  0.843072  1
  O  O39  1  0.126344  0.023629  0.424466  1
  O  O40  1  0.438669  0.149529  0.360165  1
  O  O41  1  0.006735  0.359862  0.628590  1
  O  O42  1  0.742159  0.010729  0.109345  1
  O  O43  1  0.564709  0.143162  0.673527  1
  O  O44  1  0.866452  0.132241  0.913418  1
