# generated using pymatgen
data_LiCuP4O11
_symmetry_space_group_name_H-M   'P 1'
_cell_length_a   9.57924109
_cell_length_b   9.62337495
_cell_length_c   10.90971921
_cell_angle_alpha   109.56693855
_cell_angle_beta   109.29902976
_cell_angle_gamma   89.13234014
_symmetry_Int_Tables_number   1
_chemical_formula_structural   LiCuP4O11
_chemical_formula_sum   'Li4 Cu4 P16 O44'
_cell_volume   889.20232580
_cell_formula_units_Z   4
loop_
 _symmetry_equiv_pos_site_id
 _symmetry_equiv_pos_as_xyz
  1  'x, y, z'
loop_
 _atom_site_type_symbol
 _atom_site_label
 _atom_site_symmetry_multiplicity
 _atom_site_fract_x
 _atom_site_fract_y
 _atom_site_fract_z
 _atom_site_occupancy
  Li  Li0  1  0.613232  0.551784  0.061444  1
  Li  Li1  1  0.773069  0.634238  0.690288  1
  Li  Li2  1  0.224116  0.361399  0.305597  1
  Li  Li3  1  0.274286  0.192151  0.780276  1
  Cu  Cu4  1  0.777579  0.793015  0.031272  1
  Cu  Cu5  1  0.729817  0.250568  0.495140  1
  Cu  Cu6  1  0.270168  0.746081  0.501183  1
  Cu  Cu7  1  0.212682  0.229007  0.998044  1
  P  P8  1  0.914645  0.238442  0.070323  1
  P  P9  1  0.939750  0.576002  0.222067  1
  P  P10  1  0.913874  0.106442  0.293090  1
  P  P11  1  0.738198  0.593871  0.387928  1
  P  P12  1  0.757097  0.914252  0.563204  1
  P  P13  1  0.401921  0.765360  0.102331  1
  P  P14  1  0.401424  0.091670  0.233545  1
  P  P15  1  0.415607  0.565836  0.266549  1
  P  P16  1  0.583542  0.436167  0.731394  1
  P  P17  1  0.601304  0.905618  0.765218  1
  P  P18  1  0.600602  0.231021  0.893864  1
  P  P19  1  0.241715  0.083972  0.436414  1
  P  P20  1  0.261894  0.409040  0.610909  1
  P  P21  1  0.083344  0.891034  0.705169  1
  P  P22  1  0.060289  0.422757  0.774177  1
  P  P23  1  0.089425  0.762261  0.932268  1
  O  O24  1  0.981400  0.408194  0.150323  1
  O  O25  1  0.968061  0.175737  0.191026  1
  O  O26  1  0.815104  0.612482  0.114638  1
  O  O27  1  0.862130  0.536687  0.324651  1
  O  O28  1  0.898535  0.236334  0.407657  1
  O  O29  1  0.800468  0.978006  0.206279  1
  O  O30  1  0.736477  0.241366  0.031498  1
  O  O31  1  0.928105  0.960829  0.648260  1
  O  O32  1  0.911399  0.340668  0.693208  1
  O  O33  1  0.965212  0.169274  0.952281  1
  O  O34  1  0.753812  0.769903  0.430598  1
  O  O35  1  0.743932  0.542807  0.502318  1
  O  O36  1  0.533236  0.728157  0.060338  1
  O  O37  1  0.587480  0.539773  0.253556  1
  O  O38  1  0.680435  0.030824  0.519355  1
  O  O39  1  0.697510  0.849328  0.655640  1
  O  O40  1  0.548226  0.180174  0.303415  1
  O  O41  1  0.673662  0.583178  0.792576  1
  O  O42  1  0.707500  0.912322  0.902844  1
  O  O43  1  0.565802  0.324980  0.593665  1
  O  O44  1  0.417088  0.915513  0.223339  1
  O  O45  1  0.648962  0.363869  0.856162  1
  O  O46  1  0.347357  0.642333  0.148070  1
  O  O47  1  0.592626  0.084241  0.772983  1
  O  O48  1  0.437620  0.670970  0.407809  1
  O  O49  1  0.292753  0.086520  0.097110  1
  O  O50  1  0.326943  0.417389  0.206495  1
  O  O51  1  0.451372  0.823450  0.696427  1
  O  O52  1  0.304066  0.145317  0.344269  1
  O  O53  1  0.317945  0.970598  0.486839  1
  O  O54  1  0.413035  0.465647  0.739885  1
  O  O55  1  0.463947  0.259699  0.929575  1
  O  O56  1  0.250302  0.452272  0.490893  1
  O  O57  1  0.247833  0.230836  0.573803  1
  O  O58  1  0.036701  0.831799  0.048312  1
  O  O59  1  0.083337  0.668494  0.302194  1
  O  O60  1  0.071400  0.038741  0.352806  1
  O  O61  1  0.266457  0.763077  0.968611  1
  O  O62  1  0.196023  0.022602  0.788605  1
  O  O63  1  0.102200  0.762362  0.592252  1
  O  O64  1  0.138159  0.466732  0.673938  1
  O  O65  1  0.182320  0.364864  0.867344  1
  O  O66  1  0.035915  0.825061  0.810497  1
  O  O67  1  0.029712  0.590594  0.857181  1
