# generated using pymatgen
data_Mn3VO8
_symmetry_space_group_name_H-M   'P 1'
_cell_length_a   5.79006953
_cell_length_b   5.79006953
_cell_length_c   8.95734211
_cell_angle_alpha   90.00000000
_cell_angle_beta   90.00000000
_cell_angle_gamma   120.00000000
_symmetry_Int_Tables_number   1
_chemical_formula_structural   Mn3VO8
_chemical_formula_sum   'Mn6 V2 O16'
_cell_volume   260.06227116
_cell_formula_units_Z   2
loop_
 _symmetry_equiv_pos_site_id
 _symmetry_equiv_pos_as_xyz
  1  'x, y, z'
loop_
 _atom_site_type_symbol
 _atom_site_label
 _atom_site_symmetry_multiplicity
 _atom_site_fract_x
 _atom_site_fract_y
 _atom_site_fract_z
 _atom_site_occupancy
  Mn  Mn0  1  0.168029  0.336059  0.210744  1
  Mn  Mn1  1  0.663941  0.831971  0.210744  1
  Mn  Mn2  1  0.168029  0.831971  0.210744  1
  Mn  Mn3  1  0.831971  0.168029  0.710744  1
  Mn  Mn4  1  0.336059  0.168029  0.710744  1
  Mn  Mn5  1  0.831971  0.663941  0.710744  1
  V  V6  1  0.333333  0.666667  0.492820  1
  V  V7  1  0.666667  0.333333  0.992820  1
  O  O8  1  0.168124  0.336249  0.599955  1
  O  O9  1  0.479149  0.520851  0.337477  1
  O  O10  1  0.333333  0.666667  0.102263  1
  O  O11  1  0.000000  0.000000  0.316233  1
  O  O12  1  0.000000  0.000000  0.816233  1
  O  O13  1  0.663751  0.831876  0.599955  1
  O  O14  1  0.041702  0.520851  0.337477  1
  O  O15  1  0.479149  0.958298  0.337477  1
  O  O16  1  0.831876  0.168124  0.099955  1
  O  O17  1  0.168124  0.831876  0.599955  1
  O  O18  1  0.520851  0.041702  0.837477  1
  O  O19  1  0.958298  0.479149  0.837477  1
  O  O20  1  0.666667  0.333333  0.602263  1
  O  O21  1  0.336249  0.168124  0.099955  1
  O  O22  1  0.520851  0.479149  0.837477  1
  O  O23  1  0.831876  0.663751  0.099955  1
