# generated using pymatgen
data_KMnH5(SO5)2
_symmetry_space_group_name_H-M   'P 1'
_cell_length_a   6.25716951
_cell_length_b   6.71967322
_cell_length_c   6.97520373
_cell_angle_alpha   84.07219738
_cell_angle_beta   80.62797093
_cell_angle_gamma   71.03440991
_symmetry_Int_Tables_number   1
_chemical_formula_structural   KMnH5(SO5)2
_chemical_formula_sum   'K1 Mn1 H5 S2 O10'
_cell_volume   273.25835111
_cell_formula_units_Z   1
loop_
 _symmetry_equiv_pos_site_id
 _symmetry_equiv_pos_as_xyz
  1  'x, y, z'
loop_
 _atom_site_type_symbol
 _atom_site_label
 _atom_site_symmetry_multiplicity
 _atom_site_fract_x
 _atom_site_fract_y
 _atom_site_fract_z
 _atom_site_occupancy
  K  K0  1  0.600184  0.815845  0.924800  1
  Mn  Mn1  1  0.976423  0.150438  0.215876  1
  H  H2  1  0.747742  0.186718  0.688676  1
  H  H3  1  0.610616  0.743263  0.504347  1
  H  H4  1  0.308573  0.125939  0.434588  1
  H  H5  1  0.347090  0.280190  0.257341  1
  H  H6  1  0.318162  0.724518  0.283035  1
  S  S7  1  0.924585  0.794015  0.324817  1
  S  S8  1  0.027849  0.273648  0.757673  1
  O  O9  1  0.304808  0.151731  0.289952  1
  O  O10  1  0.222997  0.089244  0.682525  1
  O  O11  1  0.717192  0.236187  0.426312  1
  O  O12  1  0.131152  0.842264  0.154444  1
  O  O13  1  0.773153  0.409973  0.322888  1
  O  O14  1  0.341944  0.645245  0.415886  1
  O  O15  1  0.055356  0.308072  0.965627  1
  O  O16  1  0.104374  0.688759  0.496168  1
  O  O17  1  0.719836  0.800689  0.547037  1
  O  O18  1  0.801965  0.181261  0.818007  1
