# generated using pymatgen
data_Li5Mn5(PO4)6
_symmetry_space_group_name_H-M   'P 1'
_cell_length_a   8.53114991
_cell_length_b   8.58756628
_cell_length_c   8.70091770
_cell_angle_alpha   61.96627557
_cell_angle_beta   62.45604378
_cell_angle_gamma   61.51699001
_symmetry_Int_Tables_number   1
_chemical_formula_structural   Li5Mn5(PO4)6
_chemical_formula_sum   'Li5 Mn5 P6 O24'
_cell_volume   470.64497671
_cell_formula_units_Z   1
loop_
 _symmetry_equiv_pos_site_id
 _symmetry_equiv_pos_as_xyz
  1  'x, y, z'
loop_
 _atom_site_type_symbol
 _atom_site_label
 _atom_site_symmetry_multiplicity
 _atom_site_fract_x
 _atom_site_fract_y
 _atom_site_fract_z
 _atom_site_occupancy
  Li  Li0  1  0.167217  0.153632  0.160459  1
  Li  Li1  1  0.653236  0.849688  0.244971  1
  Li  Li2  1  0.325934  0.155350  0.808583  1
  Li  Li3  1  0.149042  0.803306  0.336639  1
  Li  Li4  1  0.816361  0.339289  0.132477  1
  Mn  Mn5  1  0.010301  0.998609  0.995245  1
  Mn  Mn6  1  0.639971  0.648561  0.645081  1
  Mn  Mn7  1  0.503495  0.487986  0.509545  1
  Mn  Mn8  1  0.849083  0.859565  0.855388  1
  Mn  Mn9  1  0.349518  0.345502  0.350837  1
  P  P10  1  0.552308  0.251450  0.940793  1
  P  P11  1  0.241137  0.944289  0.557827  1
  P  P12  1  0.950862  0.542136  0.245919  1
  P  P13  1  0.033216  0.468087  0.745131  1
  P  P14  1  0.740750  0.039678  0.445054  1
  P  P15  1  0.459997  0.748211  0.053065  1
  O  O16  1  0.297702  0.105885  0.524638  1
  O  O17  1  0.110712  0.498004  0.315248  1
  O  O18  1  0.520363  0.304441  0.100781  1
  O  O19  1  0.745649  0.081356  0.936110  1
  O  O20  1  0.399071  0.194460  0.961643  1
  O  O21  1  0.583504  0.407608  0.751091  1
  O  O22  1  0.087425  0.924672  0.748628  1
  O  O23  1  0.411388  0.752550  0.574693  1
  O  O24  1  0.988187  0.619127  0.820241  1
  O  O25  1  0.751421  0.569981  0.392885  1
  O  O26  1  0.036449  0.275900  0.899185  1
  O  O27  1  0.785594  0.999691  0.611780  1
  O  O28  1  0.186011  0.965900  0.404565  1
  O  O29  1  0.933246  0.745217  0.106265  1
  O  O30  1  0.237014  0.437377  0.606364  1
  O  O31  1  0.985125  0.394432  0.175931  1
  O  O32  1  0.581094  0.241034  0.423083  1
  O  O33  1  0.902207  0.058223  0.261215  1
  O  O34  1  0.421901  0.598061  0.249983  1
  O  O35  1  0.611072  0.807767  0.043344  1
  O  O36  1  0.268327  0.911479  0.053807  1
  O  O37  1  0.524149  0.678731  0.896860  1
  O  O38  1  0.892185  0.524597  0.651036  1
  O  O39  1  0.674782  0.891171  0.463609  1
