# generated using pymatgen
data_LiTi2Co3O10
_symmetry_space_group_name_H-M   'P 1'
_cell_length_a   4.91977109
_cell_length_b   4.97212616
_cell_length_c   7.80419143
_cell_angle_alpha   75.45696212
_cell_angle_beta   73.69393821
_cell_angle_gamma   82.69047456
_symmetry_Int_Tables_number   1
_chemical_formula_structural   LiTi2Co3O10
_chemical_formula_sum   'Li1 Ti2 Co3 O10'
_cell_volume   177.02337841
_cell_formula_units_Z   1
loop_
 _symmetry_equiv_pos_site_id
 _symmetry_equiv_pos_as_xyz
  1  'x, y, z'
loop_
 _atom_site_type_symbol
 _atom_site_label
 _atom_site_symmetry_multiplicity
 _atom_site_fract_x
 _atom_site_fract_y
 _atom_site_fract_z
 _atom_site_occupancy
  Li  Li0  1  0.677537  0.502401  0.451686  1
  Ti  Ti1  1  0.124404  0.997657  0.312123  1
  Ti  Ti2  1  0.893133  0.983546  0.678811  1
  Co  Co3  1  0.009956  0.502036  0.997429  1
  Co  Co4  1  0.709729  0.012656  0.090090  1
  Co  Co5  1  0.307564  0.996978  0.900882  1
  O  O6  1  0.046442  0.790029  0.119147  1
  O  O7  1  0.092017  0.223892  0.472333  1
  O  O8  1  0.361821  0.209157  0.050981  1
  O  O9  1  0.197301  0.748207  0.791677  1
  O  O10  1  0.486715  0.824663  0.300372  1
  O  O11  1  0.537753  0.176157  0.691588  1
  O  O12  1  0.817511  0.259394  0.204834  1
  O  O13  1  0.652948  0.796271  0.943599  1
  O  O14  1  0.899876  0.766453  0.516000  1
  O  O15  1  0.968270  0.216216  0.875868  1
