# generated using pymatgen
data_Na2FeO3
_symmetry_space_group_name_H-M   'P 1'
_cell_length_a   6.10294915
_cell_length_b   6.10294915
_cell_length_c   11.21658979
_cell_angle_alpha   90.00000000
_cell_angle_beta   90.00000000
_cell_angle_gamma   125.74009026
_symmetry_Int_Tables_number   1
_chemical_formula_structural   Na2FeO3
_chemical_formula_sum   'Na8 Fe4 O12'
_cell_volume   339.09588530
_cell_formula_units_Z   4
loop_
 _symmetry_equiv_pos_site_id
 _symmetry_equiv_pos_as_xyz
  1  'x, y, z'
loop_
 _atom_site_type_symbol
 _atom_site_label
 _atom_site_symmetry_multiplicity
 _atom_site_fract_x
 _atom_site_fract_y
 _atom_site_fract_z
 _atom_site_occupancy
  Na  Na0  1  0.959879  0.040121  0.142507  1
  Na  Na1  1  0.872799  0.127201  0.583253  1
  Na  Na2  1  0.540121  0.459879  0.642507  1
  Na  Na3  1  0.627201  0.372799  0.083253  1
  Na  Na4  1  0.459879  0.540121  0.357493  1
  Na  Na5  1  0.127201  0.872799  0.416747  1
  Na  Na6  1  0.372799  0.627201  0.916747  1
  Na  Na7  1  0.040121  0.959879  0.857493  1
  Fe  Fe8  1  0.758644  0.241356  0.345183  1
  Fe  Fe9  1  0.741356  0.258644  0.845183  1
  Fe  Fe10  1  0.241356  0.758644  0.654817  1
  Fe  Fe11  1  0.258644  0.741356  0.154817  1
  O  O12  1  0.453117  0.046883  0.250000  1
  O  O13  1  0.922194  0.077806  0.359129  1
  O  O14  1  0.653563  0.346437  0.465697  1
  O  O15  1  0.846437  0.153563  0.965697  1
  O  O16  1  0.577806  0.422194  0.859129  1
  O  O17  1  0.953117  0.546883  0.250000  1
  O  O18  1  0.046883  0.453117  0.750000  1
  O  O19  1  0.346437  0.653563  0.534303  1
  O  O20  1  0.153563  0.846437  0.034303  1
  O  O21  1  0.422194  0.577806  0.140871  1
  O  O22  1  0.077806  0.922194  0.640871  1
  O  O23  1  0.546883  0.953117  0.750000  1
