# generated using pymatgen
data_Li4Mn3V3(NiO8)2
_symmetry_space_group_name_H-M   'P 1'
_cell_length_a   5.84853687
_cell_length_b   5.84853687
_cell_length_c   9.62357175
_cell_angle_alpha   89.86209903
_cell_angle_beta   90.13790097
_cell_angle_gamma   120.50916828
_symmetry_Int_Tables_number   1
_chemical_formula_structural   Li4Mn3V3(NiO8)2
_chemical_formula_sum   'Li4 Mn3 V3 Ni2 O16'
_cell_volume   283.60150412
_cell_formula_units_Z   1
loop_
 _symmetry_equiv_pos_site_id
 _symmetry_equiv_pos_as_xyz
  1  'x, y, z'
loop_
 _atom_site_type_symbol
 _atom_site_label
 _atom_site_symmetry_multiplicity
 _atom_site_fract_x
 _atom_site_fract_y
 _atom_site_fract_z
 _atom_site_occupancy
  Li  Li0  1  0.668338  0.331662  0.112416  1
  Li  Li1  1  0.996405  0.003595  0.001841  1
  Li  Li2  1  0.998063  0.001937  0.501698  1
  Li  Li3  1  0.334111  0.665889  0.610420  1
  Mn  Mn4  1  0.830357  0.169643  0.784652  1
  Mn  Mn5  1  0.661879  0.831436  0.284991  1
  Mn  Mn6  1  0.168564  0.338121  0.284991  1
  V  V7  1  0.830465  0.663651  0.785382  1
  V  V8  1  0.336349  0.169535  0.785382  1
  V  V9  1  0.167850  0.832150  0.285216  1
  Ni  Ni10  1  0.667486  0.332514  0.508228  1
  Ni  Ni11  1  0.334569  0.665431  0.011768  1
  O  O12  1  0.843354  0.684632  0.392256  1
  O  O13  1  0.520029  0.479971  0.669840  1
  O  O14  1  0.671117  0.328883  0.894145  1
  O  O15  1  0.995379  0.004621  0.686341  1
  O  O16  1  0.996240  0.003760  0.186822  1
  O  O17  1  0.315368  0.156646  0.392256  1
  O  O18  1  0.964591  0.481464  0.669123  1
  O  O19  1  0.518536  0.035409  0.669123  1
  O  O20  1  0.156397  0.843603  0.892907  1
  O  O21  1  0.843394  0.156606  0.393328  1
  O  O22  1  0.482941  0.963165  0.170239  1
  O  O23  1  0.036835  0.517059  0.170239  1
  O  O24  1  0.336983  0.663017  0.392682  1
  O  O25  1  0.682237  0.839844  0.892594  1
  O  O26  1  0.482821  0.517179  0.170656  1
  O  O27  1  0.160156  0.317763  0.892594  1
