# generated using pymatgen
data_Bi12AsO20
_symmetry_space_group_name_H-M   'P 1'
_cell_length_a   8.98974213
_cell_length_b   8.98974213
_cell_length_c   8.98974213
_cell_angle_alpha   109.47122063
_cell_angle_beta   109.47122063
_cell_angle_gamma   109.47122063
_symmetry_Int_Tables_number   1
_chemical_formula_structural   Bi12AsO20
_chemical_formula_sum   'Bi12 As1 O20'
_cell_volume   559.26779586
_cell_formula_units_Z   1
loop_
 _symmetry_equiv_pos_site_id
 _symmetry_equiv_pos_as_xyz
  1  'x, y, z'
loop_
 _atom_site_type_symbol
 _atom_site_label
 _atom_site_symmetry_multiplicity
 _atom_site_fract_x
 _atom_site_fract_y
 _atom_site_fract_z
 _atom_site_occupancy
  Bi  Bi0  1  0.801903  0.147720  0.302325  1
  Bi  Bi1  1  0.852280  0.654183  0.154605  1
  Bi  Bi2  1  0.500422  0.345817  0.198097  1
  Bi  Bi3  1  0.654183  0.154605  0.852280  1
  Bi  Bi4  1  0.345817  0.198097  0.500422  1
  Bi  Bi5  1  0.845395  0.499578  0.697675  1
  Bi  Bi6  1  0.198097  0.500422  0.345817  1
  Bi  Bi7  1  0.302325  0.801903  0.147720  1
  Bi  Bi8  1  0.697675  0.845395  0.499578  1
  Bi  Bi9  1  0.147720  0.302325  0.801903  1
  Bi  Bi10  1  0.499578  0.697675  0.845395  1
  Bi  Bi11  1  0.154605  0.852280  0.654183  1
  As  As12  1  0.000000  0.000000  0.000000  1
  O  O13  1  0.605640  0.000000  0.000000  1
  O  O14  1  0.756367  0.375909  0.116235  1
  O  O15  1  0.193277  0.000000  1.000000  1
  O  O16  1  0.619542  0.243633  0.359868  1
  O  O17  1  0.883765  0.259674  0.640132  1
  O  O18  1  0.000000  0.193277  0.000000  1
  O  O19  1  0.000000  0.000000  0.193277  1
  O  O20  1  0.740326  0.624091  0.380458  1
  O  O21  1  0.394360  0.394360  0.394360  1
  O  O22  1  0.624091  0.380458  0.740326  1
  O  O23  1  0.375910  0.116235  0.756367  1
  O  O24  1  0.359868  0.619542  0.243633  1
  O  O25  1  0.640132  0.883765  0.259674  1
  O  O26  1  0.000000  0.000000  0.605640  1
  O  O27  1  0.000000  0.605640  0.000000  1
  O  O28  1  0.243633  0.359868  0.619542  1
  O  O29  1  0.806723  0.806723  0.806723  1
  O  O30  1  0.380458  0.740326  0.624090  1
  O  O31  1  0.116235  0.756367  0.375910  1
  O  O32  1  0.259674  0.640132  0.883765  1
