# generated using pymatgen
data_K4CoMo4O15
_symmetry_space_group_name_H-M   'P 1'
_cell_length_a   10.47964055
_cell_length_b   10.47964055
_cell_length_c   8.31032622
_cell_angle_alpha   90.00000000
_cell_angle_beta   90.00000000
_cell_angle_gamma   120.00000000
_symmetry_Int_Tables_number   1
_chemical_formula_structural   K4CoMo4O15
_chemical_formula_sum   'K8 Co2 Mo8 O30'
_cell_volume   790.39007372
_cell_formula_units_Z   2
loop_
 _symmetry_equiv_pos_site_id
 _symmetry_equiv_pos_as_xyz
  1  'x, y, z'
loop_
 _atom_site_type_symbol
 _atom_site_label
 _atom_site_symmetry_multiplicity
 _atom_site_fract_x
 _atom_site_fract_y
 _atom_site_fract_z
 _atom_site_occupancy
  K  K0  1  0.092489  0.695045  0.140186  1
  K  K1  1  0.602556  0.907511  0.140186  1
  K  K2  1  0.397444  0.092489  0.859814  1
  K  K3  1  0.000000  0.000000  0.000000  1
  K  K4  1  0.907511  0.304955  0.859814  1
  K  K5  1  0.695045  0.602556  0.859814  1
  K  K6  1  0.304955  0.397444  0.140186  1
  K  K7  1  0.000000  0.000000  0.500000  1
  Co  Co8  1  0.333333  0.666667  0.473978  1
  Co  Co9  1  0.666667  0.333333  0.526022  1
  Mo  Mo10  1  0.987438  0.329118  0.365492  1
  Mo  Mo11  1  0.012562  0.670882  0.634508  1
  Mo  Mo12  1  0.341680  0.012562  0.365492  1
  Mo  Mo13  1  0.666667  0.333333  0.148781  1
  Mo  Mo14  1  0.658320  0.987438  0.634508  1
  Mo  Mo15  1  0.333333  0.666667  0.851219  1
  Mo  Mo16  1  0.670882  0.658320  0.365492  1
  Mo  Mo17  1  0.329118  0.341680  0.634508  1
  O  O18  1  0.477278  0.815399  0.653538  1
  O  O19  1  0.661879  0.477278  0.346462  1
  O  O20  1  0.729552  0.990111  0.441917  1
  O  O21  1  0.488987  0.639388  0.346087  1
  O  O22  1  0.176371  0.519290  0.945006  1
  O  O23  1  0.150401  0.511013  0.346087  1
  O  O24  1  0.270448  0.009889  0.558083  1
  O  O25  1  0.360612  0.849599  0.346087  1
  O  O26  1  0.519290  0.342918  0.054994  1
  O  O27  1  0.849599  0.488987  0.653913  1
  O  O28  1  0.338121  0.522722  0.653538  1
  O  O29  1  0.815399  0.338121  0.346462  1
  O  O30  1  0.990111  0.260559  0.558083  1
  O  O31  1  0.739441  0.729552  0.558083  1
  O  O32  1  0.342918  0.823629  0.945006  1
  O  O33  1  0.823629  0.480710  0.054994  1
  O  O34  1  0.220104  0.003895  0.210120  1
  O  O35  1  0.009889  0.739441  0.441917  1
  O  O36  1  0.657082  0.176371  0.054994  1
  O  O37  1  0.779896  0.996105  0.789880  1
  O  O38  1  0.996105  0.216209  0.210120  1
  O  O39  1  0.522722  0.184601  0.346462  1
  O  O40  1  0.511013  0.360612  0.653913  1
  O  O41  1  0.184601  0.661879  0.653538  1
  O  O42  1  0.260559  0.270448  0.441917  1
  O  O43  1  0.639388  0.150401  0.653913  1
  O  O44  1  0.783791  0.779896  0.210120  1
  O  O45  1  0.003895  0.783791  0.789880  1
  O  O46  1  0.480710  0.657082  0.945006  1
  O  O47  1  0.216209  0.220104  0.789880  1
