# generated using pymatgen
data_Ca2WO5
_symmetry_space_group_name_H-M   'P 1'
_cell_length_a   5.46648004
_cell_length_b   7.31445318
_cell_length_c   10.72098011
_cell_angle_alpha   90.00000000
_cell_angle_beta   90.00000000
_cell_angle_gamma   90.00000000
_symmetry_Int_Tables_number   1
_chemical_formula_structural   Ca2WO5
_chemical_formula_sum   'Ca8 W4 O20'
_cell_volume   428.67101701
_cell_formula_units_Z   4
loop_
 _symmetry_equiv_pos_site_id
 _symmetry_equiv_pos_as_xyz
  1  'x, y, z'
loop_
 _atom_site_type_symbol
 _atom_site_label
 _atom_site_symmetry_multiplicity
 _atom_site_fract_x
 _atom_site_fract_y
 _atom_site_fract_z
 _atom_site_occupancy
  Ca  Ca0  1  0.750000  0.010500  0.241844  1
  Ca  Ca1  1  0.250000  0.850603  0.420277  1
  Ca  Ca2  1  0.750000  0.649397  0.920277  1
  Ca  Ca3  1  0.250000  0.489500  0.741844  1
  Ca  Ca4  1  0.750000  0.510500  0.258156  1
  Ca  Ca5  1  0.250000  0.350603  0.079723  1
  Ca  Ca6  1  0.750000  0.149397  0.579723  1
  Ca  Ca7  1  0.250000  0.989500  0.758156  1
  W  W8  1  0.250000  0.814647  0.058506  1
  W  W9  1  0.750000  0.685353  0.558506  1
  W  W10  1  0.250000  0.314647  0.441494  1
  W  W11  1  0.750000  0.185353  0.941494  1
  O  O12  1  0.000000  0.000000  0.000000  1
  O  O13  1  0.500000  0.000000  0.000000  1
  O  O14  1  0.250000  0.931714  0.214976  1
  O  O15  1  0.999220  0.854260  0.597712  1
  O  O16  1  0.500780  0.854260  0.597712  1
  O  O17  1  0.750000  0.768789  0.379356  1
  O  O18  1  0.250000  0.731211  0.879356  1
  O  O19  1  0.499220  0.645740  0.097712  1
  O  O20  1  0.000780  0.645740  0.097712  1
  O  O21  1  0.750000  0.568286  0.714976  1
  O  O22  1  0.000000  0.500000  0.500000  1
  O  O23  1  0.500000  0.500000  0.500000  1
  O  O24  1  0.250000  0.431714  0.285024  1
  O  O25  1  0.999220  0.354260  0.902288  1
  O  O26  1  0.500780  0.354260  0.902288  1
  O  O27  1  0.750000  0.268789  0.120644  1
  O  O28  1  0.250000  0.231211  0.620644  1
  O  O29  1  0.499220  0.145740  0.402288  1
  O  O30  1  0.000780  0.145740  0.402288  1
  O  O31  1  0.750000  0.068286  0.785024  1
