# generated using pymatgen
data_Sr3Mn4O12
_symmetry_space_group_name_H-M   'P 1'
_cell_length_a   5.51515613
_cell_length_b   5.51515613
_cell_length_c   9.31707400
_cell_angle_alpha   90.00000000
_cell_angle_beta   90.00000000
_cell_angle_gamma   120.00000000
_symmetry_Int_Tables_number   1
_chemical_formula_structural   Sr3Mn4O12
_chemical_formula_sum   'Sr3 Mn4 O12'
_cell_volume   245.42895619
_cell_formula_units_Z   1
loop_
 _symmetry_equiv_pos_site_id
 _symmetry_equiv_pos_as_xyz
  1  'x, y, z'
loop_
 _atom_site_type_symbol
 _atom_site_label
 _atom_site_symmetry_multiplicity
 _atom_site_fract_x
 _atom_site_fract_y
 _atom_site_fract_z
 _atom_site_occupancy
  Sr  Sr0  1  0.000000  0.000000  0.500000  1
  Sr  Sr1  1  0.333333  0.666667  0.242895  1
  Sr  Sr2  1  0.666667  0.333333  0.757105  1
  Mn  Mn3  1  0.333333  0.666667  0.887233  1
  Mn  Mn4  1  0.333333  0.666667  0.611705  1
  Mn  Mn5  1  0.666667  0.333333  0.388295  1
  Mn  Mn6  1  0.666667  0.333333  0.112767  1
  O  O7  1  0.000000  0.500000  0.500000  1
  O  O8  1  0.183578  0.816422  0.748184  1
  O  O9  1  0.500000  0.000000  0.500000  1
  O  O10  1  0.183578  0.367155  0.748184  1
  O  O11  1  0.632845  0.816422  0.748184  1
  O  O12  1  0.500000  0.500000  0.000000  1
  O  O13  1  0.500000  0.500000  0.500000  1
  O  O14  1  0.367155  0.183578  0.251816  1
  O  O15  1  0.500000  0.000000  0.000000  1
  O  O16  1  0.816422  0.632845  0.251816  1
  O  O17  1  0.816422  0.183578  0.251816  1
  O  O18  1  0.000000  0.500000  0.000000  1
