# generated using pymatgen
data_LiP2WO7
_symmetry_space_group_name_H-M   'P 1'
_cell_length_a   4.99063417
_cell_length_b   8.62447070
_cell_length_c   7.16093572
_cell_angle_alpha   90.00000000
_cell_angle_beta   109.35170079
_cell_angle_gamma   90.00000000
_symmetry_Int_Tables_number   1
_chemical_formula_structural   LiP2WO7
_chemical_formula_sum   'Li2 P4 W2 O14'
_cell_volume   290.80437626
_cell_formula_units_Z   2
loop_
 _symmetry_equiv_pos_site_id
 _symmetry_equiv_pos_as_xyz
  1  'x, y, z'
loop_
 _atom_site_type_symbol
 _atom_site_label
 _atom_site_symmetry_multiplicity
 _atom_site_fract_x
 _atom_site_fract_y
 _atom_site_fract_z
 _atom_site_occupancy
  Li  Li0  1  0.800072  0.387994  0.324477  1
  Li  Li1  1  0.199928  0.887994  0.675523  1
  P  P2  1  0.205209  0.961647  0.079457  1
  P  P3  1  0.402666  0.566826  0.530387  1
  P  P4  1  0.597334  0.066826  0.469613  1
  P  P5  1  0.794791  0.461647  0.920543  1
  W  W6  1  0.786273  0.747368  0.273426  1
  W  W7  1  0.213727  0.247368  0.726574  1
  O  O8  1  0.375174  0.814435  0.077157  1
  O  O9  1  0.403235  0.085497  0.240186  1
  O  O10  1  0.861525  0.546145  0.118144  1
  O  O11  1  0.939973  0.930635  0.133180  1
  O  O12  1  0.208211  0.709660  0.494719  1
  O  O13  1  0.236860  0.414038  0.505805  1
  O  O14  1  0.598991  0.564909  0.404726  1
  O  O15  1  0.401009  0.064909  0.595274  1
  O  O16  1  0.763140  0.914038  0.494195  1
  O  O17  1  0.791789  0.209660  0.505281  1
  O  O18  1  0.060027  0.430635  0.866820  1
  O  O19  1  0.138475  0.046145  0.881856  1
  O  O20  1  0.596765  0.585497  0.759814  1
  O  O21  1  0.624826  0.314435  0.922843  1
