# generated using pymatgen
data_LiNiBO3
_symmetry_space_group_name_H-M   'P 1'
_cell_length_a   5.11260324
_cell_length_b   5.11260324
_cell_length_c   10.00421535
_cell_angle_alpha   89.18812696
_cell_angle_beta   90.81187304
_cell_angle_gamma   62.29734876
_symmetry_Int_Tables_number   1
_chemical_formula_structural   LiNiBO3
_chemical_formula_sum   'Li4 Ni4 B4 O12'
_cell_volume   231.43553874
_cell_formula_units_Z   4
loop_
 _symmetry_equiv_pos_site_id
 _symmetry_equiv_pos_as_xyz
  1  'x, y, z'
loop_
 _atom_site_type_symbol
 _atom_site_label
 _atom_site_symmetry_multiplicity
 _atom_site_fract_x
 _atom_site_fract_y
 _atom_site_fract_z
 _atom_site_occupancy
  Li  Li0  1  0.648970  0.336668  0.166196  1
  Li  Li1  1  0.663332  0.351030  0.666196  1
  Li  Li2  1  0.345499  0.662719  0.415312  1
  Li  Li3  1  0.337281  0.654501  0.915312  1
  Ni  Ni4  1  0.979683  0.679935  0.630125  1
  Ni  Ni5  1  0.670430  0.983035  0.881186  1
  Ni  Ni6  1  0.320065  0.020317  0.130125  1
  Ni  Ni7  1  0.016965  0.329570  0.381186  1
  B  B8  1  0.999006  0.666323  0.126788  1
  B  B9  1  0.660507  0.999237  0.375973  1
  B  B10  1  0.333677  0.000994  0.626788  1
  B  B11  1  0.000763  0.339493  0.875973  1
  O  O12  1  0.026854  0.591223  0.837888  1
  O  O13  1  0.911436  0.749669  0.422440  1
  O  O14  1  0.742583  0.922679  0.089565  1
  O  O15  1  0.581476  0.022023  0.672843  1
  O  O16  1  0.730098  0.344594  0.865908  1
  O  O17  1  0.655406  0.269902  0.365908  1
  O  O18  1  0.346089  0.727656  0.614626  1
  O  O19  1  0.272344  0.653911  0.114626  1
  O  O20  1  0.408777  0.973146  0.337888  1
  O  O21  1  0.250331  0.088564  0.922440  1
  O  O22  1  0.077321  0.257417  0.589565  1
  O  O23  1  0.977977  0.418524  0.172843  1
