# generated using pymatgen
data_LiAgF2
_symmetry_space_group_name_H-M   'P 1'
_cell_length_a   2.96382208
_cell_length_b   6.11646934
_cell_length_c   11.28077172
_cell_angle_alpha   90.00000000
_cell_angle_beta   90.00000000
_cell_angle_gamma   90.00000000
_symmetry_Int_Tables_number   1
_chemical_formula_structural   LiAgF2
_chemical_formula_sum   'Li4 Ag4 F8'
_cell_volume   204.49926106
_cell_formula_units_Z   4
loop_
 _symmetry_equiv_pos_site_id
 _symmetry_equiv_pos_as_xyz
  1  'x, y, z'
loop_
 _atom_site_type_symbol
 _atom_site_label
 _atom_site_symmetry_multiplicity
 _atom_site_fract_x
 _atom_site_fract_y
 _atom_site_fract_z
 _atom_site_occupancy
  Li  Li0  1  0.787551  0.239620  0.106554  1
  Li  Li1  1  0.287551  0.260380  0.893446  1
  Li  Li2  1  0.212449  0.739620  0.393446  1
  Li  Li3  1  0.712449  0.760380  0.606554  1
  Ag  Ag4  1  0.164389  0.239776  0.617627  1
  Ag  Ag5  1  0.664389  0.260224  0.382373  1
  Ag  Ag6  1  0.835611  0.739776  0.882373  1
  Ag  Ag7  1  0.335611  0.760224  0.117627  1
  F  F8  1  0.786054  0.070468  0.956764  1
  F  F9  1  0.284412  0.091940  0.197056  1
  F  F10  1  0.784412  0.408060  0.802944  1
  F  F11  1  0.286054  0.429532  0.043236  1
  F  F12  1  0.213946  0.570468  0.543236  1
  F  F13  1  0.715588  0.591940  0.302944  1
  F  F14  1  0.215588  0.908060  0.697056  1
  F  F15  1  0.713946  0.929532  0.456764  1
