# generated using pymatgen
data_FeSn3(PO4)6
_symmetry_space_group_name_H-M   'P 1'
_cell_length_a   9.04291307
_cell_length_b   9.04291307
_cell_length_c   9.04291307
_cell_angle_alpha   58.25472485
_cell_angle_beta   58.25472485
_cell_angle_gamma   58.25472485
_symmetry_Int_Tables_number   1
_chemical_formula_structural   FeSn3(PO4)6
_chemical_formula_sum   'Fe1 Sn3 P6 O24'
_cell_volume   501.98500765
_cell_formula_units_Z   1
loop_
 _symmetry_equiv_pos_site_id
 _symmetry_equiv_pos_as_xyz
  1  'x, y, z'
loop_
 _atom_site_type_symbol
 _atom_site_label
 _atom_site_symmetry_multiplicity
 _atom_site_fract_x
 _atom_site_fract_y
 _atom_site_fract_z
 _atom_site_occupancy
  Fe  Fe0  1  0.144310  0.144310  0.144310  1
  Sn  Sn1  1  0.855564  0.855564  0.855564  1
  Sn  Sn2  1  0.644061  0.644061  0.644061  1
  Sn  Sn3  1  0.356949  0.356949  0.356949  1
  P  P4  1  0.252860  0.534575  0.961323  1
  P  P5  1  0.961323  0.252860  0.534575  1
  P  P6  1  0.534575  0.961323  0.252860  1
  P  P7  1  0.456608  0.037082  0.755293  1
  P  P8  1  0.037082  0.755293  0.456608  1
  P  P9  1  0.755293  0.456608  0.037082  1
  O  O10  1  0.729891  0.482523  0.868848  1
  O  O11  1  0.482523  0.868848  0.729891  1
  O  O12  1  0.080144  0.710213  0.938837  1
  O  O13  1  0.868848  0.729891  0.482523  1
  O  O14  1  0.423214  0.555820  0.783808  1
  O  O15  1  0.221848  0.366204  0.994743  1
  O  O16  1  0.938837  0.080144  0.710213  1
  O  O17  1  0.783808  0.423214  0.555820  1
  O  O18  1  0.555820  0.783808  0.423214  1
  O  O19  1  0.625212  0.012813  0.780259  1
  O  O20  1  0.283531  0.062119  0.927706  1
  O  O21  1  0.012813  0.780259  0.625212  1
  O  O22  1  0.994743  0.221848  0.366204  1
  O  O23  1  0.710213  0.938837  0.080144  1
  O  O24  1  0.366204  0.994743  0.221848  1
  O  O25  1  0.425637  0.219137  0.590008  1
  O  O26  1  0.219137  0.590008  0.425637  1
  O  O27  1  0.062119  0.927706  0.283531  1
  O  O28  1  0.780259  0.625212  0.012813  1
  O  O29  1  0.590008  0.425637  0.219137  1
  O  O30  1  0.127152  0.281286  0.510424  1
  O  O31  1  0.927706  0.283531  0.062119  1
  O  O32  1  0.510424  0.127152  0.281286  1
  O  O33  1  0.281286  0.510424  0.127152  1
