# generated using pymatgen
data_LiV2P2HO9
_symmetry_space_group_name_H-M   'P 1'
_cell_length_a   6.47820382
_cell_length_b   6.77962147
_cell_length_c   8.75582528
_cell_angle_alpha   90.00000000
_cell_angle_beta   108.57246516
_cell_angle_gamma   90.00000000
_symmetry_Int_Tables_number   1
_chemical_formula_structural   LiV2P2HO9
_chemical_formula_sum   'Li2 V4 P4 H2 O18'
_cell_volume   364.52687571
_cell_formula_units_Z   2
loop_
 _symmetry_equiv_pos_site_id
 _symmetry_equiv_pos_as_xyz
  1  'x, y, z'
loop_
 _atom_site_type_symbol
 _atom_site_label
 _atom_site_symmetry_multiplicity
 _atom_site_fract_x
 _atom_site_fract_y
 _atom_site_fract_z
 _atom_site_occupancy
  Li  Li0  1  0.097992  0.250000  0.831763  1
  Li  Li1  1  0.902008  0.750000  0.168237  1
  V  V2  1  0.477488  0.250000  0.292347  1
  V  V3  1  0.522512  0.750000  0.707653  1
  V  V4  1  0.500000  0.500000  0.000000  1
  V  V5  1  0.500000  0.000000  0.000000  1
  P  P6  1  0.921433  0.250000  0.198516  1
  P  P7  1  0.584857  0.750000  0.341338  1
  P  P8  1  0.415143  0.250000  0.658662  1
  P  P9  1  0.078567  0.750000  0.801484  1
  H  H10  1  0.039374  0.750000  0.536594  1
  H  H11  1  0.960626  0.250000  0.463406  1
  O  O12  1  0.831255  0.439281  0.104499  1
  O  O13  1  0.831255  0.060719  0.104499  1
  O  O14  1  0.833230  0.750000  0.381852  1
  O  O15  1  0.834713  0.250000  0.354468  1
  O  O16  1  0.833599  0.750000  0.737295  1
  O  O17  1  0.411364  0.250000  0.044443  1
  O  O18  1  0.488620  0.560451  0.236100  1
  O  O19  1  0.488620  0.939549  0.236100  1
  O  O20  1  0.517151  0.250000  0.522605  1
  O  O21  1  0.482849  0.750000  0.477395  1
  O  O22  1  0.511380  0.439549  0.763900  1
  O  O23  1  0.511380  0.060451  0.763900  1
  O  O24  1  0.588636  0.750000  0.955557  1
  O  O25  1  0.166401  0.250000  0.262705  1
  O  O26  1  0.165287  0.750000  0.645532  1
  O  O27  1  0.166770  0.250000  0.618148  1
  O  O28  1  0.168745  0.939281  0.895501  1
  O  O29  1  0.168745  0.560719  0.895501  1
