# generated using pymatgen
data_Li3Fe3NiO8
_symmetry_space_group_name_H-M   'P 1'
_cell_length_a   5.91526314
_cell_length_b   5.91526314
_cell_length_c   5.97447394
_cell_angle_alpha   60.10648773
_cell_angle_beta   119.89351227
_cell_angle_gamma   119.66280342
_symmetry_Int_Tables_number   1
_chemical_formula_structural   Li3Fe3NiO8
_chemical_formula_sum   'Li3 Fe3 Ni1 O8'
_cell_volume   148.43217975
_cell_formula_units_Z   1
loop_
 _symmetry_equiv_pos_site_id
 _symmetry_equiv_pos_as_xyz
  1  'x, y, z'
loop_
 _atom_site_type_symbol
 _atom_site_label
 _atom_site_symmetry_multiplicity
 _atom_site_fract_x
 _atom_site_fract_y
 _atom_site_fract_z
 _atom_site_occupancy
  Li  Li0  1  0.000000  0.500000  0.500000  1
  Li  Li1  1  0.500000  0.000000  0.500000  1
  Li  Li2  1  0.500000  0.500000  0.500000  1
  Fe  Fe3  1  0.000000  0.500000  0.000000  1
  Fe  Fe4  1  0.500000  0.000000  0.000000  1
  Fe  Fe5  1  0.500000  0.500000  0.000000  1
  Ni  Ni6  1  0.000000  0.000000  0.000000  1
  O  O7  1  0.722177  0.734948  0.217925  1
  O  O8  1  0.733213  0.266787  0.223377  1
  O  O9  1  0.244297  0.755703  0.223571  1
  O  O10  1  0.265052  0.277823  0.217925  1
  O  O11  1  0.734948  0.722177  0.782075  1
  O  O12  1  0.755703  0.244297  0.776429  1
  O  O13  1  0.266787  0.733213  0.776623  1
  O  O14  1  0.277823  0.265052  0.782075  1
