# generated using pymatgen
data_Li2Cr2O7
_symmetry_space_group_name_H-M   'P 1'
_cell_length_a   6.53780683
_cell_length_b   7.22374666
_cell_length_c   7.36213381
_cell_angle_alpha   116.14463069
_cell_angle_beta   90.10748220
_cell_angle_gamma   109.15766143
_symmetry_Int_Tables_number   1
_chemical_formula_structural   Li2Cr2O7
_chemical_formula_sum   'Li4 Cr4 O14'
_cell_volume   290.40264781
_cell_formula_units_Z   2
loop_
 _symmetry_equiv_pos_site_id
 _symmetry_equiv_pos_as_xyz
  1  'x, y, z'
loop_
 _atom_site_type_symbol
 _atom_site_label
 _atom_site_symmetry_multiplicity
 _atom_site_fract_x
 _atom_site_fract_y
 _atom_site_fract_z
 _atom_site_occupancy
  Li  Li0  1  0.702073  0.113805  0.828438  1
  Li  Li1  1  0.295471  0.727619  0.699823  1
  Li  Li2  1  0.704529  0.272381  0.300177  1
  Li  Li3  1  0.297927  0.886195  0.171562  1
  Cr  Cr4  1  0.783736  0.680749  0.827601  1
  Cr  Cr5  1  0.798529  0.713254  0.385287  1
  Cr  Cr6  1  0.201471  0.286746  0.614713  1
  Cr  Cr7  1  0.216264  0.319251  0.172399  1
  O  O8  1  0.649803  0.429398  0.949567  1
  O  O9  1  0.994102  0.731488  0.986518  1
  O  O10  1  0.903302  0.716907  0.627231  1
  O  O11  1  0.622349  0.860018  0.733806  1
  O  O12  1  0.314559  0.539856  0.580361  1
  O  O13  1  0.373275  0.118277  0.762752  1
  O  O14  1  0.983394  0.197867  0.716326  1
  O  O15  1  0.016606  0.802133  0.283674  1
  O  O16  1  0.626725  0.881723  0.237248  1
  O  O17  1  0.685441  0.460144  0.419639  1
  O  O18  1  0.377651  0.139982  0.266194  1
  O  O19  1  0.096698  0.283093  0.372769  1
  O  O20  1  0.005898  0.268512  0.013482  1
  O  O21  1  0.350197  0.570602  0.050433  1
