# generated using pymatgen
data_LiCu5(PO4)2
_symmetry_space_group_name_H-M   'P 1'
_cell_length_a   5.50968465
_cell_length_b   6.26006024
_cell_length_c   10.46439894
_cell_angle_alpha   90.03162336
_cell_angle_beta   90.10566293
_cell_angle_gamma   90.42724572
_symmetry_Int_Tables_number   1
_chemical_formula_structural   LiCu5(PO4)2
_chemical_formula_sum   'Li2 Cu10 P4 O16'
_cell_volume   360.91643610
_cell_formula_units_Z   2
loop_
 _symmetry_equiv_pos_site_id
 _symmetry_equiv_pos_as_xyz
  1  'x, y, z'
loop_
 _atom_site_type_symbol
 _atom_site_label
 _atom_site_symmetry_multiplicity
 _atom_site_fract_x
 _atom_site_fract_y
 _atom_site_fract_z
 _atom_site_occupancy
  Li  Li0  1  0.671562  0.247814  0.496022  1
  Li  Li1  1  0.325848  0.251245  0.248665  1
  Cu  Cu2  1  0.811301  0.002932  0.749251  1
  Cu  Cu3  1  0.813973  0.995625  0.245768  1
  Cu  Cu4  1  0.664996  0.243180  0.002472  1
  Cu  Cu5  1  0.345824  0.255340  0.750766  1
  Cu  Cu6  1  0.184590  0.504327  0.998835  1
  Cu  Cu7  1  0.188292  0.498276  0.496326  1
  Cu  Cu8  1  0.339675  0.743893  0.747903  1
  Cu  Cu9  1  0.334916  0.742890  0.246258  1
  Cu  Cu10  1  0.665161  0.757038  0.494604  1
  Cu  Cu11  1  0.660443  0.755626  0.999971  1
  P  P12  1  0.174327  0.003174  0.002685  1
  P  P13  1  0.172695  0.007997  0.497125  1
  P  P14  1  0.825953  0.490988  0.253187  1
  P  P15  1  0.826245  0.498294  0.746243  1
  O  O16  1  0.177579  0.005816  0.645748  1
  O  O17  1  0.904917  0.014679  0.449062  1
  O  O18  1  0.181823  0.008375  0.150928  1
  O  O19  1  0.910801  0.999599  0.949440  1
  O  O20  1  0.317744  0.203713  0.442486  1
  O  O21  1  0.305450  0.207544  0.949326  1
  O  O22  1  0.677975  0.292595  0.203305  1
  O  O23  1  0.695613  0.297657  0.687245  1
  O  O24  1  0.822931  0.494867  0.894648  1
  O  O25  1  0.091409  0.501723  0.695474  1
  O  O26  1  0.816723  0.491211  0.401599  1
  O  O27  1  0.091999  0.482961  0.203959  1
  O  O28  1  0.694903  0.704119  0.696421  1
  O  O29  1  0.699947  0.697120  0.200065  1
  O  O30  1  0.299325  0.799976  0.446227  1
  O  O31  1  0.305059  0.799407  0.950575  1
