# generated using pymatgen
data_Mn2O3F
_symmetry_space_group_name_H-M   'P 1'
_cell_length_a   7.38926645
_cell_length_b   7.38926645
_cell_length_c   6.33003475
_cell_angle_alpha   90.00000000
_cell_angle_beta   90.00000000
_cell_angle_gamma   131.73551092
_symmetry_Int_Tables_number   1
_chemical_formula_structural   Mn2O3F
_chemical_formula_sum   'Mn8 O12 F4'
_cell_volume   257.91640989
_cell_formula_units_Z   4
loop_
 _symmetry_equiv_pos_site_id
 _symmetry_equiv_pos_as_xyz
  1  'x, y, z'
loop_
 _atom_site_type_symbol
 _atom_site_label
 _atom_site_symmetry_multiplicity
 _atom_site_fract_x
 _atom_site_fract_y
 _atom_site_fract_z
 _atom_site_occupancy
  Mn  Mn0  1  0.762070  0.762070  0.000000  1
  Mn  Mn1  1  0.237930  0.237930  0.000000  1
  Mn  Mn2  1  0.757359  0.242641  1.000000  1
  Mn  Mn3  1  0.500000  0.500000  0.500000  1
  Mn  Mn4  1  0.242641  0.757359  0.000000  1
  Mn  Mn5  1  0.000000  0.000000  0.500000  1
  Mn  Mn6  1  0.000000  0.500000  0.500000  1
  Mn  Mn7  1  0.500000  0.000000  0.500000  1
  O  O8  1  0.908220  0.091780  1.000000  1
  O  O9  1  0.751092  0.751092  0.694623  1
  O  O10  1  0.248908  0.248908  0.694623  1
  O  O11  1  0.500000  0.000000  0.806268  1
  O  O12  1  0.751092  0.751092  0.305377  1
  O  O13  1  0.248908  0.248908  0.305377  1
  O  O14  1  0.000000  0.500000  0.806268  1
  O  O15  1  0.091780  0.908220  1.000000  1
  O  O16  1  0.344563  0.655437  0.500000  1
  O  O17  1  0.655437  0.344563  0.500000  1
  O  O18  1  0.500000  0.000000  0.193732  1
  O  O19  1  0.000000  0.500000  0.193732  1
  F  F20  1  0.406613  0.593387  0.000000  1
  F  F21  1  0.858849  0.141151  0.500000  1
  F  F22  1  0.593387  0.406613  0.000000  1
  F  F23  1  0.141151  0.858849  0.500000  1
