# generated using pymatgen
data_Dy2Ge2O7
_symmetry_space_group_name_H-M   'P 1'
_cell_length_a   5.29133970
_cell_length_b   8.31430100
_cell_length_c   13.95155959
_cell_angle_alpha   90.00000000
_cell_angle_beta   90.00000000
_cell_angle_gamma   90.00000000
_symmetry_Int_Tables_number   1
_chemical_formula_structural   Dy2Ge2O7
_chemical_formula_sum   'Dy8 Ge8 O28'
_cell_volume   613.78199633
_cell_formula_units_Z   4
loop_
 _symmetry_equiv_pos_site_id
 _symmetry_equiv_pos_as_xyz
  1  'x, y, z'
loop_
 _atom_site_type_symbol
 _atom_site_label
 _atom_site_symmetry_multiplicity
 _atom_site_fract_x
 _atom_site_fract_y
 _atom_site_fract_z
 _atom_site_occupancy
  Dy  Dy0  1  0.336906  0.514568  0.875392  1
  Dy  Dy1  1  0.336906  0.985432  0.875392  1
  Dy  Dy2  1  0.836906  0.485432  0.624608  1
  Dy  Dy3  1  0.836906  0.014568  0.624608  1
  Dy  Dy4  1  0.163094  0.514568  0.375392  1
  Dy  Dy5  1  0.163094  0.985432  0.375392  1
  Dy  Dy6  1  0.663094  0.485432  0.124608  1
  Dy  Dy7  1  0.663094  0.014568  0.124608  1
  Ge  Ge8  1  0.869407  0.250000  0.950700  1
  Ge  Ge9  1  0.867698  0.750000  0.813456  1
  Ge  Ge10  1  0.367698  0.250000  0.686544  1
  Ge  Ge11  1  0.369407  0.750000  0.549300  1
  Ge  Ge12  1  0.630593  0.250000  0.450700  1
  Ge  Ge13  1  0.632302  0.750000  0.313456  1
  Ge  Ge14  1  0.132302  0.250000  0.186544  1
  Ge  Ge15  1  0.130593  0.750000  0.049300  1
  O  O16  1  0.694402  0.071674  0.950107  1
  O  O17  1  0.694402  0.428326  0.950107  1
  O  O18  1  0.078243  0.750000  0.917421  1
  O  O19  1  0.164436  0.250000  0.892408  1
  O  O20  1  0.548802  0.750000  0.844832  1
  O  O21  1  0.994786  0.572148  0.763695  1
  O  O22  1  0.994786  0.927852  0.763695  1
  O  O23  1  0.494786  0.427852  0.736305  1
  O  O24  1  0.494786  0.072148  0.736305  1
  O  O25  1  0.048802  0.250000  0.655168  1
  O  O26  1  0.664436  0.750000  0.607592  1
  O  O27  1  0.578243  0.250000  0.582579  1
  O  O28  1  0.194402  0.928326  0.549893  1
  O  O29  1  0.194402  0.571674  0.549893  1
  O  O30  1  0.805598  0.071674  0.450107  1
  O  O31  1  0.805598  0.428326  0.450107  1
  O  O32  1  0.421757  0.750000  0.417421  1
  O  O33  1  0.335564  0.250000  0.392408  1
  O  O34  1  0.951198  0.750000  0.344832  1
  O  O35  1  0.505214  0.572148  0.263695  1
  O  O36  1  0.505214  0.927852  0.263695  1
  O  O37  1  0.005214  0.427852  0.236305  1
  O  O38  1  0.005214  0.072148  0.236305  1
  O  O39  1  0.451198  0.250000  0.155168  1
  O  O40  1  0.835564  0.750000  0.107592  1
  O  O41  1  0.921757  0.250000  0.082579  1
  O  O42  1  0.305598  0.928326  0.049893  1
  O  O43  1  0.305598  0.571674  0.049893  1
