# generated using pymatgen
data_Rb6Co2O7
_symmetry_space_group_name_H-M   'P 1'
_cell_length_a   9.68276319
_cell_length_b   9.68276319
_cell_length_c   10.01862695
_cell_angle_alpha   90.00000000
_cell_angle_beta   90.00000000
_cell_angle_gamma   120.00000000
_symmetry_Int_Tables_number   1
_chemical_formula_structural   Rb6Co2O7
_chemical_formula_sum   'Rb12 Co4 O14'
_cell_volume   813.46235200
_cell_formula_units_Z   2
loop_
 _symmetry_equiv_pos_site_id
 _symmetry_equiv_pos_as_xyz
  1  'x, y, z'
loop_
 _atom_site_type_symbol
 _atom_site_label
 _atom_site_symmetry_multiplicity
 _atom_site_fract_x
 _atom_site_fract_y
 _atom_site_fract_z
 _atom_site_occupancy
  Rb  Rb0  1  0.338543  0.968220  0.875807  1
  Rb  Rb1  1  0.352054  0.962223  0.373111  1
  Rb  Rb2  1  0.031780  0.370324  0.875807  1
  Rb  Rb3  1  0.037777  0.389831  0.373111  1
  Rb  Rb4  1  0.370324  0.338543  0.124193  1
  Rb  Rb5  1  0.389831  0.352054  0.626889  1
  Rb  Rb6  1  0.610169  0.647946  0.373111  1
  Rb  Rb7  1  0.629676  0.661457  0.875807  1
  Rb  Rb8  1  0.962223  0.610169  0.626889  1
  Rb  Rb9  1  0.968220  0.629676  0.124193  1
  Rb  Rb10  1  0.647946  0.037777  0.626889  1
  Rb  Rb11  1  0.661457  0.031780  0.124193  1
  Co  Co12  1  0.333333  0.666667  0.684273  1
  Co  Co13  1  0.333333  0.666667  0.064618  1
  Co  Co14  1  0.666667  0.333333  0.315727  1
  Co  Co15  1  0.666667  0.333333  0.935382  1
  O  O16  1  0.169715  0.480126  0.121458  1
  O  O17  1  0.174865  0.475693  0.627283  1
  O  O18  1  0.300828  0.825135  0.627283  1
  O  O19  1  0.310411  0.830285  0.121458  1
  O  O20  1  0.333333  0.666667  0.873401  1
  O  O21  1  0.519874  0.689589  0.121458  1
  O  O22  1  0.524307  0.699172  0.627283  1
  O  O23  1  0.475693  0.300828  0.372717  1
  O  O24  1  0.480126  0.310411  0.878542  1
  O  O25  1  0.666667  0.333333  0.126599  1
  O  O26  1  0.689589  0.169715  0.878542  1
  O  O27  1  0.699172  0.174865  0.372717  1
  O  O28  1  0.825135  0.524307  0.372717  1
  O  O29  1  0.830285  0.519874  0.878542  1
