# generated using pymatgen
data_CuSb3(PO4)6
_symmetry_space_group_name_H-M   'P 1'
_cell_length_a   8.87639082
_cell_length_b   8.87639082
_cell_length_c   8.87639082
_cell_angle_alpha   57.96477073
_cell_angle_beta   57.96477073
_cell_angle_gamma   57.96477073
_symmetry_Int_Tables_number   1
_chemical_formula_structural   CuSb3(PO4)6
_chemical_formula_sum   'Cu1 Sb3 P6 O24'
_cell_volume   471.43982124
_cell_formula_units_Z   1
loop_
 _symmetry_equiv_pos_site_id
 _symmetry_equiv_pos_as_xyz
  1  'x, y, z'
loop_
 _atom_site_type_symbol
 _atom_site_label
 _atom_site_symmetry_multiplicity
 _atom_site_fract_x
 _atom_site_fract_y
 _atom_site_fract_z
 _atom_site_occupancy
  Cu  Cu0  1  0.144813  0.144813  0.144813  1
  Sb  Sb1  1  0.856855  0.856855  0.856855  1
  Sb  Sb2  1  0.643500  0.643500  0.643500  1
  Sb  Sb3  1  0.356625  0.356625  0.356625  1
  P  P4  1  0.248439  0.532303  0.963978  1
  P  P5  1  0.963978  0.248439  0.532303  1
  P  P6  1  0.532303  0.963978  0.248439  1
  P  P7  1  0.456853  0.039410  0.755464  1
  P  P8  1  0.039410  0.755464  0.456853  1
  P  P9  1  0.755464  0.456853  0.039410  1
  O  O10  1  0.723294  0.487222  0.867292  1
  O  O11  1  0.487222  0.867292  0.723294  1
  O  O12  1  0.076029  0.720057  0.940786  1
  O  O13  1  0.867292  0.723294  0.487222  1
  O  O14  1  0.424067  0.560378  0.781485  1
  O  O15  1  0.225526  0.365178  0.985787  1
  O  O16  1  0.940786  0.076029  0.720057  1
  O  O17  1  0.781485  0.424067  0.560378  1
  O  O18  1  0.560378  0.781485  0.424067  1
  O  O19  1  0.635827  0.014118  0.771935  1
  O  O20  1  0.280035  0.057615  0.926469  1
  O  O21  1  0.014118  0.771935  0.635827  1
  O  O22  1  0.985787  0.225526  0.365178  1
  O  O23  1  0.720057  0.940786  0.076029  1
  O  O24  1  0.365178  0.985787  0.225526  1
  O  O25  1  0.443797  0.217800  0.573320  1
  O  O26  1  0.217800  0.573320  0.443797  1
  O  O27  1  0.057615  0.926469  0.280035  1
  O  O28  1  0.771935  0.635827  0.014118  1
  O  O29  1  0.573320  0.443797  0.217800  1
  O  O30  1  0.132913  0.274995  0.515836  1
  O  O31  1  0.926469  0.280035  0.057615  1
  O  O32  1  0.515836  0.132913  0.274995  1
  O  O33  1  0.274995  0.515836  0.132913  1
