# generated using pymatgen
data_LuNiSn2
_symmetry_space_group_name_H-M   'P 1'
_cell_length_a   4.40883197
_cell_length_b   14.42335740
_cell_length_c   16.08583539
_cell_angle_alpha   90.00000000
_cell_angle_beta   90.00000000
_cell_angle_gamma   90.00000000
_symmetry_Int_Tables_number   1
_chemical_formula_structural   LuNiSn2
_chemical_formula_sum   'Lu12 Ni12 Sn24'
_cell_volume   1022.90083363
_cell_formula_units_Z   12
loop_
 _symmetry_equiv_pos_site_id
 _symmetry_equiv_pos_as_xyz
  1  'x, y, z'
loop_
 _atom_site_type_symbol
 _atom_site_label
 _atom_site_symmetry_multiplicity
 _atom_site_fract_x
 _atom_site_fract_y
 _atom_site_fract_z
 _atom_site_occupancy
  Lu  Lu0  1  0.250000  0.401426  0.648413  1
  Lu  Lu1  1  0.750000  0.598574  0.351587  1
  Lu  Lu2  1  0.750000  0.901426  0.851587  1
  Lu  Lu3  1  0.250000  0.098574  0.148413  1
  Lu  Lu4  1  0.250000  0.278159  0.870901  1
  Lu  Lu5  1  0.750000  0.721841  0.129099  1
  Lu  Lu6  1  0.750000  0.778159  0.629099  1
  Lu  Lu7  1  0.250000  0.221841  0.370901  1
  Lu  Lu8  1  0.250000  0.969620  0.349314  1
  Lu  Lu9  1  0.750000  0.030380  0.650686  1
  Lu  Lu10  1  0.750000  0.469620  0.150686  1
  Lu  Lu11  1  0.250000  0.530380  0.849314  1
  Ni  Ni12  1  0.750000  0.238981  0.188569  1
  Ni  Ni13  1  0.250000  0.049926  0.800282  1
  Ni  Ni14  1  0.750000  0.950074  0.199718  1
  Ni  Ni15  1  0.750000  0.549926  0.699718  1
  Ni  Ni16  1  0.250000  0.450074  0.300282  1
  Ni  Ni17  1  0.250000  0.738981  0.311431  1
  Ni  Ni18  1  0.750000  0.261019  0.688569  1
  Ni  Ni19  1  0.250000  0.761019  0.811431  1
  Ni  Ni20  1  0.250000  0.607017  0.053815  1
  Ni  Ni21  1  0.750000  0.392983  0.946185  1
  Ni  Ni22  1  0.750000  0.107017  0.446185  1
  Ni  Ni23  1  0.250000  0.892983  0.553815  1
  Sn  Sn24  1  0.250000  0.899293  0.715051  1
  Sn  Sn25  1  0.750000  0.100707  0.284949  1
  Sn  Sn26  1  0.750000  0.399293  0.784949  1
  Sn  Sn27  1  0.250000  0.600707  0.215051  1
  Sn  Sn28  1  0.250000  0.766878  0.972425  1
  Sn  Sn29  1  0.250000  0.863675  0.176360  1
  Sn  Sn30  1  0.750000  0.233122  0.027575  1
  Sn  Sn31  1  0.750000  0.266878  0.527575  1
  Sn  Sn32  1  0.250000  0.733122  0.472425  1
  Sn  Sn33  1  0.250000  0.636325  0.676360  1
  Sn  Sn34  1  0.750000  0.363675  0.323640  1
  Sn  Sn35  1  0.750000  0.136325  0.823640  1
  Sn  Sn36  1  0.250000  0.319583  0.182115  1
  Sn  Sn37  1  0.750000  0.680417  0.817885  1
  Sn  Sn38  1  0.750000  0.819583  0.317885  1
  Sn  Sn39  1  0.250000  0.180417  0.682115  1
  Sn  Sn40  1  0.250000  0.443490  0.458529  1
  Sn  Sn41  1  0.750000  0.556510  0.541471  1
  Sn  Sn42  1  0.750000  0.943490  0.041471  1
  Sn  Sn43  1  0.250000  0.056510  0.958529  1
  Sn  Sn44  1  0.250000  0.421721  0.020300  1
  Sn  Sn45  1  0.750000  0.578279  0.979700  1
  Sn  Sn46  1  0.750000  0.921721  0.479700  1
  Sn  Sn47  1  0.250000  0.078279  0.520300  1
