# generated using pymatgen
data_LiLaNb4O12
_symmetry_space_group_name_H-M   'P 1'
_cell_length_a   9.79695524
_cell_length_b   9.79695524
_cell_length_c   11.30451185
_cell_angle_alpha   72.89787167
_cell_angle_beta   107.10212833
_cell_angle_gamma   132.03022688
_symmetry_Int_Tables_number   1
_chemical_formula_structural   LiLaNb4O12
_chemical_formula_sum   'Li3 La3 Nb12 O36'
_cell_volume   763.04865916
_cell_formula_units_Z   3
loop_
 _symmetry_equiv_pos_site_id
 _symmetry_equiv_pos_as_xyz
  1  'x, y, z'
loop_
 _atom_site_type_symbol
 _atom_site_label
 _atom_site_symmetry_multiplicity
 _atom_site_fract_x
 _atom_site_fract_y
 _atom_site_fract_z
 _atom_site_occupancy
  Li  Li0  1  0.166409  0.833591  0.332744  1
  Li  Li1  1  0.666874  0.333126  0.833675  1
  Li  Li2  1  0.832995  0.167005  0.666458  1
  La  La3  1  0.333933  0.666067  0.666888  1
  La  La4  1  0.666257  0.333743  0.332195  1
  La  La5  1  0.999824  0.000176  0.001034  1
  Nb  Nb6  1  0.586526  0.913750  0.413768  1
  Nb  Nb7  1  0.745818  0.751164  0.250760  1
  Nb  Nb8  1  0.579987  0.915279  0.920628  1
  Nb  Nb9  1  0.084721  0.420013  0.920628  1
  Nb  Nb10  1  0.751456  0.748366  0.748811  1
  Nb  Nb11  1  0.917705  0.581819  0.081699  1
  Nb  Nb12  1  0.915236  0.586625  0.584231  1
  Nb  Nb13  1  0.248836  0.254182  0.250760  1
  Nb  Nb14  1  0.086250  0.413474  0.413768  1
  Nb  Nb15  1  0.413375  0.084764  0.584231  1
  Nb  Nb16  1  0.418181  0.082295  0.081699  1
  Nb  Nb17  1  0.251634  0.248544  0.748811  1
  O  O18  1  0.683805  0.837666  0.076923  1
  O  O19  1  0.668507  0.837120  0.831446  1
  O  O20  1  0.666809  0.833218  0.333185  1
  O  O21  1  0.504941  0.991934  0.743333  1
  O  O22  1  0.653004  0.835027  0.590353  1
  O  O23  1  0.175710  0.824290  0.580864  1
  O  O24  1  0.157953  0.842047  0.086247  1
  O  O25  1  0.335573  0.664427  0.903365  1
  O  O26  1  0.327091  0.672909  0.428849  1
  O  O27  1  0.491978  0.508022  0.750828  1
  O  O28  1  0.006332  0.993668  0.238470  1
  O  O29  1  0.164973  0.346996  0.590353  1
  O  O30  1  0.008066  0.495059  0.743333  1
  O  O31  1  0.834204  0.678336  0.922076  1
  O  O32  1  0.166782  0.333191  0.333185  1
  O  O33  1  0.162880  0.331493  0.831446  1
  O  O34  1  0.836495  0.667961  0.167718  1
  O  O35  1  0.999354  0.499382  0.500989  1
  O  O36  1  0.987244  0.501797  0.258176  1
  O  O37  1  0.835480  0.653772  0.409134  1
  O  O38  1  0.162334  0.316195  0.076923  1
  O  O39  1  0.825463  0.651811  0.673926  1
  O  O40  1  0.985240  0.492228  0.992759  1
  O  O41  1  0.510114  0.489886  0.250352  1
  O  O42  1  0.663876  0.336124  0.093530  1
  O  O43  1  0.823625  0.176375  0.420757  1
  O  O44  1  0.840665  0.159335  0.911051  1
  O  O45  1  0.672118  0.327882  0.575066  1
  O  O46  1  0.995044  0.004956  0.760546  1
  O  O47  1  0.507772  0.014760  0.992759  1
  O  O48  1  0.348189  0.174537  0.673926  1
  O  O49  1  0.346228  0.164520  0.409134  1
  O  O50  1  0.498203  0.012756  0.258176  1
  O  O51  1  0.500618  0.000646  0.500989  1
  O  O52  1  0.332039  0.163505  0.167718  1
  O  O53  1  0.321664  0.165796  0.922076  1
