# generated using pymatgen
data_Sm5Co2
_symmetry_space_group_name_H-M   'P 1'
_cell_length_a   8.83270532
_cell_length_b   8.83270532
_cell_length_c   7.01453831
_cell_angle_alpha   83.95721805
_cell_angle_beta   96.04278195
_cell_angle_gamma   137.29559968
_symmetry_Int_Tables_number   1
_chemical_formula_structural   Sm5Co2
_chemical_formula_sum   'Sm10 Co4'
_cell_volume   368.77596422
_cell_formula_units_Z   2
loop_
 _symmetry_equiv_pos_site_id
 _symmetry_equiv_pos_as_xyz
  1  'x, y, z'
loop_
 _atom_site_type_symbol
 _atom_site_label
 _atom_site_symmetry_multiplicity
 _atom_site_fract_x
 _atom_site_fract_y
 _atom_site_fract_z
 _atom_site_occupancy
  Sm  Sm0  1  0.644883  0.216500  0.316663  1
  Sm  Sm1  1  0.216500  0.644883  0.183337  1
  Sm  Sm2  1  0.355117  0.783500  0.683337  1
  Sm  Sm3  1  0.783500  0.355117  0.816663  1
  Sm  Sm4  1  0.431309  0.431309  0.250000  1
  Sm  Sm5  1  0.568691  0.568691  0.750000  1
  Sm  Sm6  1  0.200065  0.010098  0.913428  1
  Sm  Sm7  1  0.010098  0.200065  0.586572  1
  Sm  Sm8  1  0.799935  0.989902  0.086572  1
  Sm  Sm9  1  0.989902  0.799935  0.413428  1
  Co  Co10  1  0.402169  0.179849  0.573424  1
  Co  Co11  1  0.179849  0.402169  0.926576  1
  Co  Co12  1  0.597831  0.820151  0.426576  1
  Co  Co13  1  0.820151  0.597831  0.073424  1
