# generated using pymatgen
data_Li3VFe3O8
_symmetry_space_group_name_H-M   'P 1'
_cell_length_a   5.90098189
_cell_length_b   5.90098189
_cell_length_c   9.62183099
_cell_angle_alpha   90.00000000
_cell_angle_beta   90.00000000
_cell_angle_gamma   120.00000000
_symmetry_Int_Tables_number   1
_chemical_formula_structural   Li3VFe3O8
_chemical_formula_sum   'Li6 V2 Fe6 O16'
_cell_volume   290.15958404
_cell_formula_units_Z   2
loop_
 _symmetry_equiv_pos_site_id
 _symmetry_equiv_pos_as_xyz
  1  'x, y, z'
loop_
 _atom_site_type_symbol
 _atom_site_label
 _atom_site_symmetry_multiplicity
 _atom_site_fract_x
 _atom_site_fract_y
 _atom_site_fract_z
 _atom_site_occupancy
  Li  Li0  1  0.651980  0.825990  0.943222  1
  Li  Li1  1  0.174010  0.825990  0.943222  1
  Li  Li2  1  0.174010  0.348020  0.943222  1
  Li  Li3  1  0.825990  0.651980  0.443222  1
  Li  Li4  1  0.825990  0.174010  0.443222  1
  Li  Li5  1  0.348020  0.174010  0.443222  1
  V  V6  1  0.333333  0.666667  0.490612  1
  V  V7  1  0.666667  0.333333  0.990612  1
  Fe  Fe8  1  0.665892  0.832946  0.212536  1
  Fe  Fe9  1  0.167054  0.832946  0.212536  1
  Fe  Fe10  1  0.167054  0.334108  0.212536  1
  Fe  Fe11  1  0.832946  0.665892  0.712536  1
  Fe  Fe12  1  0.832946  0.167054  0.712536  1
  Fe  Fe13  1  0.334108  0.167054  0.712536  1
  O  O14  1  0.000000  0.000000  0.321373  1
  O  O15  1  0.668246  0.834123  0.591172  1
  O  O16  1  0.481426  0.962852  0.348139  1
  O  O17  1  0.481426  0.518574  0.348139  1
  O  O18  1  0.165877  0.834123  0.591172  1
  O  O19  1  0.333333  0.666667  0.096481  1
  O  O20  1  0.037148  0.518574  0.348139  1
  O  O21  1  0.165877  0.331754  0.591172  1
  O  O22  1  0.834123  0.668246  0.091172  1
  O  O23  1  0.962852  0.481426  0.848139  1
  O  O24  1  0.518574  0.481426  0.848139  1
  O  O25  1  0.000000  0.000000  0.821373  1
  O  O26  1  0.666667  0.333333  0.596481  1
  O  O27  1  0.834123  0.165877  0.091172  1
  O  O28  1  0.518574  0.037148  0.848139  1
  O  O29  1  0.331754  0.165877  0.091172  1
