# generated using pymatgen
data_LiSi2(BiO3)3
_symmetry_space_group_name_H-M   'P 1'
_cell_length_a   7.64721890
_cell_length_b   10.72627070
_cell_length_c   10.72527424
_cell_angle_alpha   90.00000000
_cell_angle_beta   90.43728056
_cell_angle_gamma   90.00000000
_symmetry_Int_Tables_number   1
_chemical_formula_structural   LiSi2(BiO3)3
_chemical_formula_sum   'Li4 Si8 Bi12 O36'
_cell_volume   879.72722504
_cell_formula_units_Z   4
loop_
 _symmetry_equiv_pos_site_id
 _symmetry_equiv_pos_as_xyz
  1  'x, y, z'
loop_
 _atom_site_type_symbol
 _atom_site_label
 _atom_site_symmetry_multiplicity
 _atom_site_fract_x
 _atom_site_fract_y
 _atom_site_fract_z
 _atom_site_occupancy
  Li  Li0  1  0.125977  0.460279  0.354321  1
  Li  Li1  1  0.125977  0.039721  0.854321  1
  Li  Li2  1  0.874023  0.960279  0.145679  1
  Li  Li3  1  0.874023  0.539721  0.645679  1
  Si  Si4  1  0.175175  0.127752  0.304300  1
  Si  Si5  1  0.175175  0.372248  0.804300  1
  Si  Si6  1  0.395465  0.627808  0.189557  1
  Si  Si7  1  0.395465  0.872192  0.689557  1
  Si  Si8  1  0.604535  0.127808  0.310443  1
  Si  Si9  1  0.604535  0.372192  0.810443  1
  Si  Si10  1  0.824825  0.627752  0.195700  1
  Si  Si11  1  0.824825  0.872248  0.695700  1
  Bi  Bi12  1  0.118648  0.802351  0.409280  1
  Bi  Bi13  1  0.118648  0.697649  0.909280  1
  Bi  Bi14  1  0.335245  0.935886  0.102125  1
  Bi  Bi15  1  0.365617  0.299434  0.090699  1
  Bi  Bi16  1  0.335245  0.564114  0.602125  1
  Bi  Bi17  1  0.365617  0.200566  0.590699  1
  Bi  Bi18  1  0.634383  0.799434  0.409301  1
  Bi  Bi19  1  0.664755  0.435886  0.397875  1
  Bi  Bi20  1  0.634383  0.700566  0.909301  1
  Bi  Bi21  1  0.664755  0.064114  0.897875  1
  Bi  Bi22  1  0.881352  0.302351  0.090720  1
  Bi  Bi23  1  0.881352  0.197649  0.590720  1
  O  O24  1  0.110600  0.996750  0.240594  1
  O  O25  1  0.110600  0.503250  0.740594  1
  O  O26  1  0.123168  0.615657  0.480034  1
  O  O27  1  0.104750  0.251261  0.228000  1
  O  O28  1  0.123168  0.884343  0.980034  1
  O  O29  1  0.104750  0.248739  0.728000  1
  O  O30  1  0.149792  0.134952  0.455904  1
  O  O31  1  0.149792  0.365048  0.955904  1
  O  O32  1  0.313611  0.495808  0.226293  1
  O  O33  1  0.313611  0.004192  0.726293  1
  O  O34  1  0.357697  0.386463  0.502073  1
  O  O35  1  0.328756  0.748709  0.273326  1
  O  O36  1  0.357697  0.113537  0.002073  1
  O  O37  1  0.328756  0.751291  0.773326  1
  O  O38  1  0.384737  0.665023  0.039807  1
  O  O39  1  0.389509  0.130730  0.276284  1
  O  O40  1  0.384737  0.834977  0.539807  1
  O  O41  1  0.389509  0.369270  0.776284  1
  O  O42  1  0.610491  0.630730  0.223716  1
  O  O43  1  0.615263  0.165023  0.460193  1
  O  O44  1  0.610491  0.869270  0.723716  1
  O  O45  1  0.615263  0.334977  0.960193  1
  O  O46  1  0.671244  0.248709  0.226674  1
  O  O47  1  0.642303  0.886463  0.997927  1
  O  O48  1  0.671244  0.251291  0.726674  1
  O  O49  1  0.642303  0.613537  0.497927  1
  O  O50  1  0.686389  0.995808  0.273707  1
  O  O51  1  0.686389  0.504192  0.773707  1
  O  O52  1  0.850208  0.634952  0.044096  1
  O  O53  1  0.850208  0.865048  0.544096  1
  O  O54  1  0.895250  0.751261  0.272000  1
  O  O55  1  0.876832  0.115657  0.019966  1
  O  O56  1  0.895250  0.748739  0.772000  1
  O  O57  1  0.876832  0.384343  0.519966  1
  O  O58  1  0.889400  0.496750  0.259406  1
  O  O59  1  0.889400  0.003250  0.759406  1
