# generated using pymatgen
data_LiMnV(P2O7)2
_symmetry_space_group_name_H-M   'P 1'
_cell_length_a   4.84653538
_cell_length_b   7.02203161
_cell_length_c   8.14232719
_cell_angle_alpha   88.03820846
_cell_angle_beta   88.87051545
_cell_angle_gamma   71.40504514
_symmetry_Int_Tables_number   1
_chemical_formula_structural   LiMnV(P2O7)2
_chemical_formula_sum   'Li1 Mn1 V1 P4 O14'
_cell_volume   262.47289784
_cell_formula_units_Z   1
loop_
 _symmetry_equiv_pos_site_id
 _symmetry_equiv_pos_as_xyz
  1  'x, y, z'
loop_
 _atom_site_type_symbol
 _atom_site_label
 _atom_site_symmetry_multiplicity
 _atom_site_fract_x
 _atom_site_fract_y
 _atom_site_fract_z
 _atom_site_occupancy
  Li  Li0  1  0.169266  0.328478  0.863073  1
  Mn  Mn1  1  0.782731  0.733453  0.006632  1
  V  V2  1  0.204533  0.281158  0.493840  1
  P  P3  1  0.404972  0.478821  0.176189  1
  P  P4  1  0.217951  0.908808  0.781936  1
  P  P5  1  0.785849  0.084912  0.287585  1
  P  P6  1  0.603019  0.515623  0.678866  1
  O  O7  1  0.044877  0.154847  0.336484  1
  O  O8  1  0.139695  0.112127  0.687389  1
  O  O9  1  0.181840  0.516717  0.038188  1
  O  O10  1  0.263679  0.483975  0.347708  1
  O  O11  1  0.387161  0.393948  0.671339  1
  O  O12  1  0.586041  0.098985  0.440202  1
  O  O13  1  0.604850  0.248486  0.150075  1
  O  O14  1  0.408798  0.748727  0.652651  1
  O  O15  1  0.397103  0.914633  0.933235  1
  O  O16  1  0.599256  0.611090  0.173118  1
  O  O17  1  0.750824  0.490296  0.844286  1
  O  O18  1  0.819111  0.472037  0.534744  1
  O  O19  1  0.883505  0.890136  0.202112  1
  O  O20  1  0.942267  0.856423  0.826037  1
