# generated using pymatgen
data_NbO2F
_symmetry_space_group_name_H-M   'P 1'
_cell_length_a   5.64564120
_cell_length_b   5.64564120
_cell_length_c   4.00757047
_cell_angle_alpha   90.00000000
_cell_angle_beta   90.00000000
_cell_angle_gamma   92.41495001
_symmetry_Int_Tables_number   1
_chemical_formula_structural   NbO2F
_chemical_formula_sum   'Nb2 O4 F2'
_cell_volume   127.62090886
_cell_formula_units_Z   2
loop_
 _symmetry_equiv_pos_site_id
 _symmetry_equiv_pos_as_xyz
  1  'x, y, z'
loop_
 _atom_site_type_symbol
 _atom_site_label
 _atom_site_symmetry_multiplicity
 _atom_site_fract_x
 _atom_site_fract_y
 _atom_site_fract_z
 _atom_site_occupancy
  Nb  Nb0  1  0.521407  0.478593  0.000000  1
  Nb  Nb1  1  0.994529  0.005471  0.000000  1
  O  O2  1  0.000273  0.999727  0.500000  1
  O  O3  1  0.747035  0.252965  0.000000  1
  O  O4  1  0.742080  0.749495  0.000000  1
  O  O5  1  0.250505  0.257920  0.000000  1
  F  F6  1  0.492523  0.507477  0.500000  1
  F  F7  1  0.251649  0.748351  0.000000  1
