# generated using pymatgen
data_Li2CrSiO4
_symmetry_space_group_name_H-M   'P 1'
_cell_length_a   5.01318499
_cell_length_b   6.57724743
_cell_length_c   10.54488237
_cell_angle_alpha   90.00000000
_cell_angle_beta   90.00000000
_cell_angle_gamma   90.00000000
_symmetry_Int_Tables_number   1
_chemical_formula_structural   Li2CrSiO4
_chemical_formula_sum   'Li8 Cr4 Si4 O16'
_cell_volume   347.69596475
_cell_formula_units_Z   4
loop_
 _symmetry_equiv_pos_site_id
 _symmetry_equiv_pos_as_xyz
  1  'x, y, z'
loop_
 _atom_site_type_symbol
 _atom_site_label
 _atom_site_symmetry_multiplicity
 _atom_site_fract_x
 _atom_site_fract_y
 _atom_site_fract_z
 _atom_site_occupancy
  Li  Li0  1  0.182085  0.501968  0.589629  1
  Li  Li1  1  0.317915  0.501968  0.089629  1
  Li  Li2  1  0.317915  0.998032  0.089629  1
  Li  Li3  1  0.182085  0.998032  0.589629  1
  Li  Li4  1  0.682085  0.001968  0.910371  1
  Li  Li5  1  0.817915  0.001968  0.410371  1
  Li  Li6  1  0.817915  0.498032  0.410371  1
  Li  Li7  1  0.682085  0.498032  0.910371  1
  Cr  Cr8  1  0.192734  0.750000  0.851384  1
  Cr  Cr9  1  0.307266  0.750000  0.351384  1
  Cr  Cr10  1  0.692734  0.250000  0.648616  1
  Cr  Cr11  1  0.807266  0.250000  0.148616  1
  Si  Si12  1  0.669168  0.750000  0.667627  1
  Si  Si13  1  0.830832  0.750000  0.167627  1
  Si  Si14  1  0.330832  0.250000  0.332373  1
  Si  Si15  1  0.169168  0.250000  0.832373  1
  O  O16  1  0.781037  0.542502  0.596822  1
  O  O17  1  0.718963  0.542502  0.096822  1
  O  O18  1  0.341023  0.750000  0.659862  1
  O  O19  1  0.737919  0.750000  0.318698  1
  O  O20  1  0.762081  0.750000  0.818698  1
  O  O21  1  0.158977  0.750000  0.159862  1
  O  O22  1  0.718963  0.957498  0.096822  1
  O  O23  1  0.781037  0.957498  0.596822  1
  O  O24  1  0.218963  0.042502  0.403178  1
  O  O25  1  0.281037  0.042502  0.903178  1
  O  O26  1  0.658977  0.250000  0.340138  1
  O  O27  1  0.841023  0.250000  0.840138  1
  O  O28  1  0.262081  0.250000  0.681302  1
  O  O29  1  0.237919  0.250000  0.181302  1
  O  O30  1  0.218963  0.457498  0.403178  1
  O  O31  1  0.281037  0.457498  0.903178  1
