# generated using pymatgen
data_LiFe4(BO3)4
_symmetry_space_group_name_H-M   'P 1'
_cell_length_a   5.25212612
_cell_length_b   9.14993418
_cell_length_c   11.41173891
_cell_angle_alpha   113.35232764
_cell_angle_beta   103.11320437
_cell_angle_gamma   89.01086806
_symmetry_Int_Tables_number   1
_chemical_formula_structural   LiFe4(BO3)4
_chemical_formula_sum   'Li2 Fe8 B8 O24'
_cell_volume   488.73526519
_cell_formula_units_Z   2
loop_
 _symmetry_equiv_pos_site_id
 _symmetry_equiv_pos_as_xyz
  1  'x, y, z'
loop_
 _atom_site_type_symbol
 _atom_site_label
 _atom_site_symmetry_multiplicity
 _atom_site_fract_x
 _atom_site_fract_y
 _atom_site_fract_z
 _atom_site_occupancy
  Li  Li0  1  0.276880  0.273115  0.892204  1
  Li  Li1  1  0.260567  0.247331  0.155396  1
  Fe  Fe2  1  0.009754  0.350002  0.379718  1
  Fe  Fe3  1  0.263399  0.929448  0.875015  1
  Fe  Fe4  1  0.488539  0.150685  0.628977  1
  Fe  Fe5  1  0.237620  0.574219  0.131135  1
  Fe  Fe6  1  0.773430  0.442526  0.880900  1
  Fe  Fe7  1  0.519567  0.852561  0.377908  1
  Fe  Fe8  1  0.983637  0.648787  0.629437  1
  Fe  Fe9  1  0.731234  0.058577  0.122105  1
  B  B10  1  0.029233  0.686295  0.379971  1
  B  B11  1  0.268699  0.596751  0.871282  1
  B  B12  1  0.472966  0.813013  0.625434  1
  B  B13  1  0.236359  0.906114  0.135183  1
  B  B14  1  0.521000  0.182769  0.372894  1
  B  B15  1  0.770334  0.118205  0.884586  1
  B  B16  1  0.979379  0.315640  0.632591  1
  B  B17  1  0.733210  0.383179  0.119272  1
  O  O18  1  0.027999  0.119328  0.890270  1
  O  O19  1  0.116997  0.696773  0.825345  1
  O  O20  1  0.149453  0.496433  0.914332  1
  O  O21  1  0.151885  0.210139  0.649305  1
  O  O22  1  0.025578  0.414792  0.572038  1
  O  O23  1  0.239682  0.824591  0.665919  1
  O  O24  1  0.262849  0.674721  0.339360  1
  O  O25  1  0.528444  0.588838  0.875182  1
  O  O26  1  0.608385  0.217891  0.833417  1
  O  O27  1  0.477125  0.086493  0.435258  1
  O  O28  1  0.343798  0.285149  0.351255  1
  O  O29  1  0.640546  0.028405  0.931570  1
  O  O30  1  0.355933  0.007452  0.093124  1
  O  O31  1  0.639793  0.701261  0.631163  1
  O  O32  1  0.533143  0.925238  0.577648  1
  O  O33  1  0.386896  0.806439  0.181961  1
  O  O34  1  0.470309  0.378471  0.107930  1
  O  O35  1  0.751494  0.330834  0.678580  1
  O  O36  1  0.748518  0.169849  0.327053  1
  O  O37  1  0.969160  0.574655  0.428303  1
  O  O38  1  0.861476  0.797337  0.373271  1
  O  O39  1  0.862083  0.473610  0.073419  1
  O  O40  1  0.891720  0.286478  0.174110  1
  O  O41  1  0.976007  0.913126  0.130110  1
