# generated using pymatgen
data_Li5(NbS2)7
_symmetry_space_group_name_H-M   'P 1'
_cell_length_a   12.18035622
_cell_length_b   12.18035622
_cell_length_c   16.43234628
_cell_angle_alpha   53.20986625
_cell_angle_beta   126.79013375
_cell_angle_gamma   152.21251195
_symmetry_Int_Tables_number   1
_chemical_formula_structural   Li5(NbS2)7
_chemical_formula_sum   'Li10 Nb14 S28'
_cell_volume   894.47458172
_cell_formula_units_Z   2
loop_
 _symmetry_equiv_pos_site_id
 _symmetry_equiv_pos_as_xyz
  1  'x, y, z'
loop_
 _atom_site_type_symbol
 _atom_site_label
 _atom_site_symmetry_multiplicity
 _atom_site_fract_x
 _atom_site_fract_y
 _atom_site_fract_z
 _atom_site_occupancy
  Li  Li0  1  0.572288  0.927762  0.000029  1
  Li  Li1  1  0.000000  0.500000  0.000000  1
  Li  Li2  1  0.785855  0.714508  0.499984  1
  Li  Li3  1  0.714508  0.785855  0.000016  1
  Li  Li4  1  0.427712  0.072238  0.999971  1
  Li  Li5  1  0.214145  0.285492  0.500016  1
  Li  Li6  1  0.285492  0.214145  0.999984  1
  Li  Li7  1  0.072238  0.427712  0.500029  1
  Li  Li8  1  0.927762  0.572288  0.499971  1
  Li  Li9  1  0.500000  0.000000  0.500000  1
  Nb  Nb10  1  0.890835  0.605127  0.749946  1
  Nb  Nb11  1  0.678001  0.820324  0.250137  1
  Nb  Nb12  1  0.749882  0.749882  0.750000  1
  Nb  Nb13  1  0.321999  0.179676  0.749863  1
  Nb  Nb14  1  0.109165  0.394873  0.250054  1
  Nb  Nb15  1  0.605127  0.890835  0.750054  1
  Nb  Nb16  1  0.963488  0.535039  0.249270  1
  Nb  Nb17  1  0.179676  0.321999  0.750137  1
  Nb  Nb18  1  0.820324  0.678001  0.249863  1
  Nb  Nb19  1  0.535039  0.963488  0.250730  1
  Nb  Nb20  1  0.036512  0.464961  0.750730  1
  Nb  Nb21  1  0.394873  0.109165  0.249946  1
  Nb  Nb22  1  0.250118  0.250118  0.250000  1
  Nb  Nb23  1  0.464961  0.036512  0.749270  1
  S  S24  1  0.278516  0.888539  0.871452  1
  S  S25  1  0.707017  0.460833  0.871217  1
  S  S26  1  0.603392  0.565028  0.628822  1
  S  S27  1  0.396608  0.434972  0.371178  1
  S  S28  1  0.292983  0.539167  0.128783  1
  S  S29  1  0.565028  0.603392  0.871178  1
  S  S30  1  0.150030  0.683069  0.128707  1
  S  S31  1  0.175196  0.992618  0.629143  1
  S  S32  1  0.255147  0.579885  0.371160  1
  S  S33  1  0.460833  0.707017  0.628783  1
  S  S34  1  0.420115  0.744853  0.871160  1
  S  S35  1  0.134087  0.030330  0.871077  1
  S  S36  1  0.316931  0.849970  0.628707  1
  S  S37  1  0.721484  0.111461  0.128548  1
  S  S38  1  0.111461  0.721484  0.371452  1
  S  S39  1  0.007382  0.824804  0.129143  1
  S  S40  1  0.824804  0.007382  0.370857  1
  S  S41  1  0.030330  0.134087  0.628923  1
  S  S42  1  0.992618  0.175196  0.870857  1
  S  S43  1  0.888539  0.278516  0.628548  1
  S  S44  1  0.579885  0.255147  0.128840  1
  S  S45  1  0.683069  0.150030  0.371293  1
  S  S46  1  0.969670  0.865913  0.371077  1
  S  S47  1  0.849970  0.316931  0.871293  1
  S  S48  1  0.744853  0.420115  0.628840  1
  S  S49  1  0.539167  0.292983  0.371217  1
  S  S50  1  0.434972  0.396608  0.128822  1
  S  S51  1  0.865913  0.969670  0.128923  1
