# generated using pymatgen
data_V3FeO8
_symmetry_space_group_name_H-M   'P 1'
_cell_length_a   6.29021685
_cell_length_b   7.56975036
_cell_length_c   7.57957665
_cell_angle_alpha   60.04320790
_cell_angle_beta   67.16358581
_cell_angle_gamma   72.76515782
_symmetry_Int_Tables_number   1
_chemical_formula_structural   V3FeO8
_chemical_formula_sum   'V6 Fe2 O16'
_cell_volume   285.79498486
_cell_formula_units_Z   2
loop_
 _symmetry_equiv_pos_site_id
 _symmetry_equiv_pos_as_xyz
  1  'x, y, z'
loop_
 _atom_site_type_symbol
 _atom_site_label
 _atom_site_symmetry_multiplicity
 _atom_site_fract_x
 _atom_site_fract_y
 _atom_site_fract_z
 _atom_site_occupancy
  V  V0  1  0.793866  0.443457  0.732138  1
  V  V1  1  0.801566  0.949574  0.700808  1
  V  V2  1  0.603238  0.707370  0.281175  1
  V  V3  1  0.396762  0.292630  0.718825  1
  V  V4  1  0.198434  0.050426  0.299192  1
  V  V5  1  0.206134  0.556543  0.267862  1
  Fe  Fe6  1  0.592497  0.199409  0.308160  1
  Fe  Fe7  1  0.407503  0.800591  0.691840  1
  O  O8  1  0.745083  0.706255  0.698721  1
  O  O9  1  0.727384  0.222470  0.700257  1
  O  O10  1  0.895750  0.092475  0.363884  1
  O  O11  1  0.885748  0.600629  0.353975  1
  O  O12  1  0.717304  0.814716  0.012499  1
  O  O13  1  0.727656  0.317084  0.995093  1
  O  O14  1  0.480780  0.068121  0.650001  1
  O  O15  1  0.481800  0.539072  0.656613  1
  O  O16  1  0.518200  0.460928  0.343387  1
  O  O17  1  0.519220  0.931879  0.349999  1
  O  O18  1  0.272344  0.682916  0.004907  1
  O  O19  1  0.282696  0.185284  0.987501  1
  O  O20  1  0.104250  0.907525  0.636116  1
  O  O21  1  0.114252  0.399371  0.646025  1
  O  O22  1  0.254917  0.293745  0.301279  1
  O  O23  1  0.272616  0.777530  0.299743  1
