# generated using pymatgen
data_Li2Fe(BO3)2
_symmetry_space_group_name_H-M   'P 1'
_cell_length_a   3.06169326
_cell_length_b   14.81940229
_cell_length_c   9.15564371
_cell_angle_alpha   90.00000000
_cell_angle_beta   92.59500649
_cell_angle_gamma   90.00000000
_symmetry_Int_Tables_number   1
_chemical_formula_structural   Li2Fe(BO3)2
_chemical_formula_sum   'Li8 Fe4 B8 O24'
_cell_volume   414.98811690
_cell_formula_units_Z   4
loop_
 _symmetry_equiv_pos_site_id
 _symmetry_equiv_pos_as_xyz
  1  'x, y, z'
loop_
 _atom_site_type_symbol
 _atom_site_label
 _atom_site_symmetry_multiplicity
 _atom_site_fract_x
 _atom_site_fract_y
 _atom_site_fract_z
 _atom_site_occupancy
  Li  Li0  1  0.286196  0.043857  0.881948  1
  Li  Li1  1  0.292859  0.254719  0.892225  1
  Li  Li2  1  0.286196  0.456143  0.381948  1
  Li  Li3  1  0.292859  0.245281  0.392225  1
  Li  Li4  1  0.707141  0.754719  0.607775  1
  Li  Li5  1  0.713804  0.543857  0.618052  1
  Li  Li6  1  0.707141  0.745281  0.107775  1
  Li  Li7  1  0.713804  0.956143  0.118052  1
  Fe  Fe8  1  0.188899  0.631530  0.872730  1
  Fe  Fe9  1  0.188899  0.868470  0.372730  1
  Fe  Fe10  1  0.811101  0.131530  0.627270  1
  Fe  Fe11  1  0.811101  0.368470  0.127270  1
  B  B12  1  0.156191  0.424065  0.835366  1
  B  B13  1  0.134230  0.842657  0.895926  1
  B  B14  1  0.156191  0.075935  0.335366  1
  B  B15  1  0.134230  0.657343  0.395926  1
  B  B16  1  0.865770  0.342657  0.604074  1
  B  B17  1  0.843809  0.924065  0.664634  1
  B  B18  1  0.865770  0.157343  0.104074  1
  B  B19  1  0.843809  0.575935  0.164634  1
  O  O20  1  0.983398  0.848059  0.749040  1
  O  O21  1  0.169567  0.507004  0.778185  1
  O  O22  1  0.983398  0.651941  0.249040  1
  O  O23  1  0.169567  0.992996  0.278185  1
  O  O24  1  0.192540  0.759011  0.961125  1
  O  O25  1  0.275293  0.399732  0.978921  1
  O  O26  1  0.192540  0.740989  0.461125  1
  O  O27  1  0.226345  0.915603  0.979246  1
  O  O28  1  0.324495  0.159459  0.747486  1
  O  O29  1  0.275293  0.100268  0.478921  1
  O  O30  1  0.226345  0.584397  0.479246  1
  O  O31  1  0.324495  0.340541  0.247486  1
  O  O32  1  0.675505  0.659459  0.752514  1
  O  O33  1  0.773655  0.415603  0.520754  1
  O  O34  1  0.724707  0.899732  0.521079  1
  O  O35  1  0.675505  0.840541  0.252514  1
  O  O36  1  0.773655  0.084397  0.020754  1
  O  O37  1  0.807460  0.259011  0.538875  1
  O  O38  1  0.724707  0.600268  0.021079  1
  O  O39  1  0.807460  0.240989  0.038875  1
  O  O40  1  0.830433  0.007004  0.721815  1
  O  O41  1  0.016602  0.348059  0.750960  1
  O  O42  1  0.830433  0.492996  0.221815  1
  O  O43  1  0.016602  0.151941  0.250960  1
