# generated using pymatgen
data_Na3(NiO2)5
_symmetry_space_group_name_H-M   'P 1'
_cell_length_a   4.90058143
_cell_length_b   6.40358927
_cell_length_c   7.16270505
_cell_angle_alpha   110.15262631
_cell_angle_beta   98.01060201
_cell_angle_gamma   105.53238704
_symmetry_Int_Tables_number   1
_chemical_formula_structural   Na3(NiO2)5
_chemical_formula_sum   'Na3 Ni5 O10'
_cell_volume   196.52892319
_cell_formula_units_Z   1
loop_
 _symmetry_equiv_pos_site_id
 _symmetry_equiv_pos_as_xyz
  1  'x, y, z'
loop_
 _atom_site_type_symbol
 _atom_site_label
 _atom_site_symmetry_multiplicity
 _atom_site_fract_x
 _atom_site_fract_y
 _atom_site_fract_z
 _atom_site_occupancy
  Na  Na0  1  0.304232  0.101340  0.604913  1
  Na  Na1  1  0.500000  0.500000  0.000000  1
  Na  Na2  1  0.695768  0.898660  0.395087  1
  Ni  Ni3  1  0.903916  0.799621  0.797886  1
  Ni  Ni4  1  0.299711  0.600740  0.596196  1
  Ni  Ni5  1  0.700289  0.399260  0.403804  1
  Ni  Ni6  1  0.096084  0.200379  0.202114  1
  Ni  Ni7  1  0.500000  0.000000  0.000000  1
  O  O8  1  0.997261  0.699745  0.511340  1
  O  O9  1  0.002739  0.300255  0.488660  1
  O  O10  1  0.605767  0.491088  0.667524  1
  O  O11  1  0.394233  0.508912  0.332476  1
  O  O12  1  0.594962  0.899301  0.708058  1
  O  O13  1  0.218109  0.686409  0.855942  1
  O  O14  1  0.405038  0.100699  0.291942  1
  O  O15  1  0.781891  0.313591  0.144058  1
  O  O16  1  0.197661  0.104369  0.916651  1
  O  O17  1  0.802339  0.895631  0.083349  1
