# generated using pymatgen
data_NbVO4
_symmetry_space_group_name_H-M   'P 1'
_cell_length_a   4.58130114
_cell_length_b   4.99693674
_cell_length_c   11.91266957
_cell_angle_alpha   90.00000000
_cell_angle_beta   90.00000000
_cell_angle_gamma   90.00000000
_symmetry_Int_Tables_number   1
_chemical_formula_structural   NbVO4
_chemical_formula_sum   'Nb4 V4 O16'
_cell_volume   272.71045452
_cell_formula_units_Z   4
loop_
 _symmetry_equiv_pos_site_id
 _symmetry_equiv_pos_as_xyz
  1  'x, y, z'
loop_
 _atom_site_type_symbol
 _atom_site_label
 _atom_site_symmetry_multiplicity
 _atom_site_fract_x
 _atom_site_fract_y
 _atom_site_fract_z
 _atom_site_occupancy
  Nb  Nb0  1  0.500000  0.250000  0.327145  1
  Nb  Nb1  1  0.000000  0.250000  0.827145  1
  Nb  Nb2  1  0.000000  0.750000  0.172855  1
  Nb  Nb3  1  0.500000  0.750000  0.672855  1
  V  V4  1  0.500000  0.250000  0.066168  1
  V  V5  1  0.000000  0.250000  0.566168  1
  V  V6  1  0.000000  0.750000  0.433832  1
  V  V7  1  0.500000  0.750000  0.933832  1
  O  O8  1  0.269685  0.068873  0.191892  1
  O  O9  1  0.255811  0.580721  0.062656  1
  O  O10  1  0.769685  0.431127  0.691892  1
  O  O11  1  0.730315  0.431127  0.191892  1
  O  O12  1  0.755811  0.919279  0.562656  1
  O  O13  1  0.744189  0.919279  0.062656  1
  O  O14  1  0.755811  0.419279  0.437344  1
  O  O15  1  0.769685  0.931127  0.308108  1
  O  O16  1  0.230315  0.068873  0.691892  1
  O  O17  1  0.244189  0.580721  0.562656  1
  O  O18  1  0.255811  0.080721  0.937344  1
  O  O19  1  0.244189  0.080721  0.437344  1
  O  O20  1  0.269685  0.568873  0.808108  1
  O  O21  1  0.230315  0.568873  0.308108  1
  O  O22  1  0.744189  0.419279  0.937344  1
  O  O23  1  0.730315  0.931127  0.808108  1
