# generated using pymatgen
data_Li24MnCr11O36
_symmetry_space_group_name_H-M   'P 1'
_cell_length_a   5.07960016
_cell_length_b   10.58652603
_cell_length_c   13.02582073
_cell_angle_alpha   112.85563227
_cell_angle_beta   96.68796704
_cell_angle_gamma   95.61801406
_symmetry_Int_Tables_number   1
_chemical_formula_structural   Li24MnCr11O36
_chemical_formula_sum   'Li24 Mn1 Cr11 O36'
_cell_volume   633.19085003
_cell_formula_units_Z   1
loop_
 _symmetry_equiv_pos_site_id
 _symmetry_equiv_pos_as_xyz
  1  'x, y, z'
loop_
 _atom_site_type_symbol
 _atom_site_label
 _atom_site_symmetry_multiplicity
 _atom_site_fract_x
 _atom_site_fract_y
 _atom_site_fract_z
 _atom_site_occupancy
  Li  Li0  1  0.779692  0.060365  0.060724  1
  Li  Li1  1  0.667411  0.333781  0.083740  1
  Li  Li2  1  0.886903  0.273687  0.273168  1
  Li  Li3  1  0.333896  0.167997  0.167236  1
  Li  Li4  1  0.553075  0.606021  0.107460  1
  Li  Li5  1  0.000064  0.000164  0.250196  1
  Li  Li6  1  0.999249  0.499838  0.000956  1
  Li  Li7  1  0.779410  0.060635  0.560246  1
  Li  Li8  1  0.446799  0.393350  0.392694  1
  Li  Li9  1  0.666332  0.333252  0.583071  1
  Li  Li10  1  0.665013  0.833199  0.333123  1
  Li  Li11  1  0.115095  0.725215  0.226197  1
  Li  Li12  1  0.887220  0.272690  0.772824  1
  Li  Li13  1  0.333854  0.166452  0.666390  1
  Li  Li14  1  0.333914  0.665729  0.415907  1
  Li  Li15  1  0.552818  0.606596  0.606489  1
  Li  Li16  1  0.000503  0.499915  0.500382  1
  Li  Li17  1  0.219851  0.940198  0.440084  1
  Li  Li18  1  0.447705  0.394383  0.893585  1
  Li  Li19  1  0.667185  0.833252  0.832943  1
  Li  Li20  1  0.113047  0.726968  0.727024  1
  Li  Li21  1  0.333421  0.666505  0.916711  1
  Li  Li22  1  0.999376  0.999629  0.749616  1
  Li  Li23  1  0.219349  0.939665  0.939583  1
  Mn  Mn24  1  0.223979  0.444953  0.194059  1
  Cr  Cr25  1  0.890700  0.780842  0.030786  1
  Cr  Cr26  1  0.555883  0.113730  0.364197  1
  Cr  Cr27  1  0.782244  0.554663  0.303515  1
  Cr  Cr28  1  0.443608  0.886287  0.135544  1
  Cr  Cr29  1  0.108919  0.219212  0.469286  1
  Cr  Cr30  1  0.885731  0.779444  0.531475  1
  Cr  Cr31  1  0.557908  0.114943  0.864249  1
  Cr  Cr32  1  0.776440  0.552475  0.802624  1
  Cr  Cr33  1  0.223558  0.447418  0.697422  1
  Cr  Cr34  1  0.439698  0.885866  0.636809  1
  Cr  Cr35  1  0.109873  0.218524  0.968604  1
  O  O36  1  0.432435  0.136812  0.999713  1
  O  O37  1  0.642116  0.076241  0.211765  1
  O  O38  1  0.909605  0.525502  0.163684  1
  O  O39  1  0.311071  0.409277  0.045506  1
  O  O40  1  0.885992  0.045350  0.408437  1
  O  O41  1  0.023523  0.257672  0.121252  1
  O  O42  1  0.544480  0.379325  0.240458  1
  O  O43  1  0.780213  0.287477  0.424369  1
  O  O44  1  0.765347  0.803748  0.166448  1
  O  O45  1  0.234356  0.195916  0.333384  1
  O  O46  1  0.219711  0.712736  0.075248  1
  O  O47  1  0.451444  0.622568  0.260321  1
  O  O48  1  0.432393  0.137581  0.500523  1
  O  O49  1  0.970716  0.741380  0.376865  1
  O  O50  1  0.113745  0.954748  0.091390  1
  O  O51  1  0.693460  0.590938  0.456260  1
  O  O52  1  0.094084  0.472970  0.334192  1
  O  O53  1  0.643112  0.076758  0.712582  1
  O  O54  1  0.358248  0.924161  0.288209  1
  O  O55  1  0.901302  0.529371  0.666634  1
  O  O56  1  0.308769  0.409340  0.545210  1
  O  O57  1  0.886514  0.045731  0.909070  1
  O  O58  1  0.024471  0.257101  0.621352  1
  O  O59  1  0.570400  0.862924  0.500907  1
  O  O60  1  0.552745  0.378854  0.741848  1
  O  O61  1  0.780681  0.287942  0.924695  1
  O  O62  1  0.763881  0.805467  0.668554  1
  O  O63  1  0.235030  0.196996  0.833552  1
  O  O64  1  0.216594  0.712147  0.574940  1
  O  O65  1  0.447115  0.621001  0.758076  1
  O  O66  1  0.975369  0.742804  0.878578  1
  O  O67  1  0.115051  0.953459  0.591028  1
  O  O68  1  0.691379  0.590456  0.954695  1
  O  O69  1  0.098953  0.470518  0.833472  1
  O  O70  1  0.358177  0.924166  0.788323  1
  O  O71  1  0.567796  0.862716  0.999542  1
