# generated using pymatgen
data_Fe3(OF2)2
_symmetry_space_group_name_H-M   'P 1'
_cell_length_a   4.83463501
_cell_length_b   4.83463501
_cell_length_c   9.27976027
_cell_angle_alpha   89.63166152
_cell_angle_beta   90.36833848
_cell_angle_gamma   86.57723466
_symmetry_Int_Tables_number   1
_chemical_formula_structural   Fe3(OF2)2
_chemical_formula_sum   'Fe6 O4 F8'
_cell_volume   216.50586202
_cell_formula_units_Z   2
loop_
 _symmetry_equiv_pos_site_id
 _symmetry_equiv_pos_as_xyz
  1  'x, y, z'
loop_
 _atom_site_type_symbol
 _atom_site_label
 _atom_site_symmetry_multiplicity
 _atom_site_fract_x
 _atom_site_fract_y
 _atom_site_fract_z
 _atom_site_occupancy
  Fe  Fe0  1  0.000000  0.000000  0.000000  1
  Fe  Fe1  1  0.025997  0.974003  0.664602  1
  Fe  Fe2  1  0.974003  0.025997  0.335398  1
  Fe  Fe3  1  0.487180  0.512820  0.842716  1
  Fe  Fe4  1  0.512820  0.487180  0.157284  1
  Fe  Fe5  1  0.500000  0.500000  0.500000  1
  O  O6  1  0.702414  0.297586  0.996116  1
  O  O7  1  0.668962  0.331038  0.332006  1
  O  O8  1  0.297586  0.702414  0.003884  1
  O  O9  1  0.331038  0.668962  0.667994  1
  F  F10  1  0.202245  0.194461  0.839750  1
  F  F11  1  0.207759  0.207759  0.500000  1
  F  F12  1  0.194461  0.202245  0.160250  1
  F  F13  1  0.710309  0.289691  0.666396  1
  F  F14  1  0.289691  0.710309  0.333604  1
  F  F15  1  0.805539  0.797755  0.839750  1
  F  F16  1  0.797755  0.805539  0.160250  1
  F  F17  1  0.792241  0.792241  0.500000  1
