# generated using pymatgen
data_Li8Ti15O32
_symmetry_space_group_name_H-M   'P 1'
_cell_length_a   19.81960281
_cell_length_b   19.81960281
_cell_length_c   19.81960281
_cell_angle_alpha   17.34903385
_cell_angle_beta   17.34903385
_cell_angle_gamma   17.34903385
_symmetry_Int_Tables_number   1
_chemical_formula_structural   Li8Ti15O32
_chemical_formula_sum   'Li8 Ti15 O32'
_cell_volume   604.10458912
_cell_formula_units_Z   1
loop_
 _symmetry_equiv_pos_site_id
 _symmetry_equiv_pos_as_xyz
  1  'x, y, z'
loop_
 _atom_site_type_symbol
 _atom_site_label
 _atom_site_symmetry_multiplicity
 _atom_site_fract_x
 _atom_site_fract_y
 _atom_site_fract_z
 _atom_site_occupancy
  Li  Li0  1  0.437858  0.437858  0.437858  1
  Li  Li1  1  0.687198  0.687198  0.687198  1
  Li  Li2  1  0.749988  0.749988  0.749988  1
  Li  Li3  1  0.188039  0.188039  0.188039  1
  Li  Li4  1  0.843808  0.843808  0.843808  1
  Li  Li5  1  0.249524  0.249524  0.249524  1
  Li  Li6  1  0.499528  0.499528  0.499528  1
  Li  Li7  1  0.937978  0.937978  0.937978  1
  Ti  Ti8  1  0.719951  0.217876  0.217876  1
  Ti  Ti9  1  0.343099  0.343099  0.343099  1
  Ti  Ti10  1  0.217876  0.719951  0.217876  1
  Ti  Ti11  1  0.217876  0.217876  0.719951  1
  Ti  Ti12  1  0.094391  0.094391  0.094391  1
  Ti  Ti13  1  0.966430  0.966430  0.476711  1
  Ti  Ti14  1  0.966430  0.476711  0.966430  1
  Ti  Ti15  1  0.721058  0.211002  0.721058  1
  Ti  Ti16  1  0.211002  0.721058  0.721058  1
  Ti  Ti17  1  0.476711  0.966430  0.966430  1
  Ti  Ti18  1  0.721058  0.721058  0.211002  1
  Ti  Ti19  1  0.467910  0.467910  0.971153  1
  Ti  Ti20  1  0.971153  0.467910  0.467910  1
  Ti  Ti21  1  0.593348  0.593348  0.593348  1
  Ti  Ti22  1  0.467910  0.971153  0.467910  1
  O  O23  1  0.515585  0.066169  0.515585  1
  O  O24  1  0.066169  0.515585  0.515585  1
  O  O25  1  0.403155  0.403155  0.403155  1
  O  O26  1  0.035419  0.035419  0.035419  1
  O  O27  1  0.922106  0.922106  0.372080  1
  O  O28  1  0.664897  0.130096  0.664897  1
  O  O29  1  0.922106  0.372080  0.922106  1
  O  O30  1  0.263386  0.263386  0.819855  1
  O  O31  1  0.515585  0.515585  0.066169  1
  O  O32  1  0.557557  0.022584  0.022584  1
  O  O33  1  0.153436  0.153436  0.153436  1
  O  O34  1  0.819855  0.263386  0.263386  1
  O  O35  1  0.784326  0.784326  0.784326  1
  O  O36  1  0.372080  0.922106  0.922106  1
  O  O37  1  0.130096  0.664897  0.664897  1
  O  O38  1  0.424209  0.424209  0.867412  1
  O  O39  1  0.664897  0.664897  0.130096  1
  O  O40  1  0.022584  0.022584  0.557557  1
  O  O41  1  0.263386  0.819855  0.263386  1
  O  O42  1  0.022584  0.557557  0.022584  1
  O  O43  1  0.903222  0.903222  0.903222  1
  O  O44  1  0.867412  0.424209  0.424209  1
  O  O45  1  0.534072  0.534072  0.534072  1
  O  O46  1  0.283990  0.283990  0.283990  1
  O  O47  1  0.614209  0.175035  0.175035  1
  O  O48  1  0.175035  0.614209  0.175035  1
  O  O49  1  0.424209  0.867412  0.424209  1
  O  O50  1  0.175035  0.175035  0.614209  1
  O  O51  1  0.764555  0.317231  0.764555  1
  O  O52  1  0.764555  0.764555  0.317231  1
  O  O53  1  0.317231  0.764555  0.764555  1
  O  O54  1  0.652971  0.652971  0.652971  1
