# generated using pymatgen
data_Li4MnFe3(PO4)4
_symmetry_space_group_name_H-M   'P 1'
_cell_length_a   4.76272523
_cell_length_b   10.48076537
_cell_length_c   12.21746303
_cell_angle_alpha   90.00000000
_cell_angle_beta   90.00000000
_cell_angle_gamma   90.00000000
_symmetry_Int_Tables_number   1
_chemical_formula_structural   Li4MnFe3(PO4)4
_chemical_formula_sum   'Li8 Mn2 Fe6 P8 O32'
_cell_volume   609.85917119
_cell_formula_units_Z   2
loop_
 _symmetry_equiv_pos_site_id
 _symmetry_equiv_pos_as_xyz
  1  'x, y, z'
loop_
 _atom_site_type_symbol
 _atom_site_label
 _atom_site_symmetry_multiplicity
 _atom_site_fract_x
 _atom_site_fract_y
 _atom_site_fract_z
 _atom_site_occupancy
  Li  Li0  1  0.749811  0.000416  0.374854  1
  Li  Li1  1  0.749811  0.000416  0.625146  1
  Li  Li2  1  0.750336  0.999744  0.874538  1
  Li  Li3  1  0.750336  0.999744  0.125462  1
  Li  Li4  1  0.250189  0.500416  0.874854  1
  Li  Li5  1  0.249664  0.499744  0.374538  1
  Li  Li6  1  0.249664  0.499744  0.625462  1
  Li  Li7  1  0.250189  0.500416  0.125146  1
  Mn  Mn8  1  0.773115  0.718509  0.500000  1
  Mn  Mn9  1  0.226885  0.218509  0.000000  1
  Fe  Fe10  1  0.775952  0.718395  0.000000  1
  Fe  Fe11  1  0.224048  0.218395  0.500000  1
  Fe  Fe12  1  0.275322  0.781585  0.249601  1
  Fe  Fe13  1  0.275322  0.781585  0.750399  1
  Fe  Fe14  1  0.724678  0.281585  0.749601  1
  Fe  Fe15  1  0.724678  0.281585  0.250399  1
  P  P16  1  0.834057  0.594271  0.249228  1
  P  P17  1  0.834057  0.594271  0.750772  1
  P  P18  1  0.165943  0.094271  0.250772  1
  P  P19  1  0.165943  0.094271  0.749228  1
  P  P20  1  0.332065  0.907312  0.500000  1
  P  P21  1  0.333680  0.904677  0.000000  1
  P  P22  1  0.667935  0.407312  0.000000  1
  P  P23  1  0.666320  0.404677  0.500000  1
  O  O24  1  0.956849  0.456304  0.249380  1
  O  O25  1  0.956849  0.456304  0.750620  1
  O  O26  1  0.971506  0.664170  0.650428  1
  O  O27  1  0.966205  0.664494  0.852526  1
  O  O28  1  0.966205  0.664494  0.147474  1
  O  O29  1  0.971506  0.664170  0.349572  1
  O  O30  1  0.991383  0.404843  0.000000  1
  O  O31  1  0.989645  0.403284  0.500000  1
  O  O32  1  0.010355  0.903284  0.000000  1
  O  O33  1  0.008617  0.904843  0.500000  1
  O  O34  1  0.033795  0.164494  0.647474  1
  O  O35  1  0.028494  0.164170  0.849572  1
  O  O36  1  0.033795  0.164494  0.352526  1
  O  O37  1  0.028494  0.164170  0.150428  1
  O  O38  1  0.043151  0.956304  0.749380  1
  O  O39  1  0.043151  0.956304  0.250620  1
  O  O40  1  0.459577  0.041713  0.000000  1
  O  O41  1  0.458275  0.044036  0.500000  1
  O  O42  1  0.466228  0.834308  0.898521  1
  O  O43  1  0.466228  0.834308  0.101479  1
  O  O44  1  0.462804  0.836294  0.398518  1
  O  O45  1  0.462804  0.836294  0.601482  1
  O  O46  1  0.489068  0.097031  0.249899  1
  O  O47  1  0.489068  0.097031  0.750101  1
  O  O48  1  0.510932  0.597031  0.749899  1
  O  O49  1  0.510932  0.597031  0.250101  1
  O  O50  1  0.537196  0.336294  0.101482  1
  O  O51  1  0.533772  0.334308  0.398521  1
  O  O52  1  0.533772  0.334308  0.601479  1
  O  O53  1  0.537196  0.336294  0.898518  1
  O  O54  1  0.541725  0.544036  0.000000  1
  O  O55  1  0.540423  0.541713  0.500000  1
