# generated using pymatgen
data_VSb3(PO4)6
_symmetry_space_group_name_H-M   'P 1'
_cell_length_a   8.90879381
_cell_length_b   8.90879381
_cell_length_c   8.90879381
_cell_angle_alpha   58.18117517
_cell_angle_beta   58.18117517
_cell_angle_gamma   58.18117517
_symmetry_Int_Tables_number   1
_chemical_formula_structural   VSb3(PO4)6
_chemical_formula_sum   'V1 Sb3 P6 O24'
_cell_volume   479.12842745
_cell_formula_units_Z   1
loop_
 _symmetry_equiv_pos_site_id
 _symmetry_equiv_pos_as_xyz
  1  'x, y, z'
loop_
 _atom_site_type_symbol
 _atom_site_label
 _atom_site_symmetry_multiplicity
 _atom_site_fract_x
 _atom_site_fract_y
 _atom_site_fract_z
 _atom_site_occupancy
  V  V0  1  0.141826  0.141826  0.141826  1
  Sb  Sb1  1  0.856730  0.856730  0.856730  1
  Sb  Sb2  1  0.643271  0.643271  0.643271  1
  Sb  Sb3  1  0.355771  0.355771  0.355771  1
  P  P4  1  0.248699  0.535129  0.962232  1
  P  P5  1  0.962232  0.248699  0.535129  1
  P  P6  1  0.535129  0.962232  0.248699  1
  P  P7  1  0.460603  0.038816  0.750277  1
  P  P8  1  0.038816  0.750277  0.460603  1
  P  P9  1  0.750277  0.460603  0.038816  1
  O  O10  1  0.719645  0.489146  0.867446  1
  O  O11  1  0.489146  0.867446  0.719645  1
  O  O12  1  0.077544  0.721380  0.938008  1
  O  O13  1  0.867446  0.719645  0.489146  1
  O  O14  1  0.422785  0.563741  0.780541  1
  O  O15  1  0.222110  0.367819  0.990730  1
  O  O16  1  0.938008  0.077544  0.721380  1
  O  O17  1  0.780541  0.422785  0.563741  1
  O  O18  1  0.563741  0.780541  0.422785  1
  O  O19  1  0.638230  0.014049  0.767784  1
  O  O20  1  0.286412  0.061195  0.920086  1
  O  O21  1  0.014049  0.767784  0.638230  1
  O  O22  1  0.990730  0.222110  0.367819  1
  O  O23  1  0.721380  0.938008  0.077544  1
  O  O24  1  0.367819  0.990730  0.222110  1
  O  O25  1  0.445364  0.216690  0.571009  1
  O  O26  1  0.216690  0.571009  0.445364  1
  O  O27  1  0.061195  0.920086  0.286412  1
  O  O28  1  0.767784  0.638230  0.014049  1
  O  O29  1  0.571009  0.445364  0.216690  1
  O  O30  1  0.130935  0.275517  0.518477  1
  O  O31  1  0.920086  0.286412  0.061195  1
  O  O32  1  0.518477  0.130935  0.275517  1
  O  O33  1  0.275517  0.518477  0.130935  1
