# generated using pymatgen
data_Ba2Na2O3
_symmetry_space_group_name_H-M   'P 1'
_cell_length_a   7.18098152
_cell_length_b   7.18098152
_cell_length_c   11.10306487
_cell_angle_alpha   90.00000000
_cell_angle_beta   90.00000000
_cell_angle_gamma   90.00000000
_symmetry_Int_Tables_number   1
_chemical_formula_structural   Ba2Na2O3
_chemical_formula_sum   'Ba8 Na8 O12'
_cell_volume   572.54614566
_cell_formula_units_Z   4
loop_
 _symmetry_equiv_pos_site_id
 _symmetry_equiv_pos_as_xyz
  1  'x, y, z'
loop_
 _atom_site_type_symbol
 _atom_site_label
 _atom_site_symmetry_multiplicity
 _atom_site_fract_x
 _atom_site_fract_y
 _atom_site_fract_z
 _atom_site_occupancy
  Ba  Ba0  1  0.984516  0.752393  0.356168  1
  Ba  Ba1  1  0.247607  0.015484  0.143832  1
  Ba  Ba2  1  0.252393  0.515484  0.606168  1
  Ba  Ba3  1  0.515484  0.252393  0.393832  1
  Ba  Ba4  1  0.484516  0.747607  0.893832  1
  Ba  Ba5  1  0.747607  0.484516  0.106168  1
  Ba  Ba6  1  0.752393  0.984516  0.643832  1
  Ba  Ba7  1  0.015484  0.247607  0.856168  1
  Na  Na8  1  0.967419  0.753963  0.893116  1
  Na  Na9  1  0.246037  0.032581  0.606884  1
  Na  Na10  1  0.253963  0.532581  0.143116  1
  Na  Na11  1  0.532581  0.253963  0.856884  1
  Na  Na12  1  0.467419  0.746037  0.356884  1
  Na  Na13  1  0.746037  0.467419  0.643116  1
  Na  Na14  1  0.753963  0.967419  0.106884  1
  Na  Na15  1  0.032581  0.246037  0.393116  1
  O  O16  1  0.997483  0.254616  0.617939  1
  O  O17  1  0.298163  0.298163  0.000000  1
  O  O18  1  0.245384  0.497483  0.367939  1
  O  O19  1  0.254616  0.997483  0.382061  1
  O  O20  1  0.201837  0.798163  0.750000  1
  O  O21  1  0.502517  0.754616  0.132061  1
  O  O22  1  0.497483  0.245384  0.632061  1
  O  O23  1  0.798163  0.201837  0.250000  1
  O  O24  1  0.745384  0.002517  0.882061  1
  O  O25  1  0.754616  0.502517  0.867939  1
  O  O26  1  0.701837  0.701837  0.500000  1
  O  O27  1  0.002517  0.745384  0.117939  1
