# generated using pymatgen
data_V2OF5
_symmetry_space_group_name_H-M   'P 1'
_cell_length_a   5.23736244
_cell_length_b   5.23736244
_cell_length_c   13.52627724
_cell_angle_alpha   90.00000000
_cell_angle_beta   90.00000000
_cell_angle_gamma   120.00000000
_symmetry_Int_Tables_number   1
_chemical_formula_structural   V2OF5
_chemical_formula_sum   'V6 O3 F15'
_cell_volume   321.31734849
_cell_formula_units_Z   3
loop_
 _symmetry_equiv_pos_site_id
 _symmetry_equiv_pos_as_xyz
  1  'x, y, z'
loop_
 _atom_site_type_symbol
 _atom_site_label
 _atom_site_symmetry_multiplicity
 _atom_site_fract_x
 _atom_site_fract_y
 _atom_site_fract_z
 _atom_site_occupancy
  V  V0  1  0.664645  0.973808  0.420730  1
  V  V1  1  0.690838  0.026192  0.912603  1
  V  V2  1  0.026192  0.690838  0.087397  1
  V  V3  1  0.335355  0.309162  0.245936  1
  V  V4  1  0.973808  0.664645  0.579270  1
  V  V5  1  0.309162  0.335355  0.754064  1
  O  O6  1  0.244953  0.000000  0.166667  1
  O  O7  1  0.755047  0.755047  0.500000  1
  O  O8  1  0.000000  0.244953  0.833333  1
  F  F9  1  0.666959  0.594785  0.166558  1
  F  F10  1  0.333041  0.927826  0.500109  1
  F  F11  1  0.594785  0.666959  0.833442  1
  F  F12  1  0.350323  0.750738  0.996888  1
  F  F13  1  0.400416  0.649677  0.330221  1
  F  F14  1  0.065629  0.000000  0.666667  1
  F  F15  1  0.649677  0.400416  0.669779  1
  F  F16  1  0.934371  0.934371  0.000000  1
  F  F17  1  0.599584  0.249262  0.336446  1
  F  F18  1  0.249262  0.599584  0.663554  1
  F  F19  1  0.072174  0.405215  0.166775  1
  F  F20  1  0.405215  0.072174  0.833225  1
  F  F21  1  0.927826  0.333041  0.499891  1
  F  F22  1  0.750738  0.350323  0.003112  1
  F  F23  1  0.000000  0.065629  0.333333  1
