# generated using pymatgen
data_LiCr2(PO4)2
_symmetry_space_group_name_H-M   'P 1'
_cell_length_a   5.53436987
_cell_length_b   6.40889985
_cell_length_c   9.33893479
_cell_angle_alpha   73.56403987
_cell_angle_beta   82.82837680
_cell_angle_gamma   78.27616826
_symmetry_Int_Tables_number   1
_chemical_formula_structural   LiCr2(PO4)2
_chemical_formula_sum   'Li2 Cr4 P4 O16'
_cell_volume   310.28005982
_cell_formula_units_Z   2
loop_
 _symmetry_equiv_pos_site_id
 _symmetry_equiv_pos_as_xyz
  1  'x, y, z'
loop_
 _atom_site_type_symbol
 _atom_site_label
 _atom_site_symmetry_multiplicity
 _atom_site_fract_x
 _atom_site_fract_y
 _atom_site_fract_z
 _atom_site_occupancy
  Li  Li0  1  0.817188  0.117517  0.617169  1
  Li  Li1  1  0.182812  0.882483  0.382831  1
  Cr  Cr2  1  0.685209  0.336268  0.916503  1
  Cr  Cr3  1  0.132107  0.551351  0.711563  1
  Cr  Cr4  1  0.867893  0.448649  0.288437  1
  Cr  Cr5  1  0.314791  0.663732  0.083497  1
  P  P6  1  0.805331  0.790254  0.949678  1
  P  P7  1  0.684750  0.661392  0.576400  1
  P  P8  1  0.315250  0.338608  0.423600  1
  P  P9  1  0.194669  0.209746  0.050322  1
  O  O10  1  0.609306  0.664833  0.921194  1
  O  O11  1  0.059176  0.705923  0.874069  1
  O  O12  1  0.171989  0.263674  0.879251  1
  O  O13  1  0.727702  0.036906  0.877102  1
  O  O14  1  0.879494  0.810287  0.578529  1
  O  O15  1  0.809578  0.437163  0.688013  1
  O  O16  1  0.416593  0.739062  0.630585  1
  O  O17  1  0.311352  0.366144  0.581064  1
  O  O18  1  0.688648  0.633856  0.418936  1
  O  O19  1  0.583407  0.260938  0.369415  1
  O  O20  1  0.190422  0.562837  0.311987  1
  O  O21  1  0.120506  0.189713  0.421471  1
  O  O22  1  0.272298  0.963094  0.122898  1
  O  O23  1  0.828011  0.736326  0.120749  1
  O  O24  1  0.940824  0.294077  0.125931  1
  O  O25  1  0.390694  0.335167  0.078806  1
