# generated using pymatgen
data_Li7MgNi7O16
_symmetry_space_group_name_H-M   'P 1'
_cell_length_a   7.57737210
_cell_length_b   7.57737210
_cell_length_c   4.99618963
_cell_angle_alpha   77.39396217
_cell_angle_beta   102.60603783
_cell_angle_gamma   81.62927210
_symmetry_Int_Tables_number   1
_chemical_formula_structural   Li7MgNi7O16
_chemical_formula_sum   'Li7 Mg1 Ni7 O16'
_cell_volume   267.51920827
_cell_formula_units_Z   1
loop_
 _symmetry_equiv_pos_site_id
 _symmetry_equiv_pos_as_xyz
  1  'x, y, z'
loop_
 _atom_site_type_symbol
 _atom_site_label
 _atom_site_symmetry_multiplicity
 _atom_site_fract_x
 _atom_site_fract_y
 _atom_site_fract_z
 _atom_site_occupancy
  Li  Li0  1  0.997674  0.502620  0.500980  1
  Li  Li1  1  0.756480  0.239846  0.527512  1
  Li  Li2  1  0.880702  0.880702  0.500000  1
  Li  Li3  1  0.502620  0.997674  0.499020  1
  Li  Li4  1  0.621833  0.621833  0.500000  1
  Li  Li5  1  0.379164  0.379164  0.500000  1
  Li  Li6  1  0.239846  0.756480  0.472488  1
  Mg  Mg7  1  0.117851  0.117851  0.500000  1
  Ni  Ni8  1  0.876398  0.368645  0.000985  1
  Ni  Ni9  1  0.748897  0.748897  0.000000  1
  Ni  Ni10  1  0.630310  0.121518  0.997983  1
  Ni  Ni11  1  0.501119  0.501119  0.000000  1
  Ni  Ni12  1  0.368645  0.876398  0.999015  1
  Ni  Ni13  1  0.249671  0.249671  0.000000  1
  Ni  Ni14  1  0.121518  0.630310  0.002017  1
  O  O15  1  0.985398  0.732514  0.226752  1
  O  O16  1  0.865058  0.150048  0.249801  1
  O  O17  1  0.873403  0.619628  0.786661  1
  O  O18  1  0.737914  0.516274  0.218223  1
  O  O19  1  0.494218  0.255831  0.208926  1
  O  O20  1  0.635467  0.362769  0.765204  1
  O  O21  1  0.619628  0.873403  0.213339  1
  O  O22  1  0.732514  0.985398  0.773248  1
  O  O23  1  0.362769  0.635467  0.234796  1
  O  O24  1  0.363714  0.127452  0.773806  1
  O  O25  1  0.264449  0.023137  0.239082  1
  O  O26  1  0.516274  0.737914  0.781777  1
  O  O27  1  0.127452  0.363714  0.226194  1
  O  O28  1  0.255831  0.494218  0.791074  1
  O  O29  1  0.023137  0.264449  0.760918  1
  O  O30  1  0.150048  0.865058  0.750199  1
