# generated using pymatgen
data_TiMn3O8
_symmetry_space_group_name_H-M   'P 1'
_cell_length_a   5.88198386
_cell_length_b   5.88198386
_cell_length_c   5.88198386
_cell_angle_alpha   59.23280992
_cell_angle_beta   59.23280992
_cell_angle_gamma   59.23280992
_symmetry_Int_Tables_number   1
_chemical_formula_structural   TiMn3O8
_chemical_formula_sum   'Ti1 Mn3 O8'
_cell_volume   141.38380465
_cell_formula_units_Z   1
loop_
 _symmetry_equiv_pos_site_id
 _symmetry_equiv_pos_as_xyz
  1  'x, y, z'
loop_
 _atom_site_type_symbol
 _atom_site_label
 _atom_site_symmetry_multiplicity
 _atom_site_fract_x
 _atom_site_fract_y
 _atom_site_fract_z
 _atom_site_occupancy
  Ti  Ti0  1  0.500000  0.500000  0.500000  1
  Mn  Mn1  1  0.000000  0.500000  0.500000  1
  Mn  Mn2  1  0.500000  1.000000  0.500000  1
  Mn  Mn3  1  0.500000  0.500000  0.000000  1
  O  O4  1  0.738764  0.292652  0.738764  1
  O  O5  1  0.738764  0.738764  0.292652  1
  O  O6  1  0.292652  0.738764  0.738764  1
  O  O7  1  0.734038  0.734038  0.734038  1
  O  O8  1  0.265962  0.265962  0.265962  1
  O  O9  1  0.707348  0.261236  0.261236  1
  O  O10  1  0.261236  0.707348  0.261236  1
  O  O11  1  0.261236  0.261236  0.707348  1
