# generated using pymatgen
data_Li3Sc2(PO4)3
_symmetry_space_group_name_H-M   'P 1'
_cell_length_a   8.93730031
_cell_length_b   8.91933640
_cell_length_c   15.25646377
_cell_angle_alpha   90.00000000
_cell_angle_beta   125.33924973
_cell_angle_gamma   90.00000000
_symmetry_Int_Tables_number   1
_chemical_formula_structural   Li3Sc2(PO4)3
_chemical_formula_sum   'Li12 Sc8 P12 O48'
_cell_volume   992.07694732
_cell_formula_units_Z   4
loop_
 _symmetry_equiv_pos_site_id
 _symmetry_equiv_pos_as_xyz
  1  'x, y, z'
loop_
 _atom_site_type_symbol
 _atom_site_label
 _atom_site_symmetry_multiplicity
 _atom_site_fract_x
 _atom_site_fract_y
 _atom_site_fract_z
 _atom_site_occupancy
  Li  Li0  1  0.012863  0.768988  0.821233  1
  Li  Li1  1  0.603526  0.273744  0.822599  1
  Li  Li2  1  0.238978  0.910570  0.788341  1
  Li  Li3  1  0.761022  0.410570  0.711659  1
  Li  Li4  1  0.396474  0.773744  0.677401  1
  Li  Li5  1  0.987137  0.268988  0.678767  1
  Li  Li6  1  0.603526  0.226256  0.322599  1
  Li  Li7  1  0.012863  0.731012  0.321233  1
  Li  Li8  1  0.238978  0.589430  0.288341  1
  Li  Li9  1  0.761022  0.089430  0.211659  1
  Li  Li10  1  0.396474  0.726256  0.177401  1
  Li  Li11  1  0.987137  0.231012  0.178767  1
  Sc  Sc12  1  0.154685  0.456331  0.893697  1
  Sc  Sc13  1  0.646367  0.954616  0.889282  1
  Sc  Sc14  1  0.353633  0.454616  0.610718  1
  Sc  Sc15  1  0.845315  0.956331  0.606303  1
  Sc  Sc16  1  0.646367  0.545384  0.389282  1
  Sc  Sc17  1  0.154685  0.043669  0.393697  1
  Sc  Sc18  1  0.353633  0.045384  0.110718  1
  Sc  Sc19  1  0.845315  0.543669  0.106303  1
  P  P20  1  0.551943  0.245687  0.002135  1
  P  P21  1  0.448057  0.754313  0.997865  1
  P  P22  1  0.954200  0.106261  0.848917  1
  P  P23  1  0.745831  0.600478  0.849169  1
  P  P24  1  0.045800  0.606261  0.651083  1
  P  P25  1  0.254169  0.100478  0.650831  1
  P  P26  1  0.448057  0.745687  0.497865  1
  P  P27  1  0.551943  0.254313  0.502135  1
  P  P28  1  0.745831  0.899522  0.349169  1
  P  P29  1  0.954200  0.393739  0.348917  1
  P  P30  1  0.254169  0.399522  0.150831  1
  P  P31  1  0.045800  0.893739  0.151083  1
  O  O32  1  0.119506  0.080885  0.966028  1
  O  O33  1  0.813479  0.567264  0.965399  1
  O  O34  1  0.469057  0.862064  0.925898  1
  O  O35  1  0.387093  0.351677  0.937880  1
  O  O36  1  0.573629  0.160237  0.921629  1
  O  O37  1  0.264418  0.668641  0.920185  1
  O  O38  1  0.905662  0.595702  0.835633  1
  O  O39  1  0.771130  0.101436  0.838311  1
  O  O40  1  0.969220  0.264626  0.809565  1
  O  O41  1  0.649720  0.755065  0.813913  1
  O  O42  1  0.959905  0.981128  0.779282  1
  O  O43  1  0.613337  0.472942  0.772841  1
  O  O44  1  0.386663  0.972942  0.727159  1
  O  O45  1  0.040095  0.481128  0.720718  1
  O  O46  1  0.030780  0.764626  0.690435  1
  O  O47  1  0.350280  0.255065  0.686087  1
  O  O48  1  0.094338  0.095702  0.664367  1
  O  O49  1  0.228870  0.601436  0.661689  1
  O  O50  1  0.426371  0.660237  0.578371  1
  O  O51  1  0.735582  0.168641  0.579815  1
  O  O52  1  0.612907  0.851677  0.562120  1
  O  O53  1  0.530943  0.362064  0.574102  1
  O  O54  1  0.186521  0.067264  0.534601  1
  O  O55  1  0.880494  0.580885  0.533972  1
  O  O56  1  0.119506  0.419115  0.466028  1
  O  O57  1  0.813479  0.932736  0.465399  1
  O  O58  1  0.469057  0.637936  0.425898  1
  O  O59  1  0.387093  0.148323  0.437880  1
  O  O60  1  0.573629  0.339763  0.421629  1
  O  O61  1  0.264418  0.831359  0.420185  1
  O  O62  1  0.771130  0.398564  0.338311  1
  O  O63  1  0.905662  0.904298  0.335633  1
  O  O64  1  0.649720  0.744935  0.313913  1
  O  O65  1  0.969220  0.235374  0.309565  1
  O  O66  1  0.613337  0.027058  0.272841  1
  O  O67  1  0.959905  0.518872  0.279282  1
  O  O68  1  0.386663  0.527058  0.227159  1
  O  O69  1  0.040095  0.018872  0.220718  1
  O  O70  1  0.350280  0.244935  0.186087  1
  O  O71  1  0.030780  0.735374  0.190435  1
  O  O72  1  0.228870  0.898564  0.161689  1
  O  O73  1  0.094338  0.404298  0.164367  1
  O  O74  1  0.426371  0.839763  0.078371  1
  O  O75  1  0.735582  0.331359  0.079815  1
  O  O76  1  0.530943  0.137936  0.074102  1
  O  O77  1  0.612907  0.648323  0.062120  1
  O  O78  1  0.186521  0.432736  0.034601  1
  O  O79  1  0.880494  0.919115  0.033972  1
