# generated using pymatgen
data_Li2Sn(BO3)2
_symmetry_space_group_name_H-M   'P 1'
_cell_length_a   5.22364574
_cell_length_b   8.98132460
_cell_length_c   10.48521584
_cell_angle_alpha   90.00000000
_cell_angle_beta   93.18313024
_cell_angle_gamma   90.00000000
_symmetry_Int_Tables_number   1
_chemical_formula_structural   Li2Sn(BO3)2
_chemical_formula_sum   'Li8 Sn4 B8 O24'
_cell_volume   491.15765578
_cell_formula_units_Z   4
loop_
 _symmetry_equiv_pos_site_id
 _symmetry_equiv_pos_as_xyz
  1  'x, y, z'
loop_
 _atom_site_type_symbol
 _atom_site_label
 _atom_site_symmetry_multiplicity
 _atom_site_fract_x
 _atom_site_fract_y
 _atom_site_fract_z
 _atom_site_occupancy
  Li  Li0  1  0.053621  0.343210  0.610049  1
  Li  Li1  1  0.054887  0.028153  0.151070  1
  Li  Li2  1  0.946379  0.843210  0.389951  1
  Li  Li3  1  0.945113  0.528153  0.848930  1
  Li  Li4  1  0.578529  0.484176  0.661647  1
  Li  Li5  1  0.611934  0.458624  0.067365  1
  Li  Li6  1  0.421471  0.984176  0.338353  1
  Li  Li7  1  0.388066  0.958624  0.932635  1
  Sn  Sn8  1  0.116192  0.694532  0.121966  1
  Sn  Sn9  1  0.883808  0.194532  0.878034  1
  Sn  Sn10  1  0.595558  0.830181  0.623592  1
  Sn  Sn11  1  0.404442  0.330181  0.376408  1
  B  B12  1  0.078307  0.668745  0.634207  1
  B  B13  1  0.104642  0.350808  0.118358  1
  B  B14  1  0.921693  0.168745  0.365793  1
  B  B15  1  0.895358  0.850808  0.881642  1
  B  B16  1  0.580308  0.170962  0.619864  1
  B  B17  1  0.573737  0.799458  0.128497  1
  B  B18  1  0.419692  0.670962  0.380136  1
  B  B19  1  0.426263  0.299458  0.871503  1
  O  O20  1  0.178304  0.688894  0.318999  1
  O  O21  1  0.175954  0.343055  0.847067  1
  O  O22  1  0.070512  0.051004  0.337811  1
  O  O23  1  0.024479  0.984212  0.905019  1
  O  O24  1  0.012695  0.721559  0.927561  1
  O  O25  1  0.976378  0.807823  0.595677  1
  O  O26  1  0.023622  0.307823  0.404323  1
  O  O27  1  0.987305  0.221559  0.072439  1
  O  O28  1  0.975521  0.484212  0.094981  1
  O  O29  1  0.929488  0.551004  0.662189  1
  O  O30  1  0.821696  0.188894  0.681001  1
  O  O31  1  0.824046  0.843055  0.152933  1
  O  O32  1  0.651940  0.158119  0.355925  1
  O  O33  1  0.653750  0.848604  0.819541  1
  O  O34  1  0.632146  0.397880  0.869685  1
  O  O35  1  0.537801  0.536410  0.404590  1
  O  O36  1  0.550594  0.800957  0.422322  1
  O  O37  1  0.504060  0.653062  0.102238  1
  O  O38  1  0.495940  0.153062  0.897762  1
  O  O39  1  0.449406  0.300957  0.577678  1
  O  O40  1  0.462199  0.036410  0.595410  1
  O  O41  1  0.367854  0.897880  0.130315  1
  O  O42  1  0.348060  0.658119  0.644075  1
  O  O43  1  0.346250  0.348604  0.180459  1
