# generated using pymatgen
data_Li2MnFe(BO3)2
_symmetry_space_group_name_H-M   'P 1'
_cell_length_a   5.15604817
_cell_length_b   5.22156491
_cell_length_c   11.07919744
_cell_angle_alpha   77.13804660
_cell_angle_beta   78.96327061
_cell_angle_gamma   60.98910999
_symmetry_Int_Tables_number   1
_chemical_formula_structural   Li2MnFe(BO3)2
_chemical_formula_sum   'Li4 Mn2 Fe2 B4 O12'
_cell_volume   253.08808080
_cell_formula_units_Z   2
loop_
 _symmetry_equiv_pos_site_id
 _symmetry_equiv_pos_as_xyz
  1  'x, y, z'
loop_
 _atom_site_type_symbol
 _atom_site_label
 _atom_site_symmetry_multiplicity
 _atom_site_fract_x
 _atom_site_fract_y
 _atom_site_fract_z
 _atom_site_occupancy
  Li  Li0  1  0.394069  0.540087  0.838521  1
  Li  Li1  1  0.097288  0.966655  0.666562  1
  Li  Li2  1  0.902712  0.033345  0.333438  1
  Li  Li3  1  0.605931  0.459913  0.161479  1
  Mn  Mn4  1  0.776152  0.637503  0.616309  1
  Mn  Mn5  1  0.223848  0.362497  0.383691  1
  Fe  Fe6  1  0.718649  0.862688  0.885136  1
  Fe  Fe7  1  0.281351  0.137312  0.114864  1
  B  B8  1  0.056565  0.209084  0.872290  1
  B  B9  1  0.439225  0.294647  0.632960  1
  B  B10  1  0.560775  0.705353  0.367040  1
  B  B11  1  0.943435  0.790916  0.127710  1
  O  O12  1  0.799002  0.474437  0.845921  1
  O  O13  1  0.295104  0.215900  0.912172  1
  O  O14  1  0.080113  0.945956  0.854130  1
  O  O15  1  0.696293  0.034526  0.661397  1
  O  O16  1  0.403537  0.563313  0.651663  1
  O  O17  1  0.208636  0.282585  0.588403  1
  O  O18  1  0.791364  0.717415  0.411597  1
  O  O19  1  0.596463  0.436687  0.348337  1
  O  O20  1  0.303707  0.965474  0.338603  1
  O  O21  1  0.919887  0.054044  0.145870  1
  O  O22  1  0.704896  0.784100  0.087828  1
  O  O23  1  0.200998  0.525563  0.154079  1
