# generated using pymatgen
data_Li5Mn6(BO3)6
_symmetry_space_group_name_H-M   'P 1'
_cell_length_a   6.22687497
_cell_length_b   7.86907801
_cell_length_c   9.07476710
_cell_angle_alpha   109.22003287
_cell_angle_beta   106.86466412
_cell_angle_gamma   101.29719274
_symmetry_Int_Tables_number   1
_chemical_formula_structural   Li5Mn6(BO3)6
_chemical_formula_sum   'Li5 Mn6 B6 O18'
_cell_volume   380.35330788
_cell_formula_units_Z   1
loop_
 _symmetry_equiv_pos_site_id
 _symmetry_equiv_pos_as_xyz
  1  'x, y, z'
loop_
 _atom_site_type_symbol
 _atom_site_label
 _atom_site_symmetry_multiplicity
 _atom_site_fract_x
 _atom_site_fract_y
 _atom_site_fract_z
 _atom_site_occupancy
  Li  Li0  1  0.016481  0.335126  0.286627  1
  Li  Li1  1  0.317114  0.001668  0.385046  1
  Li  Li2  1  0.656675  0.332717  0.045605  1
  Li  Li3  1  0.682307  0.001061  0.620180  1
  Li  Li4  1  0.001228  0.654348  0.720177  1
  Mn  Mn5  1  0.398438  0.628347  0.627565  1
  Mn  Mn6  1  0.275299  0.034561  0.718247  1
  Mn  Mn7  1  0.063734  0.309922  0.943948  1
  Mn  Mn8  1  0.965678  0.716145  0.058473  1
  Mn  Mn9  1  0.702859  0.949132  0.266600  1
  Mn  Mn10  1  0.609000  0.365563  0.383927  1
  B  B11  1  0.734194  0.974431  0.949765  1
  B  B12  1  0.627955  0.365637  0.719141  1
  B  B13  1  0.955402  0.689430  0.382482  1
  B  B14  1  0.035501  0.292775  0.606345  1
  B  B15  1  0.359712  0.644793  0.292418  1
  B  B16  1  0.281659  0.032345  0.047978  1
  O  O17  1  0.592432  0.913692  0.781003  1
  O  O18  1  0.338102  0.511514  0.361080  1
  O  O19  1  0.867840  0.162314  0.047916  1
  O  O20  1  0.331049  0.163773  0.979141  1
  O  O21  1  0.752800  0.430117  0.892252  1
  O  O22  1  0.079519  0.751552  0.554584  1
  O  O23  1  0.479039  0.180269  0.621402  1
  O  O24  1  0.804898  0.506680  0.283222  1
  O  O25  1  0.992378  0.816820  0.305976  1
  O  O26  1  0.998264  0.167305  0.684119  1
  O  O27  1  0.183382  0.474859  0.703945  1
  O  O28  1  0.518866  0.824947  0.384880  1
  O  O29  1  0.910581  0.229635  0.432874  1
  O  O30  1  0.206722  0.591644  0.124332  1
  O  O31  1  0.724195  0.843528  0.026048  1
  O  O32  1  0.118503  0.854161  0.945211  1
  O  O33  1  0.667799  0.490216  0.642856  1
  O  O34  1  0.403802  0.080898  0.218704  1
