# generated using pymatgen
data_LiGdO2
_symmetry_space_group_name_H-M   'P 1'
_cell_length_a   6.20116770
_cell_length_b   6.20116770
_cell_length_c   6.20116770
_cell_angle_alpha   137.21315297
_cell_angle_beta   137.21315297
_cell_angle_gamma   62.11025424
_symmetry_Int_Tables_number   1
_chemical_formula_structural   LiGdO2
_chemical_formula_sum   'Li2 Gd2 O4'
_cell_volume   108.72581965
_cell_formula_units_Z   2
loop_
 _symmetry_equiv_pos_site_id
 _symmetry_equiv_pos_as_xyz
  1  'x, y, z'
loop_
 _atom_site_type_symbol
 _atom_site_label
 _atom_site_symmetry_multiplicity
 _atom_site_fract_x
 _atom_site_fract_y
 _atom_site_fract_z
 _atom_site_occupancy
  Li  Li0  1  0.250000  0.750000  0.500000  1
  Li  Li1  1  0.500000  0.500000  0.000000  1
  Gd  Gd2  1  0.750000  0.250000  0.500000  1
  Gd  Gd3  1  0.000000  0.000000  0.000000  1
  O  O4  1  0.527347  0.027347  0.500000  1
  O  O5  1  0.972653  0.472653  0.500000  1
  O  O6  1  0.222653  0.222653  0.000000  1
  O  O7  1  0.777347  0.777347  0.000000  1
