# generated using pymatgen
data_NaCr2O4
_symmetry_space_group_name_H-M   'P 1'
_cell_length_a   2.97350116
_cell_length_b   9.06493352
_cell_length_c   10.61801205
_cell_angle_alpha   90.00000000
_cell_angle_beta   90.00000000
_cell_angle_gamma   90.00000000
_symmetry_Int_Tables_number   1
_chemical_formula_structural   NaCr2O4
_chemical_formula_sum   'Na4 Cr8 O16'
_cell_volume   286.20416516
_cell_formula_units_Z   4
loop_
 _symmetry_equiv_pos_site_id
 _symmetry_equiv_pos_as_xyz
  1  'x, y, z'
loop_
 _atom_site_type_symbol
 _atom_site_label
 _atom_site_symmetry_multiplicity
 _atom_site_fract_x
 _atom_site_fract_y
 _atom_site_fract_z
 _atom_site_occupancy
  Na  Na0  1  0.250000  0.743166  0.152788  1
  Na  Na1  1  0.750000  0.756834  0.652788  1
  Na  Na2  1  0.250000  0.243166  0.347212  1
  Na  Na3  1  0.750000  0.256834  0.847212  1
  Cr  Cr4  1  0.250000  0.564118  0.387303  1
  Cr  Cr5  1  0.250000  0.580577  0.895074  1
  Cr  Cr6  1  0.750000  0.919423  0.395074  1
  Cr  Cr7  1  0.750000  0.935882  0.887303  1
  Cr  Cr8  1  0.250000  0.064118  0.112697  1
  Cr  Cr9  1  0.250000  0.080577  0.604926  1
  Cr  Cr10  1  0.750000  0.419423  0.104926  1
  Cr  Cr11  1  0.750000  0.435882  0.612697  1
  O  O12  1  0.750000  0.521256  0.784523  1
  O  O13  1  0.250000  0.575526  0.572472  1
  O  O14  1  0.750000  0.612751  0.017648  1
  O  O15  1  0.750000  0.705916  0.351262  1
  O  O16  1  0.250000  0.794084  0.851262  1
  O  O17  1  0.250000  0.887249  0.517648  1
  O  O18  1  0.750000  0.924474  0.072472  1
  O  O19  1  0.250000  0.978744  0.284523  1
  O  O20  1  0.750000  0.021256  0.715477  1
  O  O21  1  0.250000  0.075526  0.927528  1
  O  O22  1  0.750000  0.112751  0.482352  1
  O  O23  1  0.750000  0.205916  0.148738  1
  O  O24  1  0.250000  0.294084  0.648738  1
  O  O25  1  0.250000  0.387249  0.982352  1
  O  O26  1  0.750000  0.424474  0.427528  1
  O  O27  1  0.250000  0.478744  0.215477  1
