# generated using pymatgen
data_LaTa2NO5
_symmetry_space_group_name_H-M   'P 1'
_cell_length_a   5.52936276
_cell_length_b   7.74117518
_cell_length_c   11.30557797
_cell_angle_alpha   89.96804785
_cell_angle_beta   89.99773737
_cell_angle_gamma   89.98394104
_symmetry_Int_Tables_number   1
_chemical_formula_structural   LaTa2NO5
_chemical_formula_sum   'La4 Ta8 N4 O20'
_cell_volume   483.92121666
_cell_formula_units_Z   4
loop_
 _symmetry_equiv_pos_site_id
 _symmetry_equiv_pos_as_xyz
  1  'x, y, z'
loop_
 _atom_site_type_symbol
 _atom_site_label
 _atom_site_symmetry_multiplicity
 _atom_site_fract_x
 _atom_site_fract_y
 _atom_site_fract_z
 _atom_site_occupancy
  La  La0  1  0.553341  0.752411  0.960624  1
  La  La1  1  0.045286  0.247632  0.542905  1
  La  La2  1  0.951935  0.754228  0.461661  1
  La  La3  1  0.448348  0.247572  0.037086  1
  Ta  Ta4  1  0.037477  0.997730  0.858462  1
  Ta  Ta5  1  0.039064  0.504257  0.856555  1
  Ta  Ta6  1  0.541695  0.002902  0.642853  1
  Ta  Ta7  1  0.538907  0.496451  0.643297  1
  Ta  Ta8  1  0.446709  0.000894  0.353551  1
  Ta  Ta9  1  0.457429  0.496435  0.357230  1
  Ta  Ta10  1  0.965121  0.492918  0.141598  1
  Ta  Ta11  1  0.964668  0.996018  0.148862  1
  N  N12  1  0.953748  0.749664  0.854100  1
  N  N13  1  0.451906  0.250952  0.643067  1
  N  N14  1  0.129828  0.941134  0.292530  1
  N  N15  1  0.044451  0.251626  0.145034  1
  O  O16  1  0.766442  0.036866  0.971778  1
  O  O17  1  0.771926  0.464661  0.976570  1
  O  O18  1  0.152798  0.250534  0.878001  1
  O  O19  1  0.372013  0.555672  0.788888  1
  O  O20  1  0.371757  0.944897  0.788664  1
  O  O21  1  0.873332  0.057002  0.710411  1
  O  O22  1  0.871974  0.443784  0.710015  1
  O  O23  1  0.649722  0.749600  0.620837  1
  O  O24  1  0.271712  0.536937  0.521725  1
  O  O25  1  0.272297  0.963263  0.524226  1
  O  O26  1  0.728501  0.033456  0.478772  1
  O  O27  1  0.728791  0.466595  0.474597  1
  O  O28  1  0.357755  0.252191  0.378105  1
  O  O29  1  0.549898  0.748903  0.357499  1
  O  O30  1  0.134907  0.558767  0.288947  1
  O  O31  1  0.626353  0.053684  0.211110  1
  O  O32  1  0.628424  0.448540  0.212971  1
  O  O33  1  0.843866  0.751060  0.121127  1
  O  O34  1  0.230385  0.536135  0.023246  1
  O  O35  1  0.227237  0.964629  0.023094  1
