# generated using pymatgen
data_Bi7(O2F3)3
_symmetry_space_group_name_H-M   'P 1'
_cell_length_a   21.02876242
_cell_length_b   21.02876242
_cell_length_c   5.83657009
_cell_angle_alpha   90.00000000
_cell_angle_beta   90.00000000
_cell_angle_gamma   164.00067737
_symmetry_Int_Tables_number   1
_chemical_formula_structural   Bi7(O2F3)3
_chemical_formula_sum   'Bi14 O12 F18'
_cell_volume   711.38598195
_cell_formula_units_Z   2
loop_
 _symmetry_equiv_pos_site_id
 _symmetry_equiv_pos_as_xyz
  1  'x, y, z'
loop_
 _atom_site_type_symbol
 _atom_site_label
 _atom_site_symmetry_multiplicity
 _atom_site_fract_x
 _atom_site_fract_y
 _atom_site_fract_z
 _atom_site_occupancy
  Bi  Bi0  1  0.613512  0.959611  0.293446  1
  Bi  Bi1  1  0.459611  0.113512  0.293446  1
  Bi  Bi2  1  0.283282  0.225271  0.252459  1
  Bi  Bi3  1  0.725271  0.783282  0.252459  1
  Bi  Bi4  1  0.942171  0.442171  0.258426  1
  Bi  Bi5  1  0.814602  0.611020  0.307153  1
  Bi  Bi6  1  0.111020  0.314602  0.307153  1
  Bi  Bi7  1  0.611020  0.814602  0.692847  1
  Bi  Bi8  1  0.314602  0.111020  0.692847  1
  Bi  Bi9  1  0.442171  0.942171  0.741574  1
  Bi  Bi10  1  0.783282  0.725271  0.747541  1
  Bi  Bi11  1  0.225271  0.283282  0.747541  1
  Bi  Bi12  1  0.959611  0.613512  0.706554  1
  Bi  Bi13  1  0.113512  0.459611  0.706554  1
  O  O14  1  0.983025  0.983025  0.000000  1
  O  O15  1  0.483025  0.483025  0.000000  1
  O  O16  1  0.160170  0.867855  0.477771  1
  O  O17  1  0.367855  0.660170  0.477771  1
  O  O18  1  0.042523  0.895448  0.492645  1
  O  O19  1  0.395448  0.542523  0.492645  1
  O  O20  1  0.505325  0.505325  0.500000  1
  O  O21  1  0.005325  0.005325  0.500000  1
  O  O22  1  0.895448  0.042523  0.507355  1
  O  O23  1  0.542523  0.395448  0.507355  1
  O  O24  1  0.660170  0.367855  0.522229  1
  O  O25  1  0.867855  0.160170  0.522229  1
  F  F26  1  0.660907  0.532191  0.048277  1
  F  F27  1  0.032191  0.160907  0.048277  1
  F  F28  1  0.488352  0.225816  0.081985  1
  F  F29  1  0.725816  0.988352  0.081985  1
  F  F30  1  0.586508  0.086508  0.107938  1
  F  F31  1  0.950114  0.343456  0.126516  1
  F  F32  1  0.843456  0.450114  0.126516  1
  F  F33  1  0.199454  0.763857  0.460955  1
  F  F34  1  0.263857  0.699454  0.460955  1
  F  F35  1  0.699454  0.263857  0.539045  1
  F  F36  1  0.763857  0.199454  0.539045  1
  F  F37  1  0.343456  0.950114  0.873484  1
  F  F38  1  0.450114  0.843456  0.873484  1
  F  F39  1  0.086508  0.586508  0.892062  1
  F  F40  1  0.988352  0.725816  0.918015  1
  F  F41  1  0.225816  0.488352  0.918015  1
  F  F42  1  0.160907  0.032191  0.951723  1
  F  F43  1  0.532191  0.660907  0.951723  1
