# generated using pymatgen
data_LiFeF3
_symmetry_space_group_name_H-M   'P 1'
_cell_length_a   3.99799841
_cell_length_b   6.46731392
_cell_length_c   9.91315115
_cell_angle_alpha   90.00000000
_cell_angle_beta   90.00000000
_cell_angle_gamma   90.00000000
_symmetry_Int_Tables_number   1
_chemical_formula_structural   LiFeF3
_chemical_formula_sum   'Li4 Fe4 F12'
_cell_volume   256.31751674
_cell_formula_units_Z   4
loop_
 _symmetry_equiv_pos_site_id
 _symmetry_equiv_pos_as_xyz
  1  'x, y, z'
loop_
 _atom_site_type_symbol
 _atom_site_label
 _atom_site_symmetry_multiplicity
 _atom_site_fract_x
 _atom_site_fract_y
 _atom_site_fract_z
 _atom_site_occupancy
  Li  Li0  1  0.750000  0.220547  0.441549  1
  Li  Li1  1  0.750000  0.720547  0.058451  1
  Li  Li2  1  0.250000  0.279453  0.941549  1
  Li  Li3  1  0.250000  0.779453  0.558451  1
  Fe  Fe4  1  0.750000  0.074646  0.758039  1
  Fe  Fe5  1  0.750000  0.574646  0.741961  1
  Fe  Fe6  1  0.250000  0.425354  0.258039  1
  Fe  Fe7  1  0.250000  0.925354  0.241961  1
  F  F8  1  0.750000  0.345106  0.896061  1
  F  F9  1  0.750000  0.845106  0.603939  1
  F  F10  1  0.750000  0.313091  0.618189  1
  F  F11  1  0.750000  0.402467  0.285266  1
  F  F12  1  0.750000  0.813091  0.881811  1
  F  F13  1  0.750000  0.902467  0.214734  1
  F  F14  1  0.250000  0.097533  0.785266  1
  F  F15  1  0.250000  0.186909  0.118189  1
  F  F16  1  0.250000  0.597533  0.714734  1
  F  F17  1  0.250000  0.686909  0.381811  1
  F  F18  1  0.250000  0.154894  0.396061  1
  F  F19  1  0.250000  0.654894  0.103939  1
