# generated using pymatgen
data_Li8ScFe7(SiO3)16
_symmetry_space_group_name_H-M   'P 1'
_cell_length_a   7.34279053
_cell_length_b   9.54283440
_cell_length_c   13.22180301
_cell_angle_alpha   102.82458725
_cell_angle_beta   95.41935643
_cell_angle_gamma   102.27102439
_symmetry_Int_Tables_number   1
_chemical_formula_structural   Li8ScFe7(SiO3)16
_chemical_formula_sum   'Li8 Sc1 Fe7 Si16 O48'
_cell_volume   872.90948635
_cell_formula_units_Z   1
loop_
 _symmetry_equiv_pos_site_id
 _symmetry_equiv_pos_as_xyz
  1  'x, y, z'
loop_
 _atom_site_type_symbol
 _atom_site_label
 _atom_site_symmetry_multiplicity
 _atom_site_fract_x
 _atom_site_fract_y
 _atom_site_fract_z
 _atom_site_occupancy
  Li  Li0  1  0.250689  0.999773  0.374572  1
  Li  Li1  1  0.247925  0.503532  0.128613  1
  Li  Li2  1  0.750205  0.499729  0.374873  1
  Li  Li3  1  0.247041  0.995823  0.873890  1
  Li  Li4  1  0.249843  0.500022  0.624895  1
  Li  Li5  1  0.749380  0.000704  0.125820  1
  Li  Li6  1  0.754347  0.502595  0.874617  1
  Li  Li7  1  0.748566  0.000477  0.625365  1
  Sc  Sc8  1  0.426040  0.323859  0.948860  1
  Fe  Fe9  1  0.574561  0.678888  0.052441  1
  Fe  Fe10  1  0.071514  0.175927  0.052366  1
  Fe  Fe11  1  0.926636  0.823462  0.448413  1
  Fe  Fe12  1  0.573402  0.676031  0.551459  1
  Fe  Fe13  1  0.426475  0.323250  0.448739  1
  Fe  Fe14  1  0.073170  0.176381  0.551142  1
  Fe  Fe15  1  0.926019  0.824178  0.948504  1
  Si  Si16  1  0.327585  0.942194  0.104181  1
  Si  Si17  1  0.988818  0.781057  0.193398  1
  Si  Si18  1  0.513301  0.720016  0.307466  1
  Si  Si19  1  0.829179  0.443308  0.104862  1
  Si  Si20  1  0.326335  0.940799  0.603298  1
  Si  Si21  1  0.173617  0.558809  0.396243  1
  Si  Si22  1  0.487044  0.281109  0.194389  1
  Si  Si23  1  0.011690  0.219524  0.307357  1
  Si  Si24  1  0.987249  0.779916  0.692516  1
  Si  Si25  1  0.512320  0.717335  0.806324  1
  Si  Si26  1  0.828217  0.440998  0.602244  1
  Si  Si27  1  0.172440  0.560250  0.896648  1
  Si  Si28  1  0.672994  0.059059  0.396761  1
  Si  Si29  1  0.489183  0.280191  0.690086  1
  Si  Si30  1  0.008722  0.218340  0.806856  1
  Si  Si31  1  0.673298  0.055060  0.895368  1
  O  O32  1  0.176084  0.974307  0.016003  1
  O  O33  1  0.480179  0.855281  0.057538  1
  O  O34  1  0.205653  0.851975  0.177741  1
  O  O35  1  0.841517  0.809723  0.101407  1
  O  O36  1  0.544713  0.899585  0.323724  1
  O  O37  1  0.682682  0.479566  0.016887  1
  O  O38  1  0.175211  0.973898  0.515366  1
  O  O39  1  0.529265  0.641876  0.187816  1
  O  O40  1  0.296333  0.647997  0.322378  1
  O  O41  1  0.336382  0.309676  0.104419  1
  O  O42  1  0.022680  0.647362  0.443172  1
  O  O43  1  0.972581  0.859624  0.312903  1
  O  O44  1  0.045132  0.399280  0.323098  1
  O  O45  1  0.959614  0.601612  0.178438  1
  O  O46  1  0.024304  0.139771  0.187454  1
  O  O47  1  0.477018  0.851840  0.556554  1
  O  O48  1  0.977754  0.352683  0.057504  1
  O  O49  1  0.660230  0.690930  0.399399  1
  O  O50  1  0.204189  0.852178  0.677615  1
  O  O51  1  0.702706  0.352908  0.176844  1
  O  O52  1  0.474661  0.359911  0.314239  1
  O  O53  1  0.324401  0.525920  0.484366  1
  O  O54  1  0.455262  0.101533  0.177792  1
  O  O55  1  0.839996  0.809173  0.600778  1
  O  O56  1  0.159526  0.190095  0.398634  1
  O  O57  1  0.546041  0.896580  0.821055  1
  O  O58  1  0.676458  0.474491  0.515049  1
  O  O59  1  0.527769  0.638321  0.686763  1
  O  O60  1  0.294858  0.647677  0.821864  1
  O  O61  1  0.794874  0.149663  0.323501  1
  O  O62  1  0.340731  0.308825  0.598730  1
  O  O63  1  0.521545  0.146862  0.443740  1
  O  O64  1  0.020288  0.648039  0.942075  1
  O  O65  1  0.971627  0.857747  0.812259  1
  O  O66  1  0.044823  0.398942  0.825337  1
  O  O67  1  0.955970  0.600210  0.676025  1
  O  O68  1  0.026272  0.142295  0.686993  1
  O  O69  1  0.980081  0.353505  0.555282  1
  O  O70  1  0.658984  0.690286  0.899354  1
  O  O71  1  0.706604  0.348748  0.674606  1
  O  O72  1  0.473364  0.360038  0.808962  1
  O  O73  1  0.323014  0.531509  0.986543  1
  O  O74  1  0.824123  0.025877  0.484615  1
  O  O75  1  0.455112  0.100601  0.675346  1
  O  O76  1  0.152142  0.185705  0.898268  1
  O  O77  1  0.791468  0.147369  0.821465  1
  O  O78  1  0.522970  0.141879  0.943870  1
  O  O79  1  0.825000  0.023535  0.983664  1
