# generated using pymatgen
data_MnV4CrO12
_symmetry_space_group_name_H-M   'P 1'
_cell_length_a   6.83177095
_cell_length_b   6.83177095
_cell_length_c   5.90292052
_cell_angle_alpha   74.87499657
_cell_angle_beta   105.12500343
_cell_angle_gamma   95.49210986
_symmetry_Int_Tables_number   1
_chemical_formula_structural   MnV4CrO12
_chemical_formula_sum   'Mn1 V4 Cr1 O12'
_cell_volume   256.63754199
_cell_formula_units_Z   1
loop_
 _symmetry_equiv_pos_site_id
 _symmetry_equiv_pos_as_xyz
  1  'x, y, z'
loop_
 _atom_site_type_symbol
 _atom_site_label
 _atom_site_symmetry_multiplicity
 _atom_site_fract_x
 _atom_site_fract_y
 _atom_site_fract_z
 _atom_site_occupancy
  Mn  Mn0  1  0.084802  0.084802  0.500000  1
  V  V1  1  0.392918  0.791927  0.015513  1
  V  V2  1  0.206515  0.610302  0.509787  1
  V  V3  1  0.791927  0.392918  0.984487  1
  V  V4  1  0.610302  0.206515  0.490213  1
  Cr  Cr5  1  0.916506  0.916506  0.000000  1
  O  O6  1  0.194969  0.960807  0.908053  1
  O  O7  1  0.626284  0.907070  0.039159  1
  O  O8  1  0.033967  0.805168  0.376836  1
  O  O9  1  0.354091  0.638826  0.804016  1
  O  O10  1  0.907070  0.626284  0.960841  1
  O  O11  1  0.368423  0.640691  0.302789  1
  O  O12  1  0.638826  0.354091  0.195984  1
  O  O13  1  0.083731  0.383003  0.534594  1
  O  O14  1  0.640691  0.368423  0.697211  1
  O  O15  1  0.960807  0.194969  0.091947  1
  O  O16  1  0.383003  0.083731  0.465406  1
  O  O17  1  0.805168  0.033967  0.623164  1
