# generated using pymatgen
data_Li4NbTe2WO12
_symmetry_space_group_name_H-M   'P 1'
_cell_length_a   5.24959171
_cell_length_b   5.70154203
_cell_length_c   7.89129704
_cell_angle_alpha   96.89947151
_cell_angle_beta   90.13462387
_cell_angle_gamma   90.30762028
_symmetry_Int_Tables_number   1
_chemical_formula_structural   Li4NbTe2WO12
_chemical_formula_sum   'Li4 Nb1 Te2 W1 O12'
_cell_volume   234.47773228
_cell_formula_units_Z   1
loop_
 _symmetry_equiv_pos_site_id
 _symmetry_equiv_pos_as_xyz
  1  'x, y, z'
loop_
 _atom_site_type_symbol
 _atom_site_label
 _atom_site_symmetry_multiplicity
 _atom_site_fract_x
 _atom_site_fract_y
 _atom_site_fract_z
 _atom_site_occupancy
  Li  Li0  1  0.999432  0.424774  0.296002  1
  Li  Li1  1  0.500737  0.906621  0.788300  1
  Li  Li2  1  0.004446  0.430279  0.780638  1
  Li  Li3  1  0.492598  0.926683  0.292374  1
  Nb  Nb4  1  0.500546  0.491165  0.512240  1
  Te  Te5  1  0.011333  0.990624  0.516041  1
  Te  Te6  1  0.499330  0.462825  0.018995  1
  W  W7  1  0.998459  0.989642  0.009186  1
  O  O8  1  0.305781  0.198309  0.429270  1
  O  O9  1  0.137694  0.042109  0.751245  1
  O  O10  1  0.310127  0.876516  0.061211  1
  O  O11  1  0.203369  0.705905  0.419033  1
  O  O12  1  0.848508  0.718875  0.906570  1
  O  O13  1  0.355213  0.537050  0.724971  1
  O  O14  1  0.626364  0.491517  0.249424  1
  O  O15  1  0.156506  0.328518  0.056174  1
  O  O16  1  0.816339  0.326236  0.555285  1
  O  O17  1  0.692596  0.181241  0.925834  1
  O  O18  1  0.855608  0.007778  0.225870  1
  O  O19  1  0.685013  0.820932  0.552536  1
