# generated using pymatgen
data_Li5VP2(O4F)2
_symmetry_space_group_name_H-M   'P 1'
_cell_length_a   10.09538808
_cell_length_b   10.09538808
_cell_length_c   6.57593337
_cell_angle_alpha   90.00000000
_cell_angle_beta   90.00000000
_cell_angle_gamma   120.00000000
_symmetry_Int_Tables_number   1
_chemical_formula_structural   Li5VP2(O4F)2
_chemical_formula_sum   'Li15 V3 P6 O24 F6'
_cell_volume   580.40891309
_cell_formula_units_Z   3
loop_
 _symmetry_equiv_pos_site_id
 _symmetry_equiv_pos_as_xyz
  1  'x, y, z'
loop_
 _atom_site_type_symbol
 _atom_site_label
 _atom_site_symmetry_multiplicity
 _atom_site_fract_x
 _atom_site_fract_y
 _atom_site_fract_z
 _atom_site_occupancy
  Li  Li0  1  0.833706  0.167399  0.502845  1
  Li  Li1  1  0.000000  0.000000  0.561021  1
  Li  Li2  1  0.000000  0.000000  0.959030  1
  Li  Li3  1  0.666667  0.333333  0.448626  1
  Li  Li4  1  0.666667  0.333333  0.051483  1
  Li  Li5  1  0.832601  0.666307  0.502845  1
  Li  Li6  1  0.333693  0.166294  0.502845  1
  Li  Li7  1  0.129933  0.814625  0.737579  1
  Li  Li8  1  0.986166  0.467243  0.271436  1
  Li  Li9  1  0.481077  0.013834  0.271436  1
  Li  Li10  1  0.333333  0.666667  0.978373  1
  Li  Li11  1  0.333333  0.666667  0.491689  1
  Li  Li12  1  0.185375  0.315308  0.737579  1
  Li  Li13  1  0.684692  0.870067  0.737579  1
  Li  Li14  1  0.532757  0.518923  0.271436  1
  V  V15  1  0.833808  0.167179  0.004486  1
  V  V16  1  0.832821  0.666629  0.004486  1
  V  V17  1  0.333371  0.166192  0.004486  1
  P  P18  1  0.702310  0.854723  0.266203  1
  P  P19  1  0.152413  0.297690  0.266203  1
  P  P20  1  0.964986  0.480129  0.743795  1
  P  P21  1  0.145277  0.847587  0.266203  1
  P  P22  1  0.515143  0.035014  0.743795  1
  P  P23  1  0.519871  0.484857  0.743795  1
  O  O24  1  0.686015  0.073276  0.766399  1
  O  O25  1  0.783664  0.958312  0.076087  1
  O  O26  1  0.781341  0.944803  0.460655  1
  O  O27  1  0.982421  0.261988  0.241818  1
  O  O28  1  0.738012  0.720433  0.241818  1
  O  O29  1  0.163463  0.218659  0.460655  1
  O  O30  1  0.174648  0.216336  0.076087  1
  O  O31  1  0.926724  0.612739  0.766399  1
  O  O32  1  0.041688  0.825352  0.076087  1
  O  O33  1  0.055197  0.836537  0.460655  1
  O  O34  1  0.888323  0.390290  0.548189  1
  O  O35  1  0.883316  0.375766  0.932848  1
  O  O36  1  0.279567  0.017579  0.241818  1
  O  O37  1  0.387261  0.313985  0.766399  1
  O  O38  1  0.208399  0.737248  0.263156  1
  O  O39  1  0.138718  0.545745  0.749613  1
  O  O40  1  0.492450  0.116684  0.932848  1
  O  O41  1  0.501967  0.111677  0.548189  1
  O  O42  1  0.407027  0.861282  0.749613  1
  O  O43  1  0.262752  0.471151  0.263156  1
  O  O44  1  0.528849  0.791601  0.263156  1
  O  O45  1  0.454255  0.592973  0.749613  1
  O  O46  1  0.609710  0.498033  0.548189  1
  O  O47  1  0.624234  0.507550  0.932848  1
  F  F48  1  0.694105  0.179427  0.224961  1
  F  F49  1  0.972867  0.153632  0.784477  1
  F  F50  1  0.846368  0.819235  0.784477  1
  F  F51  1  0.820573  0.514679  0.224961  1
  F  F52  1  0.180765  0.027133  0.784477  1
  F  F53  1  0.485321  0.305895  0.224961  1
