# generated using pymatgen
data_KFePO4
_symmetry_space_group_name_H-M   'P 1'
_cell_length_a   5.40459222
_cell_length_b   6.76300213
_cell_length_c   10.43027048
_cell_angle_alpha   90.00000000
_cell_angle_beta   90.00000000
_cell_angle_gamma   90.00000000
_symmetry_Int_Tables_number   1
_chemical_formula_structural   KFePO4
_chemical_formula_sum   'K4 Fe4 P4 O16'
_cell_volume   381.23961863
_cell_formula_units_Z   4
loop_
 _symmetry_equiv_pos_site_id
 _symmetry_equiv_pos_as_xyz
  1  'x, y, z'
loop_
 _atom_site_type_symbol
 _atom_site_label
 _atom_site_symmetry_multiplicity
 _atom_site_fract_x
 _atom_site_fract_y
 _atom_site_fract_z
 _atom_site_occupancy
  K  K0  1  0.000000  0.000000  0.000000  1
  K  K1  1  0.500000  0.000000  0.500000  1
  K  K2  1  0.000000  0.500000  0.000000  1
  K  K3  1  0.500000  0.500000  0.500000  1
  Fe  Fe4  1  0.028059  0.750000  0.297679  1
  Fe  Fe5  1  0.471941  0.750000  0.797679  1
  Fe  Fe6  1  0.971941  0.250000  0.702321  1
  Fe  Fe7  1  0.528059  0.250000  0.202321  1
  P  P8  1  0.541817  0.750000  0.125942  1
  P  P9  1  0.958183  0.750000  0.625942  1
  P  P10  1  0.458183  0.250000  0.874058  1
  P  P11  1  0.041817  0.250000  0.374058  1
  O  O12  1  0.743941  0.250000  0.857527  1
  O  O13  1  0.165174  0.434496  0.310905  1
  O  O14  1  0.665174  0.565504  0.189095  1
  O  O15  1  0.834826  0.934496  0.689095  1
  O  O16  1  0.334826  0.065504  0.810905  1
  O  O17  1  0.834826  0.565504  0.689095  1
  O  O18  1  0.334826  0.434496  0.810905  1
  O  O19  1  0.165174  0.065504  0.310905  1
  O  O20  1  0.256059  0.750000  0.142473  1
  O  O21  1  0.756059  0.250000  0.357527  1
  O  O22  1  0.665174  0.934496  0.189095  1
  O  O23  1  0.243941  0.750000  0.642473  1
  O  O24  1  0.602279  0.750000  0.978802  1
  O  O25  1  0.397721  0.250000  0.021198  1
  O  O26  1  0.102279  0.250000  0.521198  1
  O  O27  1  0.897721  0.750000  0.478802  1
