# generated using pymatgen
data_Li4Fe3OF8
_symmetry_space_group_name_H-M   'P 1'
_cell_length_a   5.14317277
_cell_length_b   5.14317277
_cell_length_c   11.66359980
_cell_angle_alpha   77.94213699
_cell_angle_beta   102.05786301
_cell_angle_gamma   146.85605676
_symmetry_Int_Tables_number   1
_chemical_formula_structural   Li4Fe3OF8
_chemical_formula_sum   'Li4 Fe3 O1 F8'
_cell_volume   164.63069698
_cell_formula_units_Z   1
loop_
 _symmetry_equiv_pos_site_id
 _symmetry_equiv_pos_as_xyz
  1  'x, y, z'
loop_
 _atom_site_type_symbol
 _atom_site_label
 _atom_site_symmetry_multiplicity
 _atom_site_fract_x
 _atom_site_fract_y
 _atom_site_fract_z
 _atom_site_occupancy
  Li  Li0  1  0.131980  0.868020  0.560529  1
  Li  Li1  1  0.226666  0.773334  0.876675  1
  Li  Li2  1  0.848774  0.151226  0.447962  1
  Li  Li3  1  0.002054  0.997946  0.992259  1
  Fe  Fe4  1  0.577017  0.422983  0.270165  1
  Fe  Fe5  1  0.760740  0.239260  0.123043  1
  Fe  Fe6  1  0.427815  0.572185  0.702876  1
  O  O7  1  0.128303  0.871697  0.161084  1
  F  F8  1  0.629479  0.370521  0.948128  1
  F  F9  1  0.087743  0.912257  0.724814  1
  F  F10  1  0.185082  0.814918  0.402788  1
  F  F11  1  0.785543  0.214457  0.605775  1
  F  F12  1  0.867532  0.132468  0.830067  1
  F  F13  1  0.911336  0.088664  0.287324  1
  F  F14  1  0.370918  0.629082  0.041708  1
  F  F15  1  0.483363  0.516637  0.525509  1
