# generated using pymatgen
data_Li4V5Fe3O16
_symmetry_space_group_name_H-M   'P 1'
_cell_length_a   5.90102843
_cell_length_b   5.95171688
_cell_length_c   9.54574564
_cell_angle_alpha   89.39069601
_cell_angle_beta   89.18656767
_cell_angle_gamma   60.55641816
_symmetry_Int_Tables_number   1
_chemical_formula_structural   Li4V5Fe3O16
_chemical_formula_sum   'Li4 V5 Fe3 O16'
_cell_volume   291.92458977
_cell_formula_units_Z   1
loop_
 _symmetry_equiv_pos_site_id
 _symmetry_equiv_pos_as_xyz
  1  'x, y, z'
loop_
 _atom_site_type_symbol
 _atom_site_label
 _atom_site_symmetry_multiplicity
 _atom_site_fract_x
 _atom_site_fract_y
 _atom_site_fract_z
 _atom_site_occupancy
  Li  Li0  1  0.658177  0.668261  0.896748  1
  Li  Li1  1  0.006590  0.999398  0.994716  1
  Li  Li2  1  0.000872  0.007149  0.494751  1
  Li  Li3  1  0.326893  0.329909  0.392045  1
  V  V4  1  0.170586  0.178896  0.719677  1
  V  V5  1  0.666669  0.667053  0.490753  1
  V  V6  1  0.346522  0.821914  0.221088  1
  V  V7  1  0.333035  0.334300  0.990039  1
  V  V8  1  0.168174  0.657634  0.710097  1
  Fe  Fe9  1  0.829334  0.340197  0.211849  1
  Fe  Fe10  1  0.830978  0.832879  0.210616  1
  Fe  Fe11  1  0.665721  0.166934  0.712756  1
  O  O12  1  0.838529  0.334493  0.596192  1
  O  O13  1  0.947776  0.525600  0.346412  1
  O  O14  1  0.646047  0.678932  0.104399  1
  O  O15  1  0.014273  0.995946  0.305438  1
  O  O16  1  0.008236  0.007328  0.805772  1
  O  O17  1  0.840601  0.829587  0.598109  1
  O  O18  1  0.509395  0.526208  0.344142  1
  O  O19  1  0.514503  0.958275  0.342930  1
  O  O20  1  0.668996  0.170137  0.097101  1
  O  O21  1  0.348702  0.822726  0.594660  1
  O  O22  1  0.472624  0.040324  0.843840  1
  O  O23  1  0.472441  0.475797  0.845983  1
  O  O24  1  0.332200  0.314737  0.602498  1
  O  O25  1  0.175884  0.174127  0.094458  1
  O  O26  1  0.034439  0.474339  0.843410  1
  O  O27  1  0.171801  0.666618  0.097358  1
