# generated using pymatgen
data_LaTiNO2
_symmetry_space_group_name_H-M   'P 1'
_cell_length_a   5.59311601
_cell_length_b   5.59367622
_cell_length_c   8.00479979
_cell_angle_alpha   90.03583267
_cell_angle_beta   90.04115172
_cell_angle_gamma   90.38705548
_symmetry_Int_Tables_number   1
_chemical_formula_structural   LaTiNO2
_chemical_formula_sum   'La4 Ti4 N4 O8'
_cell_volume   250.43297791
_cell_formula_units_Z   4
loop_
 _symmetry_equiv_pos_site_id
 _symmetry_equiv_pos_as_xyz
  1  'x, y, z'
loop_
 _atom_site_type_symbol
 _atom_site_label
 _atom_site_symmetry_multiplicity
 _atom_site_fract_x
 _atom_site_fract_y
 _atom_site_fract_z
 _atom_site_occupancy
  La  La0  1  0.500975  0.995660  0.764608  1
  La  La1  1  0.500796  0.999445  0.236422  1
  La  La2  1  0.004589  0.496325  0.241455  1
  La  La3  1  0.001682  0.493309  0.767174  1
  Ti  Ti4  1  0.512020  0.499800  0.000387  1
  Ti  Ti5  1  0.500395  0.496321  0.513180  1
  Ti  Ti6  1  0.997833  0.985822  0.003238  1
  Ti  Ti7  1  0.002624  0.998893  0.500033  1
  N  N8  1  0.294935  0.806624  0.998686  1
  N  N9  1  0.494578  0.497580  0.744247  1
  N  N10  1  0.697663  0.202721  0.997840  1
  N  N11  1  0.796788  0.705738  0.002899  1
  O  O12  1  0.197107  0.703801  0.495720  1
  O  O13  1  0.188083  0.309548  0.002722  1
  O  O14  1  0.298360  0.197383  0.495147  1
  O  O15  1  0.488439  0.493034  0.251537  1
  O  O16  1  0.706840  0.800168  0.492860  1
  O  O17  1  0.803568  0.298464  0.495190  1
  O  O18  1  0.006287  0.010113  0.742876  1
  O  O19  1  0.006556  0.009250  0.253778  1
