# generated using pymatgen
data_BaTm2O4
_symmetry_space_group_name_H-M   'P 1'
_cell_length_a   5.86264194
_cell_length_b   5.86264194
_cell_length_c   11.39981045
_cell_angle_alpha   90.00000000
_cell_angle_beta   90.00000000
_cell_angle_gamma   146.20994224
_symmetry_Int_Tables_number   1
_chemical_formula_structural   BaTm2O4
_chemical_formula_sum   'Ba2 Tm4 O8'
_cell_volume   217.91012704
_cell_formula_units_Z   2
loop_
 _symmetry_equiv_pos_site_id
 _symmetry_equiv_pos_as_xyz
  1  'x, y, z'
loop_
 _atom_site_type_symbol
 _atom_site_label
 _atom_site_symmetry_multiplicity
 _atom_site_fract_x
 _atom_site_fract_y
 _atom_site_fract_z
 _atom_site_occupancy
  Ba  Ba0  1  0.889362  0.110638  0.250000  1
  Ba  Ba1  1  0.110638  0.889362  0.750000  1
  Tm  Tm2  1  0.635373  0.364627  0.429727  1
  Tm  Tm3  1  0.635373  0.364627  0.070273  1
  Tm  Tm4  1  0.364627  0.635373  0.570273  1
  Tm  Tm5  1  0.364627  0.635373  0.929727  1
  O  O6  1  0.000000  0.000000  0.000000  1
  O  O7  1  0.000000  0.000000  0.500000  1
  O  O8  1  0.566723  0.433277  0.250000  1
  O  O9  1  0.740015  0.259985  0.600642  1
  O  O10  1  0.740015  0.259985  0.899358  1
  O  O11  1  0.433277  0.566723  0.750000  1
  O  O12  1  0.259985  0.740015  0.399358  1
  O  O13  1  0.259985  0.740015  0.100642  1
