# generated using pymatgen
data_La2Ti3O9
_symmetry_space_group_name_H-M   'P 1'
_cell_length_a   7.49684044
_cell_length_b   7.96320674
_cell_length_c   14.70064763
_cell_angle_alpha   90.00000000
_cell_angle_beta   90.00000000
_cell_angle_gamma   90.00000000
_symmetry_Int_Tables_number   1
_chemical_formula_structural   La2Ti3O9
_chemical_formula_sum   'La8 Ti12 O36'
_cell_volume   877.61235050
_cell_formula_units_Z   4
loop_
 _symmetry_equiv_pos_site_id
 _symmetry_equiv_pos_as_xyz
  1  'x, y, z'
loop_
 _atom_site_type_symbol
 _atom_site_label
 _atom_site_symmetry_multiplicity
 _atom_site_fract_x
 _atom_site_fract_y
 _atom_site_fract_z
 _atom_site_occupancy
  La  La0  1  0.835536  0.250000  0.584015  1
  La  La1  1  0.646606  0.250000  0.319841  1
  La  La2  1  0.853394  0.750000  0.819841  1
  La  La3  1  0.664464  0.750000  0.084015  1
  La  La4  1  0.335536  0.250000  0.915985  1
  La  La5  1  0.146606  0.250000  0.180159  1
  La  La6  1  0.353394  0.750000  0.680159  1
  La  La7  1  0.164464  0.750000  0.415985  1
  Ti  Ti8  1  0.000000  0.000000  0.000000  1
  Ti  Ti9  1  0.000000  0.500000  0.000000  1
  Ti  Ti10  1  0.827112  0.250000  0.851411  1
  Ti  Ti11  1  0.814644  0.750000  0.574864  1
  Ti  Ti12  1  0.685356  0.250000  0.074864  1
  Ti  Ti13  1  0.672888  0.750000  0.351411  1
  Ti  Ti14  1  0.500000  0.000000  0.500000  1
  Ti  Ti15  1  0.500000  0.500000  0.500000  1
  Ti  Ti16  1  0.327112  0.250000  0.648589  1
  Ti  Ti17  1  0.314644  0.750000  0.925136  1
  Ti  Ti18  1  0.185356  0.250000  0.425136  1
  Ti  Ti19  1  0.172888  0.750000  0.148589  1
  O  O20  1  0.035084  0.250000  0.006669  1
  O  O21  1  0.951972  0.250000  0.398548  1
  O  O22  1  0.861149  0.750000  0.429877  1
  O  O23  1  0.913668  0.028642  0.873709  1
  O  O24  1  0.913668  0.471358  0.873709  1
  O  O25  1  0.757323  0.250000  0.736986  1
  O  O26  1  0.808672  0.250000  0.187239  1
  O  O27  1  0.741232  0.978303  0.548288  1
  O  O28  1  0.741232  0.521697  0.548288  1
  O  O29  1  0.758768  0.021697  0.048288  1
  O  O30  1  0.758768  0.478303  0.048288  1
  O  O31  1  0.691328  0.750000  0.687239  1
  O  O32  1  0.742677  0.750000  0.236986  1
  O  O33  1  0.586332  0.528642  0.373709  1
  O  O34  1  0.586332  0.971358  0.373709  1
  O  O35  1  0.638851  0.250000  0.929877  1
  O  O36  1  0.548028  0.750000  0.898548  1
  O  O37  1  0.464916  0.750000  0.506669  1
  O  O38  1  0.535084  0.250000  0.493331  1
  O  O39  1  0.451972  0.250000  0.101452  1
  O  O40  1  0.361149  0.750000  0.070123  1
  O  O41  1  0.413668  0.028642  0.626291  1
  O  O42  1  0.413668  0.471358  0.626291  1
  O  O43  1  0.257323  0.250000  0.763014  1
  O  O44  1  0.308672  0.250000  0.312761  1
  O  O45  1  0.241232  0.521697  0.951712  1
  O  O46  1  0.241232  0.978303  0.951712  1
  O  O47  1  0.258768  0.021697  0.451712  1
  O  O48  1  0.258768  0.478303  0.451712  1
  O  O49  1  0.191328  0.750000  0.812761  1
  O  O50  1  0.242677  0.750000  0.263014  1
  O  O51  1  0.086332  0.528642  0.126291  1
  O  O52  1  0.086332  0.971358  0.126291  1
  O  O53  1  0.138851  0.250000  0.570123  1
  O  O54  1  0.048028  0.750000  0.601452  1
  O  O55  1  0.964916  0.750000  0.993331  1
