# generated using pymatgen
data_Li2Fe2Si2O7
_symmetry_space_group_name_H-M   'P 1'
_cell_length_a   5.53153586
_cell_length_b   13.37143855
_cell_length_c   10.00005277
_cell_angle_alpha   90.00000000
_cell_angle_beta   123.09630895
_cell_angle_gamma   90.00000000
_symmetry_Int_Tables_number   1
_chemical_formula_structural   Li2Fe2Si2O7
_chemical_formula_sum   'Li8 Fe8 Si8 O28'
_cell_volume   619.64451943
_cell_formula_units_Z   4
loop_
 _symmetry_equiv_pos_site_id
 _symmetry_equiv_pos_as_xyz
  1  'x, y, z'
loop_
 _atom_site_type_symbol
 _atom_site_label
 _atom_site_symmetry_multiplicity
 _atom_site_fract_x
 _atom_site_fract_y
 _atom_site_fract_z
 _atom_site_occupancy
  Li  Li0  1  0.260591  0.373643  0.894381  1
  Li  Li1  1  0.528105  0.753571  0.832565  1
  Li  Li2  1  0.471895  0.253571  0.667435  1
  Li  Li3  1  0.739409  0.873643  0.605619  1
  Li  Li4  1  0.260591  0.126357  0.394381  1
  Li  Li5  1  0.528105  0.746429  0.332565  1
  Li  Li6  1  0.471895  0.246429  0.167435  1
  Li  Li7  1  0.739409  0.626357  0.105619  1
  Fe  Fe8  1  0.051484  0.086653  0.882199  1
  Fe  Fe9  1  0.671379  0.491956  0.795023  1
  Fe  Fe10  1  0.328621  0.991956  0.704977  1
  Fe  Fe11  1  0.948516  0.586653  0.617801  1
  Fe  Fe12  1  0.051484  0.413347  0.382199  1
  Fe  Fe13  1  0.671379  0.008044  0.295023  1
  Fe  Fe14  1  0.328621  0.508044  0.204977  1
  Fe  Fe15  1  0.948516  0.913347  0.117801  1
  Si  Si16  1  0.266172  0.882610  0.965674  1
  Si  Si17  1  0.131800  0.670682  0.964397  1
  Si  Si18  1  0.868200  0.170682  0.535603  1
  Si  Si19  1  0.733828  0.382610  0.534326  1
  Si  Si20  1  0.266172  0.617390  0.465674  1
  Si  Si21  1  0.131800  0.829318  0.464397  1
  Si  Si22  1  0.868200  0.329318  0.035603  1
  Si  Si23  1  0.733828  0.117390  0.034326  1
  O  O24  1  0.061846  0.792383  0.970645  1
  O  O25  1  0.427645  0.162387  0.991283  1
  O  O26  1  0.709468  0.034898  0.905028  1
  O  O27  1  0.837235  0.616267  0.932305  1
  O  O28  1  0.583927  0.360099  0.859268  1
  O  O29  1  0.206378  0.655964  0.828968  1
  O  O30  1  0.084494  0.938158  0.790073  1
  O  O31  1  0.915506  0.438158  0.709927  1
  O  O32  1  0.793622  0.155964  0.671032  1
  O  O33  1  0.416073  0.860099  0.640732  1
  O  O34  1  0.162765  0.116267  0.567695  1
  O  O35  1  0.290532  0.534898  0.594972  1
  O  O36  1  0.572355  0.662387  0.508717  1
  O  O37  1  0.938154  0.292383  0.529355  1
  O  O38  1  0.061846  0.707617  0.470645  1
  O  O39  1  0.427645  0.337613  0.491283  1
  O  O40  1  0.709468  0.465102  0.405028  1
  O  O41  1  0.837235  0.883733  0.432305  1
  O  O42  1  0.583927  0.139901  0.359268  1
  O  O43  1  0.206378  0.844036  0.328968  1
  O  O44  1  0.084494  0.561842  0.290073  1
  O  O45  1  0.915506  0.061842  0.209927  1
  O  O46  1  0.793622  0.344036  0.171032  1
  O  O47  1  0.416073  0.639901  0.140732  1
  O  O48  1  0.162765  0.383733  0.067695  1
  O  O49  1  0.290532  0.965102  0.094972  1
  O  O50  1  0.572355  0.837613  0.008717  1
  O  O51  1  0.938154  0.207617  0.029355  1
