# generated using pymatgen
data_CdCoO3
_symmetry_space_group_name_H-M   'P 1'
_cell_length_a   5.79815735
_cell_length_b   5.79815735
_cell_length_c   5.79815735
_cell_angle_alpha   51.93096614
_cell_angle_beta   51.93096614
_cell_angle_gamma   51.93096614
_symmetry_Int_Tables_number   1
_chemical_formula_structural   CdCoO3
_chemical_formula_sum   'Cd2 Co2 O6'
_cell_volume   111.68017333
_cell_formula_units_Z   2
loop_
 _symmetry_equiv_pos_site_id
 _symmetry_equiv_pos_as_xyz
  1  'x, y, z'
loop_
 _atom_site_type_symbol
 _atom_site_label
 _atom_site_symmetry_multiplicity
 _atom_site_fract_x
 _atom_site_fract_y
 _atom_site_fract_z
 _atom_site_occupancy
  Cd  Cd0  1  0.632969  0.632969  0.632969  1
  Cd  Cd1  1  0.367031  0.367031  0.367031  1
  Co  Co2  1  0.837073  0.837073  0.837073  1
  Co  Co3  1  0.162927  0.162927  0.162927  1
  O  O4  1  0.183496  0.558624  0.967510  1
  O  O5  1  0.032490  0.816504  0.441376  1
  O  O6  1  0.441376  0.032490  0.816504  1
  O  O7  1  0.558624  0.967510  0.183496  1
  O  O8  1  0.967510  0.183496  0.558624  1
  O  O9  1  0.816504  0.441376  0.032490  1
