# generated using pymatgen
data_Fe6O7F5
_symmetry_space_group_name_H-M   'P 1'
_cell_length_a   4.78280911
_cell_length_b   5.65606642
_cell_length_c   7.71399532
_cell_angle_alpha   84.59460788
_cell_angle_beta   87.82891329
_cell_angle_gamma   86.37938501
_symmetry_Int_Tables_number   1
_chemical_formula_structural   Fe6O7F5
_chemical_formula_sum   'Fe6 O7 F5'
_cell_volume   207.22837344
_cell_formula_units_Z   1
loop_
 _symmetry_equiv_pos_site_id
 _symmetry_equiv_pos_as_xyz
  1  'x, y, z'
loop_
 _atom_site_type_symbol
 _atom_site_label
 _atom_site_symmetry_multiplicity
 _atom_site_fract_x
 _atom_site_fract_y
 _atom_site_fract_z
 _atom_site_occupancy
  Fe  Fe0  1  0.511404  0.818783  0.667156  1
  Fe  Fe1  1  0.460074  0.482096  0.993873  1
  Fe  Fe2  1  0.554435  0.187313  0.332349  1
  Fe  Fe3  1  0.980373  0.341982  0.673810  1
  Fe  Fe4  1  0.984262  0.653836  0.331968  1
  Fe  Fe5  1  0.021382  0.014333  0.000722  1
  O  O6  1  0.814575  0.375411  0.445186  1
  O  O7  1  0.697175  0.213222  0.092037  1
  O  O8  1  0.681590  0.526937  0.778489  1
  O  O9  1  0.696878  0.872031  0.437298  1
  O  O10  1  0.303963  0.464347  0.226824  1
  O  O11  1  0.303029  0.790536  0.900439  1
  O  O12  1  0.187092  0.287151  0.886773  1
  F  F13  1  0.804556  0.027876  0.764618  1
  F  F14  1  0.812126  0.720812  0.100084  1
  F  F15  1  0.301529  0.130959  0.565293  1
  F  F16  1  0.188738  0.960031  0.236885  1
  F  F17  1  0.196821  0.632345  0.566196  1
