# generated using pymatgen
data_CoPH3O4
_symmetry_space_group_name_H-M   'P 1'
_cell_length_a   7.97227637
_cell_length_b   9.05007984
_cell_length_c   10.21663693
_cell_angle_alpha   90.00000000
_cell_angle_beta   90.00000000
_cell_angle_gamma   90.00000000
_symmetry_Int_Tables_number   1
_chemical_formula_structural   CoPH3O4
_chemical_formula_sum   'Co8 P8 H24 O32'
_cell_volume   737.12767422
_cell_formula_units_Z   8
loop_
 _symmetry_equiv_pos_site_id
 _symmetry_equiv_pos_as_xyz
  1  'x, y, z'
loop_
 _atom_site_type_symbol
 _atom_site_label
 _atom_site_symmetry_multiplicity
 _atom_site_fract_x
 _atom_site_fract_y
 _atom_site_fract_z
 _atom_site_occupancy
  Co  Co0  1  0.121872  0.407557  0.078560  1
  Co  Co1  1  0.878128  0.592443  0.578560  1
  Co  Co2  1  0.121872  0.092443  0.578560  1
  Co  Co3  1  0.878128  0.907557  0.078560  1
  Co  Co4  1  0.874005  0.594234  0.936922  1
  Co  Co5  1  0.125995  0.405766  0.436922  1
  Co  Co6  1  0.874005  0.905766  0.436922  1
  Co  Co7  1  0.125995  0.094234  0.936922  1
  P  P8  1  0.763897  0.253805  0.976172  1
  P  P9  1  0.236103  0.746195  0.476172  1
  P  P10  1  0.763897  0.246195  0.476172  1
  P  P11  1  0.236103  0.753805  0.976172  1
  P  P12  1  0.134012  0.406727  0.756036  1
  P  P13  1  0.865988  0.593273  0.256036  1
  P  P14  1  0.134012  0.093273  0.256036  1
  P  P15  1  0.865988  0.906727  0.756036  1
  H  H16  1  0.736537  0.279246  0.841978  1
  H  H17  1  0.263463  0.720754  0.341978  1
  H  H18  1  0.736537  0.220754  0.341978  1
  H  H19  1  0.263463  0.779246  0.841978  1
  H  H20  1  0.266502  0.508252  0.754051  1
  H  H21  1  0.733498  0.491748  0.254051  1
  H  H22  1  0.266502  0.991748  0.254051  1
  H  H23  1  0.733498  0.008252  0.754051  1
  H  H24  1  0.463556  0.375087  0.094438  1
  H  H25  1  0.536444  0.624913  0.594438  1
  H  H26  1  0.463556  0.124913  0.594438  1
  H  H27  1  0.536444  0.875087  0.094438  1
  H  H28  1  0.407300  0.548105  0.102916  1
  H  H29  1  0.592700  0.451895  0.602916  1
  H  H30  1  0.407300  0.951895  0.602916  1
  H  H31  1  0.592700  0.048105  0.102916  1
  H  H32  1  0.550715  0.639418  0.935923  1
  H  H33  1  0.449285  0.360582  0.435923  1
  H  H34  1  0.550715  0.860582  0.435923  1
  H  H35  1  0.449285  0.139418  0.935923  1
  H  H36  1  0.392884  0.437096  0.298820  1
  H  H37  1  0.607116  0.562904  0.798820  1
  H  H38  1  0.392884  0.062904  0.798820  1
  H  H39  1  0.607116  0.937096  0.298820  1
  O  O40  1  0.381138  0.445989  0.133464  1
  O  O41  1  0.618862  0.554011  0.633464  1
  O  O42  1  0.381138  0.054011  0.633464  1
  O  O43  1  0.618862  0.945989  0.133464  1
  O  O44  1  0.623465  0.563445  0.895591  1
  O  O45  1  0.376535  0.436555  0.395591  1
  O  O46  1  0.623465  0.936555  0.395591  1
  O  O47  1  0.376535  0.063445  0.895591  1
  O  O48  1  0.863427  0.387863  0.029492  1
  O  O49  1  0.136573  0.612137  0.529492  1
  O  O50  1  0.863427  0.112137  0.529492  1
  O  O51  1  0.136573  0.887863  0.029492  1
  O  O52  1  0.593351  0.230692  0.042809  1
  O  O53  1  0.406649  0.769308  0.542809  1
  O  O54  1  0.593351  0.269308  0.542809  1
  O  O55  1  0.406649  0.730692  0.042809  1
  O  O56  1  0.128441  0.611199  0.982804  1
  O  O57  1  0.871559  0.388801  0.482804  1
  O  O58  1  0.128441  0.888801  0.482804  1
  O  O59  1  0.871559  0.111199  0.982804  1
  O  O60  1  0.154329  0.314449  0.882213  1
  O  O61  1  0.845671  0.685551  0.382213  1
  O  O62  1  0.154329  0.185551  0.382213  1
  O  O63  1  0.845671  0.814449  0.882213  1
  O  O64  1  0.157375  0.189495  0.132324  1
  O  O65  1  0.842625  0.810505  0.632324  1
  O  O66  1  0.157375  0.310505  0.632324  1
  O  O67  1  0.842625  0.689495  0.132324  1
  O  O68  1  0.033420  0.504726  0.254747  1
  O  O69  1  0.966580  0.495274  0.754747  1
  O  O70  1  0.033420  0.995274  0.754747  1
  O  O71  1  0.966580  0.004726  0.254747  1
