# generated using pymatgen
data_SrCaI4
_symmetry_space_group_name_H-M   'P 1'
_cell_length_a   7.40825701
_cell_length_b   7.90118032
_cell_length_c   19.98311675
_cell_angle_alpha   90.00000000
_cell_angle_beta   111.00970995
_cell_angle_gamma   90.00000000
_symmetry_Int_Tables_number   1
_chemical_formula_structural   SrCaI4
_chemical_formula_sum   'Sr4 Ca4 I16'
_cell_volume   1091.92979729
_cell_formula_units_Z   4
loop_
 _symmetry_equiv_pos_site_id
 _symmetry_equiv_pos_as_xyz
  1  'x, y, z'
loop_
 _atom_site_type_symbol
 _atom_site_label
 _atom_site_symmetry_multiplicity
 _atom_site_fract_x
 _atom_site_fract_y
 _atom_site_fract_z
 _atom_site_occupancy
  Sr  Sr0  1  0.828051  0.250868  0.821003  1
  Sr  Sr1  1  0.171949  0.750868  0.678997  1
  Sr  Sr2  1  0.828051  0.249132  0.321003  1
  Sr  Sr3  1  0.171949  0.749132  0.178997  1
  Ca  Ca4  1  0.572510  0.245540  0.564761  1
  Ca  Ca5  1  0.572510  0.254460  0.064761  1
  Ca  Ca6  1  0.427490  0.745540  0.935239  1
  Ca  Ca7  1  0.427490  0.754460  0.435239  1
  I  I8  1  0.530273  0.925350  0.310927  1
  I  I9  1  0.669537  0.424800  0.440065  1
  I  I10  1  0.330463  0.924800  0.059935  1
  I  I11  1  0.798631  0.920354  0.548794  1
  I  I12  1  0.469727  0.425350  0.189073  1
  I  I13  1  0.056536  0.887641  0.815158  1
  I  I14  1  0.943464  0.387641  0.684842  1
  I  I15  1  0.201369  0.420354  0.951206  1
  I  I16  1  0.798631  0.579646  0.048794  1
  I  I17  1  0.056536  0.612359  0.315158  1
  I  I18  1  0.943464  0.112359  0.184842  1
  I  I19  1  0.530273  0.574650  0.810927  1
  I  I20  1  0.201369  0.079646  0.451206  1
  I  I21  1  0.669537  0.075200  0.940065  1
  I  I22  1  0.330463  0.575200  0.559935  1
  I  I23  1  0.469727  0.074650  0.689073  1
