# generated using pymatgen
data_Li2Co3SbO8
_symmetry_space_group_name_H-M   'P 1'
_cell_length_a   5.76430467
_cell_length_b   5.76430467
_cell_length_c   9.38812434
_cell_angle_alpha   90.00000000
_cell_angle_beta   90.00000000
_cell_angle_gamma   120.00000000
_symmetry_Int_Tables_number   1
_chemical_formula_structural   Li2Co3SbO8
_chemical_formula_sum   'Li4 Co6 Sb2 O16'
_cell_volume   270.14897160
_cell_formula_units_Z   2
loop_
 _symmetry_equiv_pos_site_id
 _symmetry_equiv_pos_as_xyz
  1  'x, y, z'
loop_
 _atom_site_type_symbol
 _atom_site_label
 _atom_site_symmetry_multiplicity
 _atom_site_fract_x
 _atom_site_fract_y
 _atom_site_fract_z
 _atom_site_occupancy
  Li  Li0  1  0.333333  0.666667  0.897270  1
  Li  Li1  1  0.000000  0.000000  0.994832  1
  Li  Li2  1  0.000000  0.000000  0.494832  1
  Li  Li3  1  0.666667  0.333333  0.397270  1
  Co  Co4  1  0.170247  0.829753  0.215131  1
  Co  Co5  1  0.170247  0.340494  0.215131  1
  Co  Co6  1  0.659506  0.829753  0.215131  1
  Co  Co7  1  0.340494  0.170247  0.715131  1
  Co  Co8  1  0.829753  0.659506  0.715131  1
  Co  Co9  1  0.829753  0.170247  0.715131  1
  Sb  Sb10  1  0.333333  0.666667  0.490516  1
  Sb  Sb11  1  0.666667  0.333333  0.990516  1
  O  O12  1  0.161250  0.838750  0.599186  1
  O  O13  1  0.034462  0.517231  0.336236  1
  O  O14  1  0.333333  0.666667  0.112537  1
  O  O15  1  0.000000  0.000000  0.307070  1
  O  O16  1  0.000000  0.000000  0.807070  1
  O  O17  1  0.161250  0.322500  0.599186  1
  O  O18  1  0.482769  0.965538  0.336236  1
  O  O19  1  0.482769  0.517231  0.336236  1
  O  O20  1  0.322500  0.161250  0.099186  1
  O  O21  1  0.677500  0.838750  0.599186  1
  O  O22  1  0.517231  0.482769  0.836236  1
  O  O23  1  0.517231  0.034462  0.836236  1
  O  O24  1  0.666667  0.333333  0.612537  1
  O  O25  1  0.838750  0.677500  0.099186  1
  O  O26  1  0.965538  0.482769  0.836236  1
  O  O27  1  0.838750  0.161250  0.099186  1
