# generated using pymatgen
data_Li4CuSi2O7
_symmetry_space_group_name_H-M   'P 1'
_cell_length_a   5.30588627
_cell_length_b   5.30588627
_cell_length_c   6.78838996
_cell_angle_alpha   80.85027980
_cell_angle_beta   99.14972020
_cell_angle_gamma   129.70759992
_symmetry_Int_Tables_number   1
_chemical_formula_structural   Li4CuSi2O7
_chemical_formula_sum   'Li4 Cu1 Si2 O7'
_cell_volume   144.73733467
_cell_formula_units_Z   1
loop_
 _symmetry_equiv_pos_site_id
 _symmetry_equiv_pos_as_xyz
  1  'x, y, z'
loop_
 _atom_site_type_symbol
 _atom_site_label
 _atom_site_symmetry_multiplicity
 _atom_site_fract_x
 _atom_site_fract_y
 _atom_site_fract_z
 _atom_site_occupancy
  Li  Li0  1  0.132684  0.839695  0.934879  1
  Li  Li1  1  0.703748  0.280248  0.644681  1
  Li  Li2  1  0.280248  0.703748  0.355319  1
  Li  Li3  1  0.839695  0.132684  0.065121  1
  Cu  Cu4  1  0.998146  0.998146  0.500000  1
  Si  Si5  1  0.585512  0.434375  0.210172  1
  Si  Si6  1  0.434375  0.585512  0.789828  1
  O  O7  1  0.767742  0.668394  0.724974  1
  O  O8  1  0.396994  0.137708  0.387339  1
  O  O9  1  0.909835  0.500501  0.155227  1
  O  O10  1  0.500501  0.909835  0.844773  1
  O  O11  1  0.137708  0.396994  0.612661  1
  O  O12  1  0.668394  0.767742  0.275026  1
  O  O13  1  0.317463  0.317463  0.000000  1
