# generated using pymatgen
data_KAl2P2H4O11
_symmetry_space_group_name_H-M   'P 1'
_cell_length_a   9.10413280
_cell_length_b   9.96034626
_cell_length_c   10.08076392
_cell_angle_alpha   90.00000000
_cell_angle_beta   90.00000000
_cell_angle_gamma   90.00000000
_symmetry_Int_Tables_number   1
_chemical_formula_structural   KAl2P2H4O11
_chemical_formula_sum   'K4 Al8 P8 H16 O44'
_cell_volume   914.12684856
_cell_formula_units_Z   4
loop_
 _symmetry_equiv_pos_site_id
 _symmetry_equiv_pos_as_xyz
  1  'x, y, z'
loop_
 _atom_site_type_symbol
 _atom_site_label
 _atom_site_symmetry_multiplicity
 _atom_site_fract_x
 _atom_site_fract_y
 _atom_site_fract_z
 _atom_site_occupancy
  K  K0  1  0.241044  0.980587  0.356832  1
  K  K1  1  0.258956  0.019413  0.856832  1
  K  K2  1  0.741044  0.519413  0.643168  1
  K  K3  1  0.758956  0.480587  0.143168  1
  Al  Al4  1  0.086303  0.729575  0.650277  1
  Al  Al5  1  0.137748  0.501717  0.181311  1
  Al  Al6  1  0.362252  0.498283  0.681311  1
  Al  Al7  1  0.413697  0.270425  0.150277  1
  Al  Al8  1  0.586303  0.770425  0.349723  1
  Al  Al9  1  0.637748  0.998283  0.818689  1
  Al  Al10  1  0.862252  0.001717  0.318689  1
  Al  Al11  1  0.913697  0.229575  0.849723  1
  P  P12  1  0.072074  0.524503  0.865737  1
  P  P13  1  0.075163  0.200774  0.138075  1
  P  P14  1  0.424837  0.799226  0.638075  1
  P  P15  1  0.427926  0.475497  0.365737  1
  P  P16  1  0.572074  0.975497  0.134263  1
  P  P17  1  0.575163  0.299226  0.861925  1
  P  P18  1  0.924837  0.700774  0.361925  1
  P  P19  1  0.927926  0.024503  0.634263  1
  H  H20  1  0.017382  0.411139  0.496310  1
  H  H21  1  0.090945  0.794031  0.039430  1
  H  H22  1  0.165651  0.296401  0.678801  1
  H  H23  1  0.174646  0.743700  0.231588  1
  H  H24  1  0.325354  0.256300  0.731588  1
  H  H25  1  0.334349  0.703599  0.178801  1
  H  H26  1  0.409055  0.205969  0.539430  1
  H  H27  1  0.482618  0.588861  0.996310  1
  H  H28  1  0.517382  0.088861  0.503690  1
  H  H29  1  0.590945  0.705969  0.960570  1
  H  H30  1  0.665651  0.203599  0.321199  1
  H  H31  1  0.674646  0.756300  0.768412  1
  H  H32  1  0.825354  0.243700  0.268412  1
  H  H33  1  0.834349  0.796401  0.821199  1
  H  H34  1  0.909055  0.294031  0.460570  1
  H  H35  1  0.982618  0.911139  0.003690  1
  O  O36  1  0.008208  0.392457  0.811107  1
  O  O37  1  0.002989  0.089089  0.219850  1
  O  O38  1  0.997409  0.647069  0.793708  1
  O  O39  1  0.026598  0.195654  0.992028  1
  O  O40  1  0.046578  0.538389  0.016280  1
  O  O41  1  0.031998  0.338117  0.199585  1
  O  O42  1  0.082627  0.879474  0.992497  1
  O  O43  1  0.190164  0.568634  0.618807  1
  O  O44  1  0.227931  0.689157  0.166737  1
  O  O45  1  0.243049  0.173632  0.141859  1
  O  O46  1  0.241170  0.532579  0.837229  1
  O  O47  1  0.258830  0.467421  0.337229  1
  O  O48  1  0.256951  0.826368  0.641859  1
  O  O49  1  0.272069  0.310843  0.666737  1
  O  O50  1  0.309836  0.431366  0.118807  1
  O  O51  1  0.417373  0.120526  0.492497  1
  O  O52  1  0.468002  0.661883  0.699585  1
  O  O53  1  0.453422  0.461611  0.516280  1
  O  O54  1  0.473402  0.804346  0.492028  1
  O  O55  1  0.502591  0.352931  0.293708  1
  O  O56  1  0.497011  0.910911  0.719850  1
  O  O57  1  0.491792  0.607543  0.311107  1
  O  O58  1  0.508208  0.107543  0.188893  1
  O  O59  1  0.502989  0.410911  0.780150  1
  O  O60  1  0.497409  0.852931  0.206292  1
  O  O61  1  0.526598  0.304346  0.007972  1
  O  O62  1  0.546578  0.961611  0.983720  1
  O  O63  1  0.531998  0.161883  0.800415  1
  O  O64  1  0.582627  0.620526  0.007503  1
  O  O65  1  0.690164  0.931366  0.381193  1
  O  O66  1  0.727931  0.810843  0.833263  1
  O  O67  1  0.743049  0.326368  0.858141  1
  O  O68  1  0.741170  0.967421  0.162771  1
  O  O69  1  0.758830  0.032579  0.662771  1
  O  O70  1  0.756951  0.673632  0.358141  1
  O  O71  1  0.772069  0.189157  0.333263  1
  O  O72  1  0.809836  0.068634  0.881193  1
  O  O73  1  0.917373  0.379474  0.507503  1
  O  O74  1  0.968002  0.838117  0.300415  1
  O  O75  1  0.953422  0.038389  0.483720  1
  O  O76  1  0.973402  0.695654  0.507972  1
  O  O77  1  0.002591  0.147069  0.706292  1
  O  O78  1  0.997011  0.589089  0.280150  1
  O  O79  1  0.991792  0.892457  0.688893  1
