# generated using pymatgen
data_Ho(Bi3O5)4
_symmetry_space_group_name_H-M   'P 1'
_cell_length_a   8.96264089
_cell_length_b   8.96264089
_cell_length_c   8.96264089
_cell_angle_alpha   109.47122063
_cell_angle_beta   109.47122063
_cell_angle_gamma   109.47122063
_symmetry_Int_Tables_number   1
_chemical_formula_structural   Ho(Bi3O5)4
_chemical_formula_sum   'Ho1 Bi12 O20'
_cell_volume   554.22497982
_cell_formula_units_Z   1
loop_
 _symmetry_equiv_pos_site_id
 _symmetry_equiv_pos_as_xyz
  1  'x, y, z'
loop_
 _atom_site_type_symbol
 _atom_site_label
 _atom_site_symmetry_multiplicity
 _atom_site_fract_x
 _atom_site_fract_y
 _atom_site_fract_z
 _atom_site_occupancy
  Ho  Ho0  1  0.000000  0.000000  0.000000  1
  Bi  Bi1  1  0.830763  0.325110  0.141006  1
  Bi  Bi2  1  0.494347  0.169237  0.310243  1
  Bi  Bi3  1  0.858994  0.184104  0.689757  1
  Bi  Bi4  1  0.310243  0.494347  0.169237  1
  Bi  Bi5  1  0.689757  0.858994  0.184104  1
  Bi  Bi6  1  0.815896  0.674890  0.505653  1
  Bi  Bi7  1  0.169237  0.310243  0.494347  1
  Bi  Bi8  1  0.674890  0.505653  0.815896  1
  Bi  Bi9  1  0.325110  0.141006  0.830763  1
  Bi  Bi10  1  0.505653  0.815896  0.674890  1
  Bi  Bi11  1  0.141006  0.830763  0.325110  1
  Bi  Bi12  1  0.184104  0.689757  0.858994  1
  O  O13  1  0.354899  1.000000  1.000000  1
  O  O14  1  0.735813  0.114241  0.359733  1
  O  O15  1  0.885759  0.621572  0.245492  1
  O  O16  1  0.623920  0.378428  0.264187  1
  O  O17  1  0.241736  0.241736  0.241736  1
  O  O18  1  0.758264  1.000000  0.000000  1
  O  O19  1  0.754508  0.376080  0.640267  1
  O  O20  1  0.000000  0.354899  0.000000  1
  O  O21  1  0.378428  0.264187  0.623920  1
  O  O22  1  0.621572  0.245492  0.885759  1
  O  O23  1  0.640267  0.754508  0.376080  1
  O  O24  1  0.359733  0.735813  0.114241  1
  O  O25  1  0.645101  0.645101  0.645101  1
  O  O26  1  0.264187  0.623920  0.378428  1
  O  O27  1  1.000000  1.000000  0.758264  1
  O  O28  1  1.000000  0.758264  0.000000  1
  O  O29  1  0.114241  0.359733  0.735813  1
  O  O30  1  0.376080  0.640267  0.754508  1
  O  O31  1  0.245492  0.885759  0.621572  1
  O  O32  1  1.000000  0.000000  0.354899  1
