# generated using pymatgen
data_ClOF3
_symmetry_space_group_name_H-M   'P 1'
_cell_length_a   4.97297704
_cell_length_b   7.97742800
_cell_length_c   7.97753824
_cell_angle_alpha   102.57261740
_cell_angle_beta   90.13465065
_cell_angle_gamma   90.53000256
_symmetry_Int_Tables_number   1
_chemical_formula_structural   ClOF3
_chemical_formula_sum   'Cl4 O4 F12'
_cell_volume   308.87619547
_cell_formula_units_Z   4
loop_
 _symmetry_equiv_pos_site_id
 _symmetry_equiv_pos_as_xyz
  1  'x, y, z'
loop_
 _atom_site_type_symbol
 _atom_site_label
 _atom_site_symmetry_multiplicity
 _atom_site_fract_x
 _atom_site_fract_y
 _atom_site_fract_z
 _atom_site_occupancy
  Cl  Cl0  1  0.512487  0.719873  0.742269  1
  Cl  Cl1  1  0.019509  0.838261  0.183314  1
  Cl  Cl2  1  0.980491  0.161739  0.816686  1
  Cl  Cl3  1  0.487513  0.280127  0.257731  1
  O  O4  1  0.641844  0.571019  0.768271  1
  O  O5  1  0.175699  0.840698  0.332270  1
  O  O6  1  0.824301  0.159302  0.667730  1
  O  O7  1  0.358156  0.428981  0.231729  1
  F  F8  1  0.763560  0.876507  0.868491  1
  F  F9  1  0.642580  0.770484  0.567050  1
  F  F10  1  0.753001  0.292464  0.969976  1
  F  F11  1  0.742112  0.961756  0.286093  1
  F  F12  1  0.243344  0.622350  0.614342  1
  F  F13  1  0.180331  0.334648  0.843484  1
  F  F14  1  0.819669  0.665352  0.156516  1
  F  F15  1  0.756656  0.377650  0.385658  1
  F  F16  1  0.246999  0.707536  0.030024  1
  F  F17  1  0.257888  0.038244  0.713907  1
  F  F18  1  0.357420  0.229516  0.432950  1
  F  F19  1  0.236440  0.123493  0.131509  1
