# generated using pymatgen
data_Li3La2H6(N3O10)3
_symmetry_space_group_name_H-M   'P 1'
_cell_length_a   13.54133441
_cell_length_b   13.54133441
_cell_length_c   13.54133441
_cell_angle_alpha   90.00000000
_cell_angle_beta   90.00000000
_cell_angle_gamma   90.00000000
_symmetry_Int_Tables_number   1
_chemical_formula_structural   Li3La2H6(N3O10)3
_chemical_formula_sum   'Li12 La8 H24 N36 O120'
_cell_volume   2483.04385489
_cell_formula_units_Z   4
loop_
 _symmetry_equiv_pos_site_id
 _symmetry_equiv_pos_as_xyz
  1  'x, y, z'
loop_
 _atom_site_type_symbol
 _atom_site_label
 _atom_site_symmetry_multiplicity
 _atom_site_fract_x
 _atom_site_fract_y
 _atom_site_fract_z
 _atom_site_occupancy
  Li  Li0  1  0.201695  0.953911  0.778820  1
  Li  Li1  1  0.221180  0.701695  0.546089  1
  Li  Li2  1  0.453911  0.721180  0.798305  1
  Li  Li3  1  0.701695  0.546089  0.221180  1
  Li  Li4  1  0.721180  0.798305  0.453911  1
  Li  Li5  1  0.953911  0.778820  0.201695  1
  Li  Li6  1  0.798305  0.453911  0.721180  1
  Li  Li7  1  0.778820  0.201695  0.953911  1
  Li  Li8  1  0.546089  0.221180  0.701695  1
  Li  Li9  1  0.298305  0.046089  0.278820  1
  Li  Li10  1  0.278820  0.298305  0.046089  1
  Li  Li11  1  0.046089  0.278820  0.298305  1
  La  La12  1  0.031742  0.531742  0.968258  1
  La  La13  1  0.531742  0.968258  0.031742  1
  La  La14  1  0.968258  0.031742  0.531742  1
  La  La15  1  0.468258  0.468258  0.468258  1
  La  La16  1  0.777800  0.777800  0.777800  1
  La  La17  1  0.222200  0.277800  0.722200  1
  La  La18  1  0.277800  0.722200  0.222200  1
  La  La19  1  0.722200  0.222200  0.277800  1
  H  H20  1  0.038780  0.648442  0.526066  1
  H  H21  1  0.473934  0.538780  0.851558  1
  H  H22  1  0.148442  0.973934  0.961220  1
  H  H23  1  0.538780  0.851558  0.473934  1
  H  H24  1  0.973934  0.961220  0.148442  1
  H  H25  1  0.648442  0.526066  0.038780  1
  H  H26  1  0.961220  0.148442  0.973934  1
  H  H27  1  0.526066  0.038780  0.648442  1
  H  H28  1  0.851558  0.473934  0.538780  1
  H  H29  1  0.461220  0.351558  0.026066  1
  H  H30  1  0.026066  0.461220  0.351558  1
  H  H31  1  0.351558  0.026066  0.461220  1
  H  H32  1  0.098564  0.569191  0.582749  1
  H  H33  1  0.417251  0.598564  0.930809  1
  H  H34  1  0.069191  0.917251  0.901436  1
  H  H35  1  0.598564  0.930809  0.417251  1
  H  H36  1  0.917251  0.901436  0.069191  1
  H  H37  1  0.569191  0.582749  0.098564  1
  H  H38  1  0.901436  0.069191  0.917251  1
  H  H39  1  0.582749  0.098564  0.569191  1
  H  H40  1  0.930809  0.417251  0.598564  1
  H  H41  1  0.401436  0.430809  0.082749  1
  H  H42  1  0.082749  0.401436  0.430809  1
  H  H43  1  0.430809  0.082749  0.401436  1
  N  N44  1  0.237845  0.626718  0.011208  1
  N  N45  1  0.988792  0.737845  0.873282  1
  N  N46  1  0.126718  0.488792  0.762155  1
  N  N47  1  0.737845  0.873282  0.988792  1
  N  N48  1  0.488792  0.762155  0.126718  1
  N  N49  1  0.626718  0.011208  0.237845  1
  N  N50  1  0.762155  0.126718  0.488792  1
  N  N51  1  0.011208  0.237845  0.626718  1
  N  N52  1  0.873282  0.988792  0.737845  1
  N  N53  1  0.262155  0.373282  0.511208  1
  N  N54  1  0.511208  0.262155  0.373282  1
  N  N55  1  0.373282  0.511208  0.262155  1
  N  N56  1  0.386436  0.608976  0.629262  1
  N  N57  1  0.370738  0.886436  0.891024  1
  N  N58  1  0.108976  0.870738  0.613564  1
  N  N59  1  0.886436  0.891024  0.370738  1
  N  N60  1  0.870738  0.613564  0.108976  1
  N  N61  1  0.608976  0.629262  0.386436  1
  N  N62  1  0.613564  0.108976  0.870738  1
  N  N63  1  0.629262  0.386436  0.608976  1
  N  N64  1  0.891024  0.370738  0.886436  1
  N  N65  1  0.113564  0.391024  0.129262  1
  N  N66  1  0.129262  0.113564  0.391024  1
  N  N67  1  0.391024  0.129262  0.113564  1
  N  N68  1  0.708425  0.577045  0.853705  1
  N  N69  1  0.146295  0.208425  0.922955  1
  N  N70  1  0.077045  0.646295  0.291575  1
  N  N71  1  0.208425  0.922955  0.146295  1
  N  N72  1  0.646295  0.291575  0.077045  1
  N  N73  1  0.577045  0.853705  0.708425  1
  N  N74  1  0.291575  0.077045  0.646295  1
  N  N75  1  0.853705  0.708425  0.577045  1
  N  N76  1  0.922955  0.146295  0.208425  1
  N  N77  1  0.791575  0.422955  0.353705  1
  N  N78  1  0.353705  0.791575  0.422955  1
  N  N79  1  0.422955  0.353705  0.791575  1
  O  O80  1  0.872954  0.922285  0.669666  1
  O  O81  1  0.330334  0.372954  0.577715  1
  O  O82  1  0.422285  0.830334  0.127046  1
  O  O83  1  0.372954  0.577715  0.330334  1
  O  O84  1  0.830334  0.127046  0.422285  1
  O  O85  1  0.922285  0.669666  0.872954  1
  O  O86  1  0.127046  0.422285  0.830334  1
  O  O87  1  0.669666  0.872954  0.922285  1
  O  O88  1  0.577715  0.330334  0.372954  1
  O  O89  1  0.627046  0.077715  0.169666  1
  O  O90  1  0.169666  0.627046  0.077715  1
  O  O91  1  0.077715  0.169666  0.627046  1
  O  O92  1  0.222942  0.581781  0.931881  1
  O  O93  1  0.068119  0.722942  0.918219  1
  O  O94  1  0.081781  0.568119  0.777058  1
  O  O95  1  0.722942  0.918219  0.068119  1
  O  O96  1  0.568119  0.777058  0.081781  1
  O  O97  1  0.581781  0.931881  0.222942  1
  O  O98  1  0.777058  0.081781  0.568119  1
  O  O99  1  0.931881  0.222942  0.581781  1
  O  O100  1  0.918219  0.068119  0.722942  1
  O  O101  1  0.277058  0.418219  0.431881  1
  O  O102  1  0.431881  0.277058  0.418219  1
  O  O103  1  0.418219  0.431881  0.277058  1
  O  O104  1  0.828967  0.971166  0.817711  1
  O  O105  1  0.182289  0.328967  0.528834  1
  O  O106  1  0.471166  0.682289  0.171033  1
  O  O107  1  0.328967  0.528834  0.182289  1
  O  O108  1  0.682289  0.171033  0.471166  1
  O  O109  1  0.971166  0.817711  0.828967  1
  O  O110  1  0.171033  0.471166  0.682289  1
  O  O111  1  0.817711  0.828967  0.971166  1
  O  O112  1  0.528834  0.182289  0.328967  1
  O  O113  1  0.671033  0.028834  0.317711  1
  O  O114  1  0.317711  0.671033  0.028834  1
  O  O115  1  0.028834  0.317711  0.671033  1
  O  O116  1  0.339304  0.595953  0.547447  1
  O  O117  1  0.452553  0.839304  0.904047  1
  O  O118  1  0.095953  0.952553  0.660696  1
  O  O119  1  0.839304  0.904047  0.452553  1
  O  O120  1  0.952553  0.660696  0.095953  1
  O  O121  1  0.595953  0.547447  0.339304  1
  O  O122  1  0.660696  0.095953  0.952553  1
  O  O123  1  0.547447  0.339304  0.595953  1
  O  O124  1  0.904047  0.452553  0.839304  1
  O  O125  1  0.160696  0.404047  0.047447  1
  O  O126  1  0.047447  0.160696  0.404047  1
  O  O127  1  0.404047  0.047447  0.160696  1
  O  O128  1  0.056920  0.856562  0.536908  1
  O  O129  1  0.463092  0.556920  0.643438  1
  O  O130  1  0.356562  0.963092  0.943080  1
  O  O131  1  0.556920  0.643438  0.463092  1
  O  O132  1  0.963092  0.943080  0.356562  1
  O  O133  1  0.856562  0.536908  0.056920  1
  O  O134  1  0.943080  0.356562  0.963092  1
  O  O135  1  0.536908  0.056920  0.856562  1
  O  O136  1  0.643438  0.463092  0.556920  1
  O  O137  1  0.443080  0.143438  0.036908  1
  O  O138  1  0.036908  0.443080  0.143438  1
  O  O139  1  0.143438  0.036908  0.443080  1
  O  O140  1  0.356356  0.671359  0.689864  1
  O  O141  1  0.310136  0.856356  0.828641  1
  O  O142  1  0.171359  0.810136  0.643644  1
  O  O143  1  0.856356  0.828641  0.310136  1
  O  O144  1  0.810136  0.643644  0.171359  1
  O  O145  1  0.671359  0.689864  0.356356  1
  O  O146  1  0.643644  0.171359  0.810136  1
  O  O147  1  0.689864  0.356356  0.671359  1
  O  O148  1  0.828641  0.310136  0.856356  1
  O  O149  1  0.143644  0.328641  0.189864  1
  O  O150  1  0.189864  0.143644  0.328641  1
  O  O151  1  0.328641  0.189864  0.143644  1
  O  O152  1  0.701209  0.655822  0.904446  1
  O  O153  1  0.095554  0.201209  0.844178  1
  O  O154  1  0.155822  0.595554  0.298791  1
  O  O155  1  0.201209  0.844178  0.095554  1
  O  O156  1  0.595554  0.298791  0.155822  1
  O  O157  1  0.655822  0.904446  0.701209  1
  O  O158  1  0.298791  0.155822  0.595554  1
  O  O159  1  0.904446  0.701209  0.655822  1
  O  O160  1  0.844178  0.095554  0.201209  1
  O  O161  1  0.798791  0.344178  0.404446  1
  O  O162  1  0.404446  0.798791  0.344178  1
  O  O163  1  0.344178  0.404446  0.798791  1
  O  O164  1  0.740834  0.586992  0.763764  1
  O  O165  1  0.236236  0.240834  0.913008  1
  O  O166  1  0.086992  0.736236  0.259166  1
  O  O167  1  0.240834  0.913008  0.236236  1
  O  O168  1  0.736236  0.259166  0.086992  1
  O  O169  1  0.586992  0.763764  0.740834  1
  O  O170  1  0.259166  0.086992  0.736236  1
  O  O171  1  0.763764  0.740834  0.586992  1
  O  O172  1  0.913008  0.236236  0.240834  1
  O  O173  1  0.759166  0.413008  0.263764  1
  O  O174  1  0.263764  0.759166  0.413008  1
  O  O175  1  0.413008  0.263764  0.759166  1
  O  O176  1  0.494522  0.886670  0.687567  1
  O  O177  1  0.312433  0.994522  0.613330  1
  O  O178  1  0.386670  0.812433  0.505478  1
  O  O179  1  0.994522  0.613330  0.312433  1
  O  O180  1  0.812433  0.505478  0.386670  1
  O  O181  1  0.886670  0.687567  0.494522  1
  O  O182  1  0.505478  0.386670  0.812433  1
  O  O183  1  0.687567  0.494522  0.886670  1
  O  O184  1  0.613330  0.312433  0.994522  1
  O  O185  1  0.005478  0.113330  0.187567  1
  O  O186  1  0.187567  0.005478  0.113330  1
  O  O187  1  0.113330  0.187567  0.005478  1
  O  O188  1  0.104192  0.617545  0.529722  1
  O  O189  1  0.470278  0.604192  0.882455  1
  O  O190  1  0.117545  0.970278  0.895808  1
  O  O191  1  0.604192  0.882455  0.470278  1
  O  O192  1  0.970278  0.895808  0.117545  1
  O  O193  1  0.617545  0.529722  0.104192  1
  O  O194  1  0.895808  0.117545  0.970278  1
  O  O195  1  0.529722  0.104192  0.617545  1
  O  O196  1  0.882455  0.470278  0.604192  1
  O  O197  1  0.395808  0.382455  0.029722  1
  O  O198  1  0.029722  0.395808  0.382455  1
  O  O199  1  0.382455  0.029722  0.395808  1
