# generated using pymatgen
data_Ba8Mn8O23
_symmetry_space_group_name_H-M   'P 1'
_cell_length_a   5.79832734
_cell_length_b   5.79832734
_cell_length_c   19.41513294
_cell_angle_alpha   90.00000000
_cell_angle_beta   90.00000000
_cell_angle_gamma   120.37249594
_symmetry_Int_Tables_number   1
_chemical_formula_structural   Ba8Mn8O23
_chemical_formula_sum   'Ba8 Mn8 O23'
_cell_volume   563.16292930
_cell_formula_units_Z   1
loop_
 _symmetry_equiv_pos_site_id
 _symmetry_equiv_pos_as_xyz
  1  'x, y, z'
loop_
 _atom_site_type_symbol
 _atom_site_label
 _atom_site_symmetry_multiplicity
 _atom_site_fract_x
 _atom_site_fract_y
 _atom_site_fract_z
 _atom_site_occupancy
  Ba  Ba0  1  0.668564  0.331436  0.862550  1
  Ba  Ba1  1  0.667139  0.332861  0.623487  1
  Ba  Ba2  1  0.995977  0.004023  1.000000  1
  Ba  Ba3  1  0.667139  0.332861  0.376513  1
  Ba  Ba4  1  0.668564  0.331436  0.137450  1
  Ba  Ba5  1  0.332215  0.667785  0.254528  1
  Ba  Ba6  1  0.333827  0.666173  0.500000  1
  Ba  Ba7  1  0.332215  0.667785  0.745472  1
  Mn  Mn8  1  0.997081  0.002919  0.306720  1
  Mn  Mn9  1  0.997474  0.002526  0.824560  1
  Mn  Mn10  1  0.997081  0.002919  0.693280  1
  Mn  Mn11  1  0.000254  0.999746  0.564208  1
  Mn  Mn12  1  0.000254  0.999746  0.435792  1
  Mn  Mn13  1  0.997474  0.002526  0.175440  1
  Mn  Mn14  1  0.325661  0.674339  0.071922  1
  Mn  Mn15  1  0.325661  0.674339  0.928078  1
  O  O16  1  0.299025  0.149712  0.500000  1
  O  O17  1  0.291927  0.152410  0.755723  1
  O  O18  1  0.291927  0.152410  0.244277  1
  O  O19  1  0.847590  0.708073  0.755723  1
  O  O20  1  0.847590  0.708073  0.244277  1
  O  O21  1  0.850288  0.700975  0.500000  1
  O  O22  1  0.846832  0.153168  0.754074  1
  O  O23  1  0.846832  0.153168  0.245926  1
  O  O24  1  0.057879  0.506380  0.000000  1
  O  O25  1  0.147292  0.852708  0.371757  1
  O  O26  1  0.147292  0.852708  0.628243  1
  O  O27  1  0.157588  0.842412  0.874623  1
  O  O28  1  0.157588  0.842412  0.125377  1
  O  O29  1  0.851772  0.148228  0.500000  1
  O  O30  1  0.149863  0.298992  0.627139  1
  O  O31  1  0.149863  0.298992  0.372861  1
  O  O32  1  0.493620  0.942121  0.000000  1
  O  O33  1  0.174381  0.331089  0.879318  1
  O  O34  1  0.174381  0.331089  0.120682  1
  O  O35  1  0.668911  0.825619  0.879318  1
  O  O36  1  0.668911  0.825619  0.120682  1
  O  O37  1  0.701008  0.850137  0.627139  1
  O  O38  1  0.701008  0.850137  0.372861  1
