# generated using pymatgen
data_LiCrCO4
_symmetry_space_group_name_H-M   'P 1'
_cell_length_a   3.09891611
_cell_length_b   9.28889529
_cell_length_c   9.31374971
_cell_angle_alpha   90.00000000
_cell_angle_beta   90.00000000
_cell_angle_gamma   90.00000000
_symmetry_Int_Tables_number   1
_chemical_formula_structural   LiCrCO4
_chemical_formula_sum   'Li4 Cr4 C4 O16'
_cell_volume   268.10101012
_cell_formula_units_Z   4
loop_
 _symmetry_equiv_pos_site_id
 _symmetry_equiv_pos_as_xyz
  1  'x, y, z'
loop_
 _atom_site_type_symbol
 _atom_site_label
 _atom_site_symmetry_multiplicity
 _atom_site_fract_x
 _atom_site_fract_y
 _atom_site_fract_z
 _atom_site_occupancy
  Li  Li0  1  0.750000  0.097388  0.304702  1
  Li  Li1  1  0.750000  0.597388  0.195298  1
  Li  Li2  1  0.250000  0.402612  0.804702  1
  Li  Li3  1  0.250000  0.902612  0.695298  1
  Cr  Cr4  1  0.750000  0.121100  0.937059  1
  Cr  Cr5  1  0.750000  0.621100  0.562941  1
  Cr  Cr6  1  0.250000  0.378900  0.437059  1
  Cr  Cr7  1  0.250000  0.878900  0.062941  1
  C  C8  1  0.750000  0.163245  0.627500  1
  C  C9  1  0.750000  0.663245  0.872500  1
  C  C10  1  0.250000  0.336755  0.127500  1
  C  C11  1  0.250000  0.836755  0.372500  1
  O  O12  1  0.750000  0.236599  0.501842  1
  O  O13  1  0.750000  0.002314  0.112808  1
  O  O14  1  0.750000  0.239140  0.745613  1
  O  O15  1  0.750000  0.736599  0.998158  1
  O  O16  1  0.750000  0.502314  0.387192  1
  O  O17  1  0.750000  0.739140  0.754387  1
  O  O18  1  0.750000  0.029175  0.625744  1
  O  O19  1  0.750000  0.529175  0.874256  1
  O  O20  1  0.250000  0.470825  0.125744  1
  O  O21  1  0.250000  0.970825  0.374256  1
  O  O22  1  0.250000  0.260860  0.245613  1
  O  O23  1  0.250000  0.497686  0.612808  1
  O  O24  1  0.250000  0.263401  0.001842  1
  O  O25  1  0.250000  0.760860  0.254387  1
  O  O26  1  0.250000  0.997686  0.887192  1
  O  O27  1  0.250000  0.763401  0.498158  1
