# generated using pymatgen
data_Co3NiO8
_symmetry_space_group_name_H-M   'P 1'
_cell_length_a   5.76538586
_cell_length_b   5.76538586
_cell_length_c   5.76538586
_cell_angle_alpha   58.33856398
_cell_angle_beta   58.33856398
_cell_angle_gamma   58.33856398
_symmetry_Int_Tables_number   1
_chemical_formula_structural   Co3NiO8
_chemical_formula_sum   'Co3 Ni1 O8'
_cell_volume   130.35470136
_cell_formula_units_Z   1
loop_
 _symmetry_equiv_pos_site_id
 _symmetry_equiv_pos_as_xyz
  1  'x, y, z'
loop_
 _atom_site_type_symbol
 _atom_site_label
 _atom_site_symmetry_multiplicity
 _atom_site_fract_x
 _atom_site_fract_y
 _atom_site_fract_z
 _atom_site_occupancy
  Co  Co0  1  0.000000  0.500000  0.500000  1
  Co  Co1  1  0.500000  0.000000  0.500000  1
  Co  Co2  1  0.500000  0.500000  0.000000  1
  Ni  Ni3  1  0.000000  0.000000  0.000000  1
  O  O4  1  0.767075  0.767075  0.265487  1
  O  O5  1  0.767075  0.265487  0.767075  1
  O  O6  1  0.265487  0.767075  0.767075  1
  O  O7  1  0.265355  0.265355  0.265355  1
  O  O8  1  0.734645  0.734645  0.734645  1
  O  O9  1  0.734513  0.232925  0.232925  1
  O  O10  1  0.232925  0.734513  0.232925  1
  O  O11  1  0.232925  0.232925  0.734513  1
