# generated using pymatgen
data_LiP3(WO6)2
_symmetry_space_group_name_H-M   'P 1'
_cell_length_a   8.63204933
_cell_length_b   8.64366247
_cell_length_c   9.11755704
_cell_angle_alpha   90.41027971
_cell_angle_beta   118.22499573
_cell_angle_gamma   119.18054438
_symmetry_Int_Tables_number   1
_chemical_formula_structural   LiP3(WO6)2
_chemical_formula_sum   'Li2 P6 W4 O24'
_cell_volume   497.70606878
_cell_formula_units_Z   2
loop_
 _symmetry_equiv_pos_site_id
 _symmetry_equiv_pos_as_xyz
  1  'x, y, z'
loop_
 _atom_site_type_symbol
 _atom_site_label
 _atom_site_symmetry_multiplicity
 _atom_site_fract_x
 _atom_site_fract_y
 _atom_site_fract_z
 _atom_site_occupancy
  Li  Li0  1  0.349061  0.813983  0.581215  1
  Li  Li1  1  0.650939  0.186017  0.418785  1
  P  P2  1  0.006142  0.541399  0.253343  1
  P  P3  1  0.711223  0.742144  0.750937  1
  P  P4  1  0.283072  0.027104  0.748013  1
  P  P5  1  0.716928  0.972896  0.251987  1
  P  P6  1  0.288777  0.257856  0.249063  1
  P  P7  1  0.993858  0.458601  0.746657  1
  W  W8  1  0.797086  0.140496  0.930575  1
  W  W9  1  0.796748  0.646909  0.438359  1
  W  W10  1  0.203252  0.353091  0.561641  1
  W  W11  1  0.202914  0.859504  0.069425  1
  O  O12  1  0.641741  0.878929  0.745872  1
  O  O13  1  0.175063  0.542706  0.429579  1
  O  O14  1  0.909758  0.387526  0.096839  1
  O  O15  1  0.137888  0.738640  0.243365  1
  O  O16  1  0.500243  0.091202  0.777780  1
  O  O17  1  0.907917  0.805965  0.935351  1
  O  O18  1  0.828913  0.524103  0.271031  1
  O  O19  1  0.223057  0.239603  0.382468  1
  O  O20  1  0.131663  0.838051  0.598916  1
  O  O21  1  0.533182  0.543796  0.710548  1
  O  O22  1  0.285695  0.004778  0.915917  1
  O  O23  1  0.226476  0.168493  0.693522  1
  O  O24  1  0.773524  0.831507  0.306478  1
  O  O25  1  0.714305  0.995222  0.084083  1
  O  O26  1  0.466818  0.456204  0.289452  1
  O  O27  1  0.868337  0.161949  0.401084  1
  O  O28  1  0.776943  0.760397  0.617532  1
  O  O29  1  0.171087  0.475897  0.728969  1
  O  O30  1  0.092083  0.194035  0.064649  1
  O  O31  1  0.499757  0.908798  0.222220  1
  O  O32  1  0.862112  0.261360  0.756635  1
  O  O33  1  0.090242  0.612474  0.903161  1
  O  O34  1  0.824937  0.457294  0.570421  1
  O  O35  1  0.358259  0.121071  0.254128  1
