# generated using pymatgen
data_Tb2Pb2O7
_symmetry_space_group_name_H-M   'P 1'
_cell_length_a   7.38762775
_cell_length_b   7.38762775
_cell_length_c   12.90419485
_cell_angle_alpha   90.00000000
_cell_angle_beta   90.00000000
_cell_angle_gamma   90.00000000
_symmetry_Int_Tables_number   1
_chemical_formula_structural   Tb2Pb2O7
_chemical_formula_sum   'Tb8 Pb8 O28'
_cell_volume   704.27280783
_cell_formula_units_Z   4
loop_
 _symmetry_equiv_pos_site_id
 _symmetry_equiv_pos_as_xyz
  1  'x, y, z'
loop_
 _atom_site_type_symbol
 _atom_site_label
 _atom_site_symmetry_multiplicity
 _atom_site_fract_x
 _atom_site_fract_y
 _atom_site_fract_z
 _atom_site_occupancy
  Tb  Tb0  1  0.643100  0.124648  0.139356  1
  Tb  Tb1  1  0.624648  0.856900  0.889356  1
  Tb  Tb2  1  0.875352  0.356900  0.360644  1
  Tb  Tb3  1  0.856900  0.624648  0.110644  1
  Tb  Tb4  1  0.143100  0.375352  0.610644  1
  Tb  Tb5  1  0.124648  0.643100  0.860644  1
  Tb  Tb6  1  0.375352  0.143100  0.389356  1
  Tb  Tb7  1  0.356900  0.875352  0.639356  1
  Pb  Pb8  1  0.612312  0.374246  0.598489  1
  Pb  Pb9  1  0.625754  0.387688  0.901511  1
  Pb  Pb10  1  0.874246  0.887688  0.348489  1
  Pb  Pb11  1  0.887688  0.874246  0.651511  1
  Pb  Pb12  1  0.112312  0.125754  0.151511  1
  Pb  Pb13  1  0.125754  0.112312  0.848489  1
  Pb  Pb14  1  0.374246  0.612312  0.401511  1
  Pb  Pb15  1  0.387688  0.625754  0.098489  1
  O  O16  1  0.569656  0.403920  0.411107  1
  O  O17  1  0.595681  0.825049  0.075302  1
  O  O18  1  0.596080  0.430344  0.088893  1
  O  O19  1  0.669526  0.129824  0.961756  1
  O  O20  1  0.674951  0.095681  0.325302  1
  O  O21  1  0.629824  0.830474  0.711756  1
  O  O22  1  0.699176  0.300824  0.750000  1
  O  O23  1  0.800824  0.800824  0.500000  1
  O  O24  1  0.870176  0.330474  0.538244  1
  O  O25  1  0.825049  0.595681  0.924698  1
  O  O26  1  0.830474  0.629824  0.288244  1
  O  O27  1  0.903920  0.930344  0.161107  1
  O  O28  1  0.904319  0.325049  0.174698  1
  O  O29  1  0.930344  0.903920  0.838893  1
  O  O30  1  0.069656  0.096080  0.338893  1
  O  O31  1  0.095681  0.674951  0.674698  1
  O  O32  1  0.096080  0.069656  0.661107  1
  O  O33  1  0.169526  0.370176  0.788244  1
  O  O34  1  0.174951  0.404319  0.424698  1
  O  O35  1  0.129824  0.669526  0.038244  1
  O  O36  1  0.199176  0.199176  0.000000  1
  O  O37  1  0.300824  0.699176  0.250000  1
  O  O38  1  0.370176  0.169526  0.211756  1
  O  O39  1  0.325049  0.904319  0.825302  1
  O  O40  1  0.330474  0.870176  0.461756  1
  O  O41  1  0.403920  0.569656  0.588893  1
  O  O42  1  0.404319  0.174951  0.575302  1
  O  O43  1  0.430344  0.596080  0.911107  1
