# generated using pymatgen
data_Li2SnCSO7
_symmetry_space_group_name_H-M   'P 1'
_cell_length_a   5.10979210
_cell_length_b   6.82844782
_cell_length_c   9.52698183
_cell_angle_alpha   90.00000000
_cell_angle_beta   90.23426446
_cell_angle_gamma   90.00000000
_symmetry_Int_Tables_number   1
_chemical_formula_structural   Li2SnCSO7
_chemical_formula_sum   'Li4 Sn2 C2 S2 O14'
_cell_volume   332.41218332
_cell_formula_units_Z   2
loop_
 _symmetry_equiv_pos_site_id
 _symmetry_equiv_pos_as_xyz
  1  'x, y, z'
loop_
 _atom_site_type_symbol
 _atom_site_label
 _atom_site_symmetry_multiplicity
 _atom_site_fract_x
 _atom_site_fract_y
 _atom_site_fract_z
 _atom_site_occupancy
  Li  Li0  1  0.780801  0.526353  0.181331  1
  Li  Li1  1  0.780801  0.973647  0.181331  1
  Li  Li2  1  0.219199  0.473647  0.818669  1
  Li  Li3  1  0.219199  0.026353  0.818669  1
  Sn  Sn4  1  0.233504  0.250000  0.373789  1
  Sn  Sn5  1  0.766496  0.750000  0.626211  1
  C  C6  1  0.232155  0.250000  0.085976  1
  C  C7  1  0.767845  0.750000  0.914024  1
  S  S8  1  0.231775  0.750000  0.363423  1
  S  S9  1  0.768225  0.250000  0.636577  1
  O  O10  1  0.773898  0.750000  0.047297  1
  O  O11  1  0.013527  0.250000  0.160447  1
  O  O12  1  0.451944  0.250000  0.158232  1
  O  O13  1  0.085118  0.925524  0.309938  1
  O  O14  1  0.085118  0.574476  0.309938  1
  O  O15  1  0.772960  0.250000  0.479370  1
  O  O16  1  0.502844  0.750000  0.312099  1
  O  O17  1  0.497156  0.250000  0.687901  1
  O  O18  1  0.227040  0.750000  0.520630  1
  O  O19  1  0.914882  0.425524  0.690062  1
  O  O20  1  0.914882  0.074476  0.690062  1
  O  O21  1  0.548056  0.750000  0.841768  1
  O  O22  1  0.986473  0.750000  0.839553  1
  O  O23  1  0.226102  0.250000  0.952703  1
