# generated using pymatgen
data_Li3V4CrO8
_symmetry_space_group_name_H-M   'P 1'
_cell_length_a   6.05679222
_cell_length_b   6.05679222
_cell_length_c   6.08788708
_cell_angle_alpha   59.94137203
_cell_angle_beta   120.05862797
_cell_angle_gamma   119.32312920
_symmetry_Int_Tables_number   1
_chemical_formula_structural   Li3V4CrO8
_chemical_formula_sum   'Li3 V4 Cr1 O8'
_cell_volume   158.56961833
_cell_formula_units_Z   1
loop_
 _symmetry_equiv_pos_site_id
 _symmetry_equiv_pos_as_xyz
  1  'x, y, z'
loop_
 _atom_site_type_symbol
 _atom_site_label
 _atom_site_symmetry_multiplicity
 _atom_site_fract_x
 _atom_site_fract_y
 _atom_site_fract_z
 _atom_site_occupancy
  Li  Li0  1  0.000000  0.500000  0.000000  1
  Li  Li1  1  0.500000  0.000000  0.000000  1
  Li  Li2  1  0.000000  0.000000  0.500000  1
  V  V3  1  0.500000  0.500000  0.500000  1
  V  V4  1  0.000000  0.000000  0.000000  1
  V  V5  1  0.500000  0.000000  0.500000  1
  V  V6  1  0.000000  0.500000  0.500000  1
  Cr  Cr7  1  0.500000  0.500000  0.000000  1
  O  O8  1  0.740998  0.259002  0.251063  1
  O  O9  1  0.254479  0.271148  0.754333  1
  O  O10  1  0.728852  0.745521  0.754333  1
  O  O11  1  0.259002  0.740998  0.748937  1
  O  O12  1  0.249870  0.750130  0.272511  1
  O  O13  1  0.745521  0.728852  0.245667  1
  O  O14  1  0.271148  0.254479  0.245667  1
  O  O15  1  0.750130  0.249870  0.727489  1
