# generated using pymatgen
data_Co4OF11
_symmetry_space_group_name_H-M   'P 1'
_cell_length_a   5.07630559
_cell_length_b   5.29069980
_cell_length_c   7.37696750
_cell_angle_alpha   93.94460298
_cell_angle_beta   90.31527516
_cell_angle_gamma   91.14979059
_symmetry_Int_Tables_number   1
_chemical_formula_structural   Co4OF11
_chemical_formula_sum   'Co4 O1 F11'
_cell_volume   197.61090281
_cell_formula_units_Z   1
loop_
 _symmetry_equiv_pos_site_id
 _symmetry_equiv_pos_as_xyz
  1  'x, y, z'
loop_
 _atom_site_type_symbol
 _atom_site_label
 _atom_site_symmetry_multiplicity
 _atom_site_fract_x
 _atom_site_fract_y
 _atom_site_fract_z
 _atom_site_occupancy
  Co  Co0  1  0.511104  0.503408  0.998013  1
  Co  Co1  1  0.994357  0.984548  0.995111  1
  Co  Co2  1  0.500336  0.499311  0.498562  1
  Co  Co3  1  0.999889  0.999800  0.498352  1
  O  O4  1  0.781236  0.702747  0.957987  1
  F  F5  1  0.693054  0.193448  0.941142  1
  F  F6  1  0.114218  0.995939  0.747523  1
  F  F7  1  0.685679  0.804416  0.559192  1
  F  F8  1  0.385120  0.500184  0.751389  1
  F  F9  1  0.811466  0.305872  0.557240  1
  F  F10  1  0.189048  0.693746  0.443005  1
  F  F11  1  0.620149  0.500856  0.248570  1
  F  F12  1  0.316552  0.194262  0.443030  1
  F  F13  1  0.888190  0.006391  0.252978  1
  F  F14  1  0.305201  0.805247  0.057355  1
  F  F15  1  0.204402  0.309825  0.050550  1
