# generated using pymatgen
data_Li4FeOF5
_symmetry_space_group_name_H-M   'P 1'
_cell_length_a   5.83014879
_cell_length_b   5.83014879
_cell_length_c   13.27038757
_cell_angle_alpha   89.97932054
_cell_angle_beta   90.02067946
_cell_angle_gamma   59.86494371
_symmetry_Int_Tables_number   1
_chemical_formula_structural   Li4FeOF5
_chemical_formula_sum   'Li12 Fe3 O3 F15'
_cell_volume   390.10431376
_cell_formula_units_Z   3
loop_
 _symmetry_equiv_pos_site_id
 _symmetry_equiv_pos_as_xyz
  1  'x, y, z'
loop_
 _atom_site_type_symbol
 _atom_site_label
 _atom_site_symmetry_multiplicity
 _atom_site_fract_x
 _atom_site_fract_y
 _atom_site_fract_z
 _atom_site_occupancy
  Li  Li0  1  0.333709  0.988476  0.345872  1
  Li  Li1  1  0.333815  0.993229  0.050063  1
  Li  Li2  1  0.317946  0.682054  0.503111  1
  Li  Li3  1  0.011524  0.666291  0.345872  1
  Li  Li4  1  0.006771  0.666185  0.050063  1
  Li  Li5  1  0.666022  0.333978  0.656856  1
  Li  Li6  1  0.654987  0.345013  0.339705  1
  Li  Li7  1  0.661039  0.338961  0.045849  1
  Li  Li8  1  0.011748  0.334213  0.502152  1
  Li  Li9  1  0.000155  0.332944  0.207311  1
  Li  Li10  1  0.665787  0.988252  0.502152  1
  Li  Li11  1  0.667056  0.999845  0.207311  1
  Fe  Fe12  1  0.334230  0.665770  0.851147  1
  Fe  Fe13  1  0.000611  0.332712  0.850908  1
  Fe  Fe14  1  0.667288  0.999389  0.850908  1
  O  O15  1  0.334270  0.998823  0.863094  1
  O  O16  1  0.001177  0.665730  0.863094  1
  O  O17  1  0.667847  0.332153  0.873548  1
  F  F18  1  0.332985  0.002654  0.504047  1
  F  F19  1  0.334065  0.040245  0.186354  1
  F  F20  1  0.365101  0.634899  0.711029  1
  F  F21  1  0.337515  0.662485  0.356638  1
  F  F22  1  0.326980  0.673020  0.009787  1
  F  F23  1  0.997346  0.667015  0.504047  1
  F  F24  1  0.959755  0.665935  0.186354  1
  F  F25  1  0.668634  0.331366  0.519473  1
  F  F26  1  0.708549  0.291451  0.182948  1
  F  F27  1  0.966717  0.334406  0.710781  1
  F  F28  1  0.994025  0.333434  0.350380  1
  F  F29  1  0.007827  0.333472  0.009592  1
  F  F30  1  0.665594  0.033283  0.710781  1
  F  F31  1  0.666566  0.005975  0.350380  1
  F  F32  1  0.666528  0.992173  0.009592  1
