# generated using pymatgen
data_Rb2PrO3
_symmetry_space_group_name_H-M   'P 1'
_cell_length_a   6.57640867
_cell_length_b   7.53520656
_cell_length_c   11.33607483
_cell_angle_alpha   90.00000000
_cell_angle_beta   90.00000000
_cell_angle_gamma   90.00000000
_symmetry_Int_Tables_number   1
_chemical_formula_structural   Rb2PrO3
_chemical_formula_sum   'Rb8 Pr4 O12'
_cell_volume   561.75462797
_cell_formula_units_Z   4
loop_
 _symmetry_equiv_pos_site_id
 _symmetry_equiv_pos_as_xyz
  1  'x, y, z'
loop_
 _atom_site_type_symbol
 _atom_site_label
 _atom_site_symmetry_multiplicity
 _atom_site_fract_x
 _atom_site_fract_y
 _atom_site_fract_z
 _atom_site_occupancy
  Rb  Rb0  1  0.769087  0.887156  0.084560  1
  Rb  Rb1  1  0.269087  0.612844  0.084560  1
  Rb  Rb2  1  0.269087  0.612844  0.415440  1
  Rb  Rb3  1  0.769087  0.887156  0.415440  1
  Rb  Rb4  1  0.730913  0.387156  0.584560  1
  Rb  Rb5  1  0.230913  0.112844  0.584560  1
  Rb  Rb6  1  0.730913  0.387156  0.915440  1
  Rb  Rb7  1  0.230913  0.112844  0.915440  1
  Pr  Pr8  1  0.735657  0.350552  0.250000  1
  Pr  Pr9  1  0.235657  0.149448  0.250000  1
  Pr  Pr10  1  0.764343  0.850552  0.750000  1
  Pr  Pr11  1  0.264343  0.649448  0.750000  1
  O  O12  1  0.999934  0.274713  0.117378  1
  O  O13  1  0.499934  0.225287  0.117378  1
  O  O14  1  0.643412  0.632527  0.250000  1
  O  O15  1  0.143412  0.867473  0.250000  1
  O  O16  1  0.999934  0.274713  0.382622  1
  O  O17  1  0.499934  0.225287  0.382622  1
  O  O18  1  0.500066  0.774713  0.617378  1
  O  O19  1  0.000066  0.725287  0.617378  1
  O  O20  1  0.356588  0.367473  0.750000  1
  O  O21  1  0.856588  0.132527  0.750000  1
  O  O22  1  0.500066  0.774713  0.882622  1
  O  O23  1  0.000066  0.725287  0.882622  1
