# generated using pymatgen
data_Na5Li4Ti5O14
_symmetry_space_group_name_H-M   'P 1'
_cell_length_a   5.22651559
_cell_length_b   7.01390967
_cell_length_c   8.18933501
_cell_angle_alpha   88.74489151
_cell_angle_beta   101.97291678
_cell_angle_gamma   97.69316911
_symmetry_Int_Tables_number   1
_chemical_formula_structural   Na5Li4Ti5O14
_chemical_formula_sum   'Na5 Li4 Ti5 O14'
_cell_volume   291.02772944
_cell_formula_units_Z   1
loop_
 _symmetry_equiv_pos_site_id
 _symmetry_equiv_pos_as_xyz
  1  'x, y, z'
loop_
 _atom_site_type_symbol
 _atom_site_label
 _atom_site_symmetry_multiplicity
 _atom_site_fract_x
 _atom_site_fract_y
 _atom_site_fract_z
 _atom_site_occupancy
  Na  Na0  1  0.511951  0.999958  0.497869  1
  Na  Na1  1  0.916559  0.856864  0.359693  1
  Na  Na2  1  0.647006  0.294993  0.795142  1
  Na  Na3  1  0.072298  0.134775  0.642640  1
  Na  Na4  1  0.357896  0.723371  0.215714  1
  Li  Li5  1  0.216978  0.433093  0.934520  1
  Li  Li6  1  0.861326  0.708329  0.716773  1
  Li  Li7  1  0.778039  0.574865  0.063951  1
  Li  Li8  1  0.568394  0.150195  0.139224  1
  Ti  Ti9  1  0.002222  0.992831  0.996208  1
  Ti  Ti10  1  0.431194  0.849529  0.859570  1
  Ti  Ti11  1  0.285289  0.572598  0.582038  1
  Ti  Ti12  1  0.711066  0.428138  0.422336  1
  Ti  Ti13  1  0.138813  0.285465  0.269983  1
  O  O14  1  0.111613  0.744258  0.956046  1
  O  O15  1  0.743119  0.981777  0.782057  1
  O  O16  1  0.207426  0.830754  0.627704  1
  O  O17  1  0.496550  0.583514  0.818157  1
  O  O18  1  0.969804  0.445133  0.649150  1
  O  O19  1  0.308056  0.101953  0.906616  1
  O  O20  1  0.595447  0.675364  0.481217  1
  O  O21  1  0.030345  0.547402  0.337387  1
  O  O22  1  0.688491  0.862821  0.078143  1
  O  O23  1  0.398313  0.313460  0.513571  1
  O  O24  1  0.832928  0.182049  0.375557  1
  O  O25  1  0.465126  0.417630  0.199391  1
  O  O26  1  0.933671  0.277718  0.048066  1
  O  O27  1  0.220279  0.030861  0.231676  1
