# generated using pymatgen
data_Ce2S2O
_symmetry_space_group_name_H-M   'P 1'
_cell_length_a   7.00455271
_cell_length_b   7.21498984
_cell_length_c   8.49993359
_cell_angle_alpha   90.00000000
_cell_angle_beta   97.54687233
_cell_angle_gamma   90.00000000
_symmetry_Int_Tables_number   1
_chemical_formula_structural   Ce2S2O
_chemical_formula_sum   'Ce8 S8 O4'
_cell_volume   425.84672132
_cell_formula_units_Z   4
loop_
 _symmetry_equiv_pos_site_id
 _symmetry_equiv_pos_as_xyz
  1  'x, y, z'
loop_
 _atom_site_type_symbol
 _atom_site_label
 _atom_site_symmetry_multiplicity
 _atom_site_fract_x
 _atom_site_fract_y
 _atom_site_fract_z
 _atom_site_occupancy
  Ce  Ce0  1  0.252522  0.443557  0.139273  1
  Ce  Ce1  1  0.752522  0.056443  0.139273  1
  Ce  Ce2  1  0.194680  0.873194  0.414836  1
  Ce  Ce3  1  0.694680  0.626806  0.414836  1
  Ce  Ce4  1  0.305320  0.373194  0.585164  1
  Ce  Ce5  1  0.805320  0.126806  0.585164  1
  Ce  Ce6  1  0.247478  0.943557  0.860727  1
  Ce  Ce7  1  0.747478  0.556443  0.860727  1
  S  S8  1  0.026385  0.769702  0.080904  1
  S  S9  1  0.526385  0.730298  0.080904  1
  S  S10  1  0.451261  0.157663  0.331464  1
  S  S11  1  0.951261  0.342337  0.331464  1
  S  S12  1  0.048739  0.657663  0.668536  1
  S  S13  1  0.548739  0.842337  0.668536  1
  S  S14  1  0.473615  0.269702  0.919096  1
  S  S15  1  0.973615  0.230298  0.919096  1
  O  O16  1  0.350612  0.588893  0.384606  1
  O  O17  1  0.850612  0.911107  0.384606  1
  O  O18  1  0.149388  0.088893  0.615394  1
  O  O19  1  0.649388  0.411107  0.615394  1
