# generated using pymatgen
data_Li3SbH18S4O9
_symmetry_space_group_name_H-M   'P 1'
_cell_length_a   11.53979262
_cell_length_b   11.53979262
_cell_length_c   11.53979262
_cell_angle_alpha   90.00000000
_cell_angle_beta   90.00000000
_cell_angle_gamma   90.00000000
_symmetry_Int_Tables_number   1
_chemical_formula_structural   Li3SbH18S4O9
_chemical_formula_sum   'Li12 Sb4 H72 S16 O36'
_cell_volume   1536.71741411
_cell_formula_units_Z   4
loop_
 _symmetry_equiv_pos_site_id
 _symmetry_equiv_pos_as_xyz
  1  'x, y, z'
loop_
 _atom_site_type_symbol
 _atom_site_label
 _atom_site_symmetry_multiplicity
 _atom_site_fract_x
 _atom_site_fract_y
 _atom_site_fract_z
 _atom_site_occupancy
  Li  Li0  1  0.049738  0.549738  0.950262  1
  Li  Li1  1  0.090477  0.909523  0.409523  1
  Li  Li2  1  0.205126  0.705126  0.794874  1
  Li  Li3  1  0.294874  0.294874  0.294874  1
  Li  Li4  1  0.409523  0.090477  0.909523  1
  Li  Li5  1  0.450262  0.450262  0.450262  1
  Li  Li6  1  0.549738  0.950262  0.049738  1
  Li  Li7  1  0.590477  0.590477  0.590477  1
  Li  Li8  1  0.705126  0.794874  0.205126  1
  Li  Li9  1  0.794874  0.205126  0.705126  1
  Li  Li10  1  0.909523  0.409523  0.090477  1
  Li  Li11  1  0.950262  0.049738  0.549738  1
  Sb  Sb12  1  0.038373  0.038373  0.038373  1
  Sb  Sb13  1  0.461627  0.961627  0.538373  1
  Sb  Sb14  1  0.538373  0.461627  0.961627  1
  Sb  Sb15  1  0.961627  0.538373  0.461627  1
  H  H16  1  0.015728  0.251970  0.656529  1
  H  H17  1  0.027189  0.305151  0.927578  1
  H  H18  1  0.037418  0.165056  0.758862  1
  H  H19  1  0.055835  0.226974  0.267309  1
  H  H20  1  0.064934  0.310506  0.372966  1
  H  H21  1  0.077014  0.868146  0.637374  1
  H  H22  1  0.072422  0.527189  0.194849  1
  H  H23  1  0.127034  0.935066  0.810506  1
  H  H24  1  0.137374  0.422986  0.131854  1
  H  H25  1  0.131854  0.137374  0.422986  1
  H  H26  1  0.156529  0.484272  0.748030  1
  H  H27  1  0.165056  0.758862  0.037418  1
  H  H28  1  0.189494  0.627034  0.564934  1
  H  H29  1  0.194849  0.072422  0.527189  1
  H  H30  1  0.226974  0.267309  0.055835  1
  H  H31  1  0.232691  0.944165  0.726974  1
  H  H32  1  0.241138  0.537418  0.334944  1
  H  H33  1  0.248030  0.343471  0.515728  1
  H  H34  1  0.251970  0.656529  0.015728  1
  H  H35  1  0.258862  0.462582  0.834944  1
  H  H36  1  0.267309  0.055835  0.226974  1
  H  H37  1  0.273026  0.732691  0.555835  1
  H  H38  1  0.305151  0.927578  0.027189  1
  H  H39  1  0.310506  0.372966  0.064934  1
  H  H40  1  0.334944  0.241138  0.537418  1
  H  H41  1  0.343471  0.515728  0.248030  1
  H  H42  1  0.368146  0.862626  0.922986  1
  H  H43  1  0.362626  0.577014  0.631854  1
  H  H44  1  0.372966  0.064934  0.310506  1
  H  H45  1  0.427578  0.472811  0.694849  1
  H  H46  1  0.422986  0.131854  0.137374  1
  H  H47  1  0.435066  0.689494  0.872966  1
  H  H48  1  0.444165  0.773026  0.767309  1
  H  H49  1  0.462582  0.834944  0.258862  1
  H  H50  1  0.472811  0.694849  0.427578  1
  H  H51  1  0.484272  0.748030  0.156529  1
  H  H52  1  0.515728  0.248030  0.343471  1
  H  H53  1  0.527189  0.194849  0.072422  1
  H  H54  1  0.537418  0.334944  0.241138  1
  H  H55  1  0.555835  0.273026  0.732691  1
  H  H56  1  0.564934  0.189494  0.627034  1
  H  H57  1  0.577014  0.631854  0.362626  1
  H  H58  1  0.572422  0.972811  0.805151  1
  H  H59  1  0.627034  0.564934  0.189494  1
  H  H60  1  0.637374  0.077014  0.868146  1
  H  H61  1  0.631854  0.362626  0.577014  1
  H  H62  1  0.656529  0.015728  0.251970  1
  H  H63  1  0.665056  0.741138  0.962582  1
  H  H64  1  0.689494  0.872966  0.435066  1
  H  H65  1  0.694849  0.427578  0.472811  1
  H  H66  1  0.726974  0.232691  0.944165  1
  H  H67  1  0.732691  0.555835  0.273026  1
  H  H68  1  0.741138  0.962582  0.665056  1
  H  H69  1  0.748030  0.156529  0.484272  1
  H  H70  1  0.751970  0.843471  0.984272  1
  H  H71  1  0.758862  0.037418  0.165056  1
  H  H72  1  0.767309  0.444165  0.773026  1
  H  H73  1  0.773026  0.767309  0.444165  1
  H  H74  1  0.805151  0.572422  0.972811  1
  H  H75  1  0.810506  0.127034  0.935066  1
  H  H76  1  0.834944  0.258862  0.462582  1
  H  H77  1  0.843471  0.984272  0.751970  1
  H  H78  1  0.868146  0.637374  0.077014  1
  H  H79  1  0.862626  0.922986  0.368146  1
  H  H80  1  0.872966  0.435066  0.689494  1
  H  H81  1  0.927578  0.027189  0.305151  1
  H  H82  1  0.922986  0.368146  0.862626  1
  H  H83  1  0.935066  0.810506  0.127034  1
  H  H84  1  0.944165  0.726974  0.232691  1
  H  H85  1  0.962582  0.665056  0.741138  1
  H  H86  1  0.972811  0.805151  0.572422  1
  H  H87  1  0.984272  0.751970  0.843471  1
  S  S88  1  0.080153  0.419847  0.580153  1
  S  S89  1  0.082594  0.655514  0.345161  1
  S  S90  1  0.154839  0.917406  0.155514  1
  S  S91  1  0.155514  0.154839  0.917406  1
  S  S92  1  0.344486  0.845161  0.417406  1
  S  S93  1  0.345161  0.082594  0.655514  1
  S  S94  1  0.417406  0.344486  0.845161  1
  S  S95  1  0.419847  0.580153  0.080153  1
  S  S96  1  0.580153  0.080153  0.419847  1
  S  S97  1  0.582594  0.844486  0.654839  1
  S  S98  1  0.654839  0.582594  0.844486  1
  S  S99  1  0.655514  0.345161  0.082594  1
  S  S100  1  0.844486  0.654839  0.582594  1
  S  S101  1  0.845161  0.417406  0.344486  1
  S  S102  1  0.917406  0.155514  0.154839  1
  S  S103  1  0.919847  0.919847  0.919847  1
  O  O104  1  0.013709  0.679297  0.808521  1
  O  O105  1  0.025816  0.872425  0.568185  1
  O  O106  1  0.068185  0.474184  0.127575  1
  O  O107  1  0.111194  0.255654  0.327071  1
  O  O108  1  0.127575  0.068185  0.474184  1
  O  O109  1  0.172929  0.888806  0.755654  1
  O  O110  1  0.179297  0.691479  0.986291  1
  O  O111  1  0.191479  0.513709  0.820703  1
  O  O112  1  0.244346  0.672929  0.611194  1
  O  O113  1  0.255654  0.327071  0.111194  1
  O  O114  1  0.308521  0.486291  0.320703  1
  O  O115  1  0.320703  0.308521  0.486291  1
  O  O116  1  0.327071  0.111194  0.255654  1
  O  O117  1  0.372425  0.931815  0.974184  1
  O  O118  1  0.388806  0.744346  0.827071  1
  O  O119  1  0.431815  0.525816  0.627575  1
  O  O120  1  0.474184  0.127575  0.068185  1
  O  O121  1  0.486291  0.320703  0.308521  1
  O  O122  1  0.513709  0.820703  0.191479  1
  O  O123  1  0.525816  0.627575  0.431815  1
  O  O124  1  0.568185  0.025816  0.872425  1
  O  O125  1  0.611194  0.244346  0.672929  1
  O  O126  1  0.627575  0.431815  0.525816  1
  O  O127  1  0.672929  0.611194  0.244346  1
  O  O128  1  0.679297  0.808521  0.013709  1
  O  O129  1  0.691479  0.986291  0.179297  1
  O  O130  1  0.744346  0.827071  0.388806  1
  O  O131  1  0.755654  0.172929  0.888806  1
  O  O132  1  0.808521  0.013709  0.679297  1
  O  O133  1  0.820703  0.191479  0.513709  1
  O  O134  1  0.827071  0.388806  0.744346  1
  O  O135  1  0.872425  0.568185  0.025816  1
  O  O136  1  0.888806  0.755654  0.172929  1
  O  O137  1  0.931815  0.974184  0.372425  1
  O  O138  1  0.974184  0.372425  0.931815  1
  O  O139  1  0.986291  0.179297  0.691479  1
