# generated using pymatgen
data_Li5Fe11O16
_symmetry_space_group_name_H-M   'P 1'
_cell_length_a   6.09275414
_cell_length_b   12.09918125
_cell_length_c   10.48786185
_cell_angle_alpha   90.00000000
_cell_angle_beta   125.53523936
_cell_angle_gamma   90.00000000
_symmetry_Int_Tables_number   1
_chemical_formula_structural   Li5Fe11O16
_chemical_formula_sum   'Li10 Fe22 O32'
_cell_volume   629.14677654
_cell_formula_units_Z   2
loop_
 _symmetry_equiv_pos_site_id
 _symmetry_equiv_pos_as_xyz
  1  'x, y, z'
loop_
 _atom_site_type_symbol
 _atom_site_label
 _atom_site_symmetry_multiplicity
 _atom_site_fract_x
 _atom_site_fract_y
 _atom_site_fract_z
 _atom_site_occupancy
  Li  Li0  1  0.011525  0.126664  0.258635  1
  Li  Li1  1  0.988475  0.626664  0.241365  1
  Li  Li2  1  0.508529  0.746023  0.000657  1
  Li  Li3  1  0.500000  0.500000  0.000000  1
  Li  Li4  1  0.491471  0.253977  0.999343  1
  Li  Li5  1  0.988475  0.873336  0.741365  1
  Li  Li6  1  0.011525  0.373336  0.758635  1
  Li  Li7  1  0.500000  0.000000  0.500000  1
  Li  Li8  1  0.491471  0.246023  0.499343  1
  Li  Li9  1  0.508529  0.753977  0.500657  1
  Fe  Fe10  1  0.506921  0.127883  0.259668  1
  Fe  Fe11  1  0.495254  0.373801  0.245548  1
  Fe  Fe12  1  0.504746  0.873801  0.254452  1
  Fe  Fe13  1  0.493079  0.627883  0.240332  1
  Fe  Fe14  1  0.989946  0.371640  0.241672  1
  Fe  Fe15  1  0.010054  0.871640  0.258328  1
  Fe  Fe16  1  0.005305  0.749205  0.000000  1
  Fe  Fe17  1  0.994695  0.250795  1.000000  1
  Fe  Fe18  1  0.500000  0.000000  0.000000  1
  Fe  Fe19  1  0.000000  0.000000  0.000000  1
  Fe  Fe20  1  0.000000  0.500000  0.000000  1
  Fe  Fe21  1  0.504746  0.626199  0.754452  1
  Fe  Fe22  1  0.495254  0.126199  0.745548  1
  Fe  Fe23  1  0.010054  0.628360  0.758328  1
  Fe  Fe24  1  0.493079  0.872117  0.740332  1
  Fe  Fe25  1  0.506921  0.372117  0.759668  1
  Fe  Fe26  1  0.989946  0.128360  0.741672  1
  Fe  Fe27  1  0.000000  0.000000  0.500000  1
  Fe  Fe28  1  0.000000  0.500000  0.500000  1
  Fe  Fe29  1  0.005305  0.750795  0.500000  1
  Fe  Fe30  1  0.994695  0.249205  0.500000  1
  Fe  Fe31  1  0.500000  0.500000  0.500000  1
  O  O32  1  0.269868  0.501862  0.253502  1
  O  O33  1  0.270134  0.249856  0.255085  1
  O  O34  1  0.275340  0.749286  0.254433  1
  O  O35  1  0.257645  0.000798  0.242091  1
  O  O36  1  0.742355  0.500798  0.257909  1
  O  O37  1  0.730132  0.001862  0.246498  1
  O  O38  1  0.724660  0.249286  0.245567  1
  O  O39  1  0.729866  0.749856  0.244915  1
  O  O40  1  0.755082  0.625292  0.988993  1
  O  O41  1  0.754821  0.120927  0.990143  1
  O  O42  1  0.238880  0.119733  0.000494  1
  O  O43  1  0.264566  0.624170  0.003675  1
  O  O44  1  0.245179  0.879073  0.009857  1
  O  O45  1  0.761120  0.880267  0.999506  1
  O  O46  1  0.244918  0.374708  0.011007  1
  O  O47  1  0.735434  0.375830  0.996325  1
  O  O48  1  0.270134  0.250144  0.755085  1
  O  O49  1  0.269868  0.998138  0.753502  1
  O  O50  1  0.275340  0.750714  0.754433  1
  O  O51  1  0.257645  0.499202  0.742091  1
  O  O52  1  0.724660  0.250714  0.745567  1
  O  O53  1  0.742355  0.999202  0.757909  1
  O  O54  1  0.729866  0.750144  0.744915  1
  O  O55  1  0.730132  0.498138  0.746498  1
  O  O56  1  0.754821  0.379073  0.490143  1
  O  O57  1  0.264566  0.875830  0.503675  1
  O  O58  1  0.238880  0.380267  0.500494  1
  O  O59  1  0.755082  0.874708  0.488993  1
  O  O60  1  0.761120  0.619733  0.499506  1
  O  O61  1  0.244918  0.125292  0.511007  1
  O  O62  1  0.245179  0.620927  0.509857  1
  O  O63  1  0.735434  0.124170  0.496325  1
