# generated using pymatgen
data_Li13Mn2O12
_symmetry_space_group_name_H-M   'P 1'
_cell_length_a   5.64186291
_cell_length_b   5.68946288
_cell_length_c   9.57111281
_cell_angle_alpha   90.00741489
_cell_angle_beta   106.32986159
_cell_angle_gamma   119.59699689
_symmetry_Int_Tables_number   1
_chemical_formula_structural   Li13Mn2O12
_chemical_formula_sum   'Li13 Mn2 O12'
_cell_volume   252.78003026
_cell_formula_units_Z   1
loop_
 _symmetry_equiv_pos_site_id
 _symmetry_equiv_pos_as_xyz
  1  'x, y, z'
loop_
 _atom_site_type_symbol
 _atom_site_label
 _atom_site_symmetry_multiplicity
 _atom_site_fract_x
 _atom_site_fract_y
 _atom_site_fract_z
 _atom_site_occupancy
  Li  Li0  1  0.118654  0.480028  0.126658  1
  Li  Li1  1  0.255784  0.945651  0.254988  1
  Li  Li2  1  0.522837  0.275920  0.536137  1
  Li  Li3  1  0.394005  0.857508  0.882477  1
  Li  Li4  1  0.501319  0.336236  0.960851  1
  Li  Li5  1  0.711046  0.571413  0.246995  1
  Li  Li6  1  0.078825  0.938143  0.634921  1
  Li  Li7  1  0.925287  0.041262  0.377448  1
  Li  Li8  1  0.278503  0.433756  0.738879  1
  Li  Li9  1  0.629572  0.066249  0.138657  1
  Li  Li10  1  0.479715  0.726914  0.458747  1
  Li  Li11  1  0.743557  0.068237  0.743715  1
  Li  Li12  1  0.888057  0.538784  0.864374  1
  Mn  Mn13  1  0.987990  0.998329  0.999530  1
  Mn  Mn14  1  0.999882  0.498525  0.495219  1
  O  O15  1  0.771280  0.198941  0.958947  1
  O  O16  1  0.080562  0.565772  0.314099  1
  O  O17  1  0.353438  0.844239  0.604388  1
  O  O18  1  0.635601  0.677674  0.886060  1
  O  O19  1  0.894579  0.933393  0.179899  1
  O  O20  1  0.213832  0.314690  0.539764  1
  O  O21  1  0.789363  0.686153  0.455857  1
  O  O22  1  0.112232  0.082778  0.825288  1
  O  O23  1  0.343520  0.314594  0.116492  1
  O  O24  1  0.650889  0.152630  0.389354  1
  O  O25  1  0.922557  0.444806  0.681747  1
  O  O26  1  0.206103  0.811142  0.039466  1
