# generated using pymatgen
data_VCo(PO4)2
_symmetry_space_group_name_H-M   'P 1'
_cell_length_a   4.87588056
_cell_length_b   5.96264312
_cell_length_c   9.90301067
_cell_angle_alpha   90.00000000
_cell_angle_beta   91.09532836
_cell_angle_gamma   90.00000000
_symmetry_Int_Tables_number   1
_chemical_formula_structural   VCo(PO4)2
_chemical_formula_sum   'V2 Co2 P4 O16'
_cell_volume   287.85896428
_cell_formula_units_Z   2
loop_
 _symmetry_equiv_pos_site_id
 _symmetry_equiv_pos_as_xyz
  1  'x, y, z'
loop_
 _atom_site_type_symbol
 _atom_site_label
 _atom_site_symmetry_multiplicity
 _atom_site_fract_x
 _atom_site_fract_y
 _atom_site_fract_z
 _atom_site_occupancy
  V  V0  1  0.516357  0.250000  0.226096  1
  V  V1  1  0.483643  0.750000  0.773904  1
  Co  Co2  1  0.031581  0.750000  0.267131  1
  Co  Co3  1  0.968419  0.250000  0.732869  1
  P  P4  1  0.571315  0.750000  0.096365  1
  P  P5  1  0.100290  0.250000  0.401002  1
  P  P6  1  0.899710  0.750000  0.598998  1
  P  P7  1  0.428685  0.250000  0.903635  1
  O  O8  1  0.348024  0.250000  0.058351  1
  O  O9  1  0.263547  0.750000  0.104792  1
  O  O10  1  0.716958  0.955988  0.165308  1
  O  O11  1  0.716958  0.544012  0.165308  1
  O  O12  1  0.253434  0.051429  0.326240  1
  O  O13  1  0.253434  0.448571  0.326240  1
  O  O14  1  0.789322  0.250000  0.363404  1
  O  O15  1  0.856474  0.750000  0.449129  1
  O  O16  1  0.143526  0.250000  0.550871  1
  O  O17  1  0.210678  0.750000  0.636596  1
  O  O18  1  0.746566  0.948571  0.673760  1
  O  O19  1  0.746566  0.551429  0.673760  1
  O  O20  1  0.283042  0.455988  0.834692  1
  O  O21  1  0.283042  0.044012  0.834692  1
  O  O22  1  0.736453  0.250000  0.895208  1
  O  O23  1  0.651976  0.750000  0.941649  1
