# generated using pymatgen
data_LiFe(PO3)4
_symmetry_space_group_name_H-M   'P 1'
_cell_length_a   8.12030936
_cell_length_b   9.51973826
_cell_length_c   13.04088741
_cell_angle_alpha   90.00000000
_cell_angle_beta   90.00000000
_cell_angle_gamma   90.00000000
_symmetry_Int_Tables_number   1
_chemical_formula_structural   LiFe(PO3)4
_chemical_formula_sum   'Li4 Fe4 P16 O48'
_cell_volume   1008.10258450
_cell_formula_units_Z   4
loop_
 _symmetry_equiv_pos_site_id
 _symmetry_equiv_pos_as_xyz
  1  'x, y, z'
loop_
 _atom_site_type_symbol
 _atom_site_label
 _atom_site_symmetry_multiplicity
 _atom_site_fract_x
 _atom_site_fract_y
 _atom_site_fract_z
 _atom_site_occupancy
  Li  Li0  1  0.578977  0.250000  0.000000  1
  Li  Li1  1  0.421023  0.750000  0.000000  1
  Li  Li2  1  0.078977  0.250000  0.500000  1
  Li  Li3  1  0.921023  0.750000  0.500000  1
  Fe  Fe4  1  0.019216  0.750000  0.000000  1
  Fe  Fe5  1  0.980784  0.250000  0.000000  1
  Fe  Fe6  1  0.480784  0.250000  0.500000  1
  Fe  Fe7  1  0.519216  0.750000  0.500000  1
  P  P8  1  0.170401  0.496016  0.137033  1
  P  P9  1  0.829599  0.996016  0.137033  1
  P  P10  1  0.452900  0.000402  0.146541  1
  P  P11  1  0.547100  0.500402  0.146541  1
  P  P12  1  0.047100  0.500402  0.353459  1
  P  P13  1  0.952900  0.000402  0.353459  1
  P  P14  1  0.329599  0.996016  0.362967  1
  P  P15  1  0.670401  0.496016  0.362967  1
  P  P16  1  0.329599  0.503984  0.637033  1
  P  P17  1  0.670401  0.003984  0.637033  1
  P  P18  1  0.047100  0.999598  0.646541  1
  P  P19  1  0.952900  0.499598  0.646541  1
  P  P20  1  0.452900  0.499598  0.853459  1
  P  P21  1  0.547100  0.999598  0.853459  1
  P  P22  1  0.170401  0.003984  0.862967  1
  P  P23  1  0.829599  0.503984  0.862967  1
  O  O24  1  0.161854  0.615890  0.059367  1
  O  O25  1  0.838146  0.115890  0.059367  1
  O  O26  1  0.560004  0.623623  0.077946  1
  O  O27  1  0.439996  0.123623  0.077946  1
  O  O28  1  0.910205  0.860559  0.099225  1
  O  O29  1  0.089795  0.360559  0.099225  1
  O  O30  1  0.639526  0.367916  0.130107  1
  O  O31  1  0.360474  0.867916  0.130107  1
  O  O32  1  0.350619  0.459901  0.166299  1
  O  O33  1  0.649381  0.959901  0.166299  1
  O  O34  1  0.082030  0.556077  0.234733  1
  O  O35  1  0.917970  0.056077  0.234733  1
  O  O36  1  0.417970  0.056077  0.265267  1
  O  O37  1  0.582030  0.556077  0.265267  1
  O  O38  1  0.149381  0.959901  0.333701  1
  O  O39  1  0.850619  0.459901  0.333701  1
  O  O40  1  0.139526  0.367916  0.369893  1
  O  O41  1  0.860474  0.867916  0.369893  1
  O  O42  1  0.589795  0.360559  0.400775  1
  O  O43  1  0.410205  0.860559  0.400775  1
  O  O44  1  0.060004  0.623623  0.422054  1
  O  O45  1  0.939996  0.123623  0.422054  1
  O  O46  1  0.661854  0.615890  0.440633  1
  O  O47  1  0.338146  0.115890  0.440633  1
  O  O48  1  0.338146  0.384110  0.559367  1
  O  O49  1  0.661854  0.884110  0.559367  1
  O  O50  1  0.060004  0.876377  0.577946  1
  O  O51  1  0.939996  0.376377  0.577946  1
  O  O52  1  0.410205  0.639441  0.599225  1
  O  O53  1  0.589795  0.139441  0.599225  1
  O  O54  1  0.139526  0.132084  0.630107  1
  O  O55  1  0.860474  0.632084  0.630107  1
  O  O56  1  0.149381  0.540099  0.666299  1
  O  O57  1  0.850619  0.040099  0.666299  1
  O  O58  1  0.417970  0.443923  0.734733  1
  O  O59  1  0.582030  0.943923  0.734733  1
  O  O60  1  0.082030  0.943923  0.765267  1
  O  O61  1  0.917970  0.443923  0.765267  1
  O  O62  1  0.350619  0.040099  0.833701  1
  O  O63  1  0.649381  0.540099  0.833701  1
  O  O64  1  0.360474  0.632084  0.869893  1
  O  O65  1  0.639526  0.132084  0.869893  1
  O  O66  1  0.089795  0.139441  0.900775  1
  O  O67  1  0.910205  0.639441  0.900775  1
  O  O68  1  0.439996  0.376377  0.922054  1
  O  O69  1  0.560004  0.876377  0.922054  1
  O  O70  1  0.161854  0.884110  0.940633  1
  O  O71  1  0.838146  0.384110  0.940633  1
