# generated using pymatgen
data_Na6V2B4SO16
_symmetry_space_group_name_H-M   'P 1'
_cell_length_a   9.93543778
_cell_length_b   9.93543778
_cell_length_c   9.93543778
_cell_angle_alpha   60.00000000
_cell_angle_beta   60.00000000
_cell_angle_gamma   60.00000000
_symmetry_Int_Tables_number   1
_chemical_formula_structural   Na6V2B4SO16
_chemical_formula_sum   'Na12 V4 B8 S2 O32'
_cell_volume   693.49929737
_cell_formula_units_Z   2
loop_
 _symmetry_equiv_pos_site_id
 _symmetry_equiv_pos_as_xyz
  1  'x, y, z'
loop_
 _atom_site_type_symbol
 _atom_site_label
 _atom_site_symmetry_multiplicity
 _atom_site_fract_x
 _atom_site_fract_y
 _atom_site_fract_z
 _atom_site_occupancy
  Na  Na0  1  0.719172  0.280828  0.719172  1
  Na  Na1  1  0.719172  0.280828  0.280828  1
  Na  Na2  1  0.280828  0.719172  0.719172  1
  Na  Na3  1  0.719172  0.719172  0.280828  1
  Na  Na4  1  0.969172  0.969172  0.530828  1
  Na  Na5  1  0.280828  0.719172  0.280828  1
  Na  Na6  1  0.969172  0.530828  0.969172  1
  Na  Na7  1  0.969172  0.530828  0.530828  1
  Na  Na8  1  0.530828  0.530828  0.969172  1
  Na  Na9  1  0.280828  0.280828  0.719172  1
  Na  Na10  1  0.530828  0.969172  0.969172  1
  Na  Na11  1  0.530828  0.969172  0.530828  1
  V  V12  1  0.125000  0.125000  0.125000  1
  V  V13  1  0.125000  0.625000  0.125000  1
  V  V14  1  0.625000  0.125000  0.125000  1
  V  V15  1  0.125000  0.125000  0.625000  1
  B  B16  1  0.912731  0.912731  0.912731  1
  B  B17  1  0.912731  0.261806  0.912731  1
  B  B18  1  0.337269  0.337269  0.988194  1
  B  B19  1  0.988194  0.337269  0.337269  1
  B  B20  1  0.261806  0.912731  0.912731  1
  B  B21  1  0.912731  0.912731  0.261806  1
  B  B22  1  0.337269  0.988194  0.337269  1
  B  B23  1  0.337269  0.337269  0.337269  1
  S  S24  1  0.500000  0.500000  0.500000  1
  S  S25  1  0.750000  0.750000  0.750000  1
  O  O26  1  0.948160  0.028010  0.756934  1
  O  O27  1  0.983104  0.221990  0.301840  1
  O  O28  1  0.221990  0.983104  0.493066  1
  O  O29  1  0.756934  0.948160  0.028010  1
  O  O30  1  0.948160  0.266896  0.028010  1
  O  O31  1  0.028010  0.756934  0.948160  1
  O  O32  1  0.301840  0.493066  0.983104  1
  O  O33  1  0.756934  0.266896  0.948160  1
  O  O34  1  0.688314  0.935059  0.688314  1
  O  O35  1  0.561686  0.561686  0.561686  1
  O  O36  1  0.028010  0.948160  0.266896  1
  O  O37  1  0.983104  0.493066  0.221990  1
  O  O38  1  0.983104  0.301840  0.493066  1
  O  O39  1  0.756934  0.028010  0.266896  1
  O  O40  1  0.935059  0.688314  0.688314  1
  O  O41  1  0.688314  0.688314  0.935059  1
  O  O42  1  0.561686  0.561686  0.314941  1
  O  O43  1  0.314941  0.561686  0.561686  1
  O  O44  1  0.493066  0.221990  0.983104  1
  O  O45  1  0.266896  0.948160  0.756934  1
  O  O46  1  0.266896  0.756934  0.028010  1
  O  O47  1  0.221990  0.301840  0.983104  1
  O  O48  1  0.688314  0.688314  0.688314  1
  O  O49  1  0.561686  0.314941  0.561686  1
  O  O50  1  0.493066  0.983104  0.301840  1
  O  O51  1  0.948160  0.756934  0.266896  1
  O  O52  1  0.221990  0.493066  0.301840  1
  O  O53  1  0.301840  0.983104  0.221990  1
  O  O54  1  0.493066  0.301840  0.221990  1
  O  O55  1  0.028010  0.266896  0.756934  1
  O  O56  1  0.266896  0.028010  0.948160  1
  O  O57  1  0.301840  0.221990  0.493066  1
