# generated using pymatgen
data_LiFeSi3O8
_symmetry_space_group_name_H-M   'P 1'
_cell_length_a   8.50190133
_cell_length_b   8.67025939
_cell_length_c   9.25977587
_cell_angle_alpha   90.00000000
_cell_angle_beta   90.00000000
_cell_angle_gamma   90.00000000
_symmetry_Int_Tables_number   1
_chemical_formula_structural   LiFeSi3O8
_chemical_formula_sum   'Li4 Fe4 Si12 O32'
_cell_volume   682.57224646
_cell_formula_units_Z   4
loop_
 _symmetry_equiv_pos_site_id
 _symmetry_equiv_pos_as_xyz
  1  'x, y, z'
loop_
 _atom_site_type_symbol
 _atom_site_label
 _atom_site_symmetry_multiplicity
 _atom_site_fract_x
 _atom_site_fract_y
 _atom_site_fract_z
 _atom_site_occupancy
  Li  Li0  1  0.543702  0.662716  0.115191  1
  Li  Li1  1  0.956298  0.337284  0.615191  1
  Li  Li2  1  0.456298  0.162716  0.384809  1
  Li  Li3  1  0.043702  0.837284  0.884809  1
  Fe  Fe4  1  0.686541  0.718319  0.734156  1
  Fe  Fe5  1  0.813459  0.281681  0.234156  1
  Fe  Fe6  1  0.313459  0.218319  0.765844  1
  Fe  Fe7  1  0.186541  0.781681  0.265844  1
  Si  Si8  1  0.311105  0.706866  0.672845  1
  Si  Si9  1  0.696077  0.495346  0.462749  1
  Si  Si10  1  0.348586  0.501093  0.398345  1
  Si  Si11  1  0.151414  0.498907  0.898345  1
  Si  Si12  1  0.803923  0.504654  0.962749  1
  Si  Si13  1  0.188895  0.293134  0.172845  1
  Si  Si14  1  0.688895  0.206866  0.827155  1
  Si  Si15  1  0.651414  0.001093  0.101655  1
  Si  Si16  1  0.303923  0.995346  0.037251  1
  Si  Si17  1  0.196077  0.004654  0.537251  1
  Si  Si18  1  0.848586  0.998907  0.601655  1
  Si  Si19  1  0.811105  0.793134  0.327155  1
  O  O20  1  0.487865  0.774463  0.670282  1
  O  O21  1  0.688366  0.651562  0.360681  1
  O  O22  1  0.358032  0.636349  0.276229  1
  O  O23  1  0.673854  0.636664  0.922940  1
  O  O24  1  0.261565  0.640562  0.834680  1
  O  O25  1  0.741141  0.543189  0.626510  1
  O  O26  1  0.280018  0.569211  0.551848  1
  O  O27  1  0.980817  0.583715  0.934427  1
  O  O28  1  0.519183  0.416285  0.434427  1
  O  O29  1  0.219982  0.430789  0.051848  1
  O  O30  1  0.758859  0.456811  0.126510  1
  O  O31  1  0.238435  0.359438  0.334680  1
  O  O32  1  0.826146  0.363336  0.422940  1
  O  O33  1  0.141968  0.363651  0.776229  1
  O  O34  1  0.811634  0.348438  0.860681  1
  O  O35  1  0.012135  0.225537  0.170282  1
  O  O36  1  0.512135  0.274463  0.829718  1
  O  O37  1  0.641968  0.136349  0.223771  1
  O  O38  1  0.311634  0.151562  0.139319  1
  O  O39  1  0.738435  0.140562  0.665320  1
  O  O40  1  0.326146  0.136664  0.577060  1
  O  O41  1  0.719982  0.069211  0.948152  1
  O  O42  1  0.258859  0.043189  0.873490  1
  O  O43  1  0.019183  0.083715  0.565573  1
  O  O44  1  0.480817  0.916285  0.065573  1
  O  O45  1  0.241141  0.956811  0.373490  1
  O  O46  1  0.780018  0.930789  0.448152  1
  O  O47  1  0.173854  0.863336  0.077060  1
  O  O48  1  0.761565  0.859438  0.165320  1
  O  O49  1  0.858032  0.863651  0.723771  1
  O  O50  1  0.188366  0.848438  0.639319  1
  O  O51  1  0.987865  0.725537  0.329718  1
