# generated using pymatgen
data_ErBiO3
_symmetry_space_group_name_H-M   'P 1'
_cell_length_a   6.13627021
_cell_length_b   6.13627021
_cell_length_c   6.13627021
_cell_angle_alpha   58.52031424
_cell_angle_beta   58.52031424
_cell_angle_gamma   58.52031424
_symmetry_Int_Tables_number   1
_chemical_formula_structural   ErBiO3
_chemical_formula_sum   'Er2 Bi2 O6'
_cell_volume   157.85019936
_cell_formula_units_Z   2
loop_
 _symmetry_equiv_pos_site_id
 _symmetry_equiv_pos_as_xyz
  1  'x, y, z'
loop_
 _atom_site_type_symbol
 _atom_site_label
 _atom_site_symmetry_multiplicity
 _atom_site_fract_x
 _atom_site_fract_y
 _atom_site_fract_z
 _atom_site_occupancy
  Er  Er0  1  0.722673  0.722673  0.722673  1
  Er  Er1  1  0.222673  0.222673  0.222673  1
  Bi  Bi2  1  0.509027  0.509027  0.509027  1
  Bi  Bi3  1  0.009027  0.009027  0.009027  1
  O  O4  1  0.858366  0.075742  0.412599  1
  O  O5  1  0.075742  0.412599  0.858366  1
  O  O6  1  0.412599  0.858366  0.075742  1
  O  O7  1  0.575742  0.358366  0.912599  1
  O  O8  1  0.912599  0.575742  0.358366  1
  O  O9  1  0.358366  0.912599  0.575742  1
