# generated using pymatgen
data_WN2
_symmetry_space_group_name_H-M   'P 1'
_cell_length_a   5.88918000
_cell_length_b   6.00730505
_cell_length_c   8.13412706
_cell_angle_alpha   90.00000000
_cell_angle_beta   90.00000000
_cell_angle_gamma   90.00000000
_symmetry_Int_Tables_number   1
_chemical_formula_structural   WN2
_chemical_formula_sum   'W4 N8'
_cell_volume   287.76996668
_cell_formula_units_Z   4
loop_
 _symmetry_equiv_pos_site_id
 _symmetry_equiv_pos_as_xyz
  1  'x, y, z'
loop_
 _atom_site_type_symbol
 _atom_site_label
 _atom_site_symmetry_multiplicity
 _atom_site_fract_x
 _atom_site_fract_y
 _atom_site_fract_z
 _atom_site_occupancy
  W  W0  1  0.948549  0.625854  0.124253  1
  W  W1  1  0.551451  0.125854  0.624253  1
  W  W2  1  0.448549  0.625854  0.375747  1
  W  W3  1  0.051451  0.125854  0.875747  1
  N  N4  1  0.989769  0.903954  0.028120  1
  N  N5  1  0.847886  0.095192  0.702258  1
  N  N6  1  0.652114  0.595192  0.202258  1
  N  N7  1  0.510231  0.403954  0.528120  1
  N  N8  1  0.347886  0.095192  0.797742  1
  N  N9  1  0.489769  0.903954  0.471880  1
  N  N10  1  0.010231  0.403954  0.971880  1
  N  N11  1  0.152114  0.595192  0.297742  1
