# generated using pymatgen
data_Bi2(SO4)3
_symmetry_space_group_name_H-M   'P 1'
_cell_length_a   9.36127779
_cell_length_b   9.34543216
_cell_length_c   15.95710702
_cell_angle_alpha   90.00000000
_cell_angle_beta   125.77692602
_cell_angle_gamma   90.00000000
_symmetry_Int_Tables_number   1
_chemical_formula_structural   Bi2(SO4)3
_chemical_formula_sum   'Bi8 S12 O48'
_cell_volume   1132.58236385
_cell_formula_units_Z   4
loop_
 _symmetry_equiv_pos_site_id
 _symmetry_equiv_pos_as_xyz
  1  'x, y, z'
loop_
 _atom_site_type_symbol
 _atom_site_label
 _atom_site_symmetry_multiplicity
 _atom_site_fract_x
 _atom_site_fract_y
 _atom_site_fract_z
 _atom_site_occupancy
  Bi  Bi0  1  0.368483  0.463866  0.617416  1
  Bi  Bi1  1  0.631517  0.963866  0.882584  1
  Bi  Bi2  1  0.865071  0.538441  0.114818  1
  Bi  Bi3  1  0.134929  0.038441  0.385182  1
  Bi  Bi4  1  0.865071  0.961559  0.614818  1
  Bi  Bi5  1  0.134929  0.461559  0.885182  1
  Bi  Bi6  1  0.368483  0.036134  0.117416  1
  Bi  Bi7  1  0.631517  0.536134  0.382584  1
  S  S8  1  0.455314  0.754372  0.493652  1
  S  S9  1  0.745613  0.617108  0.845681  1
  S  S10  1  0.052699  0.893282  0.153826  1
  S  S11  1  0.254387  0.117108  0.654319  1
  S  S12  1  0.947301  0.393282  0.346174  1
  S  S13  1  0.544686  0.254372  0.006348  1
  S  S14  1  0.455314  0.745628  0.993652  1
  S  S15  1  0.052699  0.606718  0.653826  1
  S  S16  1  0.745613  0.882892  0.345681  1
  S  S17  1  0.947301  0.106718  0.846174  1
  S  S18  1  0.254387  0.382892  0.154319  1
  S  S19  1  0.544686  0.245628  0.506348  1
  O  O20  1  0.410521  0.133450  0.442768  1
  O  O21  1  0.793237  0.120795  0.850670  1
  O  O22  1  0.526970  0.298237  0.587908  1
  O  O23  1  0.120506  0.404043  0.175425  1
  O  O24  1  0.480715  0.635030  0.562638  1
  O  O25  1  0.670142  0.763323  0.809192  1
  O  O26  1  0.828257  0.602064  0.957817  1
  O  O27  1  0.088287  0.010785  0.227576  1
  O  O28  1  0.027664  0.755833  0.190628  1
  O  O29  1  0.275210  0.815331  0.443125  1
  O  O30  1  0.892724  0.931793  0.050760  1
  O  O31  1  0.603530  0.507349  0.788497  1
  O  O32  1  0.396470  0.007349  0.711503  1
  O  O33  1  0.107276  0.431793  0.449240  1
  O  O34  1  0.724790  0.315331  0.056875  1
  O  O35  1  0.972336  0.255833  0.309372  1
  O  O36  1  0.171743  0.102064  0.542183  1
  O  O37  1  0.911713  0.510785  0.272424  1
  O  O38  1  0.329858  0.263323  0.690808  1
  O  O39  1  0.519285  0.135030  0.937362  1
  O  O40  1  0.473030  0.798237  0.912092  1
  O  O41  1  0.206763  0.620795  0.649330  1
  O  O42  1  0.879494  0.904043  0.324575  1
  O  O43  1  0.589479  0.633450  0.057232  1
  O  O44  1  0.410521  0.366550  0.942768  1
  O  O45  1  0.120506  0.095957  0.675425  1
  O  O46  1  0.793237  0.379205  0.350670  1
  O  O47  1  0.526970  0.201763  0.087908  1
  O  O48  1  0.480715  0.864970  0.062638  1
  O  O49  1  0.670142  0.736677  0.309192  1
  O  O50  1  0.088287  0.489215  0.727576  1
  O  O51  1  0.828257  0.897936  0.457817  1
  O  O52  1  0.027664  0.744167  0.690628  1
  O  O53  1  0.275210  0.684669  0.943125  1
  O  O54  1  0.892724  0.568207  0.550760  1
  O  O55  1  0.603530  0.992651  0.288497  1
  O  O56  1  0.396470  0.492651  0.211503  1
  O  O57  1  0.107276  0.068207  0.949240  1
  O  O58  1  0.724790  0.184669  0.556875  1
  O  O59  1  0.972336  0.244167  0.809372  1
  O  O60  1  0.911713  0.989215  0.772424  1
  O  O61  1  0.171743  0.397936  0.042183  1
  O  O62  1  0.329858  0.236677  0.190808  1
  O  O63  1  0.519285  0.364970  0.437362  1
  O  O64  1  0.879494  0.595957  0.824575  1
  O  O65  1  0.473030  0.701763  0.412092  1
  O  O66  1  0.206763  0.879205  0.149330  1
  O  O67  1  0.589479  0.866550  0.557232  1
