# generated using pymatgen
data_LiFe4(BO3)4
_symmetry_space_group_name_H-M   'P 1'
_cell_length_a   5.32426558
_cell_length_b   9.02162972
_cell_length_c   11.30151597
_cell_angle_alpha   113.30830495
_cell_angle_beta   102.76801310
_cell_angle_gamma   90.10499696
_symmetry_Int_Tables_number   1
_chemical_formula_structural   LiFe4(BO3)4
_chemical_formula_sum   'Li2 Fe8 B8 O24'
_cell_volume   483.80012449
_cell_formula_units_Z   2
loop_
 _symmetry_equiv_pos_site_id
 _symmetry_equiv_pos_as_xyz
  1  'x, y, z'
loop_
 _atom_site_type_symbol
 _atom_site_label
 _atom_site_symmetry_multiplicity
 _atom_site_fract_x
 _atom_site_fract_y
 _atom_site_fract_z
 _atom_site_occupancy
  Li  Li0  1  0.398985  0.041582  0.097886  1
  Li  Li1  1  0.069549  0.408103  0.840619  1
  Fe  Fe2  1  0.596790  0.608955  0.874423  1
  Fe  Fe3  1  0.900942  0.898009  0.124454  1
  Fe  Fe4  1  0.157379  0.476416  0.617307  1
  Fe  Fe5  1  0.346387  0.017288  0.371784  1
  Fe  Fe6  1  0.650299  0.980570  0.625987  1
  Fe  Fe7  1  0.848997  0.519756  0.368553  1
  Fe  Fe8  1  0.095958  0.084458  0.867234  1
  Fe  Fe9  1  0.397807  0.398933  0.120871  1
  B  B10  1  0.355669  0.353294  0.366855  1
  B  B11  1  0.113035  0.761864  0.876859  1
  B  B12  1  0.856259  0.858350  0.376527  1
  B  B13  1  0.597052  0.274496  0.870584  1
  B  B14  1  0.148647  0.140434  0.623617  1
  B  B15  1  0.395325  0.728448  0.121971  1
  B  B16  1  0.648796  0.642250  0.623082  1
  B  B17  1  0.890597  0.230780  0.122915  1
  O  O18  1  0.881168  0.763663  0.913388  1
  O  O19  1  0.531548  0.543216  0.669828  1
  O  O20  1  0.763379  0.097668  0.117473  1
  O  O21  1  0.442834  0.209169  0.355692  1
  O  O22  1  0.142447  0.405603  0.422077  1
  O  O23  1  0.206434  0.606385  0.823441  1
  O  O24  1  0.718940  0.407894  0.868539  1
  O  O25  1  0.976068  0.959420  0.334979  1
  O  O26  1  0.307205  0.882704  0.172908  1
  O  O27  1  0.363263  0.094962  0.571069  1
  O  O28  1  0.069275  0.291584  0.645707  1
  O  O29  1  0.603220  0.717607  0.064189  1
  O  O30  1  0.368830  0.289175  0.917661  1
  O  O31  1  0.636232  0.906922  0.425578  1
  O  O32  1  0.696624  0.126347  0.823693  1
  O  O33  1  0.026446  0.036695  0.661457  1
  O  O34  1  0.280026  0.596149  0.124265  1
  O  O35  1  0.783385  0.380860  0.164414  1
  O  O36  1  0.861723  0.586425  0.569328  1
  O  O37  1  0.557334  0.782414  0.628635  1
  O  O38  1  0.947055  0.716057  0.369259  1
  O  O39  1  0.248917  0.898997  0.898465  1
  O  O40  1  0.471034  0.456319  0.324085  1
  O  O41  1  0.131296  0.224034  0.088414  1
