# generated using pymatgen
data_LiFeF4
_symmetry_space_group_name_H-M   'P 1'
_cell_length_a   6.91757159
_cell_length_b   6.91757159
_cell_length_c   7.23312490
_cell_angle_alpha   75.32135561
_cell_angle_beta   104.67864439
_cell_angle_gamma   97.39413432
_symmetry_Int_Tables_number   1
_chemical_formula_structural   LiFeF4
_chemical_formula_sum   'Li4 Fe4 F16'
_cell_volume   323.13055308
_cell_formula_units_Z   4
loop_
 _symmetry_equiv_pos_site_id
 _symmetry_equiv_pos_as_xyz
  1  'x, y, z'
loop_
 _atom_site_type_symbol
 _atom_site_label
 _atom_site_symmetry_multiplicity
 _atom_site_fract_x
 _atom_site_fract_y
 _atom_site_fract_z
 _atom_site_occupancy
  Li  Li0  1  0.728216  0.271784  0.604668  1
  Li  Li1  1  0.752867  0.752867  0.000000  1
  Li  Li2  1  0.247133  0.247133  0.000000  1
  Li  Li3  1  0.271784  0.728216  0.395332  1
  Fe  Fe4  1  0.787450  0.212549  0.129367  1
  Fe  Fe5  1  0.190611  0.190611  0.500000  1
  Fe  Fe6  1  0.809389  0.809389  0.500000  1
  Fe  Fe7  1  0.212549  0.787451  0.870633  1
  F  F8  1  0.866245  0.133755  0.456264  1
  F  F9  1  0.812095  0.486457  0.117101  1
  F  F10  1  0.513543  0.187905  0.117101  1
  F  F11  1  0.803037  0.196963  0.879057  1
  F  F12  1  0.461034  0.188460  0.519389  1
  F  F13  1  0.811540  0.538966  0.519389  1
  F  F14  1  0.800029  0.900725  0.216501  1
  F  F15  1  0.099275  0.199971  0.216501  1
  F  F16  1  0.900725  0.800029  0.783499  1
  F  F17  1  0.199971  0.099275  0.783499  1
  F  F18  1  0.188460  0.461034  0.480611  1
  F  F19  1  0.538966  0.811540  0.480611  1
  F  F20  1  0.196963  0.803037  0.120943  1
  F  F21  1  0.486457  0.812095  0.882899  1
  F  F22  1  0.187905  0.513543  0.882899  1
  F  F23  1  0.133755  0.866245  0.543736  1
