# generated using pymatgen
data_Li4Mn(WO4)3
_symmetry_space_group_name_H-M   'P 1'
_cell_length_a   5.06148385
_cell_length_b   8.88433445
_cell_length_c   5.16192540
_cell_angle_alpha   90.00000000
_cell_angle_beta   91.49672340
_cell_angle_gamma   90.00000000
_symmetry_Int_Tables_number   1
_chemical_formula_structural   Li4Mn(WO4)3
_chemical_formula_sum   'Li4 Mn1 W3 O12'
_cell_volume   232.04182943
_cell_formula_units_Z   1
loop_
 _symmetry_equiv_pos_site_id
 _symmetry_equiv_pos_as_xyz
  1  'x, y, z'
loop_
 _atom_site_type_symbol
 _atom_site_label
 _atom_site_symmetry_multiplicity
 _atom_site_fract_x
 _atom_site_fract_y
 _atom_site_fract_z
 _atom_site_occupancy
  Li  Li0  1  0.000000  0.710143  0.000000  1
  Li  Li1  1  0.500000  0.831832  0.000000  1
  Li  Li2  1  0.000000  0.343225  0.500000  1
  Li  Li3  1  0.500000  0.199857  0.500000  1
  Mn  Mn4  1  0.000000  0.103369  0.000000  1
  W  W5  1  0.500000  0.613556  0.500000  1
  W  W6  1  0.500000  0.399425  0.000000  1
  W  W7  1  0.000000  0.933829  0.500000  1
  O  O8  1  0.265377  0.267752  0.839416  1
  O  O9  1  0.302584  0.579829  0.812623  1
  O  O10  1  0.190867  0.898985  0.812717  1
  O  O11  1  0.702324  0.432824  0.685142  1
  O  O12  1  0.776975  0.074185  0.646635  1
  O  O13  1  0.743208  0.749348  0.645307  1
  O  O14  1  0.256792  0.749348  0.354693  1
  O  O15  1  0.223025  0.074185  0.353365  1
  O  O16  1  0.297676  0.432824  0.314858  1
  O  O17  1  0.809133  0.898985  0.187283  1
  O  O18  1  0.697416  0.579829  0.187377  1
  O  O19  1  0.734623  0.267752  0.160584  1
