# generated using pymatgen
data_Li2Cr3CoO8
_symmetry_space_group_name_H-M   'P 1'
_cell_length_a   5.83594223
_cell_length_b   5.83594223
_cell_length_c   5.83594223
_cell_angle_alpha   61.54419436
_cell_angle_beta   61.54419436
_cell_angle_gamma   61.54419436
_symmetry_Int_Tables_number   1
_chemical_formula_structural   Li2Cr3CoO8
_chemical_formula_sum   'Li2 Cr3 Co1 O8'
_cell_volume   145.41608476
_cell_formula_units_Z   1
loop_
 _symmetry_equiv_pos_site_id
 _symmetry_equiv_pos_as_xyz
  1  'x, y, z'
loop_
 _atom_site_type_symbol
 _atom_site_label
 _atom_site_symmetry_multiplicity
 _atom_site_fract_x
 _atom_site_fract_y
 _atom_site_fract_z
 _atom_site_occupancy
  Li  Li0  1  0.875727  0.875727  0.875727  1
  Li  Li1  1  0.124273  0.124273  0.124273  1
  Cr  Cr2  1  0.500000  0.000000  0.500000  1
  Cr  Cr3  1  0.500000  0.500000  0.000000  1
  Cr  Cr4  1  0.000000  0.500000  0.500000  1
  Co  Co5  1  0.500000  0.500000  0.500000  1
  O  O6  1  0.735302  0.735302  0.735302  1
  O  O7  1  0.291097  0.731513  0.731513  1
  O  O8  1  0.731513  0.731513  0.291097  1
  O  O9  1  0.731513  0.291097  0.731513  1
  O  O10  1  0.268487  0.708903  0.268487  1
  O  O11  1  0.268487  0.268487  0.708903  1
  O  O12  1  0.708903  0.268487  0.268487  1
  O  O13  1  0.264698  0.264698  0.264698  1
