# generated using pymatgen
data_K2Co3P4(HO4)4
_symmetry_space_group_name_H-M   'P 1'
_cell_length_a   9.21384762
_cell_length_b   8.17748999
_cell_length_c   9.30804587
_cell_angle_alpha   90.00000000
_cell_angle_beta   99.26845149
_cell_angle_gamma   90.00000000
_symmetry_Int_Tables_number   1
_chemical_formula_structural   K2Co3P4(HO4)4
_chemical_formula_sum   'K4 Co6 P8 H8 O32'
_cell_volume   692.16927085
_cell_formula_units_Z   2
loop_
 _symmetry_equiv_pos_site_id
 _symmetry_equiv_pos_as_xyz
  1  'x, y, z'
loop_
 _atom_site_type_symbol
 _atom_site_label
 _atom_site_symmetry_multiplicity
 _atom_site_fract_x
 _atom_site_fract_y
 _atom_site_fract_z
 _atom_site_occupancy
  K  K0  1  0.074411  0.274552  0.977658  1
  K  K1  1  0.925589  0.774552  0.522342  1
  K  K2  1  0.925589  0.725448  0.022342  1
  K  K3  1  0.074411  0.225448  0.477658  1
  Co  Co4  1  0.500000  0.500000  0.000000  1
  Co  Co5  1  0.500000  0.000000  0.500000  1
  Co  Co6  1  0.632802  0.357249  0.495335  1
  Co  Co7  1  0.367198  0.857249  0.004665  1
  Co  Co8  1  0.367198  0.642751  0.504665  1
  Co  Co9  1  0.632802  0.142751  0.995335  1
  P  P10  1  0.398346  0.301748  0.709175  1
  P  P11  1  0.601654  0.801748  0.790825  1
  P  P12  1  0.601654  0.698252  0.290825  1
  P  P13  1  0.398346  0.198252  0.209175  1
  P  P14  1  0.802325  0.431179  0.234832  1
  P  P15  1  0.197675  0.931179  0.265168  1
  P  P16  1  0.197675  0.568821  0.765168  1
  P  P17  1  0.802325  0.068821  0.734832  1
  H  H18  1  0.279429  0.473203  0.265226  1
  H  H19  1  0.720571  0.973203  0.234774  1
  H  H20  1  0.720571  0.526797  0.734774  1
  H  H21  1  0.279429  0.026797  0.765226  1
  H  H22  1  0.120817  0.510796  0.299306  1
  H  H23  1  0.879183  0.010796  0.200694  1
  H  H24  1  0.879183  0.489204  0.700694  1
  H  H25  1  0.120817  0.989204  0.799306  1
  O  O26  1  0.680463  0.373437  0.111215  1
  O  O27  1  0.319537  0.873437  0.388785  1
  O  O28  1  0.319537  0.626563  0.888785  1
  O  O29  1  0.680463  0.126563  0.611215  1
  O  O30  1  0.362145  0.364772  0.137785  1
  O  O31  1  0.637855  0.864772  0.362215  1
  O  O32  1  0.637855  0.635228  0.862215  1
  O  O33  1  0.362145  0.135228  0.637785  1
  O  O34  1  0.461266  0.424448  0.610989  1
  O  O35  1  0.538734  0.924448  0.889011  1
  O  O36  1  0.538734  0.575552  0.389011  1
  O  O37  1  0.461266  0.075552  0.110989  1
  O  O38  1  0.489833  0.295519  0.862949  1
  O  O39  1  0.510167  0.795519  0.637051  1
  O  O40  1  0.510167  0.704481  0.137051  1
  O  O41  1  0.489833  0.204481  0.362949  1
  O  O42  1  0.238434  0.374839  0.734037  1
  O  O43  1  0.761566  0.874839  0.765963  1
  O  O44  1  0.761566  0.625161  0.265963  1
  O  O45  1  0.238434  0.125161  0.234037  1
  O  O46  1  0.953528  0.442432  0.190928  1
  O  O47  1  0.046472  0.942432  0.309072  1
  O  O48  1  0.046472  0.557568  0.809072  1
  O  O49  1  0.953528  0.057568  0.690928  1
  O  O50  1  0.774399  0.495095  0.654269  1
  O  O51  1  0.225601  0.995095  0.845731  1
  O  O52  1  0.225601  0.504905  0.345731  1
  O  O53  1  0.774399  0.004905  0.154269  1
  O  O54  1  0.802620  0.341202  0.379094  1
  O  O55  1  0.197380  0.841202  0.120906  1
  O  O56  1  0.197380  0.658798  0.620906  1
  O  O57  1  0.802620  0.158798  0.879094  1
