# generated using pymatgen
data_Na2Ti2O5
_symmetry_space_group_name_H-M   'P 1'
_cell_length_a   5.49714806
_cell_length_b   12.14954207
_cell_length_c   10.76950587
_cell_angle_alpha   90.00000000
_cell_angle_beta   120.13908747
_cell_angle_gamma   90.00000000
_symmetry_Int_Tables_number   1
_chemical_formula_structural   Na2Ti2O5
_chemical_formula_sum   'Na8 Ti8 O20'
_cell_volume   622.03291351
_cell_formula_units_Z   4
loop_
 _symmetry_equiv_pos_site_id
 _symmetry_equiv_pos_as_xyz
  1  'x, y, z'
loop_
 _atom_site_type_symbol
 _atom_site_label
 _atom_site_symmetry_multiplicity
 _atom_site_fract_x
 _atom_site_fract_y
 _atom_site_fract_z
 _atom_site_occupancy
  Na  Na0  1  0.917847  0.028653  0.119870  1
  Na  Na1  1  0.415821  0.496232  0.129416  1
  Na  Na2  1  0.584179  0.996232  0.370584  1
  Na  Na3  1  0.082153  0.528653  0.380130  1
  Na  Na4  1  0.917847  0.471347  0.619870  1
  Na  Na5  1  0.415821  0.003768  0.629416  1
  Na  Na6  1  0.584179  0.503768  0.870584  1
  Na  Na7  1  0.082153  0.971347  0.880130  1
  Ti  Ti8  1  0.369163  0.192921  0.057864  1
  Ti  Ti9  1  0.982583  0.324721  0.173057  1
  Ti  Ti10  1  0.017417  0.824721  0.326943  1
  Ti  Ti11  1  0.630837  0.692921  0.442136  1
  Ti  Ti12  1  0.369163  0.307079  0.557864  1
  Ti  Ti13  1  0.982583  0.175279  0.673057  1
  Ti  Ti14  1  0.017417  0.675279  0.826943  1
  Ti  Ti15  1  0.630837  0.807079  0.942136  1
  O  O16  1  0.724748  0.211447  0.078589  1
  O  O17  1  0.358027  0.065001  0.130026  1
  O  O18  1  0.841553  0.456567  0.119459  1
  O  O19  1  0.286709  0.309655  0.142861  1
  O  O20  1  0.899160  0.818142  0.133813  1
  O  O21  1  0.713291  0.809655  0.357139  1
  O  O22  1  0.100840  0.318142  0.366187  1
  O  O23  1  0.158447  0.956567  0.380541  1
  O  O24  1  0.641973  0.565001  0.369974  1
  O  O25  1  0.275252  0.711447  0.421411  1
  O  O26  1  0.724748  0.288553  0.578589  1
  O  O27  1  0.358027  0.434999  0.630026  1
  O  O28  1  0.841553  0.043433  0.619459  1
  O  O29  1  0.899160  0.681858  0.633813  1
  O  O30  1  0.286709  0.190345  0.642861  1
  O  O31  1  0.100840  0.181858  0.866187  1
  O  O32  1  0.713291  0.690345  0.857139  1
  O  O33  1  0.158447  0.543433  0.880541  1
  O  O34  1  0.641973  0.934999  0.869974  1
  O  O35  1  0.275252  0.788553  0.921411  1
