# generated using pymatgen
data_Li4Ti3VO8
_symmetry_space_group_name_H-M   'P 1'
_cell_length_a   6.10895271
_cell_length_b   4.13867052
_cell_length_c   6.90012967
_cell_angle_alpha   90.00000000
_cell_angle_beta   91.67832857
_cell_angle_gamma   90.00000000
_symmetry_Int_Tables_number   1
_chemical_formula_structural   Li4Ti3VO8
_chemical_formula_sum   'Li4 Ti3 V1 O8'
_cell_volume   174.38074171
_cell_formula_units_Z   1
loop_
 _symmetry_equiv_pos_site_id
 _symmetry_equiv_pos_as_xyz
  1  'x, y, z'
loop_
 _atom_site_type_symbol
 _atom_site_label
 _atom_site_symmetry_multiplicity
 _atom_site_fract_x
 _atom_site_fract_y
 _atom_site_fract_z
 _atom_site_occupancy
  Li  Li0  1  0.922421  0.500000  0.616996  1
  Li  Li1  1  0.580839  0.000000  0.114280  1
  Li  Li2  1  0.422141  0.500000  0.884287  1
  Li  Li3  1  0.073259  0.000000  0.385989  1
  Ti  Ti4  1  0.914285  0.500000  0.132176  1
  Ti  Ti5  1  0.582165  0.000000  0.621810  1
  Ti  Ti6  1  0.420391  0.500000  0.374497  1
  V  V7  1  0.087598  0.000000  0.870834  1
  O  O8  1  0.908941  0.000000  0.128968  1
  O  O9  1  0.889879  0.000000  0.615746  1
  O  O10  1  0.599244  0.500000  0.147783  1
  O  O11  1  0.580793  0.500000  0.624693  1
  O  O12  1  0.414095  0.000000  0.368653  1
  O  O13  1  0.426660  0.000000  0.854891  1
  O  O14  1  0.101832  0.500000  0.359751  1
  O  O15  1  0.075456  0.500000  0.898645  1
