# generated using pymatgen
data_CaGd2O4
_symmetry_space_group_name_H-M   'P 1'
_cell_length_a   3.43029543
_cell_length_b   10.05990395
_cell_length_c   11.93909027
_cell_angle_alpha   90.00000000
_cell_angle_beta   90.00000000
_cell_angle_gamma   90.00000000
_symmetry_Int_Tables_number   1
_chemical_formula_structural   CaGd2O4
_chemical_formula_sum   'Ca4 Gd8 O16'
_cell_volume   411.99941068
_cell_formula_units_Z   4
loop_
 _symmetry_equiv_pos_site_id
 _symmetry_equiv_pos_as_xyz
  1  'x, y, z'
loop_
 _atom_site_type_symbol
 _atom_site_label
 _atom_site_symmetry_multiplicity
 _atom_site_fract_x
 _atom_site_fract_y
 _atom_site_fract_z
 _atom_site_occupancy
  Ca  Ca0  1  0.750000  0.749831  0.648402  1
  Ca  Ca1  1  0.250000  0.750169  0.148402  1
  Ca  Ca2  1  0.750000  0.249831  0.851598  1
  Ca  Ca3  1  0.250000  0.250169  0.351598  1
  Gd  Gd4  1  0.750000  0.579232  0.387900  1
  Gd  Gd5  1  0.750000  0.579139  0.886180  1
  Gd  Gd6  1  0.250000  0.920861  0.386180  1
  Gd  Gd7  1  0.250000  0.920768  0.887900  1
  Gd  Gd8  1  0.750000  0.079232  0.112100  1
  Gd  Gd9  1  0.750000  0.079139  0.613820  1
  Gd  Gd10  1  0.250000  0.420861  0.113820  1
  Gd  Gd11  1  0.250000  0.420768  0.612100  1
  O  O12  1  0.250000  0.522844  0.281161  1
  O  O13  1  0.750000  0.579316  0.079772  1
  O  O14  1  0.250000  0.633557  0.523721  1
  O  O15  1  0.250000  0.710739  0.808369  1
  O  O16  1  0.750000  0.789261  0.308369  1
  O  O17  1  0.750000  0.866443  0.023721  1
  O  O18  1  0.250000  0.920684  0.579772  1
  O  O19  1  0.750000  0.977156  0.781161  1
  O  O20  1  0.250000  0.022844  0.218839  1
  O  O21  1  0.750000  0.079316  0.420228  1
  O  O22  1  0.250000  0.133557  0.976279  1
  O  O23  1  0.250000  0.210739  0.691631  1
  O  O24  1  0.750000  0.289261  0.191631  1
  O  O25  1  0.750000  0.366443  0.476279  1
  O  O26  1  0.250000  0.420684  0.920228  1
  O  O27  1  0.750000  0.477156  0.718839  1
