# generated using pymatgen
data_MnSbO4
_symmetry_space_group_name_H-M   'P 1'
_cell_length_a   5.63862859
_cell_length_b   5.63862859
_cell_length_c   5.63862859
_cell_angle_alpha   138.52037732
_cell_angle_beta   138.52037732
_cell_angle_gamma   60.10694411
_symmetry_Int_Tables_number   1
_chemical_formula_structural   MnSbO4
_chemical_formula_sum   'Mn1 Sb1 O4'
_cell_volume   77.83758837
_cell_formula_units_Z   1
loop_
 _symmetry_equiv_pos_site_id
 _symmetry_equiv_pos_as_xyz
  1  'x, y, z'
loop_
 _atom_site_type_symbol
 _atom_site_label
 _atom_site_symmetry_multiplicity
 _atom_site_fract_x
 _atom_site_fract_y
 _atom_site_fract_z
 _atom_site_occupancy
  Mn  Mn0  1  0.000000  0.000000  0.000000  1
  Sb  Sb1  1  0.750000  0.250000  0.500000  1
  O  O2  1  0.547469  0.047469  0.500000  1
  O  O3  1  0.208602  0.208602  0.000000  1
  O  O4  1  0.952531  0.452531  0.500000  1
  O  O5  1  0.791398  0.791398  0.000000  1
