# generated using pymatgen
data_LiFe2(BO3)2
_symmetry_space_group_name_H-M   'P 1'
_cell_length_a   5.31617041
_cell_length_b   9.05907634
_cell_length_c   11.24568385
_cell_angle_alpha   113.06043029
_cell_angle_beta   101.91591078
_cell_angle_gamma   90.74538495
_symmetry_Int_Tables_number   1
_chemical_formula_structural   LiFe2(BO3)2
_chemical_formula_sum   'Li4 Fe8 B8 O24'
_cell_volume   484.91414424
_cell_formula_units_Z   4
loop_
 _symmetry_equiv_pos_site_id
 _symmetry_equiv_pos_as_xyz
  1  'x, y, z'
loop_
 _atom_site_type_symbol
 _atom_site_label
 _atom_site_symmetry_multiplicity
 _atom_site_fract_x
 _atom_site_fract_y
 _atom_site_fract_z
 _atom_site_occupancy
  Li  Li0  1  0.837101  0.183129  0.351056  1
  Li  Li1  1  0.644390  0.297684  0.601836  1
  Li  Li2  1  0.392037  0.042331  0.084344  1
  Li  Li3  1  0.889400  0.548301  0.092575  1
  Fe  Fe4  1  0.591500  0.603322  0.865886  1
  Fe  Fe5  1  0.904898  0.900921  0.116332  1
  Fe  Fe6  1  0.156104  0.476133  0.621822  1
  Fe  Fe7  1  0.346919  0.012088  0.374429  1
  Fe  Fe8  1  0.641901  0.965612  0.629426  1
  Fe  Fe9  1  0.851179  0.522936  0.368607  1
  Fe  Fe10  1  0.092588  0.100826  0.863837  1
  Fe  Fe11  1  0.393793  0.405078  0.121570  1
  B  B12  1  0.356510  0.347338  0.368226  1
  B  B13  1  0.106666  0.771401  0.874278  1
  B  B14  1  0.844545  0.858196  0.368706  1
  B  B15  1  0.602702  0.270484  0.878002  1
  B  B16  1  0.138309  0.144785  0.619620  1
  B  B17  1  0.394701  0.731874  0.121494  1
  B  B18  1  0.651629  0.632178  0.619017  1
  B  B19  1  0.899148  0.233527  0.127150  1
  O  O20  1  0.876381  0.764682  0.912678  1
  O  O21  1  0.561247  0.519112  0.665021  1
  O  O22  1  0.767295  0.113610  0.144698  1
  O  O23  1  0.479094  0.218675  0.383500  1
  O  O24  1  0.114047  0.373715  0.396200  1
  O  O25  1  0.227971  0.631971  0.828304  1
  O  O26  1  0.707855  0.412251  0.882022  1
  O  O27  1  0.970605  0.970303  0.335824  1
  O  O28  1  0.313863  0.889241  0.169564  1
  O  O29  1  0.374701  0.118532  0.579131  1
  O  O30  1  0.000942  0.264948  0.603354  1
  O  O31  1  0.623880  0.712974  0.075370  1
  O  O32  1  0.372450  0.266535  0.916698  1
  O  O33  1  0.627249  0.902291  0.418786  1
  O  O34  1  0.728531  0.132413  0.839931  1
  O  O35  1  0.046264  0.043184  0.670419  1
  O  O36  1  0.253583  0.605170  0.119252  1
  O  O37  1  0.807967  0.385989  0.160638  1
  O  O38  1  0.862359  0.590338  0.559354  1
  O  O39  1  0.535309  0.764681  0.632477  1
  O  O40  1  0.934373  0.713438  0.348539  1
  O  O41  1  0.219543  0.917373  0.891767  1
  O  O42  1  0.481816  0.447039  0.328004  1
  O  O43  1  0.126210  0.206873  0.082160  1
