# generated using pymatgen
data_NiMoP
_symmetry_space_group_name_H-M   'P 1'
_cell_length_a   5.85716387
_cell_length_b   5.85716387
_cell_length_c   3.74992285
_cell_angle_alpha   90.00000000
_cell_angle_beta   90.00000000
_cell_angle_gamma   120.00000000
_symmetry_Int_Tables_number   1
_chemical_formula_structural   NiMoP
_chemical_formula_sum   'Ni3 Mo3 P3'
_cell_volume   111.41090808
_cell_formula_units_Z   3
loop_
 _symmetry_equiv_pos_site_id
 _symmetry_equiv_pos_as_xyz
  1  'x, y, z'
loop_
 _atom_site_type_symbol
 _atom_site_label
 _atom_site_symmetry_multiplicity
 _atom_site_fract_x
 _atom_site_fract_y
 _atom_site_fract_z
 _atom_site_occupancy
  Ni  Ni0  1  0.749037  0.749037  0.000000  1
  Ni  Ni1  1  0.250963  0.000000  0.000000  1
  Ni  Ni2  1  0.000000  0.250963  0.000000  1
  Mo  Mo3  1  0.000000  0.586174  0.500000  1
  Mo  Mo4  1  0.586174  0.000000  0.500000  1
  Mo  Mo5  1  0.413826  0.413826  0.500000  1
  P  P6  1  0.000000  0.000000  0.500000  1
  P  P7  1  0.666667  0.333333  0.000000  1
  P  P8  1  0.333333  0.666667  0.000000  1
