# generated using pymatgen
data_LiMnFeO4
_symmetry_space_group_name_H-M   'P 1'
_cell_length_a   5.88817401
_cell_length_b   5.88817401
_cell_length_c   8.26356878
_cell_angle_alpha   90.00000000
_cell_angle_beta   90.00000000
_cell_angle_gamma   90.00000000
_symmetry_Int_Tables_number   1
_chemical_formula_structural   LiMnFeO4
_chemical_formula_sum   'Li4 Mn4 Fe4 O16'
_cell_volume   286.50283132
_cell_formula_units_Z   4
loop_
 _symmetry_equiv_pos_site_id
 _symmetry_equiv_pos_as_xyz
  1  'x, y, z'
loop_
 _atom_site_type_symbol
 _atom_site_label
 _atom_site_symmetry_multiplicity
 _atom_site_fract_x
 _atom_site_fract_y
 _atom_site_fract_z
 _atom_site_occupancy
  Li  Li0  1  0.000000  0.228561  0.000000  1
  Li  Li1  1  0.000000  0.771439  0.500000  1
  Li  Li2  1  0.228561  0.000000  0.250000  1
  Li  Li3  1  0.771439  0.000000  0.750000  1
  Mn  Mn4  1  0.238585  0.500000  0.250000  1
  Mn  Mn5  1  0.500000  0.238585  0.000000  1
  Mn  Mn6  1  0.500000  0.761415  0.500000  1
  Mn  Mn7  1  0.761415  0.500000  0.750000  1
  Fe  Fe8  1  0.255302  0.255302  0.625000  1
  Fe  Fe9  1  0.255302  0.744698  0.875000  1
  Fe  Fe10  1  0.744698  0.255302  0.375000  1
  Fe  Fe11  1  0.744698  0.744698  0.125000  1
  O  O12  1  0.015469  0.268455  0.256809  1
  O  O13  1  0.015469  0.731545  0.243191  1
  O  O14  1  0.268455  0.015469  0.993191  1
  O  O15  1  0.268455  0.984531  0.506809  1
  O  O16  1  0.263937  0.480603  0.015458  1
  O  O17  1  0.263937  0.519397  0.484542  1
  O  O18  1  0.480603  0.263937  0.234542  1
  O  O19  1  0.480603  0.736063  0.265458  1
  O  O20  1  0.519397  0.263937  0.765458  1
  O  O21  1  0.519397  0.736063  0.734542  1
  O  O22  1  0.736063  0.519397  0.515458  1
  O  O23  1  0.736063  0.480603  0.984542  1
  O  O24  1  0.731545  0.015469  0.006809  1
  O  O25  1  0.731545  0.984531  0.493191  1
  O  O26  1  0.984531  0.268455  0.743191  1
  O  O27  1  0.984531  0.731545  0.756809  1
