# generated using pymatgen
data_PNO
_symmetry_space_group_name_H-M   'P 1'
_cell_length_a   4.83280577
_cell_length_b   4.83280577
_cell_length_c   4.83280577
_cell_angle_alpha   124.18253681
_cell_angle_beta   120.01728368
_cell_angle_gamma   86.44007259
_symmetry_Int_Tables_number   1
_chemical_formula_structural   PNO
_chemical_formula_sum   'P2 N2 O2'
_cell_volume   76.98150700
_cell_formula_units_Z   2
loop_
 _symmetry_equiv_pos_site_id
 _symmetry_equiv_pos_as_xyz
  1  'x, y, z'
loop_
 _atom_site_type_symbol
 _atom_site_label
 _atom_site_symmetry_multiplicity
 _atom_site_fract_x
 _atom_site_fract_y
 _atom_site_fract_z
 _atom_site_occupancy
  P  P0  1  0.610483  0.360483  0.250000  1
  P  P1  1  0.889517  0.139517  0.750000  1
  N  N2  1  0.250000  0.109231  0.859231  1
  N  N3  1  0.750000  0.390769  0.640769  1
  O  O4  1  0.873000  0.250000  0.123000  1
  O  O5  1  0.627000  0.750000  0.377000  1
