# generated using pymatgen
data_Bi3O4F
_symmetry_space_group_name_H-M   'P 1'
_cell_length_a   6.62028925
_cell_length_b   6.62028925
_cell_length_c   11.57310121
_cell_angle_alpha   90.00000000
_cell_angle_beta   90.00000000
_cell_angle_gamma   144.22574871
_symmetry_Int_Tables_number   1
_chemical_formula_structural   Bi3O4F
_chemical_formula_sum   'Bi6 O8 F2'
_cell_volume   296.52231604
_cell_formula_units_Z   2
loop_
 _symmetry_equiv_pos_site_id
 _symmetry_equiv_pos_as_xyz
  1  'x, y, z'
loop_
 _atom_site_type_symbol
 _atom_site_label
 _atom_site_symmetry_multiplicity
 _atom_site_fract_x
 _atom_site_fract_y
 _atom_site_fract_z
 _atom_site_occupancy
  Bi  Bi0  1  0.330847  0.669153  0.250000  1
  Bi  Bi1  1  0.366682  0.633318  0.593065  1
  Bi  Bi2  1  0.366682  0.633318  0.906935  1
  Bi  Bi3  1  0.633318  0.366682  0.093065  1
  Bi  Bi4  1  0.633318  0.366682  0.406935  1
  Bi  Bi5  1  0.669153  0.330847  0.750000  1
  O  O6  1  0.461442  0.538558  0.750000  1
  O  O7  1  0.753177  0.246823  0.250000  1
  O  O8  1  0.224438  0.775562  0.401669  1
  O  O9  1  0.224438  0.775562  0.098331  1
  O  O10  1  0.775562  0.224438  0.901669  1
  O  O11  1  0.775562  0.224438  0.598331  1
  O  O12  1  0.246823  0.753177  0.750000  1
  O  O13  1  0.538558  0.461442  0.250000  1
  F  F14  1  0.000000  0.000000  0.000000  1
  F  F15  1  0.000000  0.000000  0.500000  1
