# generated using pymatgen
data_LiNiPO4
_symmetry_space_group_name_H-M   'P 1'
_cell_length_a   7.55397034
_cell_length_b   7.55397034
_cell_length_c   9.60789705
_cell_angle_alpha   90.00000000
_cell_angle_beta   90.00000000
_cell_angle_gamma   120.00000000
_symmetry_Int_Tables_number   1
_chemical_formula_structural   LiNiPO4
_chemical_formula_sum   'Li6 Ni6 P6 O24'
_cell_volume   474.79870188
_cell_formula_units_Z   6
loop_
 _symmetry_equiv_pos_site_id
 _symmetry_equiv_pos_as_xyz
  1  'x, y, z'
loop_
 _atom_site_type_symbol
 _atom_site_label
 _atom_site_symmetry_multiplicity
 _atom_site_fract_x
 _atom_site_fract_y
 _atom_site_fract_z
 _atom_site_occupancy
  Li  Li0  1  0.069159  0.592170  0.479418  1
  Li  Li1  1  0.523010  0.930841  0.479418  1
  Li  Li2  1  0.407830  0.476990  0.479418  1
  Li  Li3  1  0.476990  0.407830  0.979418  1
  Li  Li4  1  0.592170  0.069159  0.979418  1
  Li  Li5  1  0.930841  0.523010  0.979418  1
  Ni  Ni6  1  0.234034  0.976760  0.257807  1
  Ni  Ni7  1  0.023240  0.257273  0.257807  1
  Ni  Ni8  1  0.257273  0.023240  0.757807  1
  Ni  Ni9  1  0.742727  0.765966  0.257807  1
  Ni  Ni10  1  0.765966  0.742727  0.757807  1
  Ni  Ni11  1  0.976760  0.234034  0.757807  1
  P  P12  1  0.333333  0.666667  0.195414  1
  P  P13  1  0.000000  0.000000  0.990981  1
  P  P14  1  0.000000  0.000000  0.490981  1
  P  P15  1  0.333333  0.666667  0.781552  1
  P  P16  1  0.666667  0.333333  0.695414  1
  P  P17  1  0.666667  0.333333  0.281552  1
  O  O18  1  0.087623  0.866189  0.438947  1
  O  O19  1  0.201668  0.757352  0.138934  1
  O  O20  1  0.376617  0.876642  0.839937  1
  O  O21  1  0.123358  0.499975  0.839937  1
  O  O22  1  0.242648  0.444316  0.138934  1
  O  O23  1  0.333333  0.666667  0.355305  1
  O  O24  1  0.000000  0.000000  0.157440  1
  O  O25  1  0.000000  0.000000  0.657440  1
  O  O26  1  0.333333  0.666667  0.621481  1
  O  O27  1  0.133811  0.221434  0.438947  1
  O  O28  1  0.221434  0.133811  0.938947  1
  O  O29  1  0.555684  0.798332  0.138934  1
  O  O30  1  0.500025  0.623383  0.839937  1
  O  O31  1  0.778566  0.912377  0.438947  1
  O  O32  1  0.444316  0.242648  0.638934  1
  O  O33  1  0.499975  0.123358  0.339937  1
  O  O34  1  0.623383  0.500025  0.339937  1
  O  O35  1  0.798332  0.555684  0.638934  1
  O  O36  1  0.666667  0.333333  0.855305  1
  O  O37  1  0.666667  0.333333  0.121481  1
  O  O38  1  0.912377  0.778566  0.938947  1
  O  O39  1  0.757352  0.201668  0.638934  1
  O  O40  1  0.876642  0.376617  0.339937  1
  O  O41  1  0.866189  0.087623  0.938947  1
