# generated using pymatgen
data_Li4Fe(SiO3)3
_symmetry_space_group_name_H-M   'P 1'
_cell_length_a   6.30598380
_cell_length_b   6.30598380
_cell_length_c   10.09387355
_cell_angle_alpha   89.08023504
_cell_angle_beta   90.91976496
_cell_angle_gamma   72.82693716
_symmetry_Int_Tables_number   1
_chemical_formula_structural   Li4Fe(SiO3)3
_chemical_formula_sum   'Li8 Fe2 Si6 O18'
_cell_volume   383.35206290
_cell_formula_units_Z   2
loop_
 _symmetry_equiv_pos_site_id
 _symmetry_equiv_pos_as_xyz
  1  'x, y, z'
loop_
 _atom_site_type_symbol
 _atom_site_label
 _atom_site_symmetry_multiplicity
 _atom_site_fract_x
 _atom_site_fract_y
 _atom_site_fract_z
 _atom_site_occupancy
  Li  Li0  1  0.814921  0.369782  0.790998  1
  Li  Li1  1  0.460403  0.189457  0.211654  1
  Li  Li2  1  0.554658  0.554658  0.500000  1
  Li  Li3  1  0.991628  0.991628  0.500000  1
  Li  Li4  1  0.625264  0.625264  0.000000  1
  Li  Li5  1  0.000486  0.000486  0.000000  1
  Li  Li6  1  0.189457  0.460403  0.788346  1
  Li  Li7  1  0.369782  0.814921  0.209002  1
  Fe  Fe8  1  0.831601  0.816249  0.749189  1
  Fe  Fe9  1  0.816249  0.831601  0.250811  1
  Si  Si10  1  0.883658  0.338403  0.252625  1
  Si  Si11  1  0.479485  0.074470  0.504428  1
  Si  Si12  1  0.509991  0.130027  0.948342  1
  Si  Si13  1  0.130027  0.509991  0.051658  1
  Si  Si14  1  0.074470  0.479485  0.495572  1
  Si  Si15  1  0.338403  0.883658  0.747375  1
  O  O16  1  0.793817  0.140592  0.203395  1
  O  O17  1  0.957552  0.306718  0.413908  1
  O  O18  1  0.747090  0.114230  0.883961  1
  O  O19  1  0.709089  0.032975  0.586696  1
  O  O20  1  0.950224  0.502871  0.937565  1
  O  O21  1  0.977031  0.488756  0.643350  1
  O  O22  1  0.331757  0.119023  0.823841  1
  O  O23  1  0.689907  0.571835  0.228009  1
  O  O24  1  0.354248  0.354248  0.500000  1
  O  O25  1  0.393467  0.393467  0.000000  1
  O  O26  1  0.571835  0.689907  0.771991  1
  O  O27  1  0.119023  0.331757  0.176159  1
  O  O28  1  0.488756  0.977031  0.356650  1
  O  O29  1  0.502871  0.950224  0.062435  1
  O  O30  1  0.032975  0.709089  0.413304  1
  O  O31  1  0.114230  0.747090  0.116039  1
  O  O32  1  0.306718  0.957552  0.586092  1
  O  O33  1  0.140592  0.793817  0.796605  1
