# generated using pymatgen
data_Li6Sn2B4SO16
_symmetry_space_group_name_H-M   'P 1'
_cell_length_a   9.56676743
_cell_length_b   9.56676743
_cell_length_c   9.56676743
_cell_angle_alpha   60.00000000
_cell_angle_beta   60.00000000
_cell_angle_gamma   60.00000000
_symmetry_Int_Tables_number   1
_chemical_formula_structural   Li6Sn2B4SO16
_chemical_formula_sum   'Li12 Sn4 B8 S2 O32'
_cell_volume   619.12829245
_cell_formula_units_Z   2
loop_
 _symmetry_equiv_pos_site_id
 _symmetry_equiv_pos_as_xyz
  1  'x, y, z'
loop_
 _atom_site_type_symbol
 _atom_site_label
 _atom_site_symmetry_multiplicity
 _atom_site_fract_x
 _atom_site_fract_y
 _atom_site_fract_z
 _atom_site_occupancy
  Li  Li0  1  0.466599  0.466599  0.033401  1
  Li  Li1  1  0.033401  0.466599  0.033401  1
  Li  Li2  1  0.466599  0.033401  0.033401  1
  Li  Li3  1  0.033401  0.466599  0.466599  1
  Li  Li4  1  0.216599  0.216599  0.783401  1
  Li  Li5  1  0.783401  0.216599  0.783401  1
  Li  Li6  1  0.466599  0.033401  0.466599  1
  Li  Li7  1  0.033401  0.033401  0.466599  1
  Li  Li8  1  0.216599  0.783401  0.783401  1
  Li  Li9  1  0.783401  0.216599  0.216599  1
  Li  Li10  1  0.783401  0.783401  0.216599  1
  Li  Li11  1  0.216599  0.783401  0.216599  1
  Sn  Sn12  1  0.625000  0.625000  0.125000  1
  Sn  Sn13  1  0.125000  0.625000  0.625000  1
  Sn  Sn14  1  0.625000  0.625000  0.625000  1
  Sn  Sn15  1  0.625000  0.125000  0.625000  1
  B  B16  1  0.846877  0.459370  0.846877  1
  B  B17  1  0.846877  0.846877  0.846877  1
  B  B18  1  0.459370  0.846877  0.846877  1
  B  B19  1  0.846877  0.846877  0.459370  1
  B  B20  1  0.403123  0.403123  0.790630  1
  B  B21  1  0.790630  0.403123  0.403123  1
  B  B22  1  0.403123  0.403123  0.403123  1
  B  B23  1  0.403123  0.790630  0.403123  1
  S  S24  1  1.000000  1.000000  1.000000  1
  S  S25  1  0.250000  0.250000  0.250000  1
  O  O26  1  0.063960  0.808120  0.063960  1
  O  O27  1  0.808120  0.063960  0.063960  1
  O  O28  1  0.063960  0.063960  0.063960  1
  O  O29  1  0.063960  0.063960  0.808120  1
  O  O30  1  0.707112  0.459662  0.995956  1
  O  O31  1  0.995956  0.459662  0.837269  1
  O  O32  1  0.837269  0.707112  0.995956  1
  O  O33  1  0.837269  0.459662  0.707112  1
  O  O34  1  0.459662  0.837269  0.995956  1
  O  O35  1  0.459662  0.707112  0.837269  1
  O  O36  1  0.995956  0.837269  0.707112  1
  O  O37  1  0.707112  0.995956  0.837269  1
  O  O38  1  0.995956  0.707112  0.459662  1
  O  O39  1  0.459662  0.995956  0.707112  1
  O  O40  1  0.707112  0.837269  0.459662  1
  O  O41  1  0.412731  0.254044  0.790338  1
  O  O42  1  0.837269  0.995956  0.459662  1
  O  O43  1  0.542888  0.412731  0.790338  1
  O  O44  1  0.790338  0.254044  0.542888  1
  O  O45  1  0.254044  0.542888  0.790338  1
  O  O46  1  0.542888  0.254044  0.412731  1
  O  O47  1  0.254044  0.412731  0.542888  1
  O  O48  1  0.790338  0.542888  0.412731  1
  O  O49  1  0.790338  0.412731  0.254044  1
  O  O50  1  0.412731  0.790338  0.542888  1
  O  O51  1  0.412731  0.542888  0.254044  1
  O  O52  1  0.254044  0.790338  0.412731  1
  O  O53  1  0.542888  0.790338  0.254044  1
  O  O54  1  0.186040  0.186040  0.441880  1
  O  O55  1  0.441880  0.186040  0.186040  1
  O  O56  1  0.186040  0.186040  0.186040  1
  O  O57  1  0.186040  0.441880  0.186040  1
