# generated using pymatgen
data_Li3Mn(PO4)2
_symmetry_space_group_name_H-M   'P 1'
_cell_length_a   8.08794065
_cell_length_b   8.47310582
_cell_length_c   10.41390327
_cell_angle_alpha   90.04006626
_cell_angle_beta   90.01954073
_cell_angle_gamma   107.44543492
_symmetry_Int_Tables_number   1
_chemical_formula_structural   Li3Mn(PO4)2
_chemical_formula_sum   'Li12 Mn4 P8 O32'
_cell_volume   680.83776684
_cell_formula_units_Z   4
loop_
 _symmetry_equiv_pos_site_id
 _symmetry_equiv_pos_as_xyz
  1  'x, y, z'
loop_
 _atom_site_type_symbol
 _atom_site_label
 _atom_site_symmetry_multiplicity
 _atom_site_fract_x
 _atom_site_fract_y
 _atom_site_fract_z
 _atom_site_occupancy
  Li  Li0  1  0.636862  0.128360  0.143250  1
  Li  Li1  1  0.469612  0.229467  0.439712  1
  Li  Li2  1  0.823637  0.353063  0.834890  1
  Li  Li3  1  0.514976  0.267388  0.928612  1
  Li  Li4  1  0.385726  0.394973  0.171117  1
  Li  Li5  1  0.385252  0.393247  0.666218  1
  Li  Li6  1  0.642578  0.642145  0.354455  1
  Li  Li7  1  0.814316  0.846873  0.668135  1
  Li  Li8  1  0.186968  0.654352  0.153534  1
  Li  Li9  1  0.511896  0.775766  0.582736  1
  Li  Li10  1  0.352751  0.833740  0.853186  1
  Li  Li11  1  0.392337  0.901220  0.332426  1
  Mn  Mn12  1  0.891585  0.353351  0.335865  1
  Mn  Mn13  1  0.114886  0.133559  0.841471  1
  Mn  Mn14  1  0.107380  0.633427  0.657605  1
  Mn  Mn15  1  0.881379  0.858380  0.154763  1
  P  P16  1  0.787292  0.044651  0.419206  1
  P  P17  1  0.271110  0.021942  0.088628  1
  P  P18  1  0.716431  0.481361  0.582937  1
  P  P19  1  0.793749  0.542848  0.084883  1
  P  P20  1  0.210795  0.447443  0.917256  1
  P  P21  1  0.288926  0.523893  0.411071  1
  P  P22  1  0.713979  0.981943  0.901969  1
  P  P23  1  0.212024  0.949437  0.586284  1
  O  O24  1  0.676474  0.142589  0.341059  1
  O  O25  1  0.957684  0.192663  0.437532  1
  O  O26  1  0.665212  0.139867  0.874517  1
  O  O27  1  0.096308  0.033179  0.146973  1
  O  O28  1  0.200813  0.093465  0.670397  1
  O  O29  1  0.413210  0.191054  0.107364  1
  O  O30  1  0.574703  0.317687  0.607193  1
  O  O31  1  0.811700  0.396030  0.166973  1
  O  O32  1  0.879922  0.478836  0.668600  1
  O  O33  1  0.321743  0.343509  0.850180  1
  O  O34  1  0.715408  0.476449  0.957130  1
  O  O35  1  0.771967  0.497520  0.439325  1
  O  O36  1  0.029755  0.309358  0.915189  1
  O  O37  1  0.378906  0.400791  0.359464  1
  O  O38  1  0.689280  0.641446  0.163551  1
  O  O39  1  0.972493  0.684036  0.076175  1
  O  O40  1  0.652114  0.628015  0.620479  1
  O  O41  1  0.237880  0.493720  0.555590  1
  O  O42  1  0.273738  0.505190  0.050208  1
  O  O43  1  0.123543  0.516560  0.327058  1
  O  O44  1  0.200585  0.591391  0.830304  1
  O  O45  1  0.416790  0.700626  0.397226  1
  O  O46  1  0.583848  0.825847  0.850640  1
  O  O47  1  0.810105  0.905918  0.330995  1
  O  O48  1  0.890061  0.981683  0.829258  1
  O  O49  1  0.310487  0.836768  0.658371  1
  O  O50  1  0.706406  0.971703  0.544406  1
  O  O51  1  0.746618  0.979510  0.049997  1
  O  O52  1  0.029002  0.812054  0.579751  1
  O  O53  1  0.330994  0.886080  0.154132  1
  O  O54  1  0.294073  0.009510  0.458169  1
  O  O55  1  0.245486  0.991076  0.940600  1
