# generated using pymatgen
data_Li4TiMn(WO6)2
_symmetry_space_group_name_H-M   'P 1'
_cell_length_a   5.11853550
_cell_length_b   5.38764461
_cell_length_c   7.43075562
_cell_angle_alpha   94.03418760
_cell_angle_beta   90.00051714
_cell_angle_gamma   90.00300265
_symmetry_Int_Tables_number   1
_chemical_formula_structural   Li4TiMn(WO6)2
_chemical_formula_sum   'Li4 Ti1 Mn1 W2 O12'
_cell_volume   204.40910179
_cell_formula_units_Z   1
loop_
 _symmetry_equiv_pos_site_id
 _symmetry_equiv_pos_as_xyz
  1  'x, y, z'
loop_
 _atom_site_type_symbol
 _atom_site_label
 _atom_site_symmetry_multiplicity
 _atom_site_fract_x
 _atom_site_fract_y
 _atom_site_fract_z
 _atom_site_occupancy
  Li  Li0  1  0.001227  0.578619  0.706462  1
  Li  Li1  1  0.498562  0.083047  0.213080  1
  Li  Li2  1  0.000096  0.538742  0.234517  1
  Li  Li3  1  0.500124  0.040901  0.725786  1
  Ti  Ti4  1  0.001861  0.019503  0.991245  1
  Mn  Mn5  1  0.498959  0.503491  0.498046  1
  W  W6  1  0.000735  0.004378  0.493241  1
  W  W7  1  0.499001  0.514113  0.997757  1
  O  O8  1  0.298751  0.794105  0.566308  1
  O  O9  1  0.118750  0.983448  0.254500  1
  O  O10  1  0.319067  0.179056  0.951787  1
  O  O11  1  0.196896  0.297851  0.564084  1
  O  O12  1  0.804522  0.300396  0.065021  1
  O  O13  1  0.383687  0.481288  0.253123  1
  O  O14  1  0.616902  0.490708  0.752574  1
  O  O15  1  0.186114  0.674053  0.947257  1
  O  O16  1  0.807625  0.685326  0.449352  1
  O  O17  1  0.690374  0.800161  0.066323  1
  O  O18  1  0.886217  0.985645  0.751017  1
  O  O19  1  0.690529  0.187570  0.447320  1
