# generated using pymatgen
data_ZnPH5C2N4O3
_symmetry_space_group_name_H-M   'P 1'
_cell_length_a   9.12857087
_cell_length_b   9.12857087
_cell_length_c   10.54255294
_cell_angle_alpha   70.27155374
_cell_angle_beta   109.72844626
_cell_angle_gamma   107.99425283
_symmetry_Int_Tables_number   1
_chemical_formula_structural   ZnPH5C2N4O3
_chemical_formula_sum   'Zn4 P4 H20 C8 N16 O12'
_cell_volume   759.33393396
_cell_formula_units_Z   4
loop_
 _symmetry_equiv_pos_site_id
 _symmetry_equiv_pos_as_xyz
  1  'x, y, z'
loop_
 _atom_site_type_symbol
 _atom_site_label
 _atom_site_symmetry_multiplicity
 _atom_site_fract_x
 _atom_site_fract_y
 _atom_site_fract_z
 _atom_site_occupancy
  Zn  Zn0  1  0.278378  0.442640  0.544565  1
  Zn  Zn1  1  0.442640  0.278378  0.955435  1
  Zn  Zn2  1  0.557360  0.721622  0.044565  1
  Zn  Zn3  1  0.721622  0.557360  0.455435  1
  P  P4  1  0.333047  0.609021  0.778752  1
  P  P5  1  0.390979  0.666953  0.278752  1
  P  P6  1  0.609021  0.333047  0.721248  1
  P  P7  1  0.666953  0.390979  0.221248  1
  H  H8  1  0.142506  0.915129  0.595206  1
  H  H9  1  0.192342  0.660192  0.752072  1
  H  H10  1  0.084871  0.857494  0.095206  1
  H  H11  1  0.087898  0.295530  0.896600  1
  H  H12  1  0.614018  0.874328  0.705797  1
  H  H13  1  0.339808  0.807658  0.252072  1
  H  H14  1  0.571026  0.799009  0.562749  1
  H  H15  1  0.704470  0.912102  0.396600  1
  H  H16  1  0.125672  0.385982  0.205797  1
  H  H17  1  0.799009  0.571026  0.937251  1
  H  H18  1  0.200991  0.428974  0.062749  1
  H  H19  1  0.874328  0.614018  0.794203  1
  H  H20  1  0.295530  0.087898  0.603400  1
  H  H21  1  0.428974  0.200991  0.437251  1
  H  H22  1  0.660192  0.192342  0.747928  1
  H  H23  1  0.385982  0.125672  0.294203  1
  H  H24  1  0.912102  0.704470  0.103400  1
  H  H25  1  0.915129  0.142506  0.904794  1
  H  H26  1  0.807658  0.339808  0.247928  1
  H  H27  1  0.857494  0.084871  0.404794  1
  C  C28  1  0.204946  0.962795  0.897318  1
  C  C29  1  0.037205  0.795054  0.397318  1
  C  C30  1  0.754852  0.993821  0.568818  1
  C  C31  1  0.993821  0.754852  0.931182  1
  C  C32  1  0.006179  0.245148  0.068818  1
  C  C33  1  0.245148  0.006179  0.431182  1
  C  C34  1  0.962795  0.204946  0.602682  1
  C  C35  1  0.795054  0.037205  0.102682  1
  N  N36  1  0.099268  0.846620  0.855695  1
  N  N37  1  0.153380  0.900732  0.355695  1
  N  N38  1  0.003657  0.224007  0.948110  1
  N  N39  1  0.639165  0.881243  0.616658  1
  N  N40  1  0.072387  0.304906  0.570825  1
  N  N41  1  0.775993  0.996343  0.448110  1
  N  N42  1  0.304906  0.072387  0.929175  1
  N  N43  1  0.118757  0.360835  0.116658  1
  N  N44  1  0.881243  0.639165  0.883342  1
  N  N45  1  0.695094  0.927613  0.070825  1
  N  N46  1  0.224007  0.003657  0.551890  1
  N  N47  1  0.927613  0.695094  0.429175  1
  N  N48  1  0.360835  0.118757  0.383342  1
  N  N49  1  0.996343  0.775993  0.051890  1
  N  N50  1  0.846620  0.099268  0.644305  1
  N  N51  1  0.900732  0.153380  0.144305  1
  O  O52  1  0.471439  0.730473  0.845337  1
  O  O53  1  0.304983  0.439073  0.877651  1
  O  O54  1  0.351897  0.614783  0.637546  1
  O  O55  1  0.269527  0.528561  0.345337  1
  O  O56  1  0.560927  0.695017  0.377651  1
  O  O57  1  0.385217  0.648103  0.137546  1
  O  O58  1  0.614783  0.351897  0.862454  1
  O  O59  1  0.439073  0.304983  0.622349  1
  O  O60  1  0.730473  0.471439  0.654663  1
  O  O61  1  0.648103  0.385217  0.362454  1
  O  O62  1  0.695017  0.560927  0.122349  1
  O  O63  1  0.528561  0.269527  0.154663  1
