# generated using pymatgen
data_Ca19(Mg4H27)2
_symmetry_space_group_name_H-M   'P 1'
_cell_length_a   10.55933253
_cell_length_b   10.55933253
_cell_length_c   10.55933253
_cell_angle_alpha   109.47122063
_cell_angle_beta   109.47122063
_cell_angle_gamma   109.47122063
_symmetry_Int_Tables_number   1
_chemical_formula_structural   Ca19(Mg4H27)2
_chemical_formula_sum   'Ca19 Mg8 H54'
_cell_volume   906.33240842
_cell_formula_units_Z   1
loop_
 _symmetry_equiv_pos_site_id
 _symmetry_equiv_pos_as_xyz
  1  'x, y, z'
loop_
 _atom_site_type_symbol
 _atom_site_label
 _atom_site_symmetry_multiplicity
 _atom_site_fract_x
 _atom_site_fract_y
 _atom_site_fract_z
 _atom_site_occupancy
  Ca  Ca0  1  0.313467  0.967260  0.653793  1
  Ca  Ca1  1  0.686533  0.032740  0.346207  1
  Ca  Ca2  1  0.313467  0.659674  0.346207  1
  Ca  Ca3  1  0.686533  0.340326  0.653793  1
  Ca  Ca4  1  0.653793  0.313467  0.967260  1
  Ca  Ca5  1  0.346207  0.686533  0.032740  1
  Ca  Ca6  1  0.346207  0.313467  0.659674  1
  Ca  Ca7  1  0.653793  0.686533  0.340326  1
  Ca  Ca8  1  0.967260  0.653793  0.313467  1
  Ca  Ca9  1  0.032740  0.346207  0.686533  1
  Ca  Ca10  1  0.659674  0.346207  0.313467  1
  Ca  Ca11  1  0.340326  0.653793  0.686533  1
  Ca  Ca12  1  0.330774  1.000000  0.330774  1
  Ca  Ca13  1  0.669226  1.000000  0.669226  1
  Ca  Ca14  1  0.330774  0.330774  0.000000  1
  Ca  Ca15  1  0.669226  0.669226  0.000000  1
  Ca  Ca16  1  1.000000  0.330774  0.330774  1
  Ca  Ca17  1  1.000000  0.669226  0.669226  1
  Ca  Ca18  1  0.000000  0.000000  0.000000  1
  Mg  Mg19  1  0.315836  1.000000  0.000000  1
  Mg  Mg20  1  1.000000  1.000000  0.315836  1
  Mg  Mg21  1  1.000000  0.315836  0.000000  1
  Mg  Mg22  1  0.684164  0.684164  0.684164  1
  Mg  Mg23  1  0.684164  1.000000  0.000000  1
  Mg  Mg24  1  1.000000  1.000000  0.684164  1
  Mg  Mg25  1  1.000000  0.684164  0.000000  1
  Mg  Mg26  1  0.315836  0.315836  0.315836  1
  H  H27  1  0.422591  0.941894  0.140592  1
  H  H28  1  0.198699  0.058106  0.480697  1
  H  H29  1  0.801301  0.281998  0.859408  1
  H  H30  1  0.577409  0.718002  0.519303  1
  H  H31  1  0.140592  0.422591  0.941894  1
  H  H32  1  0.480697  0.198699  0.058106  1
  H  H33  1  0.859408  0.801301  0.281998  1
  H  H34  1  0.519303  0.577409  0.718002  1
  H  H35  1  0.941894  0.140592  0.422591  1
  H  H36  1  0.058106  0.480697  0.198699  1
  H  H37  1  0.281998  0.859408  0.801301  1
  H  H38  1  0.718002  0.519303  0.577409  1
  H  H39  1  0.577409  0.058106  0.859408  1
  H  H40  1  0.801301  0.941894  0.519303  1
  H  H41  1  0.198699  0.718002  0.140592  1
  H  H42  1  0.422591  0.281998  0.480697  1
  H  H43  1  0.859408  0.577409  0.058106  1
  H  H44  1  0.519303  0.801301  0.941894  1
  H  H45  1  0.140592  0.198699  0.718002  1
  H  H46  1  0.480697  0.422591  0.281998  1
  H  H47  1  0.058106  0.859408  0.577409  1
  H  H48  1  0.941894  0.519303  0.801301  1
  H  H49  1  0.718002  0.140592  0.198699  1
  H  H50  1  0.281998  0.480697  0.422591  1
  H  H51  1  0.396640  0.215815  0.819174  1
  H  H52  1  0.603360  0.784185  0.180826  1
  H  H53  1  0.396640  0.577466  0.180826  1
  H  H54  1  0.603360  0.422534  0.819174  1
  H  H55  1  0.819174  0.396640  0.215815  1
  H  H56  1  0.180826  0.603360  0.784185  1
  H  H57  1  0.180826  0.396640  0.577466  1
  H  H58  1  0.819174  0.603360  0.422534  1
  H  H59  1  0.215815  0.819174  0.396640  1
  H  H60  1  0.784185  0.180826  0.603360  1
  H  H61  1  0.577466  0.180826  0.396640  1
  H  H62  1  0.422534  0.819174  0.603360  1
  H  H63  1  0.172535  0.062474  0.889939  1
  H  H64  1  0.827465  0.937526  0.110061  1
  H  H65  1  0.172535  0.282596  0.110061  1
  H  H66  1  0.827465  0.717404  0.889939  1
  H  H67  1  0.889939  0.172535  0.062474  1
  H  H68  1  0.110061  0.827465  0.937526  1
  H  H69  1  0.110061  0.172535  0.282596  1
  H  H70  1  0.889939  0.827465  0.717404  1
  H  H71  1  0.062474  0.889939  0.172535  1
  H  H72  1  0.937526  0.110061  0.827465  1
  H  H73  1  0.282596  0.110061  0.172535  1
  H  H74  1  0.717404  0.889939  0.827465  1
  H  H75  1  0.614349  0.500000  0.114349  1
  H  H76  1  0.385651  0.500000  0.885651  1
  H  H77  1  0.114349  0.614349  0.500000  1
  H  H78  1  0.885651  0.385651  0.500000  1
  H  H79  1  0.500000  0.114349  0.614349  1
  H  H80  1  0.500000  0.885651  0.385651  1
