# generated using pymatgen
data_Mn(SO4)2
_symmetry_space_group_name_H-M   'P 1'
_cell_length_a   8.82086559
_cell_length_b   8.82086559
_cell_length_c   8.82086559
_cell_angle_alpha   55.46644054
_cell_angle_beta   55.46644054
_cell_angle_gamma   55.46644054
_symmetry_Int_Tables_number   1
_chemical_formula_structural   Mn(SO4)2
_chemical_formula_sum   'Mn3 S6 O24'
_cell_volume   434.21774159
_cell_formula_units_Z   3
loop_
 _symmetry_equiv_pos_site_id
 _symmetry_equiv_pos_as_xyz
  1  'x, y, z'
loop_
 _atom_site_type_symbol
 _atom_site_label
 _atom_site_symmetry_multiplicity
 _atom_site_fract_x
 _atom_site_fract_y
 _atom_site_fract_z
 _atom_site_occupancy
  Mn  Mn0  1  0.847798  0.847798  0.847798  1
  Mn  Mn1  1  0.353734  0.353734  0.353734  1
  Mn  Mn2  1  0.153359  0.153359  0.153359  1
  S  S3  1  0.246070  0.546057  0.952742  1
  S  S4  1  0.952742  0.246070  0.546057  1
  S  S5  1  0.546057  0.952742  0.246070  1
  S  S6  1  0.460483  0.038732  0.749024  1
  S  S7  1  0.038732  0.749024  0.460483  1
  S  S8  1  0.749024  0.460483  0.038732  1
  O  O9  1  0.708082  0.486170  0.888777  1
  O  O10  1  0.486170  0.888777  0.708082  1
  O  O11  1  0.029143  0.669938  0.002905  1
  O  O12  1  0.888777  0.708082  0.486170  1
  O  O13  1  0.283477  0.344692  0.975869  1
  O  O14  1  0.366981  0.631156  0.756109  1
  O  O15  1  0.756109  0.366981  0.631156  1
  O  O16  1  0.002905  0.029143  0.669938  1
  O  O17  1  0.631156  0.756109  0.366981  1
  O  O18  1  0.322139  0.019704  0.958249  1
  O  O19  1  0.653836  0.032183  0.715615  1
  O  O20  1  0.032183  0.715615  0.653836  1
  O  O21  1  0.975869  0.283477  0.344692  1
  O  O22  1  0.344692  0.975869  0.283477  1
  O  O23  1  0.669938  0.002905  0.029143  1
  O  O24  1  0.377505  0.245486  0.617617  1
  O  O25  1  0.019704  0.958249  0.322139  1
  O  O26  1  0.245486  0.617617  0.377505  1
  O  O27  1  0.617617  0.377505  0.245486  1
  O  O28  1  0.715615  0.653836  0.032183  1
  O  O29  1  0.105467  0.295843  0.520099  1
  O  O30  1  0.958249  0.322139  0.019704  1
  O  O31  1  0.520099  0.105467  0.295843  1
  O  O32  1  0.295843  0.520099  0.105467  1
