# generated using pymatgen
data_LiVF6
_symmetry_space_group_name_H-M   'P 1'
_cell_length_a   9.21163532
_cell_length_b   9.38822955
_cell_length_c   15.62011426
_cell_angle_alpha   90.00000000
_cell_angle_beta   125.74429819
_cell_angle_gamma   90.00000000
_symmetry_Int_Tables_number   1
_chemical_formula_structural   LiVF6
_chemical_formula_sum   'Li8 V8 F48'
_cell_volume   1096.38697656
_cell_formula_units_Z   8
loop_
 _symmetry_equiv_pos_site_id
 _symmetry_equiv_pos_as_xyz
  1  'x, y, z'
loop_
 _atom_site_type_symbol
 _atom_site_label
 _atom_site_symmetry_multiplicity
 _atom_site_fract_x
 _atom_site_fract_y
 _atom_site_fract_z
 _atom_site_occupancy
  Li  Li0  1  0.253135  0.130098  0.146041  1
  Li  Li1  1  0.962809  0.869588  0.859041  1
  Li  Li2  1  0.749845  0.626756  0.353666  1
  Li  Li3  1  0.464819  0.501398  0.992792  1
  Li  Li4  1  0.962809  0.130412  0.359041  1
  Li  Li5  1  0.253135  0.869902  0.646041  1
  Li  Li6  1  0.749845  0.373244  0.853666  1
  Li  Li7  1  0.464819  0.498602  0.492792  1
  V  V8  1  0.629327  0.280092  0.386421  1
  V  V9  1  0.372800  0.783399  0.117780  1
  V  V10  1  0.870017  0.719034  0.618802  1
  V  V11  1  0.132641  0.218456  0.878787  1
  V  V12  1  0.870017  0.280966  0.118802  1
  V  V13  1  0.132641  0.781544  0.378787  1
  V  V14  1  0.629327  0.719908  0.886421  1
  V  V15  1  0.372800  0.216601  0.617780  1
  F  F16  1  0.477855  0.406670  0.387727  1
  F  F17  1  0.221220  0.666245  0.118079  1
  F  F18  1  0.667887  0.616964  0.575372  1
  F  F19  1  0.931823  0.322011  0.839306  1
  F  F20  1  0.546576  0.138660  0.420876  1
  F  F21  1  0.298314  0.930896  0.160211  1
  F  F22  1  0.165505  0.182859  0.006313  1
  F  F23  1  0.906020  0.753214  0.745372  1
  F  F24  1  0.992755  0.057895  0.827248  1
  F  F25  1  0.740153  0.877632  0.565334  1
  F  F26  1  0.455162  0.241111  0.245851  1
  F  F27  1  0.196233  0.822936  0.978510  1
  F  F28  1  0.800319  0.323077  0.519167  1
  F  F29  1  0.547255  0.740064  0.255870  1
  F  F30  1  0.263284  0.382312  0.936449  1
  F  F31  1  0.003296  0.562978  0.672441  1
  F  F32  1  0.092807  0.253062  0.755900  1
  F  F33  1  0.832407  0.682819  0.491830  1
  F  F34  1  0.698956  0.428970  0.339673  1
  F  F35  1  0.453732  0.637009  0.077864  1
  F  F36  1  0.783724  0.162783  0.381466  1
  F  F37  1  0.518733  0.902957  0.113514  1
  F  F38  1  0.070431  0.823250  0.661824  1
  F  F39  1  0.328481  0.119432  0.924075  1
  F  F40  1  0.667887  0.383036  0.075372  1
  F  F41  1  0.931823  0.677989  0.339306  1
  F  F42  1  0.477855  0.593330  0.887727  1
  F  F43  1  0.221220  0.333755  0.618079  1
  F  F44  1  0.546576  0.861340  0.920876  1
  F  F45  1  0.298314  0.069104  0.660211  1
  F  F46  1  0.165505  0.817141  0.506313  1
  F  F47  1  0.906020  0.246786  0.245372  1
  F  F48  1  0.992755  0.942105  0.327248  1
  F  F49  1  0.740153  0.122368  0.065334  1
  F  F50  1  0.455162  0.758889  0.745851  1
  F  F51  1  0.196233  0.177064  0.478510  1
  F  F52  1  0.800319  0.676923  0.019167  1
  F  F53  1  0.547255  0.259936  0.755870  1
  F  F54  1  0.263284  0.617688  0.436449  1
  F  F55  1  0.003296  0.437022  0.172441  1
  F  F56  1  0.092807  0.746938  0.255900  1
  F  F57  1  0.832407  0.317181  0.991830  1
  F  F58  1  0.698956  0.571030  0.839673  1
  F  F59  1  0.453732  0.362991  0.577864  1
  F  F60  1  0.070431  0.176750  0.161824  1
  F  F61  1  0.328481  0.880568  0.424075  1
  F  F62  1  0.783724  0.837217  0.881466  1
  F  F63  1  0.518733  0.097043  0.613514  1
