# generated using pymatgen
data_TiMnFe(PO4)3
_symmetry_space_group_name_H-M   'P 1'
_cell_length_a   8.65152321
_cell_length_b   8.65152321
_cell_length_c   8.65152321
_cell_angle_alpha   59.98689608
_cell_angle_beta   59.98689608
_cell_angle_gamma   59.98689608
_symmetry_Int_Tables_number   1
_chemical_formula_structural   TiMnFe(PO4)3
_chemical_formula_sum   'Ti2 Mn2 Fe2 P6 O24'
_cell_volume   457.75561045
_cell_formula_units_Z   2
loop_
 _symmetry_equiv_pos_site_id
 _symmetry_equiv_pos_as_xyz
  1  'x, y, z'
loop_
 _atom_site_type_symbol
 _atom_site_label
 _atom_site_symmetry_multiplicity
 _atom_site_fract_x
 _atom_site_fract_y
 _atom_site_fract_z
 _atom_site_occupancy
  Ti  Ti0  1  0.854647  0.854647  0.854647  1
  Ti  Ti1  1  0.354647  0.354647  0.354647  1
  Mn  Mn2  1  0.002385  0.002385  0.002385  1
  Mn  Mn3  1  0.502385  0.502385  0.502385  1
  Fe  Fe4  1  0.645885  0.645885  0.645885  1
  Fe  Fe5  1  0.145885  0.145885  0.145885  1
  P  P6  1  0.542391  0.955825  0.249455  1
  P  P7  1  0.249455  0.542391  0.955825  1
  P  P8  1  0.955825  0.249455  0.542391  1
  P  P9  1  0.042391  0.749455  0.455825  1
  P  P10  1  0.749455  0.455825  0.042391  1
  P  P11  1  0.455825  0.042391  0.749455  1
  O  O12  1  0.496768  0.885527  0.687915  1
  O  O13  1  0.885527  0.687915  0.496768  1
  O  O14  1  0.736575  0.943335  0.084552  1
  O  O15  1  0.687915  0.496768  0.885527  1
  O  O16  1  0.385527  0.996768  0.187915  1
  O  O17  1  0.558915  0.764626  0.412864  1
  O  O18  1  0.084552  0.736575  0.943335  1
  O  O19  1  0.412864  0.558915  0.764626  1
  O  O20  1  0.998921  0.807504  0.621909  1
  O  O21  1  0.764626  0.412864  0.558915  1
  O  O22  1  0.058915  0.912864  0.264626  1
  O  O23  1  0.807504  0.621909  0.998921  1
  O  O24  1  0.187915  0.385527  0.996768  1
  O  O25  1  0.943335  0.084552  0.736575  1
  O  O26  1  0.236575  0.584552  0.443335  1
  O  O27  1  0.996768  0.187915  0.385527  1
  O  O28  1  0.584552  0.443335  0.236575  1
  O  O29  1  0.912864  0.264626  0.058915  1
  O  O30  1  0.443335  0.236575  0.584552  1
  O  O31  1  0.621909  0.998921  0.807504  1
  O  O32  1  0.307504  0.498921  0.121909  1
  O  O33  1  0.264626  0.058915  0.912864  1
  O  O34  1  0.121909  0.307504  0.498921  1
  O  O35  1  0.498921  0.121909  0.307504  1
