# generated using pymatgen
data_Si2Sn2O7
_symmetry_space_group_name_H-M   'P 1'
_cell_length_a   6.68387030
_cell_length_b   6.78906259
_cell_length_c   12.88335272
_cell_angle_alpha   80.98935521
_cell_angle_beta   85.38419399
_cell_angle_gamma   82.87127999
_symmetry_Int_Tables_number   1
_chemical_formula_structural   Si2Sn2O7
_chemical_formula_sum   'Si8 Sn8 O28'
_cell_volume   571.82047616
_cell_formula_units_Z   4
loop_
 _symmetry_equiv_pos_site_id
 _symmetry_equiv_pos_as_xyz
  1  'x, y, z'
loop_
 _atom_site_type_symbol
 _atom_site_label
 _atom_site_symmetry_multiplicity
 _atom_site_fract_x
 _atom_site_fract_y
 _atom_site_fract_z
 _atom_site_occupancy
  Si  Si0  1  0.857778  0.617827  0.626752  1
  Si  Si1  1  0.925378  0.195749  0.128766  1
  Si  Si2  1  0.643451  0.717113  0.425624  1
  Si  Si3  1  0.556440  0.694643  0.199125  1
  Si  Si4  1  0.443560  0.305357  0.800875  1
  Si  Si5  1  0.356549  0.282887  0.574376  1
  Si  Si6  1  0.074622  0.804251  0.871234  1
  Si  Si7  1  0.142222  0.382173  0.373248  1
  Sn  Sn8  1  0.925715  0.327614  0.860616  1
  Sn  Sn9  1  0.847585  0.088706  0.651560  1
  Sn  Sn10  1  0.572042  0.777329  0.887762  1
  Sn  Sn11  1  0.651421  0.232799  0.358735  1
  Sn  Sn12  1  0.348579  0.767201  0.641265  1
  Sn  Sn13  1  0.427958  0.222671  0.112238  1
  Sn  Sn14  1  0.152415  0.911294  0.348440  1
  Sn  Sn15  1  0.074285  0.672386  0.139384  1
  O  O16  1  0.035796  0.972658  0.178903  1
  O  O17  1  0.915213  0.640395  0.863236  1
  O  O18  1  0.953027  0.250716  0.374329  1
  O  O19  1  0.908702  0.393588  0.695801  1
  O  O20  1  0.726181  0.930021  0.379908  1
  O  O21  1  0.855931  0.207515  0.010174  1
  O  O22  1  0.653463  0.747736  0.676397  1
  O  O23  1  0.807283  0.591805  0.506540  1
  O  O24  1  0.768379  0.696513  0.128663  1
  O  O25  1  0.710133  0.245990  0.199495  1
  O  O26  1  0.603278  0.422763  0.854333  1
  O  O27  1  0.563499  0.091384  0.777343  1
  O  O28  1  0.615206  0.579678  0.327516  1
  O  O29  1  0.577836  0.257987  0.511530  1
  O  O30  1  0.422164  0.742013  0.488470  1
  O  O31  1  0.384794  0.420322  0.672484  1
  O  O32  1  0.436501  0.908616  0.222657  1
  O  O33  1  0.396722  0.577237  0.145667  1
  O  O34  1  0.289867  0.754010  0.800505  1
  O  O35  1  0.231621  0.303487  0.871337  1
  O  O36  1  0.192717  0.408195  0.493460  1
  O  O37  1  0.346537  0.252264  0.323603  1
  O  O38  1  0.144069  0.792485  0.989826  1
  O  O39  1  0.273819  0.069979  0.620092  1
  O  O40  1  0.091298  0.606412  0.304199  1
  O  O41  1  0.046973  0.749284  0.625671  1
  O  O42  1  0.084787  0.359605  0.136764  1
  O  O43  1  0.964204  0.027342  0.821097  1
