# generated using pymatgen
data_Li3Mn3O8
_symmetry_space_group_name_H-M   'P 1'
_cell_length_a   8.27511585
_cell_length_b   8.27511585
_cell_length_c   8.27511585
_cell_angle_alpha   90.00000000
_cell_angle_beta   90.00000000
_cell_angle_gamma   90.00000000
_symmetry_Int_Tables_number   1
_chemical_formula_structural   Li3Mn3O8
_chemical_formula_sum   'Li12 Mn12 O32'
_cell_volume   566.65959523
_cell_formula_units_Z   4
loop_
 _symmetry_equiv_pos_site_id
 _symmetry_equiv_pos_as_xyz
  1  'x, y, z'
loop_
 _atom_site_type_symbol
 _atom_site_label
 _atom_site_symmetry_multiplicity
 _atom_site_fract_x
 _atom_site_fract_y
 _atom_site_fract_z
 _atom_site_occupancy
  Li  Li0  1  0.003583  0.003583  0.003583  1
  Li  Li1  1  0.125000  0.875000  0.375000  1
  Li  Li2  1  0.246417  0.246417  0.246417  1
  Li  Li3  1  0.253583  0.753583  0.746417  1
  Li  Li4  1  0.375000  0.125000  0.875000  1
  Li  Li5  1  0.496417  0.996417  0.503583  1
  Li  Li6  1  0.503583  0.496417  0.996417  1
  Li  Li7  1  0.625000  0.625000  0.625000  1
  Li  Li8  1  0.746417  0.253583  0.753583  1
  Li  Li9  1  0.753583  0.746417  0.253583  1
  Li  Li10  1  0.875000  0.375000  0.125000  1
  Li  Li11  1  0.996417  0.503583  0.496417  1
  Mn  Mn12  1  0.122330  0.127670  0.625000  1
  Mn  Mn13  1  0.125000  0.377670  0.872330  1
  Mn  Mn14  1  0.127670  0.625000  0.122330  1
  Mn  Mn15  1  0.372330  0.375000  0.622330  1
  Mn  Mn16  1  0.375000  0.622330  0.372330  1
  Mn  Mn17  1  0.377670  0.872330  0.125000  1
  Mn  Mn18  1  0.622330  0.372330  0.375000  1
  Mn  Mn19  1  0.625000  0.122330  0.127670  1
  Mn  Mn20  1  0.627670  0.875000  0.877670  1
  Mn  Mn21  1  0.872330  0.125000  0.377670  1
  Mn  Mn22  1  0.875000  0.877670  0.627670  1
  Mn  Mn23  1  0.877670  0.627670  0.875000  1
  O  O24  1  0.098871  0.130063  0.393340  1
  O  O25  1  0.106660  0.901129  0.630063  1
  O  O26  1  0.115314  0.615314  0.884686  1
  O  O27  1  0.130063  0.393340  0.098871  1
  O  O28  1  0.119937  0.151129  0.856660  1
  O  O29  1  0.134686  0.365314  0.634686  1
  O  O30  1  0.143340  0.619937  0.348871  1
  O  O31  1  0.151129  0.856660  0.119937  1
  O  O32  1  0.348871  0.143340  0.619937  1
  O  O33  1  0.356660  0.380063  0.848871  1
  O  O34  1  0.365314  0.634686  0.134686  1
  O  O35  1  0.380063  0.848871  0.356660  1
  O  O36  1  0.369937  0.606660  0.598871  1
  O  O37  1  0.384686  0.384686  0.384686  1
  O  O38  1  0.393340  0.098871  0.130063  1
  O  O39  1  0.401129  0.869937  0.893340  1
  O  O40  1  0.598871  0.369937  0.606660  1
  O  O41  1  0.606660  0.598871  0.369937  1
  O  O42  1  0.615314  0.884686  0.115314  1
  O  O43  1  0.630063  0.106660  0.901129  1
  O  O44  1  0.619937  0.348871  0.143340  1
  O  O45  1  0.634686  0.134686  0.365314  1
  O  O46  1  0.643340  0.880063  0.651129  1
  O  O47  1  0.651129  0.643340  0.880063  1
  O  O48  1  0.848871  0.356660  0.380063  1
  O  O49  1  0.856660  0.119937  0.151129  1
  O  O50  1  0.865314  0.865314  0.865314  1
  O  O51  1  0.880063  0.651129  0.643340  1
  O  O52  1  0.869937  0.893340  0.401129  1
  O  O53  1  0.884686  0.115314  0.615314  1
  O  O54  1  0.893340  0.401129  0.869937  1
  O  O55  1  0.901129  0.630063  0.106660  1
