# generated using pymatgen
data_Sr3(AsO4)2
_symmetry_space_group_name_H-M   'P 1'
_cell_length_a   7.35720035
_cell_length_b   10.29619606
_cell_length_c   12.67592004
_cell_angle_alpha   90.00000000
_cell_angle_beta   90.59157031
_cell_angle_gamma   90.00000000
_symmetry_Int_Tables_number   1
_chemical_formula_structural   Sr3(AsO4)2
_chemical_formula_sum   'Sr12 As8 O32'
_cell_volume   960.16468542
_cell_formula_units_Z   4
loop_
 _symmetry_equiv_pos_site_id
 _symmetry_equiv_pos_as_xyz
  1  'x, y, z'
loop_
 _atom_site_type_symbol
 _atom_site_label
 _atom_site_symmetry_multiplicity
 _atom_site_fract_x
 _atom_site_fract_y
 _atom_site_fract_z
 _atom_site_occupancy
  Sr  Sr0  1  0.092553  0.796929  0.426066  1
  Sr  Sr1  1  0.092553  0.703071  0.926066  1
  Sr  Sr2  1  0.242187  0.155267  0.355291  1
  Sr  Sr3  1  0.242187  0.344733  0.855291  1
  Sr  Sr4  1  0.393829  0.538231  0.362115  1
  Sr  Sr5  1  0.393829  0.961769  0.862115  1
  Sr  Sr6  1  0.606171  0.038231  0.137885  1
  Sr  Sr7  1  0.606171  0.461769  0.637885  1
  Sr  Sr8  1  0.757813  0.655267  0.144709  1
  Sr  Sr9  1  0.757813  0.844733  0.644709  1
  Sr  Sr10  1  0.907447  0.296929  0.073934  1
  Sr  Sr11  1  0.907447  0.203071  0.573934  1
  As  As12  1  0.104660  0.948486  0.141223  1
  As  As13  1  0.104660  0.551514  0.641223  1
  As  As14  1  0.402571  0.385623  0.131687  1
  As  As15  1  0.402571  0.114377  0.631687  1
  As  As16  1  0.597429  0.885623  0.368313  1
  As  As17  1  0.597429  0.614377  0.868313  1
  As  As18  1  0.895340  0.448486  0.358777  1
  As  As19  1  0.895340  0.051514  0.858777  1
  O  O20  1  0.026802  0.797587  0.104669  1
  O  O21  1  0.026802  0.702413  0.604669  1
  O  O22  1  0.055627  0.570404  0.375558  1
  O  O23  1  0.055627  0.929596  0.875558  1
  O  O24  1  0.145652  0.948884  0.275759  1
  O  O25  1  0.145652  0.551116  0.775759  1
  O  O26  1  0.218865  0.383103  0.045179  1
  O  O27  1  0.218865  0.116897  0.545179  1
  O  O28  1  0.300252  0.985493  0.073156  1
  O  O29  1  0.333971  0.335381  0.254661  1
  O  O30  1  0.300252  0.514507  0.573156  1
  O  O31  1  0.333971  0.164619  0.754661  1
  O  O32  1  0.433110  0.779559  0.412250  1
  O  O33  1  0.433110  0.720441  0.912250  1
  O  O34  1  0.466083  0.543376  0.153775  1
  O  O35  1  0.466083  0.956624  0.653775  1
  O  O36  1  0.533917  0.043376  0.346225  1
  O  O37  1  0.533917  0.456624  0.846225  1
  O  O38  1  0.566890  0.279559  0.087750  1
  O  O39  1  0.566890  0.220441  0.587750  1
  O  O40  1  0.666029  0.835381  0.245339  1
  O  O41  1  0.699748  0.485493  0.426844  1
  O  O42  1  0.666029  0.664619  0.745339  1
  O  O43  1  0.699748  0.014507  0.926844  1
  O  O44  1  0.781135  0.883103  0.454821  1
  O  O45  1  0.781135  0.616897  0.954821  1
  O  O46  1  0.854348  0.448884  0.224241  1
  O  O47  1  0.854348  0.051116  0.724241  1
  O  O48  1  0.944373  0.070404  0.124442  1
  O  O49  1  0.944373  0.429596  0.624442  1
  O  O50  1  0.973198  0.297587  0.395331  1
  O  O51  1  0.973198  0.202413  0.895331  1
