# generated using pymatgen
data_Li3VF8
_symmetry_space_group_name_H-M   'P 1'
_cell_length_a   5.29135294
_cell_length_b   5.29135294
_cell_length_c   6.31789373
_cell_angle_alpha   90.00000000
_cell_angle_beta   90.00000000
_cell_angle_gamma   112.58405654
_symmetry_Int_Tables_number   1
_chemical_formula_structural   Li3VF8
_chemical_formula_sum   'Li3 V1 F8'
_cell_volume   163.32650345
_cell_formula_units_Z   1
loop_
 _symmetry_equiv_pos_site_id
 _symmetry_equiv_pos_as_xyz
  1  'x, y, z'
loop_
 _atom_site_type_symbol
 _atom_site_label
 _atom_site_symmetry_multiplicity
 _atom_site_fract_x
 _atom_site_fract_y
 _atom_site_fract_z
 _atom_site_occupancy
  Li  Li0  1  0.500000  1.000000  0.840063  1
  Li  Li1  1  0.500000  0.500000  1.000000  1
  Li  Li2  1  0.000000  0.500000  0.159937  1
  V  V3  1  0.500000  0.500000  0.500000  1
  F  F4  1  0.704846  0.295154  0.500000  1
  F  F5  1  0.706303  0.293697  0.000000  1
  F  F6  1  0.268261  0.298289  0.293041  1
  F  F7  1  0.298289  0.268261  0.706959  1
  F  F8  1  0.701711  0.731739  0.706959  1
  F  F9  1  0.731739  0.701711  0.293041  1
  F  F10  1  0.293697  0.706303  1.000000  1
  F  F11  1  0.295154  0.704846  0.500000  1
