# generated using pymatgen
data_Li2Cu2F5
_symmetry_space_group_name_H-M   'P 1'
_cell_length_a   9.95832624
_cell_length_b   3.01562759
_cell_length_c   14.07719019
_cell_angle_alpha   90.00000000
_cell_angle_beta   93.13110528
_cell_angle_gamma   90.00000000
_symmetry_Int_Tables_number   1
_chemical_formula_structural   Li2Cu2F5
_chemical_formula_sum   'Li8 Cu8 F20'
_cell_volume   422.11542389
_cell_formula_units_Z   4
loop_
 _symmetry_equiv_pos_site_id
 _symmetry_equiv_pos_as_xyz
  1  'x, y, z'
loop_
 _atom_site_type_symbol
 _atom_site_label
 _atom_site_symmetry_multiplicity
 _atom_site_fract_x
 _atom_site_fract_y
 _atom_site_fract_z
 _atom_site_occupancy
  Li  Li0  1  0.108257  0.692697  0.207245  1
  Li  Li1  1  0.108257  0.807303  0.707245  1
  Li  Li2  1  0.313466  0.181080  0.096047  1
  Li  Li3  1  0.313466  0.318920  0.596047  1
  Li  Li4  1  0.686534  0.681080  0.403953  1
  Li  Li5  1  0.686534  0.818920  0.903953  1
  Li  Li6  1  0.891743  0.192697  0.292755  1
  Li  Li7  1  0.891743  0.307303  0.792755  1
  Cu  Cu8  1  0.111626  0.763700  0.453532  1
  Cu  Cu9  1  0.111626  0.736300  0.953532  1
  Cu  Cu10  1  0.386550  0.203172  0.324374  1
  Cu  Cu11  1  0.386550  0.296828  0.824374  1
  Cu  Cu12  1  0.613450  0.703172  0.175626  1
  Cu  Cu13  1  0.613450  0.796828  0.675626  1
  Cu  Cu14  1  0.888374  0.263700  0.046468  1
  Cu  Cu15  1  0.888374  0.236300  0.546468  1
  F  F16  1  0.028120  0.706272  0.332628  1
  F  F17  1  0.028120  0.793728  0.832628  1
  F  F18  1  0.175313  0.675388  0.078929  1
  F  F19  1  0.240379  0.186342  0.236323  1
  F  F20  1  0.175313  0.824612  0.578929  1
  F  F21  1  0.278612  0.348230  0.437289  1
  F  F22  1  0.240379  0.313658  0.736323  1
  F  F23  1  0.278612  0.151770  0.937289  1
  F  F24  1  0.438454  0.681957  0.126210  1
  F  F25  1  0.438454  0.818043  0.626210  1
  F  F26  1  0.561546  0.181957  0.373790  1
  F  F27  1  0.561546  0.318043  0.873790  1
  F  F28  1  0.721388  0.848230  0.062711  1
  F  F29  1  0.759621  0.686342  0.263677  1
  F  F30  1  0.721388  0.651770  0.562711  1
  F  F31  1  0.824687  0.175388  0.421071  1
  F  F32  1  0.759621  0.813658  0.763677  1
  F  F33  1  0.824687  0.324612  0.921071  1
  F  F34  1  0.971880  0.206272  0.167372  1
  F  F35  1  0.971880  0.293728  0.667372  1
