# generated using pymatgen
data_Li4Ti2V3Co3O16
_symmetry_space_group_name_H-M   'P 1'
_cell_length_a   5.83170007
_cell_length_b   5.83170007
_cell_length_c   9.48247169
_cell_angle_alpha   89.82366620
_cell_angle_beta   90.17633380
_cell_angle_gamma   120.02619398
_symmetry_Int_Tables_number   1
_chemical_formula_structural   Li4Ti2V3Co3O16
_chemical_formula_sum   'Li4 Ti2 V3 Co3 O16'
_cell_volume   279.20623538
_cell_formula_units_Z   1
loop_
 _symmetry_equiv_pos_site_id
 _symmetry_equiv_pos_as_xyz
  1  'x, y, z'
loop_
 _atom_site_type_symbol
 _atom_site_label
 _atom_site_symmetry_multiplicity
 _atom_site_fract_x
 _atom_site_fract_y
 _atom_site_fract_z
 _atom_site_occupancy
  Li  Li0  1  0.663614  0.336386  0.095847  1
  Li  Li1  1  0.004451  0.995549  0.004670  1
  Li  Li2  1  0.001847  0.998153  0.506867  1
  Li  Li3  1  0.335566  0.664434  0.610864  1
  Ti  Ti4  1  0.653141  0.346859  0.505681  1
  Ti  Ti5  1  0.334945  0.665055  0.995951  1
  V  V6  1  0.828045  0.171955  0.775965  1
  V  V7  1  0.650370  0.837669  0.279231  1
  V  V8  1  0.162331  0.349630  0.279231  1
  Co  Co9  1  0.831511  0.656997  0.787179  1
  Co  Co10  1  0.343003  0.168489  0.787179  1
  Co  Co11  1  0.170081  0.829919  0.290668  1
  O  O12  1  0.818241  0.668061  0.408557  1
  O  O13  1  0.522636  0.477364  0.668976  1
  O  O14  1  0.667728  0.332272  0.890571  1
  O  O15  1  0.003280  0.996720  0.696906  1
  O  O16  1  0.993638  0.006362  0.195071  1
  O  O17  1  0.331939  0.181759  0.408557  1
  O  O18  1  0.962865  0.483121  0.664305  1
  O  O19  1  0.516879  0.037135  0.664305  1
  O  O20  1  0.169250  0.830750  0.901672  1
  O  O21  1  0.828614  0.171386  0.404021  1
  O  O22  1  0.495237  0.960834  0.151559  1
  O  O23  1  0.039166  0.504763  0.151559  1
  O  O24  1  0.342487  0.657513  0.402417  1
  O  O25  1  0.669532  0.830984  0.899666  1
  O  O26  1  0.482324  0.517676  0.161829  1
  O  O27  1  0.169016  0.330468  0.899666  1
