# generated using pymatgen
data_TiCo3O8
_symmetry_space_group_name_H-M   'P 1'
_cell_length_a   5.85222457
_cell_length_b   5.85222457
_cell_length_c   5.85222457
_cell_angle_alpha   58.80085338
_cell_angle_beta   58.80085338
_cell_angle_gamma   58.80085338
_symmetry_Int_Tables_number   1
_chemical_formula_structural   TiCo3O8
_chemical_formula_sum   'Ti1 Co3 O8'
_cell_volume   137.84437862
_cell_formula_units_Z   1
loop_
 _symmetry_equiv_pos_site_id
 _symmetry_equiv_pos_as_xyz
  1  'x, y, z'
loop_
 _atom_site_type_symbol
 _atom_site_label
 _atom_site_symmetry_multiplicity
 _atom_site_fract_x
 _atom_site_fract_y
 _atom_site_fract_z
 _atom_site_occupancy
  Ti  Ti0  1  0.000000  0.000000  0.000000  1
  Co  Co1  1  0.500000  0.000000  0.500000  1
  Co  Co2  1  0.500000  0.500000  0.000000  1
  Co  Co3  1  0.000000  0.500000  0.500000  1
  O  O4  1  0.280745  0.761134  0.761134  1
  O  O5  1  0.761134  0.761134  0.280745  1
  O  O6  1  0.761134  0.280745  0.761134  1
  O  O7  1  0.267356  0.267356  0.267356  1
  O  O8  1  0.732644  0.732644  0.732644  1
  O  O9  1  0.238866  0.719255  0.238866  1
  O  O10  1  0.238866  0.238866  0.719255  1
  O  O11  1  0.719255  0.238866  0.238866  1
