# generated using pymatgen
data_V3O5F3
_symmetry_space_group_name_H-M   'P 1'
_cell_length_a   7.26717328
_cell_length_b   7.26717328
_cell_length_c   5.01579642
_cell_angle_alpha   89.63834934
_cell_angle_beta   90.36165066
_cell_angle_gamma   77.35621988
_symmetry_Int_Tables_number   1
_chemical_formula_structural   V3O5F3
_chemical_formula_sum   'V6 O10 F6'
_cell_volume   258.45637438
_cell_formula_units_Z   2
loop_
 _symmetry_equiv_pos_site_id
 _symmetry_equiv_pos_as_xyz
  1  'x, y, z'
loop_
 _atom_site_type_symbol
 _atom_site_label
 _atom_site_symmetry_multiplicity
 _atom_site_fract_x
 _atom_site_fract_y
 _atom_site_fract_z
 _atom_site_occupancy
  V  V0  1  0.828913  0.348839  0.277596  1
  V  V1  1  0.680704  0.679088  0.763907  1
  V  V2  1  0.651161  0.171087  0.777596  1
  V  V3  1  0.330815  0.828931  0.210329  1
  V  V4  1  0.320912  0.319296  0.263907  1
  V  V5  1  0.171069  0.669185  0.710329  1
  O  O6  1  0.939341  0.672938  0.642113  1
  O  O7  1  0.786011  0.549983  0.080983  1
  O  O8  1  0.673086  0.936417  0.863608  1
  O  O9  1  0.705472  0.431003  0.591553  1
  O  O10  1  0.568997  0.294528  0.091553  1
  O  O11  1  0.429843  0.695438  0.891113  1
  O  O12  1  0.450017  0.213989  0.580983  1
  O  O13  1  0.304562  0.570157  0.391113  1
  O  O14  1  0.327062  0.060659  0.142113  1
  O  O15  1  0.063583  0.326914  0.363608  1
  F  F16  1  0.896268  0.187525  0.959710  1
  F  F17  1  0.812475  0.103732  0.459710  1
  F  F18  1  0.569185  0.785892  0.421269  1
  F  F19  1  0.186640  0.905540  0.545427  1
  F  F20  1  0.214108  0.430815  0.921269  1
  F  F21  1  0.094460  0.813360  0.045427  1
