# generated using pymatgen
data_Fe5(OF4)2
_symmetry_space_group_name_H-M   'P 1'
_cell_length_a   4.80366143
_cell_length_b   5.80071749
_cell_length_c   13.54452587
_cell_angle_alpha   78.84273114
_cell_angle_beta   89.14657689
_cell_angle_gamma   88.86104968
_symmetry_Int_Tables_number   1
_chemical_formula_structural   Fe5(OF4)2
_chemical_formula_sum   'Fe10 O4 F16'
_cell_volume   370.18405825
_cell_formula_units_Z   2
loop_
 _symmetry_equiv_pos_site_id
 _symmetry_equiv_pos_as_xyz
  1  'x, y, z'
loop_
 _atom_site_type_symbol
 _atom_site_label
 _atom_site_symmetry_multiplicity
 _atom_site_fract_x
 _atom_site_fract_y
 _atom_site_fract_z
 _atom_site_occupancy
  Fe  Fe0  1  0.480657  0.502050  0.989823  1
  Fe  Fe1  1  0.527045  0.289976  0.597322  1
  Fe  Fe2  1  0.489847  0.887547  0.802759  1
  Fe  Fe3  1  0.509821  0.692727  0.395718  1
  Fe  Fe4  1  0.510471  0.095014  0.197689  1
  Fe  Fe5  1  0.998005  0.813479  0.594348  1
  Fe  Fe6  1  0.963620  0.618601  0.204973  1
  Fe  Fe7  1  0.021139  0.407185  0.802461  1
  Fe  Fe8  1  0.972239  0.218975  0.402174  1
  Fe  Fe9  1  0.989394  0.993519  0.009639  1
  O  O10  1  0.804888  0.904451  0.146460  1
  O  O11  1  0.809101  0.509342  0.338616  1
  O  O12  1  0.803275  0.133741  0.534622  1
  O  O13  1  0.307903  0.578439  0.868261  1
  F  F14  1  0.810057  0.724097  0.735885  1
  F  F15  1  0.792390  0.316383  0.942070  1
  F  F16  1  0.703180  0.802453  0.946203  1
  F  F17  1  0.685137  0.609157  0.545527  1
  F  F18  1  0.707743  0.022583  0.343520  1
  F  F19  1  0.703398  0.427411  0.130880  1
  F  F20  1  0.693737  0.226391  0.734483  1
  F  F21  1  0.314972  0.997751  0.654730  1
  F  F22  1  0.289747  0.772623  0.259467  1
  F  F23  1  0.305523  0.196366  0.054549  1
  F  F24  1  0.298167  0.371261  0.465863  1
  F  F25  1  0.187184  0.077672  0.861582  1
  F  F26  1  0.207284  0.659405  0.071539  1
  F  F27  1  0.201451  0.896909  0.452547  1
  F  F28  1  0.215003  0.477253  0.652815  1
  F  F29  1  0.197623  0.277238  0.263475  1
