# generated using pymatgen
data_Li5Mn6(BO3)6
_symmetry_space_group_name_H-M   'P 1'
_cell_length_a   5.21508109
_cell_length_b   6.20539795
_cell_length_c   12.01104985
_cell_angle_alpha   84.79472246
_cell_angle_beta   78.48244515
_cell_angle_gamma   87.20282353
_symmetry_Int_Tables_number   1
_chemical_formula_structural   Li5Mn6(BO3)6
_chemical_formula_sum   'Li5 Mn6 B6 O18'
_cell_volume   379.11218124
_cell_formula_units_Z   1
loop_
 _symmetry_equiv_pos_site_id
 _symmetry_equiv_pos_as_xyz
  1  'x, y, z'
loop_
 _atom_site_type_symbol
 _atom_site_label
 _atom_site_symmetry_multiplicity
 _atom_site_fract_x
 _atom_site_fract_y
 _atom_site_fract_z
 _atom_site_occupancy
  Li  Li0  1  0.042400  0.418065  0.100278  1
  Li  Li1  1  0.361505  0.772374  0.423772  1
  Li  Li2  1  0.630572  0.251785  0.564059  1
  Li  Li3  1  0.966781  0.577629  0.898939  1
  Li  Li4  1  0.697807  0.087121  0.768128  1
  Mn  Mn5  1  0.597470  0.246803  0.002853  1
  Mn  Mn6  1  0.938614  0.577838  0.329973  1
  Mn  Mn7  1  0.261447  0.913389  0.667986  1
  Mn  Mn8  1  0.738934  0.084908  0.326823  1
  Mn  Mn9  1  0.065736  0.430179  0.665375  1
  Mn  Mn10  1  0.403026  0.763011  0.004849  1
  B  B11  1  0.844610  0.833937  0.112393  1
  B  B12  1  0.486888  0.479299  0.223975  1
  B  B13  1  0.823293  0.817932  0.551181  1
  B  B14  1  0.184204  0.199031  0.444725  1
  B  B15  1  0.508917  0.518742  0.781552  1
  B  B16  1  0.151834  0.146085  0.888883  1
  O  O17  1  0.617196  0.936466  0.090706  1
  O  O18  1  0.003801  0.719342  0.030612  1
  O  O19  1  0.403625  0.460624  0.121797  1
  O  O20  1  0.903681  0.843640  0.220932  1
  O  O21  1  0.332493  0.571166  0.313884  1
  O  O22  1  0.743766  0.403227  0.231422  1
  O  O23  1  0.073737  0.740903  0.562841  1
  O  O24  1  0.733595  0.779850  0.452736  1
  O  O25  1  0.673312  0.939001  0.633158  1
  O  O26  1  0.332053  0.078808  0.365416  1
  O  O27  1  0.261438  0.226047  0.547675  1
  O  O28  1  0.931171  0.285210  0.429169  1
  O  O29  1  0.259480  0.598932  0.769284  1
  O  O30  1  0.656720  0.398630  0.698892  1
  O  O31  1  0.056497  0.109993  0.792149  1
  O  O32  1  0.600453  0.554564  0.879841  1
  O  O33  1  0.009603  0.269513  0.971064  1
  O  O34  1  0.402112  0.064949  0.900188  1
