# generated using pymatgen
data_TaFeO4
_symmetry_space_group_name_H-M   'P 1'
_cell_length_a   5.07204807
_cell_length_b   5.70307142
_cell_length_c   6.91170106
_cell_angle_alpha   90.00000000
_cell_angle_beta   137.29650285
_cell_angle_gamma   90.00000000
_symmetry_Int_Tables_number   1
_chemical_formula_structural   TaFeO4
_chemical_formula_sum   'Ta2 Fe2 O8'
_cell_volume   135.59316594
_cell_formula_units_Z   2
loop_
 _symmetry_equiv_pos_site_id
 _symmetry_equiv_pos_as_xyz
  1  'x, y, z'
loop_
 _atom_site_type_symbol
 _atom_site_label
 _atom_site_symmetry_multiplicity
 _atom_site_fract_x
 _atom_site_fract_y
 _atom_site_fract_z
 _atom_site_occupancy
  Ta  Ta0  1  0.250000  0.174777  0.000000  1
  Ta  Ta1  1  0.750000  0.825223  0.000000  1
  Fe  Fe2  1  0.750000  0.661085  0.500000  1
  Fe  Fe3  1  0.250000  0.338915  0.500000  1
  O  O4  1  0.354231  0.381749  0.268811  1
  O  O5  1  0.801816  0.114600  0.223864  1
  O  O6  1  0.854231  0.618251  0.268811  1
  O  O7  1  0.301816  0.885400  0.223864  1
  O  O8  1  0.698184  0.114600  0.776136  1
  O  O9  1  0.145769  0.381749  0.731189  1
  O  O10  1  0.198184  0.885400  0.776136  1
  O  O11  1  0.645769  0.618251  0.731189  1
