# generated using pymatgen
data_Fe2OF3
_symmetry_space_group_name_H-M   'P 1'
_cell_length_a   4.83951662
_cell_length_b   4.83951662
_cell_length_c   12.44821539
_cell_angle_alpha   90.00000000
_cell_angle_beta   90.00000000
_cell_angle_gamma   91.94272907
_symmetry_Int_Tables_number   1
_chemical_formula_structural   Fe2OF3
_chemical_formula_sum   'Fe8 O4 F12'
_cell_volume   291.38109250
_cell_formula_units_Z   4
loop_
 _symmetry_equiv_pos_site_id
 _symmetry_equiv_pos_as_xyz
  1  'x, y, z'
loop_
 _atom_site_type_symbol
 _atom_site_label
 _atom_site_symmetry_multiplicity
 _atom_site_fract_x
 _atom_site_fract_y
 _atom_site_fract_z
 _atom_site_occupancy
  Fe  Fe0  1  0.978385  0.978385  0.624974  1
  Fe  Fe1  1  0.978385  0.978385  0.875026  1
  Fe  Fe2  1  0.021615  0.021615  0.124974  1
  Fe  Fe3  1  0.021615  0.021615  0.375026  1
  Fe  Fe4  1  0.475420  0.475420  0.250000  1
  Fe  Fe5  1  0.524580  0.524580  0.750000  1
  Fe  Fe6  1  0.500000  0.500000  0.500000  1
  Fe  Fe7  1  0.500000  0.500000  0.000000  1
  O  O8  1  0.319949  0.319949  0.121711  1
  O  O9  1  0.319949  0.319949  0.378289  1
  O  O10  1  0.680051  0.680051  0.621711  1
  O  O11  1  0.680051  0.680051  0.878289  1
  F  F12  1  0.785452  0.203666  0.750000  1
  F  F13  1  0.792026  0.207974  0.000000  1
  F  F14  1  0.796334  0.214548  0.250000  1
  F  F15  1  0.792026  0.207974  0.500000  1
  F  F16  1  0.294853  0.294853  0.627496  1
  F  F17  1  0.294853  0.294853  0.872504  1
  F  F18  1  0.705147  0.705147  0.127496  1
  F  F19  1  0.705147  0.705147  0.372504  1
  F  F20  1  0.207974  0.792026  0.000000  1
  F  F21  1  0.214548  0.796334  0.250000  1
  F  F22  1  0.203666  0.785452  0.750000  1
  F  F23  1  0.207974  0.792026  0.500000  1
