# generated using pymatgen
data_Li2V3P9O28
_symmetry_space_group_name_H-M   'P 1'
_cell_length_a   7.06421565
_cell_length_b   9.16352669
_cell_length_c   9.28587857
_cell_angle_alpha   111.47544969
_cell_angle_beta   109.82197255
_cell_angle_gamma   98.87795344
_symmetry_Int_Tables_number   1
_chemical_formula_structural   Li2V3P9O28
_chemical_formula_sum   'Li2 V3 P9 O28'
_cell_volume   498.89622256
_cell_formula_units_Z   1
loop_
 _symmetry_equiv_pos_site_id
 _symmetry_equiv_pos_as_xyz
  1  'x, y, z'
loop_
 _atom_site_type_symbol
 _atom_site_label
 _atom_site_symmetry_multiplicity
 _atom_site_fract_x
 _atom_site_fract_y
 _atom_site_fract_z
 _atom_site_occupancy
  Li  Li0  1  0.206241  0.953753  0.722057  1
  Li  Li1  1  0.793759  0.046247  0.277943  1
  V  V2  1  0.000000  0.500000  0.500000  1
  V  V3  1  0.259655  0.015954  0.255956  1
  V  V4  1  0.740345  0.984046  0.744044  1
  P  P5  1  0.287506  0.763538  0.432886  1
  P  P6  1  0.808850  0.754574  0.953921  1
  P  P7  1  0.653367  0.677927  0.392099  1
  P  P8  1  0.190675  0.702062  0.919705  1
  P  P9  1  0.500000  0.500000  0.000000  1
  P  P10  1  0.346633  0.322073  0.607901  1
  P  P11  1  0.809325  0.297938  0.080295  1
  P  P12  1  0.712494  0.236462  0.567114  1
  P  P13  1  0.191150  0.245426  0.046079  1
  O  O14  1  0.418742  0.902800  0.618203  1
  O  O15  1  0.918026  0.908950  0.128373  1
  O  O16  1  0.320617  0.877951  0.054367  1
  O  O17  1  0.786274  0.856352  0.522649  1
  O  O18  1  0.735949  0.794027  0.803560  1
  O  O19  1  0.240095  0.824616  0.298402  1
  O  O20  1  0.616125  0.660294  0.206684  1
  O  O21  1  0.137437  0.692145  0.742447  1
  O  O22  1  0.615244  0.629720  0.936743  1
  O  O23  1  0.086315  0.661381  0.416769  1
  O  O24  1  0.422967  0.642038  0.390156  1
  O  O25  1  0.969132  0.650363  0.933615  1
  O  O26  1  0.279848  0.564377  0.951898  1
  O  O27  1  0.726125  0.544572  0.429794  1
  O  O28  1  0.720152  0.435623  0.048102  1
  O  O29  1  0.273875  0.455428  0.570206  1
  O  O30  1  0.577033  0.357962  0.609844  1
  O  O31  1  0.030868  0.349637  0.066385  1
  O  O32  1  0.384756  0.370280  0.063257  1
  O  O33  1  0.913685  0.338619  0.583231  1
  O  O34  1  0.383875  0.339706  0.793316  1
  O  O35  1  0.862563  0.307855  0.257553  1
  O  O36  1  0.264051  0.205973  0.196440  1
  O  O37  1  0.759905  0.175384  0.701598  1
  O  O38  1  0.679383  0.122049  0.945633  1
  O  O39  1  0.213726  0.143648  0.477351  1
  O  O40  1  0.581258  0.097200  0.381797  1
  O  O41  1  0.081974  0.091050  0.871627  1
