# generated using pymatgen
data_Li3P3WO11
_symmetry_space_group_name_H-M   'P 1'
_cell_length_a   6.41301031
_cell_length_b   8.15485615
_cell_length_c   8.22695025
_cell_angle_alpha   109.12297450
_cell_angle_beta   96.16533814
_cell_angle_gamma   99.47426445
_symmetry_Int_Tables_number   1
_chemical_formula_structural   Li3P3WO11
_chemical_formula_sum   'Li6 P6 W2 O22'
_cell_volume   394.90625303
_cell_formula_units_Z   2
loop_
 _symmetry_equiv_pos_site_id
 _symmetry_equiv_pos_as_xyz
  1  'x, y, z'
loop_
 _atom_site_type_symbol
 _atom_site_label
 _atom_site_symmetry_multiplicity
 _atom_site_fract_x
 _atom_site_fract_y
 _atom_site_fract_z
 _atom_site_occupancy
  Li  Li0  1  0.615814  0.991127  0.824365  1
  Li  Li1  1  0.409840  0.178733  0.573941  1
  Li  Li2  1  0.711684  0.473888  0.962033  1
  Li  Li3  1  0.288316  0.526112  0.037967  1
  Li  Li4  1  0.590160  0.821267  0.426059  1
  Li  Li5  1  0.384186  0.008873  0.175635  1
  P  P6  1  0.882174  0.228926  0.618847  1
  P  P7  1  0.140414  0.114386  0.859748  1
  P  P8  1  0.621245  0.414285  0.288189  1
  P  P9  1  0.378755  0.585715  0.711811  1
  P  P10  1  0.859586  0.885614  0.140252  1
  P  P11  1  0.117826  0.771074  0.381153  1
  W  W12  1  0.906026  0.680755  0.725243  1
  W  W13  1  0.093974  0.319245  0.274757  1
  O  O14  1  0.686317  0.092760  0.617481  1
  O  O15  1  0.360317  0.076981  0.873117  1
  O  O16  1  0.914867  0.219696  0.437531  1
  O  O17  1  0.099152  0.172538  0.689617  1
  O  O18  1  0.877540  0.415223  0.745072  1
  O  O19  1  0.054681  0.038374  0.168403  1
  O  O20  1  0.425778  0.271438  0.293613  1
  O  O21  1  0.773418  0.315643  0.173656  1
  O  O22  1  0.456575  0.458110  0.794746  1
  O  O23  1  0.747038  0.516334  0.474511  1
  O  O24  1  0.884332  0.718872  0.988747  1
  O  O25  1  0.115668  0.281128  0.011253  1
  O  O26  1  0.252962  0.483666  0.525489  1
  O  O27  1  0.543425  0.541890  0.205254  1
  O  O28  1  0.226582  0.684357  0.826344  1
  O  O29  1  0.574222  0.728562  0.706387  1
  O  O30  1  0.945319  0.961626  0.831597  1
  O  O31  1  0.122460  0.584777  0.254928  1
  O  O32  1  0.900848  0.827462  0.310383  1
  O  O33  1  0.085133  0.780304  0.562469  1
  O  O34  1  0.639683  0.923019  0.126883  1
  O  O35  1  0.313683  0.907240  0.382519  1
