# generated using pymatgen
data_Fe5P3O13
_symmetry_space_group_name_H-M   'P 1'
_cell_length_a   8.54820927
_cell_length_b   6.32142332
_cell_length_c   9.84760340
_cell_angle_alpha   90.00000000
_cell_angle_beta   94.79263422
_cell_angle_gamma   90.00000000
_symmetry_Int_Tables_number   1
_chemical_formula_structural   Fe5P3O13
_chemical_formula_sum   'Fe10 P6 O26'
_cell_volume   530.27291508
_cell_formula_units_Z   2
loop_
 _symmetry_equiv_pos_site_id
 _symmetry_equiv_pos_as_xyz
  1  'x, y, z'
loop_
 _atom_site_type_symbol
 _atom_site_label
 _atom_site_symmetry_multiplicity
 _atom_site_fract_x
 _atom_site_fract_y
 _atom_site_fract_z
 _atom_site_occupancy
  Fe  Fe0  1  0.885910  0.999394  0.233651  1
  Fe  Fe1  1  0.154179  0.250000  0.091136  1
  Fe  Fe2  1  0.232352  0.250000  0.442190  1
  Fe  Fe3  1  0.414433  0.250000  0.883767  1
  Fe  Fe4  1  0.885910  0.500606  0.233651  1
  Fe  Fe5  1  0.114090  0.499394  0.766349  1
  Fe  Fe6  1  0.585567  0.750000  0.116233  1
  Fe  Fe7  1  0.767648  0.750000  0.557810  1
  Fe  Fe8  1  0.845821  0.750000  0.908864  1
  Fe  Fe9  1  0.114090  0.000606  0.766349  1
  P  P10  1  0.521699  0.250000  0.222069  1
  P  P11  1  0.889910  0.250000  0.519731  1
  P  P12  1  0.818408  0.250000  0.916222  1
  P  P13  1  0.181592  0.750000  0.083778  1
  P  P14  1  0.110090  0.750000  0.480269  1
  P  P15  1  0.478301  0.750000  0.777931  1
  O  O16  1  0.624918  0.046429  0.214538  1
  O  O17  1  0.791712  0.054294  0.538167  1
  O  O18  1  0.882521  0.047733  0.849221  1
  O  O19  1  0.881094  0.250000  0.070638  1
  O  O20  1  0.949230  0.250000  0.368569  1
  O  O21  1  0.405056  0.250000  0.089284  1
  O  O22  1  0.431293  0.250000  0.347890  1
  O  O23  1  0.191569  0.250000  0.888679  1
  O  O24  1  0.047265  0.250000  0.616382  1
  O  O25  1  0.638046  0.250000  0.899467  1
  O  O26  1  0.791712  0.445706  0.538167  1
  O  O27  1  0.624918  0.453571  0.214538  1
  O  O28  1  0.882521  0.452267  0.849221  1
  O  O29  1  0.117479  0.547733  0.150779  1
  O  O30  1  0.375082  0.546429  0.785462  1
  O  O31  1  0.208288  0.554294  0.461833  1
  O  O32  1  0.361954  0.750000  0.100533  1
  O  O33  1  0.952735  0.750000  0.383618  1
  O  O34  1  0.808431  0.750000  0.111321  1
  O  O35  1  0.568707  0.750000  0.652110  1
  O  O36  1  0.594944  0.750000  0.910716  1
  O  O37  1  0.050770  0.750000  0.631431  1
  O  O38  1  0.118906  0.750000  0.929362  1
  O  O39  1  0.117479  0.952267  0.150779  1
  O  O40  1  0.208288  0.945706  0.461833  1
  O  O41  1  0.375082  0.953571  0.785462  1
