# generated using pymatgen
data_TiFe3Ni2(PO4)6
_symmetry_space_group_name_H-M   'P 1'
_cell_length_a   8.48515693
_cell_length_b   8.48515693
_cell_length_c   8.48515693
_cell_angle_alpha   61.06575636
_cell_angle_beta   61.06575636
_cell_angle_gamma   61.06575636
_symmetry_Int_Tables_number   1
_chemical_formula_structural   TiFe3Ni2(PO4)6
_chemical_formula_sum   'Ti1 Fe3 Ni2 P6 O24'
_cell_volume   442.34651649
_cell_formula_units_Z   1
loop_
 _symmetry_equiv_pos_site_id
 _symmetry_equiv_pos_as_xyz
  1  'x, y, z'
loop_
 _atom_site_type_symbol
 _atom_site_label
 _atom_site_symmetry_multiplicity
 _atom_site_fract_x
 _atom_site_fract_y
 _atom_site_fract_z
 _atom_site_occupancy
  Ti  Ti0  1  0.144810  0.144810  0.144810  1
  Fe  Fe1  1  0.854921  0.854921  0.854921  1
  Fe  Fe2  1  0.643764  0.643764  0.643764  1
  Fe  Fe3  1  0.356050  0.356050  0.356050  1
  Ni  Ni4  1  0.999161  0.999161  0.999161  1
  Ni  Ni5  1  0.499313  0.499313  0.499313  1
  P  P6  1  0.250468  0.547593  0.954094  1
  P  P7  1  0.954094  0.250468  0.547593  1
  P  P8  1  0.547593  0.954094  0.250468  1
  P  P9  1  0.749125  0.454372  0.046189  1
  P  P10  1  0.454372  0.046189  0.749125  1
  P  P11  1  0.046189  0.749125  0.454372  1
  O  O12  1  0.889846  0.682361  0.492739  1
  O  O13  1  0.682361  0.492739  0.889846  1
  O  O14  1  0.939479  0.091364  0.744604  1
  O  O15  1  0.492739  0.889846  0.682361  1
  O  O16  1  0.007344  0.177742  0.385363  1
  O  O17  1  0.756014  0.406817  0.555230  1
  O  O18  1  0.744604  0.939479  0.091364  1
  O  O19  1  0.555230  0.756014  0.406817  1
  O  O20  1  0.819296  0.609214  0.004945  1
  O  O21  1  0.406817  0.555230  0.756014  1
  O  O22  1  0.909998  0.253806  0.063214  1
  O  O23  1  0.609214  0.004945  0.819296  1
  O  O24  1  0.385363  0.007344  0.177742  1
  O  O25  1  0.091364  0.744604  0.939479  1
  O  O26  1  0.592717  0.437261  0.246292  1
  O  O27  1  0.177742  0.385363  0.007344  1
  O  O28  1  0.437261  0.246292  0.592717  1
  O  O29  1  0.253806  0.063214  0.909998  1
  O  O30  1  0.246292  0.592717  0.437261  1
  O  O31  1  0.004945  0.819296  0.609214  1
  O  O32  1  0.504791  0.109006  0.320697  1
  O  O33  1  0.063214  0.909998  0.253806  1
  O  O34  1  0.320697  0.504791  0.109006  1
  O  O35  1  0.109006  0.320697  0.504791  1
