# generated using pymatgen
data_Li2U(WO5)2
_symmetry_space_group_name_H-M   'P 1'
_cell_length_a   7.63243865
_cell_length_b   7.81124348
_cell_length_c   12.94894775
_cell_angle_alpha   90.00000000
_cell_angle_beta   90.00000000
_cell_angle_gamma   90.00000000
_symmetry_Int_Tables_number   1
_chemical_formula_structural   Li2U(WO5)2
_chemical_formula_sum   'Li8 U4 W8 O40'
_cell_volume   772.00120062
_cell_formula_units_Z   4
loop_
 _symmetry_equiv_pos_site_id
 _symmetry_equiv_pos_as_xyz
  1  'x, y, z'
loop_
 _atom_site_type_symbol
 _atom_site_label
 _atom_site_symmetry_multiplicity
 _atom_site_fract_x
 _atom_site_fract_y
 _atom_site_fract_z
 _atom_site_occupancy
  Li  Li0  1  0.000000  0.500000  0.238360  1
  Li  Li1  1  0.500000  0.500000  0.258508  1
  Li  Li2  1  0.749332  0.690627  0.256096  1
  Li  Li3  1  0.249332  0.809373  0.743904  1
  Li  Li4  1  0.000000  0.000000  0.741492  1
  Li  Li5  1  0.500000  0.000000  0.761640  1
  Li  Li6  1  0.750668  0.190627  0.743904  1
  Li  Li7  1  0.250668  0.309373  0.256096  1
  U  U8  1  0.000000  0.500000  0.769975  1
  U  U9  1  0.500000  0.500000  0.730261  1
  U  U10  1  0.000000  0.000000  0.269739  1
  U  U11  1  0.500000  0.000000  0.230025  1
  W  W12  1  0.250697  0.517561  0.491995  1
  W  W13  1  0.750313  0.522929  0.007525  1
  W  W14  1  0.250313  0.977071  0.992475  1
  W  W15  1  0.750697  0.982439  0.508005  1
  W  W16  1  0.749687  0.022929  0.992475  1
  W  W17  1  0.249303  0.017561  0.508005  1
  W  W18  1  0.249687  0.477071  0.007525  1
  W  W19  1  0.749303  0.482439  0.491995  1
  O  O20  1  0.000000  0.500000  0.962456  1
  O  O21  1  0.500000  0.500000  0.021013  1
  O  O22  1  0.000000  0.500000  0.478607  1
  O  O23  1  0.500000  0.500000  0.538482  1
  O  O24  1  0.719664  0.498359  0.848146  1
  O  O25  1  0.219060  0.510012  0.651341  1
  O  O26  1  0.798874  0.525600  0.144202  1
  O  O27  1  0.300249  0.486154  0.356621  1
  O  O28  1  0.009519  0.739206  0.772058  1
  O  O29  1  0.491022  0.739244  0.727135  1
  O  O30  1  0.246428  0.739772  0.006947  1
  O  O31  1  0.753070  0.745988  0.506892  1
  O  O32  1  0.746428  0.760228  0.993053  1
  O  O33  1  0.253070  0.754012  0.493108  1
  O  O34  1  0.991022  0.760756  0.272865  1
  O  O35  1  0.509519  0.760794  0.227942  1
  O  O36  1  0.298874  0.974400  0.855798  1
  O  O37  1  0.800249  0.013846  0.643379  1
  O  O38  1  0.219664  0.001641  0.151854  1
  O  O39  1  0.719060  0.989988  0.348659  1
  O  O40  1  0.000000  0.000000  0.978987  1
  O  O41  1  0.000000  0.000000  0.461518  1
  O  O42  1  0.500000  0.000000  0.521393  1
  O  O43  1  0.500000  0.000000  0.037544  1
  O  O44  1  0.780336  0.998359  0.151854  1
  O  O45  1  0.280940  0.010012  0.348659  1
  O  O46  1  0.701126  0.025600  0.855798  1
  O  O47  1  0.199751  0.986154  0.643379  1
  O  O48  1  0.490481  0.239206  0.227942  1
  O  O49  1  0.008978  0.239244  0.272865  1
  O  O50  1  0.253572  0.239772  0.993053  1
  O  O51  1  0.746930  0.245988  0.493108  1
  O  O52  1  0.753572  0.260228  0.006947  1
  O  O53  1  0.246930  0.254012  0.506892  1
  O  O54  1  0.990481  0.260794  0.772058  1
  O  O55  1  0.508978  0.260756  0.727135  1
  O  O56  1  0.201126  0.474400  0.144202  1
  O  O57  1  0.699751  0.513846  0.356621  1
  O  O58  1  0.280336  0.501641  0.848146  1
  O  O59  1  0.780940  0.489988  0.651341  1
