# generated using pymatgen
data_Li8CrS6
_symmetry_space_group_name_H-M   'P 1'
_cell_length_a   6.85176225
_cell_length_b   6.85176225
_cell_length_c   13.37079905
_cell_angle_alpha   90.00000000
_cell_angle_beta   90.00000000
_cell_angle_gamma   120.00000000
_symmetry_Int_Tables_number   1
_chemical_formula_structural   Li8CrS6
_chemical_formula_sum   'Li16 Cr2 S12'
_cell_volume   543.61641621
_cell_formula_units_Z   2
loop_
 _symmetry_equiv_pos_site_id
 _symmetry_equiv_pos_as_xyz
  1  'x, y, z'
loop_
 _atom_site_type_symbol
 _atom_site_label
 _atom_site_symmetry_multiplicity
 _atom_site_fract_x
 _atom_site_fract_y
 _atom_site_fract_z
 _atom_site_occupancy
  Li  Li0  1  0.000000  0.685452  0.765712  1
  Li  Li1  1  0.000000  0.621037  0.130157  1
  Li  Li2  1  0.000000  0.378963  0.630157  1
  Li  Li3  1  0.000000  0.314548  0.265712  1
  Li  Li4  1  0.333333  0.666667  0.402900  1
  Li  Li5  1  0.333333  0.666667  0.902900  1
  Li  Li6  1  0.314548  0.314548  0.765712  1
  Li  Li7  1  0.378963  0.378963  0.130157  1
  Li  Li8  1  0.621037  0.621037  0.630157  1
  Li  Li9  1  0.314548  0.000000  0.265712  1
  Li  Li10  1  0.685452  0.685452  0.265712  1
  Li  Li11  1  0.378963  0.000000  0.630157  1
  Li  Li12  1  0.666667  0.333333  0.902900  1
  Li  Li13  1  0.666667  0.333333  0.402900  1
  Li  Li14  1  0.621037  0.000000  0.130157  1
  Li  Li15  1  0.685452  0.000000  0.765712  1
  Cr  Cr16  1  0.000000  0.000000  0.998585  1
  Cr  Cr17  1  0.000000  0.000000  0.498585  1
  S  S18  1  0.000000  0.695202  0.950736  1
  S  S19  1  0.000000  0.304798  0.450736  1
  S  S20  1  0.333333  0.666667  0.217866  1
  S  S21  1  0.000000  0.000000  0.165784  1
  S  S22  1  0.000000  0.000000  0.665784  1
  S  S23  1  0.333333  0.666667  0.717866  1
  S  S24  1  0.304798  0.304798  0.950736  1
  S  S25  1  0.304798  0.000000  0.450736  1
  S  S26  1  0.695202  0.695202  0.450736  1
  S  S27  1  0.666667  0.333333  0.717866  1
  S  S28  1  0.666667  0.333333  0.217866  1
  S  S29  1  0.695202  0.000000  0.950736  1
