# generated using pymatgen
data_LiCuPO4
_symmetry_space_group_name_H-M   'P 1'
_cell_length_a   9.98333221
_cell_length_b   9.98333221
_cell_length_c   16.38568857
_cell_angle_alpha   82.19299067
_cell_angle_beta   97.80700933
_cell_angle_gamma   120.86290288
_symmetry_Int_Tables_number   1
_chemical_formula_structural   LiCuPO4
_chemical_formula_sum   'Li16 Cu16 P16 O64'
_cell_volume   1384.65616429
_cell_formula_units_Z   16
loop_
 _symmetry_equiv_pos_site_id
 _symmetry_equiv_pos_as_xyz
  1  'x, y, z'
loop_
 _atom_site_type_symbol
 _atom_site_label
 _atom_site_symmetry_multiplicity
 _atom_site_fract_x
 _atom_site_fract_y
 _atom_site_fract_z
 _atom_site_occupancy
  Li  Li0  1  0.882641  0.729857  0.872699  1
  Li  Li1  1  0.444520  0.229097  0.873899  1
  Li  Li2  1  0.270143  0.117359  0.372699  1
  Li  Li3  1  0.770903  0.555480  0.373899  1
  Li  Li4  1  0.003466  0.675186  0.622737  1
  Li  Li5  1  0.508905  0.117316  0.621230  1
  Li  Li6  1  0.324814  0.996534  0.122737  1
  Li  Li7  1  0.882684  0.491095  0.121230  1
  Li  Li8  1  0.380084  0.727180  0.873673  1
  Li  Li9  1  0.943118  0.229512  0.871936  1
  Li  Li10  1  0.272820  0.619916  0.373673  1
  Li  Li11  1  0.770488  0.056882  0.371936  1
  Li  Li12  1  0.005366  0.173482  0.621361  1
  Li  Li13  1  0.505357  0.617871  0.621254  1
  Li  Li14  1  0.826518  0.994634  0.121361  1
  Li  Li15  1  0.382129  0.494643  0.121254  1
  Cu  Cu16  1  0.196330  0.184902  0.997934  1
  Cu  Cu17  1  0.815098  0.803670  0.497934  1
  Cu  Cu18  1  0.699708  0.420675  0.747977  1
  Cu  Cu19  1  0.253528  0.923723  0.751163  1
  Cu  Cu20  1  0.141968  0.686017  0.999596  1
  Cu  Cu21  1  0.579325  0.300292  0.247977  1
  Cu  Cu22  1  0.698404  0.185160  0.997419  1
  Cu  Cu23  1  0.076277  0.746472  0.251163  1
  Cu  Cu24  1  0.313983  0.858032  0.499596  1
  Cu  Cu25  1  0.814840  0.301596  0.497419  1
  Cu  Cu26  1  0.201499  0.427434  0.748082  1
  Cu  Cu27  1  0.752880  0.917695  0.749721  1
  Cu  Cu28  1  0.640313  0.684166  0.998573  1
  Cu  Cu29  1  0.572566  0.798501  0.248082  1
  Cu  Cu30  1  0.082305  0.247120  0.249721  1
  Cu  Cu31  1  0.315834  0.359687  0.498573  1
  P  P32  1  0.100513  0.085991  0.808401  1
  P  P33  1  0.914009  0.899487  0.308401  1
  P  P34  1  0.166273  0.016647  0.559682  1
  P  P35  1  0.664601  0.458330  0.559229  1
  P  P36  1  0.983353  0.833727  0.059682  1
  P  P37  1  0.541670  0.335399  0.059229  1
  P  P38  1  0.044376  0.583843  0.810086  1
  P  P39  1  0.600465  0.082986  0.808059  1
  P  P40  1  0.416157  0.955624  0.310086  1
  P  P41  1  0.917014  0.399535  0.308059  1
  P  P42  1  0.165816  0.517367  0.560520  1
  P  P43  1  0.663384  0.957600  0.558246  1
  P  P44  1  0.482633  0.834184  0.060520  1
  P  P45  1  0.042400  0.336616  0.058246  1
  P  P46  1  0.546686  0.582619  0.809749  1
  P  P47  1  0.417381  0.453314  0.309749  1
  O  O48  1  0.662319  0.661263  0.884583  1
  O  O49  1  0.953750  0.922417  0.796772  1
  O  O50  1  0.529603  0.422193  0.799551  1
  O  O51  1  0.421276  0.256718  0.985590  1
  O  O52  1  0.338737  0.337681  0.384583  1
  O  O53  1  0.506898  0.443224  0.573895  1
  O  O54  1  0.989668  0.764730  0.981950  1
  O  O55  1  0.249084  0.070031  0.818030  1
  O  O56  1  0.077583  0.046250  0.296772  1
  O  O57  1  0.003296  0.867427  0.572583  1
  O  O58  1  0.577807  0.470397  0.299551  1
  O  O59  1  0.743282  0.578724  0.485590  1
  O  O60  1  0.556776  0.493102  0.073895  1
  O  O61  1  0.776971  0.519356  0.638307  1
  O  O62  1  0.278886  0.020668  0.635559  1
  O  O63  1  0.881026  0.557814  0.822403  1
  O  O64  1  0.235270  0.010332  0.481950  1
  O  O65  1  0.929969  0.750916  0.318030  1
  O  O66  1  0.132573  0.996704  0.072583  1
  O  O67  1  0.635931  0.296522  0.541601  1
  O  O68  1  0.598475  0.157688  0.884635  1
  O  O69  1  0.113691  0.700225  0.733088  1
  O  O70  1  0.604812  0.194738  0.730936  1
  O  O71  1  0.480644  0.223029  0.138307  1
  O  O72  1  0.979332  0.721114  0.135559  1
  O  O73  1  0.442186  0.118974  0.322403  1
  O  O74  1  0.158964  0.657265  0.885980  1
  O  O75  1  0.450463  0.920676  0.798526  1
  O  O76  1  0.143572  0.661456  0.550577  1
  O  O77  1  0.703478  0.364069  0.041601  1
  O  O78  1  0.842312  0.401525  0.384635  1
  O  O79  1  0.299775  0.886309  0.233088  1
  O  O80  1  0.805262  0.395188  0.230936  1
  O  O81  1  0.028447  0.424628  0.797521  1
  O  O82  1  0.923122  0.259050  0.983991  1
  O  O83  1  0.342735  0.841036  0.385980  1
  O  O84  1  0.506304  0.941929  0.573697  1
  O  O85  1  0.485853  0.760968  0.983708  1
  O  O86  1  0.746622  0.062873  0.817786  1
  O  O87  1  0.079324  0.549537  0.298526  1
  O  O88  1  0.338544  0.856428  0.050577  1
  O  O89  1  0.004136  0.366155  0.572554  1
  O  O90  1  0.575372  0.971553  0.297521  1
  O  O91  1  0.740950  0.076878  0.483991  1
  O  O92  1  0.058071  0.493696  0.073697  1
  O  O93  1  0.277967  0.522678  0.637603  1
  O  O94  1  0.777618  0.020640  0.636176  1
  O  O95  1  0.239032  0.514147  0.483708  1
  O  O96  1  0.384457  0.559246  0.822705  1
  O  O97  1  0.937127  0.253378  0.317786  1
  O  O98  1  0.633845  0.995864  0.072554  1
  O  O99  1  0.634290  0.795057  0.540878  1
  O  O100  1  0.094422  0.155180  0.886172  1
  O  O101  1  0.104002  0.200711  0.733220  1
  O  O102  1  0.614487  0.693277  0.730647  1
  O  O103  1  0.477322  0.722033  0.137603  1
  O  O104  1  0.979360  0.222382  0.136176  1
  O  O105  1  0.440754  0.615543  0.322705  1
  O  O106  1  0.204943  0.365710  0.040878  1
  O  O107  1  0.147428  0.162764  0.550042  1
  O  O108  1  0.844820  0.905578  0.386172  1
  O  O109  1  0.799289  0.895998  0.233220  1
  O  O110  1  0.306723  0.385513  0.230647  1
  O  O111  1  0.837236  0.852572  0.050042  1
