# generated using pymatgen
data_K3Nb7O19
_symmetry_space_group_name_H-M   'P 1'
_cell_length_a   6.56703682
_cell_length_b   10.11337299
_cell_length_c   14.39054092
_cell_angle_alpha   97.35805611
_cell_angle_beta   95.69439715
_cell_angle_gamma   106.51733698
_symmetry_Int_Tables_number   1
_chemical_formula_structural   K3Nb7O19
_chemical_formula_sum   'K6 Nb14 O38'
_cell_volume   899.46736491
_cell_formula_units_Z   2
loop_
 _symmetry_equiv_pos_site_id
 _symmetry_equiv_pos_as_xyz
  1  'x, y, z'
loop_
 _atom_site_type_symbol
 _atom_site_label
 _atom_site_symmetry_multiplicity
 _atom_site_fract_x
 _atom_site_fract_y
 _atom_site_fract_z
 _atom_site_occupancy
  K  K0  1  0.006250  0.823661  0.904349  1
  K  K1  1  0.588552  0.408819  0.789542  1
  K  K2  1  0.358494  0.023527  0.634175  1
  K  K3  1  0.641506  0.976473  0.365825  1
  K  K4  1  0.411448  0.591181  0.210458  1
  K  K5  1  0.993750  0.176339  0.095651  1
  Nb  Nb6  1  0.220847  0.528265  0.963281  1
  Nb  Nb7  1  0.564451  0.091151  0.889061  1
  Nb  Nb8  1  0.003386  0.155047  0.812093  1
  Nb  Nb9  1  0.380382  0.706462  0.740816  1
  Nb  Nb10  1  0.170870  0.316535  0.580522  1
  Nb  Nb11  1  0.842222  0.780419  0.652156  1
  Nb  Nb12  1  0.366594  0.621452  0.505229  1
  Nb  Nb13  1  0.633406  0.378548  0.494771  1
  Nb  Nb14  1  0.157778  0.219581  0.347844  1
  Nb  Nb15  1  0.829130  0.683465  0.419478  1
  Nb  Nb16  1  0.619618  0.293538  0.259184  1
  Nb  Nb17  1  0.996614  0.844953  0.187907  1
  Nb  Nb18  1  0.435549  0.908849  0.110939  1
  Nb  Nb19  1  0.779153  0.471735  0.036719  1
  O  O20  1  0.500000  0.500000  0.000000  1
  O  O21  1  0.674377  0.276024  0.969266  1
  O  O22  1  0.500000  0.000000  0.000000  1
  O  O23  1  0.880706  0.064606  0.910580  1
  O  O24  1  0.127347  0.340241  0.878890  1
  O  O25  1  0.912948  0.547749  0.933145  1
  O  O26  1  0.298450  0.114180  0.840990  1
  O  O27  1  0.286966  0.604805  0.836336  1
  O  O28  1  0.711817  0.165753  0.777721  1
  O  O29  1  0.464997  0.890991  0.805676  1
  O  O30  1  0.107657  0.234427  0.685979  1
  O  O31  1  0.673085  0.685477  0.746549  1
  O  O32  1  0.092863  0.729691  0.685302  1
  O  O33  1  0.931373  0.961609  0.718823  1
  O  O34  1  0.286873  0.525584  0.626302  1
  O  O35  1  0.478047  0.307586  0.594957  1
  O  O36  1  0.503599  0.782543  0.606247  1
  O  O37  1  0.891220  0.352003  0.539714  1
  O  O38  1  0.689243  0.583985  0.545562  1
  O  O39  1  0.094169  0.162758  0.474199  1
  O  O40  1  0.905831  0.837242  0.525801  1
  O  O41  1  0.310757  0.416015  0.454438  1
  O  O42  1  0.108780  0.647997  0.460286  1
  O  O43  1  0.496401  0.217457  0.393753  1
  O  O44  1  0.521953  0.692414  0.405043  1
  O  O45  1  0.713127  0.474416  0.373698  1
  O  O46  1  0.068627  0.038391  0.281177  1
  O  O47  1  0.907137  0.270309  0.314698  1
  O  O48  1  0.326915  0.314523  0.253451  1
  O  O49  1  0.892343  0.765573  0.314021  1
  O  O50  1  0.535003  0.109009  0.194324  1
  O  O51  1  0.288183  0.834247  0.222279  1
  O  O52  1  0.713034  0.395195  0.163664  1
  O  O53  1  0.701550  0.885820  0.159010  1
  O  O54  1  0.087052  0.452251  0.066855  1
  O  O55  1  0.872653  0.659759  0.121110  1
  O  O56  1  0.119294  0.935394  0.089420  1
  O  O57  1  0.325623  0.723976  0.030734  1
