# generated using pymatgen
data_Li3Mg2Fe19O32
_symmetry_space_group_name_H-M   'P 1'
_cell_length_a   5.99556300
_cell_length_b   5.99556300
_cell_length_c   19.97600892
_cell_angle_alpha   81.70479165
_cell_angle_beta   98.29520835
_cell_angle_gamma   119.50435854
_symmetry_Int_Tables_number   1
_chemical_formula_structural   Li3Mg2Fe19O32
_chemical_formula_sum   'Li3 Mg2 Fe19 O32'
_cell_volume   616.17466437
_cell_formula_units_Z   1
loop_
 _symmetry_equiv_pos_site_id
 _symmetry_equiv_pos_as_xyz
  1  'x, y, z'
loop_
 _atom_site_type_symbol
 _atom_site_label
 _atom_site_symmetry_multiplicity
 _atom_site_fract_x
 _atom_site_fract_y
 _atom_site_fract_z
 _atom_site_occupancy
  Li  Li0  1  0.870704  0.129296  0.623499  1
  Li  Li1  1  0.123269  0.876731  0.375419  1
  Li  Li2  1  0.373398  0.626602  0.126465  1
  Mg  Mg3  1  0.157782  0.842218  0.972796  1
  Mg  Mg4  1  0.398971  0.601029  0.714813  1
  Fe  Fe5  1  0.622664  0.377336  0.874382  1
  Fe  Fe6  1  0.498711  0.501289  0.000753  1
  Fe  Fe7  1  0.093138  0.906862  0.777118  1
  Fe  Fe8  1  0.128383  0.375369  0.874327  1
  Fe  Fe9  1  0.624631  0.871617  0.874327  1
  Fe  Fe10  1  0.749475  0.250525  0.742556  1
  Fe  Fe11  1  0.349288  0.650712  0.529446  1
  Fe  Fe12  1  0.624006  0.877293  0.375255  1
  Fe  Fe13  1  0.375695  0.127240  0.623458  1
  Fe  Fe14  1  0.872760  0.624305  0.623458  1
  Fe  Fe15  1  0.122707  0.375994  0.375255  1
  Fe  Fe16  1  0.646343  0.353657  0.468340  1
  Fe  Fe17  1  0.997430  0.002570  0.500016  1
  Fe  Fe18  1  0.250453  0.749547  0.251133  1
  Fe  Fe19  1  0.599522  0.400478  0.279668  1
  Fe  Fe20  1  0.880242  0.627189  0.126362  1
  Fe  Fe21  1  0.372811  0.119758  0.126362  1
  Fe  Fe22  1  0.899266  0.100734  0.221731  1
  Fe  Fe23  1  0.849965  0.150035  0.032408  1
  O  O24  1  0.325741  0.214512  0.933893  1
  O  O25  1  0.785488  0.674259  0.933893  1
  O  O26  1  0.438622  0.561378  0.818422  1
  O  O27  1  0.324897  0.675103  0.934253  1
  O  O28  1  0.570342  0.429658  0.683440  1
  O  O29  1  0.062261  0.937739  0.681839  1
  O  O30  1  0.927786  0.072214  0.814234  1
  O  O31  1  0.812000  0.188000  0.930866  1
  O  O32  1  0.184899  0.294747  0.562180  1
  O  O33  1  0.926882  0.542194  0.815289  1
  O  O34  1  0.705253  0.815101  0.562180  1
  O  O35  1  0.457806  0.073118  0.815289  1
  O  O36  1  0.029511  0.438205  0.685963  1
  O  O37  1  0.561795  0.970489  0.685963  1
  O  O38  1  0.817171  0.182829  0.435268  1
  O  O39  1  0.680969  0.319031  0.565201  1
  O  O40  1  0.314835  0.685165  0.431805  1
  O  O41  1  0.178958  0.821042  0.563126  1
  O  O42  1  0.434484  0.042725  0.312498  1
  O  O43  1  0.957275  0.565516  0.312498  1
  O  O44  1  0.063517  0.456980  0.188364  1
  O  O45  1  0.814177  0.713268  0.436696  1
  O  O46  1  0.543020  0.936483  0.188364  1
  O  O47  1  0.286732  0.185823  0.436696  1
  O  O48  1  0.182921  0.817079  0.072357  1
  O  O49  1  0.931927  0.068073  0.318579  1
  O  O50  1  0.068425  0.931575  0.187416  1
  O  O51  1  0.566226  0.433774  0.181737  1
  O  O52  1  0.429923  0.570077  0.314227  1
  O  O53  1  0.680244  0.319756  0.063400  1
  O  O54  1  0.207768  0.313783  0.060635  1
  O  O55  1  0.686217  0.792232  0.060635  1
