# generated using pymatgen
data_Li3(FeO2)4
_symmetry_space_group_name_H-M   'P 1'
_cell_length_a   5.88193323
_cell_length_b   5.88193323
_cell_length_c   5.82526595
_cell_angle_alpha   61.06499997
_cell_angle_beta   118.93500003
_cell_angle_gamma   87.64380733
_symmetry_Int_Tables_number   1
_chemical_formula_structural   Li3(FeO2)4
_chemical_formula_sum   'Li3 Fe4 O8'
_cell_volume   144.05424411
_cell_formula_units_Z   1
loop_
 _symmetry_equiv_pos_site_id
 _symmetry_equiv_pos_as_xyz
  1  'x, y, z'
loop_
 _atom_site_type_symbol
 _atom_site_label
 _atom_site_symmetry_multiplicity
 _atom_site_fract_x
 _atom_site_fract_y
 _atom_site_fract_z
 _atom_site_occupancy
  Li  Li0  1  0.500000  0.500000  0.500000  1
  Li  Li1  1  1.000000  0.500000  0.500000  1
  Li  Li2  1  0.500000  0.000000  0.500000  1
  Fe  Fe3  1  0.500000  0.000000  0.000000  1
  Fe  Fe4  1  1.000000  0.500000  0.000000  1
  Fe  Fe5  1  0.500000  0.500000  0.000000  1
  Fe  Fe6  1  0.000000  0.000000  0.500000  1
  O  O7  1  0.244285  0.244285  0.500000  1
  O  O8  1  0.260519  0.739481  0.997436  1
  O  O9  1  0.732157  0.732157  0.000000  1
  O  O10  1  0.729867  0.270133  0.446288  1
  O  O11  1  0.270133  0.729867  0.553712  1
  O  O12  1  0.267843  0.267843  0.000000  1
  O  O13  1  0.739481  0.260519  0.002564  1
  O  O14  1  0.755715  0.755715  0.500000  1
