# generated using pymatgen
data_Mn2Co5O12
_symmetry_space_group_name_H-M   'P 1'
_cell_length_a   4.91033494
_cell_length_b   4.91033494
_cell_length_c   9.64720169
_cell_angle_alpha   84.09040857
_cell_angle_beta   95.90959143
_cell_angle_gamma   59.96407117
_symmetry_Int_Tables_number   1
_chemical_formula_structural   Mn2Co5O12
_chemical_formula_sum   'Mn2 Co5 O12'
_cell_volume   197.05069876
_cell_formula_units_Z   1
loop_
 _symmetry_equiv_pos_site_id
 _symmetry_equiv_pos_as_xyz
  1  'x, y, z'
loop_
 _atom_site_type_symbol
 _atom_site_label
 _atom_site_symmetry_multiplicity
 _atom_site_fract_x
 _atom_site_fract_y
 _atom_site_fract_z
 _atom_site_occupancy
  Mn  Mn0  1  0.767952  0.767952  0.500000  1
  Mn  Mn1  1  0.248237  0.248237  0.000000  1
  Co  Co2  1  0.913670  0.913670  0.000000  1
  Co  Co3  1  0.981804  0.459609  0.270434  1
  Co  Co4  1  0.459609  0.981804  0.729566  1
  Co  Co5  1  0.577567  0.577567  0.000000  1
  Co  Co6  1  0.427179  0.427179  0.500000  1
  O  O7  1  0.050213  0.755449  0.378766  1
  O  O8  1  0.755449  0.050213  0.621234  1
  O  O9  1  0.852311  0.639754  0.892444  1
  O  O10  1  0.639754  0.852311  0.107556  1
  O  O11  1  0.710300  0.485806  0.389474  1
  O  O12  1  0.485806  0.710300  0.610526  1
  O  O13  1  0.537255  0.276719  0.893437  1
  O  O14  1  0.276719  0.537255  0.106563  1
  O  O15  1  0.404481  0.159553  0.390710  1
  O  O16  1  0.159553  0.404481  0.609290  1
  O  O17  1  0.217783  0.955780  0.889642  1
  O  O18  1  0.955780  0.217783  0.110358  1
