# generated using pymatgen
data_Li5Fe8(BO3)8
_symmetry_space_group_name_H-M   'P 1'
_cell_length_a   5.22009549
_cell_length_b   9.08148344
_cell_length_c   10.25588668
_cell_angle_alpha   89.01411715
_cell_angle_beta   89.23996526
_cell_angle_gamma   89.82965781
_symmetry_Int_Tables_number   1
_chemical_formula_structural   Li5Fe8(BO3)8
_chemical_formula_sum   'Li5 Fe8 B8 O24'
_cell_volume   486.07615106
_cell_formula_units_Z   1
loop_
 _symmetry_equiv_pos_site_id
 _symmetry_equiv_pos_as_xyz
  1  'x, y, z'
loop_
 _atom_site_type_symbol
 _atom_site_label
 _atom_site_symmetry_multiplicity
 _atom_site_fract_x
 _atom_site_fract_y
 _atom_site_fract_z
 _atom_site_occupancy
  Li  Li0  1  0.146683  0.170076  0.661716  1
  Li  Li1  1  0.187045  0.166246  0.169921  1
  Li  Li2  1  0.322657  0.334890  0.408857  1
  Li  Li3  1  0.337046  0.322097  0.915233  1
  Li  Li4  1  0.681929  0.667865  0.154986  1
  Fe  Fe5  1  0.167944  0.830088  0.630985  1
  Fe  Fe6  1  0.181436  0.503239  0.136300  1
  Fe  Fe7  1  0.318654  0.987255  0.880070  1
  Fe  Fe8  1  0.337840  0.666716  0.382183  1
  Fe  Fe9  1  0.655023  0.347517  0.625770  1
  Fe  Fe10  1  0.670164  0.005469  0.127688  1
  Fe  Fe11  1  0.828831  0.151114  0.389178  1
  Fe  Fe12  1  0.837303  0.505069  0.874680  1
  B  B13  1  0.153691  0.497556  0.626274  1
  B  B14  1  0.165590  0.838904  0.129690  1
  B  B15  1  0.337109  0.000200  0.377479  1
  B  B16  1  0.339623  0.657550  0.875399  1
  B  B17  1  0.671259  0.001441  0.636205  1
  B  B18  1  0.676223  0.329423  0.120253  1
  B  B19  1  0.828833  0.488744  0.366739  1
  B  B20  1  0.825154  0.175077  0.883093  1
  O  O21  1  0.093528  0.483515  0.340611  1
  O  O22  1  0.087821  0.169855  0.863890  1
  O  O23  1  0.214369  0.781339  0.828066  1
  O  O24  1  0.232208  0.876592  0.437130  1
  O  O25  1  0.206536  0.133329  0.368220  1
  O  O26  1  0.199593  0.531014  0.913607  1
  O  O27  1  0.275990  0.363878  0.607919  1
  O  O28  1  0.299407  0.968041  0.093767  1
  O  O29  1  0.266674  0.628336  0.585676  1
  O  O30  1  0.300983  0.712784  0.162057  1
  O  O31  1  0.411465  0.322586  0.115106  1
  O  O32  1  0.405418  0.001307  0.666353  1
  O  O33  1  0.581398  0.995536  0.320473  1
  O  O34  1  0.598218  0.655691  0.891457  1
  O  O35  1  0.688743  0.304506  0.848932  1
  O  O36  1  0.704612  0.363566  0.417868  1
  O  O37  1  0.692122  0.613491  0.339190  1
  O  O38  1  0.683942  0.058668  0.934890  1
  O  O39  1  0.806478  0.457618  0.082364  1
  O  O40  1  0.816857  0.876922  0.644025  1
  O  O41  1  0.785901  0.134560  0.597471  1
  O  O42  1  0.817283  0.205493  0.160587  1
  O  O43  1  0.902995  0.842253  0.130423  1
  O  O44  1  0.910936  0.499790  0.683175  1
