# generated using pymatgen
data_Co(NiO2)4
_symmetry_space_group_name_H-M   'P 1'
_cell_length_a   5.71805643
_cell_length_b   5.71805643
_cell_length_c   5.85208810
_cell_angle_alpha   60.59269303
_cell_angle_beta   119.40730697
_cell_angle_gamma   120.20162754
_symmetry_Int_Tables_number   1
_chemical_formula_structural   Co(NiO2)4
_chemical_formula_sum   'Co1 Ni4 O8'
_cell_volume   136.28502990
_cell_formula_units_Z   1
loop_
 _symmetry_equiv_pos_site_id
 _symmetry_equiv_pos_as_xyz
  1  'x, y, z'
loop_
 _atom_site_type_symbol
 _atom_site_label
 _atom_site_symmetry_multiplicity
 _atom_site_fract_x
 _atom_site_fract_y
 _atom_site_fract_z
 _atom_site_occupancy
  Co  Co0  1  0.500000  0.500000  0.500000  1
  Ni  Ni1  1  0.000000  0.500000  0.500000  1
  Ni  Ni2  1  0.000000  0.000000  0.500000  1
  Ni  Ni3  1  0.500000  0.500000  0.000000  1
  Ni  Ni4  1  0.500000  1.000000  0.500000  1
  O  O5  1  0.289583  0.248160  0.291833  1
  O  O6  1  0.710417  0.751840  0.708167  1
  O  O7  1  0.733442  0.266558  0.696778  1
  O  O8  1  0.266558  0.733442  0.303222  1
  O  O9  1  0.749603  0.250397  0.289994  1
  O  O10  1  0.250397  0.749603  0.710006  1
  O  O11  1  0.751840  0.710417  0.291833  1
  O  O12  1  0.248160  0.289583  0.708167  1
