# generated using pymatgen
data_CaPbI4
_symmetry_space_group_name_H-M   'P 1'
_cell_length_a   8.04029875
_cell_length_b   14.60372058
_cell_length_c   9.45473197
_cell_angle_alpha   90.00000000
_cell_angle_beta   90.84677628
_cell_angle_gamma   90.00000000
_symmetry_Int_Tables_number   1
_chemical_formula_structural   CaPbI4
_chemical_formula_sum   'Ca4 Pb4 I16'
_cell_volume   1110.03709337
_cell_formula_units_Z   4
loop_
 _symmetry_equiv_pos_site_id
 _symmetry_equiv_pos_as_xyz
  1  'x, y, z'
loop_
 _atom_site_type_symbol
 _atom_site_label
 _atom_site_symmetry_multiplicity
 _atom_site_fract_x
 _atom_site_fract_y
 _atom_site_fract_z
 _atom_site_occupancy
  Ca  Ca0  1  0.403055  0.127110  0.364265  1
  Ca  Ca1  1  0.403055  0.372890  0.864265  1
  Ca  Ca2  1  0.596945  0.627110  0.135735  1
  Ca  Ca3  1  0.596945  0.872890  0.635735  1
  Pb  Pb4  1  0.108899  0.863430  0.350859  1
  Pb  Pb5  1  0.108899  0.636570  0.850859  1
  Pb  Pb6  1  0.891101  0.363430  0.149141  1
  Pb  Pb7  1  0.891101  0.136570  0.649141  1
  I  I8  1  0.093473  0.253388  0.392765  1
  I  I9  1  0.261086  0.503969  0.105999  1
  I  I10  1  0.430425  0.741558  0.392966  1
  I  I11  1  0.093473  0.246612  0.892765  1
  I  I12  1  0.262065  0.997669  0.137696  1
  I  I13  1  0.261086  0.996031  0.605999  1
  I  I14  1  0.430425  0.758442  0.892966  1
  I  I15  1  0.262065  0.502331  0.637696  1
  I  I16  1  0.737935  0.497669  0.362304  1
  I  I17  1  0.569575  0.241558  0.107034  1
  I  I18  1  0.738914  0.003969  0.394001  1
  I  I19  1  0.737935  0.002331  0.862304  1
  I  I20  1  0.906527  0.753388  0.107235  1
  I  I21  1  0.569575  0.258442  0.607034  1
  I  I22  1  0.738914  0.496031  0.894001  1
  I  I23  1  0.906527  0.746612  0.607235  1
