# generated using pymatgen
data_Li2Ni3TeO8
_symmetry_space_group_name_H-M   'P 1'
_cell_length_a   6.00900891
_cell_length_b   6.00900891
_cell_length_c   6.00900891
_cell_angle_alpha   58.79074968
_cell_angle_beta   58.79074968
_cell_angle_gamma   58.79074968
_symmetry_Int_Tables_number   1
_chemical_formula_structural   Li2Ni3TeO8
_chemical_formula_sum   'Li2 Ni3 Te1 O8'
_cell_volume   149.18697143
_cell_formula_units_Z   1
loop_
 _symmetry_equiv_pos_site_id
 _symmetry_equiv_pos_as_xyz
  1  'x, y, z'
loop_
 _atom_site_type_symbol
 _atom_site_label
 _atom_site_symmetry_multiplicity
 _atom_site_fract_x
 _atom_site_fract_y
 _atom_site_fract_z
 _atom_site_occupancy
  Li  Li0  1  0.865599  0.865599  0.865599  1
  Li  Li1  1  0.134401  0.134401  0.134401  1
  Ni  Ni2  1  0.500000  0.500000  0.000000  1
  Ni  Ni3  1  0.000000  0.500000  0.500000  1
  Ni  Ni4  1  0.500000  0.000000  0.500000  1
  Te  Te5  1  0.500000  0.500000  0.500000  1
  O  O6  1  0.729391  0.729391  0.729391  1
  O  O7  1  0.733035  0.275217  0.733035  1
  O  O8  1  0.275217  0.733035  0.733035  1
  O  O9  1  0.733035  0.733035  0.275217  1
  O  O10  1  0.266965  0.266965  0.724783  1
  O  O11  1  0.724783  0.266965  0.266965  1
  O  O12  1  0.266965  0.724783  0.266965  1
  O  O13  1  0.270609  0.270609  0.270609  1
