# generated using pymatgen
data_LiV3CrO8
_symmetry_space_group_name_H-M   'P 1'
_cell_length_a   5.35117995
_cell_length_b   6.03318439
_cell_length_c   10.45698696
_cell_angle_alpha   97.50076175
_cell_angle_beta   103.95809769
_cell_angle_gamma   107.34440536
_symmetry_Int_Tables_number   1
_chemical_formula_structural   LiV3CrO8
_chemical_formula_sum   'Li2 V6 Cr2 O16'
_cell_volume   305.17451092
_cell_formula_units_Z   2
loop_
 _symmetry_equiv_pos_site_id
 _symmetry_equiv_pos_as_xyz
  1  'x, y, z'
loop_
 _atom_site_type_symbol
 _atom_site_label
 _atom_site_symmetry_multiplicity
 _atom_site_fract_x
 _atom_site_fract_y
 _atom_site_fract_z
 _atom_site_occupancy
  Li  Li0  1  0.251823  0.877177  0.246938  1
  Li  Li1  1  0.745199  0.626093  0.747982  1
  V  V2  1  0.656953  0.191834  0.118457  1
  V  V3  1  0.848867  0.550447  0.380391  1
  V  V4  1  0.169947  0.946182  0.623357  1
  V  V5  1  0.330995  0.305733  0.880037  1
  V  V6  1  0.638557  0.694444  0.122273  1
  V  V7  1  0.868589  0.064750  0.381561  1
  Cr  Cr8  1  0.127500  0.437477  0.624223  1
  Cr  Cr9  1  0.364170  0.810793  0.876644  1
  O  O10  1  0.400341  0.769419  0.687005  1
  O  O11  1  0.633946  0.151280  0.942141  1
  O  O12  1  0.897419  0.534238  0.199273  1
  O  O13  1  0.136810  0.888276  0.434816  1
  O  O14  1  0.397955  0.279579  0.700162  1
  O  O15  1  0.629083  0.640004  0.938710  1
  O  O16  1  0.908447  0.019576  0.192838  1
  O  O17  1  0.116786  0.393414  0.431087  1
  O  O18  1  0.861443  0.612496  0.562065  1
  O  O19  1  0.097837  0.970361  0.800281  1
  O  O20  1  0.366415  0.352721  0.060852  1
  O  O21  1  0.599300  0.729651  0.302464  1
  O  O22  1  0.873251  0.093228  0.557167  1
  O  O23  1  0.094901  0.480549  0.812761  1
  O  O24  1  0.380454  0.865039  0.073537  1
  O  O25  1  0.603010  0.215236  0.302976  1
