# generated using pymatgen
data_Sr2CrCO3F5
_symmetry_space_group_name_H-M   'P 1'
_cell_length_a   5.59325531
_cell_length_b   8.97886550
_cell_length_c   13.85508271
_cell_angle_alpha   90.00000000
_cell_angle_beta   105.48444805
_cell_angle_gamma   90.00000000
_symmetry_Int_Tables_number   1
_chemical_formula_structural   Sr2CrCO3F5
_chemical_formula_sum   'Sr8 Cr4 C4 O12 F20'
_cell_volume   670.56120391
_cell_formula_units_Z   4
loop_
 _symmetry_equiv_pos_site_id
 _symmetry_equiv_pos_as_xyz
  1  'x, y, z'
loop_
 _atom_site_type_symbol
 _atom_site_label
 _atom_site_symmetry_multiplicity
 _atom_site_fract_x
 _atom_site_fract_y
 _atom_site_fract_z
 _atom_site_occupancy
  Sr  Sr0  1  0.691466  0.891839  0.902787  1
  Sr  Sr1  1  0.693490  0.358101  0.912141  1
  Sr  Sr2  1  0.306510  0.858101  0.587859  1
  Sr  Sr3  1  0.308534  0.391839  0.597213  1
  Sr  Sr4  1  0.691466  0.608161  0.402787  1
  Sr  Sr5  1  0.693490  0.141899  0.412141  1
  Sr  Sr6  1  0.306510  0.641899  0.087859  1
  Sr  Sr7  1  0.308534  0.108161  0.097213  1
  Cr  Cr8  1  0.196789  0.871764  0.330230  1
  Cr  Cr9  1  0.803211  0.371764  0.169770  1
  Cr  Cr10  1  0.196789  0.628236  0.830230  1
  Cr  Cr11  1  0.803211  0.128236  0.669770  1
  C  C12  1  0.178609  0.375599  0.362976  1
  C  C13  1  0.821391  0.875599  0.137024  1
  C  C14  1  0.178609  0.124401  0.862976  1
  C  C15  1  0.821391  0.624401  0.637024  1
  O  O16  1  0.410576  0.379178  0.414846  1
  O  O17  1  0.132068  0.370730  0.266259  1
  O  O18  1  0.994463  0.877039  0.090690  1
  O  O19  1  0.410576  0.120822  0.914846  1
  O  O20  1  0.005537  0.377039  0.409310  1
  O  O21  1  0.867932  0.870730  0.233741  1
  O  O22  1  0.132068  0.129270  0.766259  1
  O  O23  1  0.994463  0.622961  0.590690  1
  O  O24  1  0.589424  0.879178  0.085154  1
  O  O25  1  0.005537  0.122961  0.909310  1
  O  O26  1  0.867932  0.629270  0.733741  1
  O  O27  1  0.589424  0.620822  0.585154  1
  F  F28  1  0.669006  0.964423  0.728858  1
  F  F29  1  0.664310  0.280919  0.737057  1
  F  F30  1  0.477152  0.129160  0.566585  1
  F  F31  1  0.522848  0.629160  0.933415  1
  F  F32  1  0.918073  0.512430  0.084994  1
  F  F33  1  0.103937  0.717204  0.413352  1
  F  F34  1  0.335690  0.780919  0.762943  1
  F  F35  1  0.330994  0.464423  0.771142  1
  F  F36  1  0.896063  0.217204  0.086648  1
  F  F37  1  0.081927  0.012430  0.415006  1
  F  F38  1  0.918073  0.987570  0.584994  1
  F  F39  1  0.103937  0.782796  0.913352  1
  F  F40  1  0.669006  0.535577  0.228858  1
  F  F41  1  0.664310  0.219081  0.237057  1
  F  F42  1  0.896063  0.282796  0.586648  1
  F  F43  1  0.081927  0.487570  0.915006  1
  F  F44  1  0.477152  0.370840  0.066585  1
  F  F45  1  0.522848  0.870840  0.433415  1
  F  F46  1  0.335690  0.719081  0.262943  1
  F  F47  1  0.330994  0.035577  0.271142  1
