# generated using pymatgen
data_Li2FeBO4
_symmetry_space_group_name_H-M   'P 1'
_cell_length_a   4.76851554
_cell_length_b   8.86679764
_cell_length_c   14.28088448
_cell_angle_alpha   90.00000000
_cell_angle_beta   90.00000000
_cell_angle_gamma   90.00000000
_symmetry_Int_Tables_number   1
_chemical_formula_structural   Li2FeBO4
_chemical_formula_sum   'Li16 Fe8 B8 O32'
_cell_volume   603.81667927
_cell_formula_units_Z   8
loop_
 _symmetry_equiv_pos_site_id
 _symmetry_equiv_pos_as_xyz
  1  'x, y, z'
loop_
 _atom_site_type_symbol
 _atom_site_label
 _atom_site_symmetry_multiplicity
 _atom_site_fract_x
 _atom_site_fract_y
 _atom_site_fract_z
 _atom_site_occupancy
  Li  Li0  1  0.474319  0.003320  0.544510  1
  Li  Li1  1  0.975460  0.003737  0.934734  1
  Li  Li2  1  0.542990  0.769196  0.229453  1
  Li  Li3  1  0.025427  0.776519  0.327982  1
  Li  Li4  1  0.542990  0.730804  0.729453  1
  Li  Li5  1  0.025427  0.723481  0.827982  1
  Li  Li6  1  0.975460  0.496263  0.434734  1
  Li  Li7  1  0.474319  0.496680  0.044510  1
  Li  Li8  1  0.024540  0.503737  0.934734  1
  Li  Li9  1  0.525681  0.503320  0.544510  1
  Li  Li10  1  0.974573  0.276519  0.327982  1
  Li  Li11  1  0.457010  0.269196  0.229453  1
  Li  Li12  1  0.974573  0.223481  0.827982  1
  Li  Li13  1  0.457010  0.230804  0.729453  1
  Li  Li14  1  0.024540  0.996263  0.434734  1
  Li  Li15  1  0.525681  0.996680  0.044510  1
  Fe  Fe16  1  0.981249  0.982663  0.698649  1
  Fe  Fe17  1  0.012450  0.767865  0.056981  1
  Fe  Fe18  1  0.012450  0.732135  0.556981  1
  Fe  Fe19  1  0.981249  0.517337  0.198649  1
  Fe  Fe20  1  0.018751  0.482663  0.698649  1
  Fe  Fe21  1  0.987550  0.267865  0.056981  1
  Fe  Fe22  1  0.987550  0.232135  0.556981  1
  Fe  Fe23  1  0.018751  0.017337  0.198649  1
  B  B24  1  0.475343  0.987379  0.815062  1
  B  B25  1  0.511552  0.765087  0.422246  1
  B  B26  1  0.511552  0.734913  0.922246  1
  B  B27  1  0.475343  0.512621  0.315062  1
  B  B28  1  0.524657  0.487379  0.815062  1
  B  B29  1  0.488448  0.265087  0.422246  1
  B  B30  1  0.488448  0.234913  0.922246  1
  B  B31  1  0.524657  0.012621  0.315062  1
  O  O32  1  0.217331  0.990722  0.313211  1
  O  O33  1  0.620433  0.998880  0.214570  1
  O  O34  1  0.666909  0.891630  0.373993  1
  O  O35  1  0.131398  0.977792  0.071070  1
  O  O36  1  0.382667  0.833969  0.847698  1
  O  O37  1  0.947735  0.761568  0.689085  1
  O  O38  1  0.285836  0.830197  0.482736  1
  O  O39  1  0.708531  0.822776  0.979616  1
  O  O40  1  0.285836  0.669803  0.982736  1
  O  O41  1  0.708531  0.677224  0.479616  1
  O  O42  1  0.382667  0.666031  0.347698  1
  O  O43  1  0.947735  0.738432  0.189085  1
  O  O44  1  0.131398  0.522208  0.571070  1
  O  O45  1  0.666909  0.608370  0.873993  1
  O  O46  1  0.217331  0.509278  0.813211  1
  O  O47  1  0.620433  0.501120  0.714570  1
  O  O48  1  0.379567  0.498880  0.214570  1
  O  O49  1  0.782669  0.490722  0.313211  1
  O  O50  1  0.333091  0.391630  0.373993  1
  O  O51  1  0.868602  0.477792  0.071070  1
  O  O52  1  0.052265  0.261568  0.689085  1
  O  O53  1  0.617333  0.333969  0.847698  1
  O  O54  1  0.291469  0.322776  0.979616  1
  O  O55  1  0.714164  0.330197  0.482736  1
  O  O56  1  0.291469  0.177224  0.479616  1
  O  O57  1  0.714164  0.169803  0.982736  1
  O  O58  1  0.052265  0.238432  0.189085  1
  O  O59  1  0.617333  0.166031  0.347698  1
  O  O60  1  0.868602  0.022208  0.571070  1
  O  O61  1  0.333091  0.108370  0.873993  1
  O  O62  1  0.379567  0.001120  0.714570  1
  O  O63  1  0.782669  0.009278  0.813211  1
