# generated using pymatgen
data_LiNi5O5F
_symmetry_space_group_name_H-M   'P 1'
_cell_length_a   2.96783831
_cell_length_b   2.96783831
_cell_length_c   12.74738937
_cell_angle_alpha   90.00000000
_cell_angle_beta   90.00000000
_cell_angle_gamma   90.00000000
_symmetry_Int_Tables_number   1
_chemical_formula_structural   LiNi5O5F
_chemical_formula_sum   'Li1 Ni5 O5 F1'
_cell_volume   112.27982445
_cell_formula_units_Z   1
loop_
 _symmetry_equiv_pos_site_id
 _symmetry_equiv_pos_as_xyz
  1  'x, y, z'
loop_
 _atom_site_type_symbol
 _atom_site_label
 _atom_site_symmetry_multiplicity
 _atom_site_fract_x
 _atom_site_fract_y
 _atom_site_fract_z
 _atom_site_occupancy
  Li  Li0  1  0.500000  0.500000  0.500000  1
  Ni  Ni1  1  0.000000  0.000000  0.669800  1
  Ni  Ni2  1  0.500000  0.500000  0.833004  1
  Ni  Ni3  1  0.000000  0.000000  0.000000  1
  Ni  Ni4  1  0.500000  0.500000  0.166996  1
  Ni  Ni5  1  0.000000  0.000000  0.330200  1
  O  O6  1  0.500000  0.500000  0.666472  1
  O  O7  1  0.000000  0.000000  0.833569  1
  O  O8  1  0.500000  0.500000  0.000000  1
  O  O9  1  0.000000  0.000000  0.166431  1
  O  O10  1  0.500000  0.500000  0.333528  1
  F  F11  1  0.000000  0.000000  0.500000  1
