# generated using pymatgen
data_Ba6YBr15
_symmetry_space_group_name_H-M   'P 1'
_cell_length_a   16.61459759
_cell_length_b   12.35180670
_cell_length_c   24.96041214
_cell_angle_alpha   90.00000000
_cell_angle_beta   114.46977947
_cell_angle_gamma   90.00000000
_symmetry_Int_Tables_number   1
_chemical_formula_structural   Ba6YBr15
_chemical_formula_sum   'Ba24 Y4 Br60'
_cell_volume   4662.29010599
_cell_formula_units_Z   4
loop_
 _symmetry_equiv_pos_site_id
 _symmetry_equiv_pos_as_xyz
  1  'x, y, z'
loop_
 _atom_site_type_symbol
 _atom_site_label
 _atom_site_symmetry_multiplicity
 _atom_site_fract_x
 _atom_site_fract_y
 _atom_site_fract_z
 _atom_site_occupancy
  Ba  Ba0  1  0.132056  0.627222  0.883825  1
  Ba  Ba1  1  0.123761  0.122661  0.880588  1
  Ba  Ba2  1  0.548927  0.872045  0.942977  1
  Ba  Ba3  1  0.570922  0.372860  0.962367  1
  Ba  Ba4  1  0.900164  0.381303  0.909728  1
  Ba  Ba5  1  0.896985  0.868237  0.916196  1
  Ba  Ba6  1  0.103015  0.368237  0.583804  1
  Ba  Ba7  1  0.099836  0.881303  0.590272  1
  Ba  Ba8  1  0.429078  0.872860  0.537633  1
  Ba  Ba9  1  0.451073  0.372045  0.557023  1
  Ba  Ba10  1  0.876239  0.622661  0.619412  1
  Ba  Ba11  1  0.867944  0.127222  0.616175  1
  Ba  Ba12  1  0.132056  0.872778  0.383825  1
  Ba  Ba13  1  0.123761  0.377339  0.380588  1
  Ba  Ba14  1  0.548927  0.627955  0.442977  1
  Ba  Ba15  1  0.570922  0.127140  0.462367  1
  Ba  Ba16  1  0.900164  0.118697  0.409728  1
  Ba  Ba17  1  0.896985  0.631763  0.416196  1
  Ba  Ba18  1  0.103015  0.131763  0.083804  1
  Ba  Ba19  1  0.099836  0.618697  0.090272  1
  Ba  Ba20  1  0.429078  0.627140  0.037633  1
  Ba  Ba21  1  0.451073  0.127955  0.057023  1
  Ba  Ba22  1  0.876239  0.877339  0.119412  1
  Ba  Ba23  1  0.867944  0.372778  0.116175  1
  Y  Y24  1  0.367519  0.127372  0.780416  1
  Y  Y25  1  0.632481  0.627372  0.719584  1
  Y  Y26  1  0.367519  0.372628  0.280416  1
  Y  Y27  1  0.632481  0.872628  0.219584  1
  Br  Br28  1  0.594253  0.631574  0.999965  1
  Br  Br29  1  0.066162  0.875202  0.884195  1
  Br  Br30  1  0.076259  0.374365  0.885824  1
  Br  Br31  1  0.582292  0.114180  0.993202  1
  Br  Br32  1  0.768391  0.368971  0.972210  1
  Br  Br33  1  0.759417  0.882734  0.976709  1
  Br  Br34  1  0.314935  0.116679  0.869746  1
  Br  Br35  1  0.328188  0.641297  0.895756  1
  Br  Br36  1  0.006900  0.126898  0.747102  1
  Br  Br37  1  0.496980  0.969591  0.814352  1
  Br  Br38  1  0.495312  0.283949  0.826923  1
  Br  Br39  1  0.972828  0.625400  0.944602  1
  Br  Br40  1  0.964948  0.124537  0.936191  1
  Br  Br41  1  0.737744  0.469103  0.796014  1
  Br  Br42  1  0.728205  0.781660  0.802912  1
  Br  Br43  1  0.271795  0.281660  0.697088  1
  Br  Br44  1  0.262256  0.969103  0.703986  1
  Br  Br45  1  0.035052  0.624537  0.563809  1
  Br  Br46  1  0.027172  0.125400  0.555398  1
  Br  Br47  1  0.504688  0.783949  0.673077  1
  Br  Br48  1  0.503020  0.469591  0.685648  1
  Br  Br49  1  0.993100  0.626898  0.752898  1
  Br  Br50  1  0.671812  0.141297  0.604244  1
  Br  Br51  1  0.685065  0.616679  0.630254  1
  Br  Br52  1  0.240583  0.382734  0.523291  1
  Br  Br53  1  0.231609  0.868971  0.527790  1
  Br  Br54  1  0.417708  0.614180  0.506798  1
  Br  Br55  1  0.923741  0.874365  0.614176  1
  Br  Br56  1  0.933838  0.375202  0.615805  1
  Br  Br57  1  0.405747  0.131574  0.500035  1
  Br  Br58  1  0.594253  0.868426  0.499965  1
  Br  Br59  1  0.066162  0.624798  0.384195  1
  Br  Br60  1  0.076259  0.125635  0.385824  1
  Br  Br61  1  0.582292  0.385820  0.493202  1
  Br  Br62  1  0.768391  0.131029  0.472210  1
  Br  Br63  1  0.759417  0.617266  0.476709  1
  Br  Br64  1  0.314935  0.383321  0.369746  1
  Br  Br65  1  0.328188  0.858703  0.395756  1
  Br  Br66  1  0.006900  0.373102  0.247102  1
  Br  Br67  1  0.496980  0.530409  0.314352  1
  Br  Br68  1  0.495312  0.216051  0.326923  1
  Br  Br69  1  0.972828  0.874600  0.444602  1
  Br  Br70  1  0.964948  0.375463  0.436191  1
  Br  Br71  1  0.737744  0.030897  0.296014  1
  Br  Br72  1  0.728205  0.718340  0.302912  1
  Br  Br73  1  0.271795  0.218340  0.197088  1
  Br  Br74  1  0.262256  0.530897  0.203986  1
  Br  Br75  1  0.035052  0.875463  0.063809  1
  Br  Br76  1  0.027172  0.374600  0.055398  1
  Br  Br77  1  0.504688  0.716051  0.173077  1
  Br  Br78  1  0.503020  0.030409  0.185648  1
  Br  Br79  1  0.993100  0.873102  0.252898  1
  Br  Br80  1  0.671812  0.358703  0.104244  1
  Br  Br81  1  0.685065  0.883321  0.130254  1
  Br  Br82  1  0.240583  0.117266  0.023291  1
  Br  Br83  1  0.231609  0.631029  0.027790  1
  Br  Br84  1  0.417708  0.885820  0.006798  1
  Br  Br85  1  0.923741  0.625635  0.114176  1
  Br  Br86  1  0.933838  0.124798  0.115805  1
  Br  Br87  1  0.405747  0.368426  0.000035  1
