# generated using pymatgen
data_Ti3FeSn2(PO4)6
_symmetry_space_group_name_H-M   'P 1'
_cell_length_a   9.15808303
_cell_length_b   9.15808303
_cell_length_c   9.15808303
_cell_angle_alpha   56.40601538
_cell_angle_beta   56.40601538
_cell_angle_gamma   56.40601538
_symmetry_Int_Tables_number   1
_chemical_formula_structural   Ti3FeSn2(PO4)6
_chemical_formula_sum   'Ti3 Fe1 Sn2 P6 O24'
_cell_volume   497.98651383
_cell_formula_units_Z   1
loop_
 _symmetry_equiv_pos_site_id
 _symmetry_equiv_pos_as_xyz
  1  'x, y, z'
loop_
 _atom_site_type_symbol
 _atom_site_label
 _atom_site_symmetry_multiplicity
 _atom_site_fract_x
 _atom_site_fract_y
 _atom_site_fract_z
 _atom_site_occupancy
  Ti  Ti0  1  0.855510  0.855510  0.855510  1
  Ti  Ti1  1  0.647307  0.647307  0.647307  1
  Ti  Ti2  1  0.343350  0.343350  0.343350  1
  Fe  Fe3  1  0.153174  0.153174  0.153174  1
  Sn  Sn4  1  0.017470  0.017470  0.017470  1
  Sn  Sn5  1  0.485554  0.485554  0.485554  1
  P  P6  1  0.471526  0.036910  0.742265  1
  P  P7  1  0.036910  0.742265  0.471526  1
  P  P8  1  0.742265  0.471526  0.036910  1
  P  P9  1  0.250559  0.540147  0.953674  1
  P  P10  1  0.953674  0.250559  0.540147  1
  P  P11  1  0.540147  0.953674  0.250559  1
  O  O12  1  0.695379  0.511654  0.878970  1
  O  O13  1  0.511654  0.878970  0.695379  1
  O  O14  1  0.068212  0.714306  0.941048  1
  O  O15  1  0.878970  0.695379  0.511654  1
  O  O16  1  0.248047  0.372782  0.960296  1
  O  O17  1  0.416069  0.596991  0.781495  1
  O  O18  1  0.941048  0.068212  0.714306  1
  O  O19  1  0.781495  0.416069  0.596991  1
  O  O20  1  0.633475  0.006506  0.778596  1
  O  O21  1  0.596991  0.781495  0.416069  1
  O  O22  1  0.286516  0.057278  0.913886  1
  O  O23  1  0.006506  0.778596  0.633475  1
  O  O24  1  0.960296  0.248047  0.372782  1
  O  O25  1  0.714306  0.941048  0.068212  1
  O  O26  1  0.444933  0.222407  0.566558  1
  O  O27  1  0.372782  0.960296  0.248047  1
  O  O28  1  0.222407  0.566558  0.444933  1
  O  O29  1  0.057278  0.913886  0.286516  1
  O  O30  1  0.566558  0.444933  0.222407  1
  O  O31  1  0.778596  0.633475  0.006506  1
  O  O32  1  0.132942  0.273434  0.500775  1
  O  O33  1  0.913886  0.286516  0.057278  1
  O  O34  1  0.500775  0.132942  0.273434  1
  O  O35  1  0.273434  0.500775  0.132942  1
