# generated using pymatgen
data_Li3Cu5O8
_symmetry_space_group_name_H-M   'P 1'
_cell_length_a   5.88255630
_cell_length_b   5.88255630
_cell_length_c   5.88255630
_cell_angle_alpha   59.97270022
_cell_angle_beta   59.97270022
_cell_angle_gamma   59.97270022
_symmetry_Int_Tables_number   1
_chemical_formula_structural   Li3Cu5O8
_chemical_formula_sum   'Li3 Cu5 O8'
_cell_volume   143.85148228
_cell_formula_units_Z   1
loop_
 _symmetry_equiv_pos_site_id
 _symmetry_equiv_pos_as_xyz
  1  'x, y, z'
loop_
 _atom_site_type_symbol
 _atom_site_label
 _atom_site_symmetry_multiplicity
 _atom_site_fract_x
 _atom_site_fract_y
 _atom_site_fract_z
 _atom_site_occupancy
  Li  Li0  1  0.500000  0.000000  0.000000  1
  Li  Li1  1  1.000000  0.000000  0.500000  1
  Li  Li2  1  0.000000  0.500000  0.000000  1
  Cu  Cu3  1  0.500000  0.500000  0.500000  1
  Cu  Cu4  1  0.000000  0.000000  0.000000  1
  Cu  Cu5  1  0.500000  0.000000  0.500000  1
  Cu  Cu6  1  0.000000  0.500000  0.500000  1
  Cu  Cu7  1  0.500000  0.500000  0.000000  1
  O  O8  1  0.743163  0.743163  0.743163  1
  O  O9  1  0.250024  0.738204  0.250024  1
  O  O10  1  0.738204  0.250024  0.250024  1
  O  O11  1  0.250024  0.250024  0.738204  1
  O  O12  1  0.749976  0.749976  0.261796  1
  O  O13  1  0.261796  0.749976  0.749976  1
  O  O14  1  0.749976  0.261796  0.749976  1
  O  O15  1  0.256837  0.256837  0.256837  1
