# generated using pymatgen
data_CoOF
_symmetry_space_group_name_H-M   'P 1'
_cell_length_a   4.48037251
_cell_length_b   4.48037251
_cell_length_c   6.08598290
_cell_angle_alpha   90.00000000
_cell_angle_beta   90.00000000
_cell_angle_gamma   90.00000000
_symmetry_Int_Tables_number   1
_chemical_formula_structural   CoOF
_chemical_formula_sum   'Co4 O4 F4'
_cell_volume   122.16842512
_cell_formula_units_Z   4
loop_
 _symmetry_equiv_pos_site_id
 _symmetry_equiv_pos_as_xyz
  1  'x, y, z'
loop_
 _atom_site_type_symbol
 _atom_site_label
 _atom_site_symmetry_multiplicity
 _atom_site_fract_x
 _atom_site_fract_y
 _atom_site_fract_z
 _atom_site_occupancy
  Co  Co0  1  0.471936  0.471936  0.000000  1
  Co  Co1  1  0.528064  0.528064  0.500000  1
  Co  Co2  1  0.028064  0.971936  0.250000  1
  Co  Co3  1  0.971936  0.028064  0.750000  1
  O  O4  1  0.680043  0.319957  0.750000  1
  O  O5  1  0.819957  0.819957  0.500000  1
  O  O6  1  0.180043  0.180043  0.000000  1
  O  O7  1  0.319957  0.680043  0.250000  1
  F  F8  1  0.721670  0.278330  0.250000  1
  F  F9  1  0.778330  0.778330  0.000000  1
  F  F10  1  0.221670  0.221670  0.500000  1
  F  F11  1  0.278330  0.721670  0.750000  1
