# generated using pymatgen
data_CrOF4
_symmetry_space_group_name_H-M   'P 1'
_cell_length_a   9.98284416
_cell_length_b   9.98284416
_cell_length_c   15.11727771
_cell_angle_alpha   67.51858344
_cell_angle_beta   112.48141656
_cell_angle_gamma   146.43534863
_symmetry_Int_Tables_number   1
_chemical_formula_structural   CrOF4
_chemical_formula_sum   'Cr8 O8 F32'
_cell_volume   763.61750667
_cell_formula_units_Z   8
loop_
 _symmetry_equiv_pos_site_id
 _symmetry_equiv_pos_as_xyz
  1  'x, y, z'
loop_
 _atom_site_type_symbol
 _atom_site_label
 _atom_site_symmetry_multiplicity
 _atom_site_fract_x
 _atom_site_fract_y
 _atom_site_fract_z
 _atom_site_occupancy
  Cr  Cr0  1  0.467795  0.688548  0.822619  1
  Cr  Cr1  1  0.053174  0.782050  0.392555  1
  Cr  Cr2  1  0.688548  0.467795  0.677381  1
  Cr  Cr3  1  0.217950  0.946826  0.892555  1
  Cr  Cr4  1  0.782050  0.053174  0.107445  1
  Cr  Cr5  1  0.311452  0.532205  0.322619  1
  Cr  Cr6  1  0.946826  0.217950  0.607445  1
  Cr  Cr7  1  0.532205  0.311452  0.177381  1
  O  O8  1  0.255914  0.515154  0.882347  1
  O  O9  1  0.275309  0.931817  0.473315  1
  O  O10  1  0.515154  0.255914  0.617653  1
  O  O11  1  0.068183  0.724691  0.973315  1
  O  O12  1  0.931817  0.275309  0.026685  1
  O  O13  1  0.484846  0.744086  0.382347  1
  O  O14  1  0.724691  0.068183  0.526685  1
  O  O15  1  0.744086  0.484846  0.117653  1
  F  F16  1  0.708501  0.967262  0.869515  1
  F  F17  1  0.913940  0.324862  0.654451  1
  F  F18  1  0.422070  0.816455  0.722815  1
  F  F19  1  0.818595  0.486253  0.453352  1
  F  F20  1  0.662409  0.500654  0.257281  1
  F  F21  1  0.168668  0.999514  0.287395  1
  F  F22  1  0.379120  0.353167  0.110952  1
  F  F23  1  0.816455  0.422070  0.777185  1
  F  F24  1  0.324862  0.913940  0.845549  1
  F  F25  1  0.967262  0.708501  0.630485  1
  F  F26  1  0.814954  0.907721  0.104631  1
  F  F27  1  0.907721  0.814954  0.395369  1
  F  F28  1  0.353167  0.379120  0.389048  1
  F  F29  1  0.513747  0.181405  0.953352  1
  F  F30  1  0.999514  0.168668  0.212605  1
  F  F31  1  0.500654  0.662409  0.242719  1
  F  F32  1  0.499346  0.337591  0.757281  1
  F  F33  1  0.000486  0.831332  0.787395  1
  F  F34  1  0.486253  0.818595  0.046648  1
  F  F35  1  0.646833  0.620880  0.610952  1
  F  F36  1  0.092279  0.185046  0.604631  1
  F  F37  1  0.185046  0.092279  0.895369  1
  F  F38  1  0.032738  0.291499  0.369515  1
  F  F39  1  0.675138  0.086060  0.154451  1
  F  F40  1  0.183545  0.577930  0.222815  1
  F  F41  1  0.620880  0.646833  0.889048  1
  F  F42  1  0.831332  0.000486  0.712605  1
  F  F43  1  0.337591  0.499346  0.742719  1
  F  F44  1  0.181405  0.513747  0.546648  1
  F  F45  1  0.577930  0.183545  0.277185  1
  F  F46  1  0.086060  0.675138  0.345549  1
  F  F47  1  0.291499  0.032738  0.130485  1
