# generated using pymatgen
data_Li4V3Co2Sn3O16
_symmetry_space_group_name_H-M   'P 1'
_cell_length_a   6.09065146
_cell_length_b   6.13486761
_cell_length_c   9.83687987
_cell_angle_alpha   90.05293997
_cell_angle_beta   90.24980308
_cell_angle_gamma   119.48818956
_symmetry_Int_Tables_number   1
_chemical_formula_structural   Li4V3Co2Sn3O16
_chemical_formula_sum   'Li4 V3 Co2 Sn3 O16'
_cell_volume   319.93878746
_cell_formula_units_Z   1
loop_
 _symmetry_equiv_pos_site_id
 _symmetry_equiv_pos_as_xyz
  1  'x, y, z'
loop_
 _atom_site_type_symbol
 _atom_site_label
 _atom_site_symmetry_multiplicity
 _atom_site_fract_x
 _atom_site_fract_y
 _atom_site_fract_z
 _atom_site_occupancy
  Li  Li0  1  0.633202  0.319640  0.892232  1
  Li  Li1  1  0.038292  0.016699  0.992584  1
  Li  Li2  1  0.007646  0.998129  0.500597  1
  Li  Li3  1  0.326078  0.657590  0.396322  1
  V  V4  1  0.342692  0.166565  0.217900  1
  V  V5  1  0.127110  0.775206  0.734498  1
  V  V6  1  0.189361  0.322824  0.699466  1
  Co  Co7  1  0.679916  0.350765  0.495140  1
  Co  Co8  1  0.342201  0.669935  0.996046  1
  Sn  Sn9  1  0.836874  0.170229  0.212679  1
  Sn  Sn10  1  0.834062  0.663222  0.213175  1
  Sn  Sn11  1  0.654365  0.842842  0.714934  1
  O  O12  1  0.854014  0.172795  0.601639  1
  O  O13  1  0.968773  0.478287  0.338364  1
  O  O14  1  0.658434  0.329256  0.098797  1
  O  O15  1  0.012748  0.004255  0.318010  1
  O  O16  1  0.012009  0.005102  0.809109  1
  O  O17  1  0.848261  0.690111  0.603842  1
  O  O18  1  0.500207  0.033341  0.329150  1
  O  O19  1  0.514731  0.479240  0.333929  1
  O  O20  1  0.699364  0.853442  0.091724  1
  O  O21  1  0.329503  0.191720  0.598086  1
  O  O22  1  0.461741  0.513424  0.833093  1
  O  O23  1  0.453728  0.963055  0.832549  1
  O  O24  1  0.306944  0.658781  0.608070  1
  O  O25  1  0.185763  0.317683  0.107532  1
  O  O26  1  0.008062  0.507847  0.834110  1
  O  O27  1  0.173920  0.847716  0.104268  1
