# generated using pymatgen
data_LiTi(Si2O5)2
_symmetry_space_group_name_H-M   'P 1'
_cell_length_a   8.01722492
_cell_length_b   5.26673819
_cell_length_c   11.57152142
_cell_angle_alpha   90.00000000
_cell_angle_beta   111.00790645
_cell_angle_gamma   90.00000000
_symmetry_Int_Tables_number   1
_chemical_formula_structural   LiTi(Si2O5)2
_chemical_formula_sum   'Li2 Ti2 Si8 O20'
_cell_volume   456.12616880
_cell_formula_units_Z   2
loop_
 _symmetry_equiv_pos_site_id
 _symmetry_equiv_pos_as_xyz
  1  'x, y, z'
loop_
 _atom_site_type_symbol
 _atom_site_label
 _atom_site_symmetry_multiplicity
 _atom_site_fract_x
 _atom_site_fract_y
 _atom_site_fract_z
 _atom_site_occupancy
  Li  Li0  1  0.000000  0.254441  0.750000  1
  Li  Li1  1  0.000000  0.745559  0.250000  1
  Ti  Ti2  1  0.000000  0.752336  0.750000  1
  Ti  Ti3  1  0.000000  0.247664  0.250000  1
  Si  Si4  1  0.299177  0.463827  0.999994  1
  Si  Si5  1  0.701266  0.038111  0.848862  1
  Si  Si6  1  0.298734  0.038111  0.651138  1
  Si  Si7  1  0.700823  0.463827  0.500006  1
  Si  Si8  1  0.299177  0.536173  0.499994  1
  Si  Si9  1  0.701266  0.961889  0.348862  1
  Si  Si10  1  0.298734  0.961889  0.151138  1
  Si  Si11  1  0.700823  0.536173  0.000006  1
  O  O12  1  0.500000  0.500000  0.000000  1
  O  O13  1  0.151437  0.507429  0.861682  1
  O  O14  1  0.846677  0.999784  0.782004  1
  O  O15  1  0.728739  0.826031  0.957983  1
  O  O16  1  0.728944  0.328100  0.903388  1
  O  O17  1  0.153323  0.999784  0.717996  1
  O  O18  1  0.848563  0.507429  0.638318  1
  O  O19  1  0.500000  0.003400  0.750000  1
  O  O20  1  0.271056  0.328100  0.596612  1
  O  O21  1  0.728739  0.173969  0.457983  1
  O  O22  1  0.271261  0.826031  0.542017  1
  O  O23  1  0.728944  0.671900  0.403388  1
  O  O24  1  0.500000  0.500000  0.500000  1
  O  O25  1  0.500000  0.996600  0.250000  1
  O  O26  1  0.151437  0.492571  0.361682  1
  O  O27  1  0.846677  0.000216  0.282004  1
  O  O28  1  0.271056  0.671900  0.096612  1
  O  O29  1  0.271261  0.173969  0.042017  1
  O  O30  1  0.153323  0.000216  0.217996  1
  O  O31  1  0.848563  0.492571  0.138318  1
