# generated using pymatgen
data_BaP2(HO2)4
_symmetry_space_group_name_H-M   'P 1'
_cell_length_a   7.07449322
_cell_length_b   7.43402532
_cell_length_c   8.27784863
_cell_angle_alpha   100.86658440
_cell_angle_beta   100.23256214
_cell_angle_gamma   104.51535628
_symmetry_Int_Tables_number   1
_chemical_formula_structural   BaP2(HO2)4
_chemical_formula_sum   'Ba2 P4 H8 O16'
_cell_volume   402.14822269
_cell_formula_units_Z   2
loop_
 _symmetry_equiv_pos_site_id
 _symmetry_equiv_pos_as_xyz
  1  'x, y, z'
loop_
 _atom_site_type_symbol
 _atom_site_label
 _atom_site_symmetry_multiplicity
 _atom_site_fract_x
 _atom_site_fract_y
 _atom_site_fract_z
 _atom_site_occupancy
  Ba  Ba0  1  0.726587  0.757494  0.871666  1
  Ba  Ba1  1  0.273413  0.242506  0.128334  1
  P  P2  1  0.731223  0.241426  0.886477  1
  P  P3  1  0.268777  0.758574  0.113523  1
  P  P4  1  0.768179  0.683310  0.413215  1
  P  P5  1  0.231821  0.316690  0.586785  1
  H  H6  1  0.940416  0.377648  0.678372  1
  H  H7  1  0.059584  0.622352  0.321628  1
  H  H8  1  0.409204  0.127796  0.751246  1
  H  H9  1  0.590796  0.872204  0.248754  1
  H  H10  1  0.500000  0.500000  0.500000  1
  H  H11  1  0.000000  0.500000  0.500000  1
  H  H12  1  0.743060  0.466422  0.113597  1
  H  H13  1  0.256940  0.533578  0.886403  1
  O  O14  1  0.644086  0.357132  0.029527  1
  O  O15  1  0.355914  0.642868  0.970473  1
  O  O16  1  0.878369  0.148457  0.965494  1
  O  O17  1  0.121631  0.851543  0.034506  1
  O  O18  1  0.812015  0.387207  0.789199  1
  O  O19  1  0.187985  0.612793  0.210801  1
  O  O20  1  0.533673  0.077477  0.785675  1
  O  O21  1  0.466327  0.922523  0.214325  1
  O  O22  1  0.747996  0.769115  0.259256  1
  O  O23  1  0.252004  0.230885  0.740744  1
  O  O24  1  0.585833  0.500828  0.385976  1
  O  O25  1  0.414167  0.499172  0.614024  1
  O  O26  1  0.955408  0.588714  0.398845  1
  O  O27  1  0.044592  0.411286  0.601155  1
  O  O28  1  0.185144  0.189585  0.411695  1
  O  O29  1  0.814856  0.810415  0.588305  1
