# generated using pymatgen
data_Na2NdPCO7
_symmetry_space_group_name_H-M   'P 1'
_cell_length_a   5.22405292
_cell_length_b   7.15236726
_cell_length_c   9.45251109
_cell_angle_alpha   90.00000000
_cell_angle_beta   91.15286192
_cell_angle_gamma   90.00000000
_symmetry_Int_Tables_number   1
_chemical_formula_structural   Na2NdPCO7
_chemical_formula_sum   'Na4 Nd2 P2 C2 O14'
_cell_volume   353.11539186
_cell_formula_units_Z   2
loop_
 _symmetry_equiv_pos_site_id
 _symmetry_equiv_pos_as_xyz
  1  'x, y, z'
loop_
 _atom_site_type_symbol
 _atom_site_label
 _atom_site_symmetry_multiplicity
 _atom_site_fract_x
 _atom_site_fract_y
 _atom_site_fract_z
 _atom_site_occupancy
  Na  Na0  1  0.228797  0.493507  0.206964  1
  Na  Na1  1  0.228797  0.006493  0.206964  1
  Na  Na2  1  0.771203  0.506493  0.793036  1
  Na  Na3  1  0.771203  0.993507  0.793036  1
  Nd  Nd4  1  0.759377  0.750000  0.377476  1
  Nd  Nd5  1  0.240623  0.250000  0.622524  1
  P  P6  1  0.710290  0.250000  0.411923  1
  P  P7  1  0.289710  0.750000  0.588077  1
  C  C8  1  0.731782  0.750000  0.074735  1
  C  C9  1  0.268218  0.250000  0.925265  1
  O  O10  1  0.297058  0.250000  0.057910  1
  O  O11  1  0.955945  0.750000  0.140312  1
  O  O12  1  0.531969  0.750000  0.159827  1
  O  O13  1  0.833008  0.072566  0.349859  1
  O  O14  1  0.833008  0.427434  0.349859  1
  O  O15  1  0.245834  0.750000  0.421840  1
  O  O16  1  0.413844  0.250000  0.387559  1
  O  O17  1  0.586156  0.750000  0.612441  1
  O  O18  1  0.754166  0.250000  0.578160  1
  O  O19  1  0.166992  0.572566  0.650141  1
  O  O20  1  0.166992  0.927434  0.650141  1
  O  O21  1  0.468031  0.250000  0.840173  1
  O  O22  1  0.044055  0.250000  0.859688  1
  O  O23  1  0.702942  0.750000  0.942090  1
