# generated using pymatgen
data_VFe3Ni2(PO4)6
_symmetry_space_group_name_H-M   'P 1'
_cell_length_a   8.43970732
_cell_length_b   8.43970732
_cell_length_c   8.43970732
_cell_angle_alpha   61.23336754
_cell_angle_beta   61.23336754
_cell_angle_gamma   61.23336754
_symmetry_Int_Tables_number   1
_chemical_formula_structural   VFe3Ni2(PO4)6
_chemical_formula_sum   'V1 Fe3 Ni2 P6 O24'
_cell_volume   436.86701404
_cell_formula_units_Z   1
loop_
 _symmetry_equiv_pos_site_id
 _symmetry_equiv_pos_as_xyz
  1  'x, y, z'
loop_
 _atom_site_type_symbol
 _atom_site_label
 _atom_site_symmetry_multiplicity
 _atom_site_fract_x
 _atom_site_fract_y
 _atom_site_fract_z
 _atom_site_occupancy
  V  V0  1  0.144151  0.144151  0.144151  1
  Fe  Fe1  1  0.644062  0.644062  0.644062  1
  Fe  Fe2  1  0.854826  0.854826  0.854826  1
  Fe  Fe3  1  0.356786  0.356786  0.356786  1
  Ni  Ni4  1  0.998318  0.998318  0.998318  1
  Ni  Ni5  1  0.498599  0.498599  0.498599  1
  P  P6  1  0.954027  0.251914  0.546749  1
  P  P7  1  0.546749  0.954027  0.251914  1
  P  P8  1  0.251914  0.546749  0.954027  1
  P  P9  1  0.751739  0.453280  0.046940  1
  P  P10  1  0.453280  0.046940  0.751739  1
  P  P11  1  0.046940  0.751739  0.453280  1
  O  O12  1  0.500623  0.109088  0.323407  1
  O  O13  1  0.323407  0.500623  0.109088  1
  O  O14  1  0.109088  0.323407  0.500623  1
  O  O15  1  0.941740  0.090545  0.740981  1
  O  O16  1  0.012998  0.178333  0.377486  1
  O  O17  1  0.757583  0.407421  0.548030  1
  O  O18  1  0.740981  0.941740  0.090545  1
  O  O19  1  0.548030  0.757583  0.407421  1
  O  O20  1  0.824625  0.607077  0.004310  1
  O  O21  1  0.407421  0.548030  0.757583  1
  O  O22  1  0.916551  0.251472  0.065143  1
  O  O23  1  0.607077  0.004310  0.824625  1
  O  O24  1  0.377486  0.012998  0.178333  1
  O  O25  1  0.090545  0.740981  0.941740  1
  O  O26  1  0.595505  0.434977  0.245794  1
  O  O27  1  0.178333  0.377486  0.012998  1
  O  O28  1  0.434977  0.245794  0.595505  1
  O  O29  1  0.251472  0.065143  0.916551  1
  O  O30  1  0.245794  0.595505  0.434977  1
  O  O31  1  0.004310  0.824625  0.607077  1
  O  O32  1  0.065143  0.916551  0.251472  1
  O  O33  1  0.887332  0.690569  0.487005  1
  O  O34  1  0.690569  0.487005  0.887332  1
  O  O35  1  0.487005  0.887332  0.690569  1
