# generated using pymatgen
data_Ho2P4O13
_symmetry_space_group_name_H-M   'P 1'
_cell_length_a   6.87492697
_cell_length_b   6.87492697
_cell_length_c   12.99407539
_cell_angle_alpha   76.02094068
_cell_angle_beta   103.97905932
_cell_angle_gamma   120.95165643
_symmetry_Int_Tables_number   1
_chemical_formula_structural   Ho2P4O13
_chemical_formula_sum   'Ho4 P8 O26'
_cell_volume   506.00092586
_cell_formula_units_Z   2
loop_
 _symmetry_equiv_pos_site_id
 _symmetry_equiv_pos_as_xyz
  1  'x, y, z'
loop_
 _atom_site_type_symbol
 _atom_site_label
 _atom_site_symmetry_multiplicity
 _atom_site_fract_x
 _atom_site_fract_y
 _atom_site_fract_z
 _atom_site_occupancy
  Ho  Ho0  1  0.304815  0.691100  0.948663  1
  Ho  Ho1  1  0.308900  0.695185  0.448663  1
  Ho  Ho2  1  0.691100  0.304815  0.551337  1
  Ho  Ho3  1  0.695185  0.308900  0.051337  1
  P  P4  1  0.227000  0.760550  0.659635  1
  P  P5  1  0.239450  0.773000  0.159635  1
  P  P6  1  0.863558  0.840149  0.866131  1
  P  P7  1  0.840149  0.863558  0.633869  1
  P  P8  1  0.159851  0.136442  0.366131  1
  P  P9  1  0.136442  0.159851  0.133869  1
  P  P10  1  0.760550  0.227000  0.840365  1
  P  P11  1  0.773000  0.239450  0.340365  1
  O  O12  1  0.103457  0.877593  0.896769  1
  O  O13  1  0.093421  0.899928  0.653209  1
  O  O14  1  0.122407  0.896543  0.396769  1
  O  O15  1  0.100072  0.906579  0.153209  1
  O  O16  1  0.294791  0.693313  0.776046  1
  O  O17  1  0.426000  0.924458  0.594881  1
  O  O18  1  0.073888  0.562453  0.593460  1
  O  O19  1  0.684445  0.675057  0.939967  1
  O  O20  1  0.306687  0.705209  0.276046  1
  O  O21  1  0.075542  0.574000  0.094881  1
  O  O22  1  0.437547  0.926112  0.093460  1
  O  O23  1  0.755619  0.755619  0.750000  1
  O  O24  1  0.675057  0.684445  0.560033  1
  O  O25  1  0.324943  0.315555  0.439967  1
  O  O26  1  0.244381  0.244381  0.250000  1
  O  O27  1  0.562453  0.073888  0.906540  1
  O  O28  1  0.924458  0.426000  0.905119  1
  O  O29  1  0.693313  0.294791  0.723954  1
  O  O30  1  0.315555  0.324943  0.060033  1
  O  O31  1  0.926112  0.437547  0.406540  1
  O  O32  1  0.574000  0.075542  0.405119  1
  O  O33  1  0.705209  0.306687  0.223954  1
  O  O34  1  0.899928  0.093421  0.846791  1
  O  O35  1  0.877593  0.103457  0.603231  1
  O  O36  1  0.906579  0.100072  0.346791  1
  O  O37  1  0.896543  0.122407  0.103231  1
