# generated using pymatgen
data_Li3MnV4O12
_symmetry_space_group_name_H-M   'P 1'
_cell_length_a   5.03330666
_cell_length_b   5.41054274
_cell_length_c   7.37951701
_cell_angle_alpha   94.94708141
_cell_angle_beta   90.93610531
_cell_angle_gamma   90.97715446
_symmetry_Int_Tables_number   1
_chemical_formula_structural   Li3MnV4O12
_chemical_formula_sum   'Li3 Mn1 V4 O12'
_cell_volume   200.15604962
_cell_formula_units_Z   1
loop_
 _symmetry_equiv_pos_site_id
 _symmetry_equiv_pos_as_xyz
  1  'x, y, z'
loop_
 _atom_site_type_symbol
 _atom_site_label
 _atom_site_symmetry_multiplicity
 _atom_site_fract_x
 _atom_site_fract_y
 _atom_site_fract_z
 _atom_site_occupancy
  Li  Li0  1  0.501812  0.068191  0.209131  1
  Li  Li1  1  0.003071  0.575323  0.213333  1
  Li  Li2  1  0.495226  0.066130  0.717450  1
  Mn  Mn3  1  0.001003  0.589601  0.707715  1
  V  V4  1  0.997825  0.018942  0.997470  1
  V  V5  1  0.490298  0.487810  0.498569  1
  V  V6  1  0.995581  0.002009  0.483604  1
  V  V7  1  0.508007  0.506882  0.005518  1
  O  O8  1  0.292018  0.768253  0.592624  1
  O  O9  1  0.119965  0.961333  0.264793  1
  O  O10  1  0.308843  0.155183  0.963863  1
  O  O11  1  0.193590  0.264408  0.581340  1
  O  O12  1  0.809987  0.272114  0.080139  1
  O  O13  1  0.385428  0.463974  0.268694  1
  O  O14  1  0.636892  0.458084  0.757816  1
  O  O15  1  0.170783  0.644667  0.949130  1
  O  O16  1  0.829577  0.661760  0.474133  1
  O  O17  1  0.691529  0.774966  0.077637  1
  O  O18  1  0.872979  0.971992  0.774760  1
  O  O19  1  0.695587  0.147578  0.452681  1
