# generated using pymatgen
data_LiMn3NiO8
_symmetry_space_group_name_H-M   'P 1'
_cell_length_a   5.77226697
_cell_length_b   5.77226697
_cell_length_c   5.96992337
_cell_angle_alpha   62.40288627
_cell_angle_beta   117.59711373
_cell_angle_gamma   119.48219682
_symmetry_Int_Tables_number   1
_chemical_formula_structural   LiMn3NiO8
_chemical_formula_sum   'Li1 Mn3 Ni1 O8'
_cell_volume   146.14510478
_cell_formula_units_Z   1
loop_
 _symmetry_equiv_pos_site_id
 _symmetry_equiv_pos_as_xyz
  1  'x, y, z'
loop_
 _atom_site_type_symbol
 _atom_site_label
 _atom_site_symmetry_multiplicity
 _atom_site_fract_x
 _atom_site_fract_y
 _atom_site_fract_z
 _atom_site_occupancy
  Li  Li0  1  0.000000  1.000000  0.500000  1
  Mn  Mn1  1  1.000000  0.500000  0.000000  1
  Mn  Mn2  1  0.500000  0.500000  0.000000  1
  Mn  Mn3  1  0.500000  0.000000  0.000000  1
  Ni  Ni4  1  0.000000  0.000000  0.000000  1
  O  O5  1  0.762584  0.713882  0.795996  1
  O  O6  1  0.286118  0.237416  0.795996  1
  O  O7  1  0.775823  0.224177  0.813086  1
  O  O8  1  0.266753  0.733247  0.801633  1
  O  O9  1  0.733247  0.266753  0.198367  1
  O  O10  1  0.224177  0.775823  0.186914  1
  O  O11  1  0.713882  0.762584  0.204004  1
  O  O12  1  0.237416  0.286118  0.204004  1
