# generated using pymatgen
data_Li3Fe3SiO8
_symmetry_space_group_name_H-M   'P 1'
_cell_length_a   5.08282788
_cell_length_b   5.82999103
_cell_length_c   5.18591159
_cell_angle_alpha   90.00000000
_cell_angle_beta   108.61390246
_cell_angle_gamma   90.00000000
_symmetry_Int_Tables_number   1
_chemical_formula_structural   Li3Fe3SiO8
_chemical_formula_sum   'Li3 Fe3 Si1 O8'
_cell_volume   145.63479528
_cell_formula_units_Z   1
loop_
 _symmetry_equiv_pos_site_id
 _symmetry_equiv_pos_as_xyz
  1  'x, y, z'
loop_
 _atom_site_type_symbol
 _atom_site_label
 _atom_site_symmetry_multiplicity
 _atom_site_fract_x
 _atom_site_fract_y
 _atom_site_fract_z
 _atom_site_occupancy
  Li  Li0  1  0.000000  0.500000  0.000000  1
  Li  Li1  1  0.500000  0.761919  0.000000  1
  Li  Li2  1  0.500000  0.238081  0.000000  1
  Fe  Fe3  1  0.000000  0.753960  0.500000  1
  Fe  Fe4  1  0.000000  0.246040  0.500000  1
  Fe  Fe5  1  0.500000  0.500000  0.500000  1
  Si  Si6  1  0.500000  0.000000  0.500000  1
  O  O7  1  0.723258  0.000000  0.296261  1
  O  O8  1  0.719037  0.767979  0.708225  1
  O  O9  1  0.767894  0.500000  0.264578  1
  O  O10  1  0.280963  0.767979  0.291775  1
  O  O11  1  0.719037  0.232021  0.708225  1
  O  O12  1  0.276742  0.000000  0.703739  1
  O  O13  1  0.232106  0.500000  0.735422  1
  O  O14  1  0.280963  0.232021  0.291775  1
