# generated using pymatgen
data_V9PO25
_symmetry_space_group_name_H-M   'P 1'
_cell_length_a   10.86291844
_cell_length_b   10.86291844
_cell_length_c   10.86291844
_cell_angle_alpha   91.60134628
_cell_angle_beta   91.60134628
_cell_angle_gamma   160.75360232
_symmetry_Int_Tables_number   1
_chemical_formula_structural   V9PO25
_chemical_formula_sum   'V9 P1 O25'
_cell_volume   416.59434911
_cell_formula_units_Z   1
loop_
 _symmetry_equiv_pos_site_id
 _symmetry_equiv_pos_as_xyz
  1  'x, y, z'
loop_
 _atom_site_type_symbol
 _atom_site_label
 _atom_site_symmetry_multiplicity
 _atom_site_fract_x
 _atom_site_fract_y
 _atom_site_fract_z
 _atom_site_occupancy
  V  V0  1  0.000000  0.000000  0.000000  1
  V  V1  1  0.114746  0.788056  0.899367  1
  V  V2  1  0.898617  0.680443  0.551718  1
  V  V3  1  0.653101  0.101383  0.781826  1
  V  V4  1  0.211944  0.111311  0.326690  1
  V  V5  1  0.784621  0.885254  0.673310  1
  V  V6  1  0.319557  0.871274  0.218174  1
  V  V7  1  0.128726  0.346899  0.448282  1
  V  V8  1  0.888689  0.215379  0.100633  1
  P  P9  1  0.750000  0.250000  0.500000  1
  O  O10  1  0.500000  0.500000  0.000000  1
  O  O11  1  0.055178  0.886159  0.939749  1
  O  O12  1  0.812020  0.771776  0.602934  1
  O  O13  1  0.613815  0.257588  0.857987  1
  O  O14  1  0.987549  0.725889  0.698852  1
  O  O15  1  0.790914  0.187980  0.959757  1
  O  O16  1  0.162622  0.653883  0.803324  1
  O  O17  1  0.346117  0.149441  0.508739  1
  O  O18  1  0.742412  0.600399  0.356228  1
  O  O19  1  0.570380  0.092327  0.619907  1
  O  O20  1  0.113841  0.053590  0.169019  1
  O  O21  1  0.907673  0.527580  0.478053  1
  O  O22  1  0.711304  0.012451  0.738341  1
  O  O23  1  0.274111  0.972963  0.261659  1
  O  O24  1  0.049527  0.429620  0.521947  1
  O  O25  1  0.884571  0.944822  0.830981  1
  O  O26  1  0.472420  0.950473  0.380093  1
  O  O27  1  0.244171  0.386185  0.643772  1
  O  O28  1  0.640702  0.837378  0.491261  1
  O  O29  1  0.850559  0.359298  0.196676  1
  O  O30  1  0.228224  0.831158  0.040243  1
  O  O31  1  0.027037  0.288696  0.301148  1
  O  O32  1  0.399601  0.755829  0.142013  1
  O  O33  1  0.168842  0.209086  0.397066  1
  O  O34  1  0.946410  0.115429  0.060251  1
