# generated using pymatgen
data_Li4Mn3Cr3(CoO8)2
_symmetry_space_group_name_H-M   'P 1'
_cell_length_a   5.84821041
_cell_length_b   5.84821041
_cell_length_c   9.64980116
_cell_angle_alpha   89.47989791
_cell_angle_beta   90.52010209
_cell_angle_gamma   119.94706464
_symmetry_Int_Tables_number   1
_chemical_formula_structural   Li4Mn3Cr3(CoO8)2
_chemical_formula_sum   'Li4 Mn3 Cr3 Co2 O16'
_cell_volume   285.95817449
_cell_formula_units_Z   1
loop_
 _symmetry_equiv_pos_site_id
 _symmetry_equiv_pos_as_xyz
  1  'x, y, z'
loop_
 _atom_site_type_symbol
 _atom_site_label
 _atom_site_symmetry_multiplicity
 _atom_site_fract_x
 _atom_site_fract_y
 _atom_site_fract_z
 _atom_site_occupancy
  Li  Li0  1  0.666882  0.333118  0.104444  1
  Li  Li1  1  0.002819  0.997181  0.002887  1
  Li  Li2  1  0.002017  0.997983  0.503246  1
  Li  Li3  1  0.331273  0.668727  0.603856  1
  Mn  Mn4  1  0.829436  0.170564  0.784972  1
  Mn  Mn5  1  0.663640  0.832083  0.285626  1
  Mn  Mn6  1  0.167917  0.336360  0.285626  1
  Cr  Cr7  1  0.828595  0.664426  0.785546  1
  Cr  Cr8  1  0.335574  0.171405  0.785546  1
  Cr  Cr9  1  0.169047  0.830953  0.285591  1
  Co  Co10  1  0.667092  0.332908  0.505631  1
  Co  Co11  1  0.333240  0.666760  0.006623  1
  O  O12  1  0.844811  0.682991  0.394250  1
  O  O13  1  0.514626  0.485374  0.675023  1
  O  O14  1  0.670748  0.329252  0.894122  1
  O  O15  1  0.992881  0.007119  0.686573  1
  O  O16  1  0.995143  0.004857  0.187729  1
  O  O17  1  0.317009  0.155189  0.394250  1
  O  O18  1  0.961454  0.485841  0.669623  1
  O  O19  1  0.514159  0.038546  0.669623  1
  O  O20  1  0.159910  0.840090  0.891377  1
  O  O21  1  0.842450  0.157550  0.394515  1
  O  O22  1  0.481631  0.968114  0.173292  1
  O  O23  1  0.031886  0.518369  0.173292  1
  O  O24  1  0.339315  0.660685  0.392402  1
  O  O25  1  0.684920  0.839620  0.894641  1
  O  O26  1  0.480065  0.519935  0.167861  1
  O  O27  1  0.160380  0.315080  0.894641  1
