# generated using pymatgen
data_Li3V2F12
_symmetry_space_group_name_H-M   'P 1'
_cell_length_a   5.31815073
_cell_length_b   10.52845719
_cell_length_c   10.48349371
_cell_angle_alpha   90.00000000
_cell_angle_beta   99.78563015
_cell_angle_gamma   90.00000000
_symmetry_Int_Tables_number   1
_chemical_formula_structural   Li3V2F12
_chemical_formula_sum   'Li6 V4 F24'
_cell_volume   578.45057257
_cell_formula_units_Z   2
loop_
 _symmetry_equiv_pos_site_id
 _symmetry_equiv_pos_as_xyz
  1  'x, y, z'
loop_
 _atom_site_type_symbol
 _atom_site_label
 _atom_site_symmetry_multiplicity
 _atom_site_fract_x
 _atom_site_fract_y
 _atom_site_fract_z
 _atom_site_occupancy
  Li  Li0  1  0.000000  0.000000  0.000000  1
  Li  Li1  1  0.000000  0.500000  0.500000  1
  Li  Li2  1  0.396518  0.326774  0.878779  1
  Li  Li3  1  0.396518  0.173226  0.378779  1
  Li  Li4  1  0.603482  0.826774  0.621221  1
  Li  Li5  1  0.603482  0.673226  0.121221  1
  V  V6  1  0.258970  0.649612  0.807943  1
  V  V7  1  0.258970  0.850388  0.307943  1
  V  V8  1  0.741030  0.149612  0.692057  1
  V  V9  1  0.741030  0.350388  0.192057  1
  F  F10  1  0.002688  0.088015  0.627901  1
  F  F11  1  0.083172  0.793084  0.749592  1
  F  F12  1  0.146894  0.573146  0.643590  1
  F  F13  1  0.002688  0.411985  0.127901  1
  F  F14  1  0.083172  0.706916  0.249592  1
  F  F15  1  0.395554  0.725888  0.965359  1
  F  F16  1  0.146894  0.926854  0.143590  1
  F  F17  1  0.435654  0.498376  0.856846  1
  F  F18  1  0.458682  0.208484  0.756807  1
  F  F19  1  0.395554  0.774112  0.465359  1
  F  F20  1  0.541318  0.708484  0.743193  1
  F  F21  1  0.435654  0.001624  0.356846  1
  F  F22  1  0.564346  0.998376  0.643154  1
  F  F23  1  0.458682  0.291516  0.256807  1
  F  F24  1  0.604446  0.225888  0.534641  1
  F  F25  1  0.541318  0.791516  0.243193  1
  F  F26  1  0.564346  0.501624  0.143154  1
  F  F27  1  0.853106  0.073146  0.856410  1
  F  F28  1  0.604446  0.274112  0.034641  1
  F  F29  1  0.916828  0.293084  0.750408  1
  F  F30  1  0.997312  0.588015  0.872099  1
  F  F31  1  0.853106  0.426854  0.356410  1
  F  F32  1  0.916828  0.206916  0.250408  1
  F  F33  1  0.997312  0.911985  0.372099  1
