# generated using pymatgen
data_LiZnO2
_symmetry_space_group_name_H-M   'P 1'
_cell_length_a   5.13991750
_cell_length_b   5.13991750
_cell_length_c   5.13991750
_cell_angle_alpha   33.94765372
_cell_angle_beta   33.94765372
_cell_angle_gamma   33.94765372
_symmetry_Int_Tables_number   1
_chemical_formula_structural   LiZnO2
_chemical_formula_sum   'Li1 Zn1 O2'
_cell_volume   37.74307539
_cell_formula_units_Z   1
loop_
 _symmetry_equiv_pos_site_id
 _symmetry_equiv_pos_as_xyz
  1  'x, y, z'
loop_
 _atom_site_type_symbol
 _atom_site_label
 _atom_site_symmetry_multiplicity
 _atom_site_fract_x
 _atom_site_fract_y
 _atom_site_fract_z
 _atom_site_occupancy
  Li  Li0  1  0.500000  0.500000  0.500000  1
  Zn  Zn1  1  0.000000  0.000000  0.000000  1
  O  O2  1  0.745717  0.745717  0.745717  1
  O  O3  1  0.254283  0.254283  0.254283  1
