# generated using pymatgen
data_BaTa6O16
_symmetry_space_group_name_H-M   'P 1'
_cell_length_a   9.23290147
_cell_length_b   9.23290147
_cell_length_c   3.91802921
_cell_angle_alpha   90.00000000
_cell_angle_beta   90.00000000
_cell_angle_gamma   111.42154902
_symmetry_Int_Tables_number   1
_chemical_formula_structural   BaTa6O16
_chemical_formula_sum   'Ba1 Ta6 O16'
_cell_volume   310.92507077
_cell_formula_units_Z   1
loop_
 _symmetry_equiv_pos_site_id
 _symmetry_equiv_pos_as_xyz
  1  'x, y, z'
loop_
 _atom_site_type_symbol
 _atom_site_label
 _atom_site_symmetry_multiplicity
 _atom_site_fract_x
 _atom_site_fract_y
 _atom_site_fract_z
 _atom_site_occupancy
  Ba  Ba0  1  0.599781  0.400219  0.000000  1
  Ta  Ta1  1  0.007889  0.992111  0.500000  1
  Ta  Ta2  1  0.000763  0.630605  0.500000  1
  Ta  Ta3  1  0.794740  0.205260  0.500000  1
  Ta  Ta4  1  0.619831  0.752224  0.500000  1
  Ta  Ta5  1  0.369395  0.999237  0.500000  1
  Ta  Ta6  1  0.247776  0.380169  0.500000  1
  O  O7  1  0.824106  0.431845  0.500000  1
  O  O8  1  0.851041  0.753448  0.500000  1
  O  O9  1  0.772457  0.982462  0.500000  1
  O  O10  1  0.568155  0.175894  0.500000  1
  O  O11  1  0.477248  0.522752  0.500000  1
  O  O12  1  0.461735  0.837137  0.500000  1
  O  O13  1  0.246552  0.148959  0.500000  1
  O  O14  1  0.162863  0.538265  0.500000  1
  O  O15  1  0.143173  0.856827  0.500000  1
  O  O16  1  0.017538  0.227543  0.500000  1
  O  O17  1  0.630925  0.725111  0.000000  1
  O  O18  1  0.997079  0.628146  1.000000  1
  O  O19  1  0.003522  0.996478  0.000000  1
  O  O20  1  0.786688  0.213312  1.000000  1
  O  O21  1  0.371854  0.002921  1.000000  1
  O  O22  1  0.274889  0.369075  1.000000  1
