# generated using pymatgen
data_Sb3PO7
_symmetry_space_group_name_H-M   'P 1'
_cell_length_a   9.59397957
_cell_length_b   9.59397957
_cell_length_c   12.50392899
_cell_angle_alpha   76.19366965
_cell_angle_beta   103.80633035
_cell_angle_gamma   89.82111368
_symmetry_Int_Tables_number   1
_chemical_formula_structural   Sb3PO7
_chemical_formula_sum   'Sb18 P6 O42'
_cell_volume   1083.16890080
_cell_formula_units_Z   6
loop_
 _symmetry_equiv_pos_site_id
 _symmetry_equiv_pos_as_xyz
  1  'x, y, z'
loop_
 _atom_site_type_symbol
 _atom_site_label
 _atom_site_symmetry_multiplicity
 _atom_site_fract_x
 _atom_site_fract_y
 _atom_site_fract_z
 _atom_site_occupancy
  Sb  Sb0  1  0.123750  0.560578  0.951165  1
  Sb  Sb1  1  0.439422  0.876250  0.951165  1
  Sb  Sb2  1  0.179108  0.514052  0.622802  1
  Sb  Sb3  1  0.485948  0.820892  0.622802  1
  Sb  Sb4  1  0.196457  0.177273  0.821559  1
  Sb  Sb5  1  0.822727  0.803543  0.821559  1
  Sb  Sb6  1  0.534061  0.777463  0.271464  1
  Sb  Sb7  1  0.222537  0.465939  0.271464  1
  Sb  Sb8  1  0.116333  0.180696  0.503663  1
  Sb  Sb9  1  0.819304  0.883667  0.503663  1
  Sb  Sb10  1  0.174314  0.165278  0.162669  1
  Sb  Sb11  1  0.834722  0.825686  0.162669  1
  Sb  Sb12  1  0.819725  0.514207  0.675148  1
  Sb  Sb13  1  0.485793  0.180275  0.675148  1
  Sb  Sb14  1  0.510119  0.126275  0.376261  1
  Sb  Sb15  1  0.873725  0.489881  0.376261  1
  Sb  Sb16  1  0.483890  0.161659  0.073648  1
  Sb  Sb17  1  0.838341  0.516110  0.073648  1
  P  P18  1  0.167584  0.832416  0.714325  1
  P  P19  1  0.174893  0.825107  0.085232  1
  P  P20  1  0.504233  0.495767  0.538509  1
  P  P21  1  0.478174  0.521826  0.123266  1
  P  P22  1  0.858123  0.141877  0.649886  1
  P  P23  1  0.821644  0.178356  0.273384  1
  O  O24  1  0.071766  0.928234  0.603676  1
  O  O25  1  0.263288  0.926621  0.783900  1
  O  O26  1  0.073379  0.736712  0.783900  1
  O  O27  1  0.073792  0.926208  0.114375  1
  O  O28  1  0.272064  0.727936  0.683721  1
  O  O29  1  0.600036  0.837125  0.773499  1
  O  O30  1  0.162875  0.399964  0.773499  1
  O  O31  1  0.078471  0.735841  0.008910  1
  O  O32  1  0.264159  0.921529  0.008910  1
  O  O33  1  0.274210  0.725790  0.190200  1
  O  O34  1  0.081502  0.406564  0.441073  1
  O  O35  1  0.593436  0.918498  0.441073  1
  O  O36  1  0.403070  0.596930  0.438710  1
  O  O37  1  0.500006  0.499994  0.660269  1
  O  O38  1  0.546979  0.918433  0.113803  1
  O  O39  1  0.081567  0.453021  0.113803  1
  O  O40  1  0.263144  0.224344  0.661658  1
  O  O41  1  0.775656  0.736856  0.661658  1
  O  O42  1  0.369913  0.630087  0.024840  1
  O  O43  1  0.890347  0.582148  0.904574  1
  O  O44  1  0.417852  0.109653  0.904574  1
  O  O45  1  0.225782  0.245311  0.308999  1
  O  O46  1  0.754689  0.774218  0.308999  1
  O  O47  1  0.665221  0.529727  0.527120  1
  O  O48  1  0.470273  0.334779  0.527120  1
  O  O49  1  0.579405  0.607686  0.200044  1
  O  O50  1  0.392314  0.420595  0.200044  1
  O  O51  1  0.764101  0.728614  0.029013  1
  O  O52  1  0.271386  0.235899  0.029013  1
  O  O53  1  0.963390  0.571240  0.578267  1
  O  O54  1  0.428760  0.036610  0.578267  1
  O  O55  1  0.751989  0.248011  0.667277  1
  O  O56  1  0.570392  0.429608  0.079660  1
  O  O57  1  0.926869  0.610825  0.232199  1
  O  O58  1  0.389175  0.073131  0.232199  1
  O  O59  1  0.954802  0.233134  0.575523  1
  O  O60  1  0.766866  0.045198  0.575523  1
  O  O61  1  0.849992  0.339344  0.277442  1
  O  O62  1  0.660656  0.150008  0.277442  1
  O  O63  1  0.952013  0.047987  0.759426  1
  O  O64  1  0.846875  0.153125  0.165629  1
  O  O65  1  0.917553  0.082447  0.387129  1
