# generated using pymatgen
data_Li8MnO6
_symmetry_space_group_name_H-M   'P 1'
_cell_length_a   5.54010366
_cell_length_b   5.54010366
_cell_length_c   11.03183724
_cell_angle_alpha   90.00000000
_cell_angle_beta   90.00000000
_cell_angle_gamma   120.00000000
_symmetry_Int_Tables_number   1
_chemical_formula_structural   Li8MnO6
_chemical_formula_sum   'Li16 Mn2 O12'
_cell_volume   293.23395534
_cell_formula_units_Z   2
loop_
 _symmetry_equiv_pos_site_id
 _symmetry_equiv_pos_as_xyz
  1  'x, y, z'
loop_
 _atom_site_type_symbol
 _atom_site_label
 _atom_site_symmetry_multiplicity
 _atom_site_fract_x
 _atom_site_fract_y
 _atom_site_fract_z
 _atom_site_occupancy
  Li  Li0  1  0.000000  0.691716  0.766475  1
  Li  Li1  1  0.000000  0.616179  0.131350  1
  Li  Li2  1  0.000000  0.383821  0.631350  1
  Li  Li3  1  0.000000  0.308284  0.266475  1
  Li  Li4  1  0.333333  0.666667  0.403355  1
  Li  Li5  1  0.333333  0.666667  0.903355  1
  Li  Li6  1  0.308284  0.308284  0.766475  1
  Li  Li7  1  0.383821  0.383821  0.131350  1
  Li  Li8  1  0.616179  0.616179  0.631350  1
  Li  Li9  1  0.308284  0.000000  0.266475  1
  Li  Li10  1  0.691716  0.691716  0.266475  1
  Li  Li11  1  0.383821  0.000000  0.631350  1
  Li  Li12  1  0.666667  0.333333  0.903355  1
  Li  Li13  1  0.666667  0.333333  0.403355  1
  Li  Li14  1  0.616179  0.000000  0.131350  1
  Li  Li15  1  0.691716  0.000000  0.766475  1
  Mn  Mn16  1  0.000000  0.000000  0.991515  1
  Mn  Mn17  1  0.000000  0.000000  0.491515  1
  O  O18  1  0.000000  0.691246  0.948949  1
  O  O19  1  0.000000  0.308754  0.448949  1
  O  O20  1  0.333333  0.666667  0.218744  1
  O  O21  1  0.000000  0.000000  0.169597  1
  O  O22  1  0.000000  0.000000  0.669597  1
  O  O23  1  0.333333  0.666667  0.718744  1
  O  O24  1  0.308754  0.308754  0.948949  1
  O  O25  1  0.308754  0.000000  0.448949  1
  O  O26  1  0.691246  0.691246  0.448949  1
  O  O27  1  0.666667  0.333333  0.718744  1
  O  O28  1  0.666667  0.333333  0.218744  1
  O  O29  1  0.691246  0.000000  0.948949  1
