# generated using pymatgen
data_Li2Nb(PO4)2
_symmetry_space_group_name_H-M   'P 1'
_cell_length_a   6.44146363
_cell_length_b   12.61217542
_cell_length_c   7.77879195
_cell_angle_alpha   90.00000000
_cell_angle_beta   98.87343367
_cell_angle_gamma   90.00000000
_symmetry_Int_Tables_number   1
_chemical_formula_structural   Li2Nb(PO4)2
_chemical_formula_sum   'Li8 Nb4 P8 O32'
_cell_volume   624.39225362
_cell_formula_units_Z   4
loop_
 _symmetry_equiv_pos_site_id
 _symmetry_equiv_pos_as_xyz
  1  'x, y, z'
loop_
 _atom_site_type_symbol
 _atom_site_label
 _atom_site_symmetry_multiplicity
 _atom_site_fract_x
 _atom_site_fract_y
 _atom_site_fract_z
 _atom_site_occupancy
  Li  Li0  1  0.353165  0.228383  0.928751  1
  Li  Li1  1  0.853165  0.271617  0.928751  1
  Li  Li2  1  0.060347  0.622377  0.447018  1
  Li  Li3  1  0.439653  0.122377  0.552982  1
  Li  Li4  1  0.560347  0.877623  0.447018  1
  Li  Li5  1  0.939653  0.377623  0.552982  1
  Li  Li6  1  0.146835  0.728383  0.071249  1
  Li  Li7  1  0.646835  0.771617  0.071249  1
  Nb  Nb8  1  0.250215  0.916498  0.778032  1
  Nb  Nb9  1  0.750215  0.583502  0.778032  1
  Nb  Nb10  1  0.249785  0.416498  0.221968  1
  Nb  Nb11  1  0.749785  0.083502  0.221968  1
  P  P12  1  0.258438  0.525594  0.818298  1
  P  P13  1  0.758438  0.974406  0.818298  1
  P  P14  1  0.459624  0.354175  0.643296  1
  P  P15  1  0.959624  0.145825  0.643296  1
  P  P16  1  0.040376  0.854175  0.356704  1
  P  P17  1  0.540376  0.645825  0.356704  1
  P  P18  1  0.241562  0.025594  0.181702  1
  P  P19  1  0.741562  0.474406  0.181702  1
  O  O20  1  0.272733  0.034949  0.991439  1
  O  O21  1  0.772733  0.465051  0.991439  1
  O  O22  1  0.336540  0.807207  0.918215  1
  O  O23  1  0.836540  0.692793  0.918215  1
  O  O24  1  0.339175  0.406803  0.793932  1
  O  O25  1  0.048555  0.537631  0.691197  1
  O  O26  1  0.422065  0.601442  0.765776  1
  O  O27  1  0.002769  0.257106  0.715571  1
  O  O28  1  0.839175  0.093197  0.793932  1
  O  O29  1  0.548555  0.962369  0.691197  1
  O  O30  1  0.922065  0.898558  0.765776  1
  O  O31  1  0.502769  0.242894  0.715571  1
  O  O32  1  0.154362  0.078323  0.632987  1
  O  O33  1  0.654362  0.421677  0.632987  1
  O  O34  1  0.205863  0.853820  0.522759  1
  O  O35  1  0.705863  0.646180  0.522759  1
  O  O36  1  0.294137  0.353820  0.477241  1
  O  O37  1  0.794137  0.146180  0.477241  1
  O  O38  1  0.345638  0.578323  0.367013  1
  O  O39  1  0.845638  0.921677  0.367013  1
  O  O40  1  0.497231  0.757106  0.284429  1
  O  O41  1  0.077935  0.101442  0.234224  1
  O  O42  1  0.451445  0.037631  0.308803  1
  O  O43  1  0.160825  0.906803  0.206068  1
  O  O44  1  0.997231  0.742894  0.284429  1
  O  O45  1  0.577935  0.398558  0.234224  1
  O  O46  1  0.951445  0.462369  0.308803  1
  O  O47  1  0.660825  0.593197  0.206068  1
  O  O48  1  0.163460  0.307207  0.081785  1
  O  O49  1  0.663460  0.192793  0.081785  1
  O  O50  1  0.227267  0.534949  0.008561  1
  O  O51  1  0.727267  0.965051  0.008561  1
