# generated using pymatgen
data_Li3Fe8(BO3)8
_symmetry_space_group_name_H-M   'P 1'
_cell_length_a   5.26550863
_cell_length_b   9.16345856
_cell_length_c   11.35404450
_cell_angle_alpha   113.11466412
_cell_angle_beta   103.02386100
_cell_angle_gamma   90.24135533
_symmetry_Int_Tables_number   1
_chemical_formula_structural   Li3Fe8(BO3)8
_chemical_formula_sum   'Li3 Fe8 B8 O24'
_cell_volume   488.26210765
_cell_formula_units_Z   1
loop_
 _symmetry_equiv_pos_site_id
 _symmetry_equiv_pos_as_xyz
  1  'x, y, z'
loop_
 _atom_site_type_symbol
 _atom_site_label
 _atom_site_symmetry_multiplicity
 _atom_site_fract_x
 _atom_site_fract_y
 _atom_site_fract_z
 _atom_site_occupancy
  Li  Li0  1  0.822541  0.493203  0.342936  1
  Li  Li1  1  0.323331  0.989197  0.334303  1
  Li  Li2  1  0.603368  0.244961  0.834310  1
  Fe  Fe3  1  0.647533  0.646811  0.623806  1
  Fe  Fe4  1  0.387376  0.067742  0.115823  1
  Fe  Fe5  1  0.836544  0.846045  0.376678  1
  Fe  Fe6  1  0.109109  0.440984  0.870057  1
  Fe  Fe7  1  0.896380  0.569581  0.124613  1
  Fe  Fe8  1  0.133956  0.146389  0.616952  1
  Fe  Fe9  1  0.336380  0.345602  0.373738  1
  Fe  Fe10  1  0.624196  0.931237  0.870492  1
  B  B11  1  0.644855  0.319723  0.627438  1
  B  B12  1  0.388407  0.398074  0.123878  1
  B  B13  1  0.842651  0.183476  0.370141  1
  B  B14  1  0.107724  0.114214  0.874197  1
  B  B15  1  0.150095  0.810708  0.621815  1
  B  B16  1  0.890580  0.899688  0.126031  1
  B  B17  1  0.347480  0.682402  0.371943  1
  B  B18  1  0.605492  0.597448  0.868862  1
  O  O19  1  0.153706  0.934895  0.146585  1
  O  O20  1  0.302295  0.288726  0.165548  1
  O  O21  1  0.205476  0.477520  0.066490  1
  O  O22  1  0.461812  0.815239  0.371259  1
  O  O23  1  0.494808  0.578281  0.415490  1
  O  O24  1  0.570314  0.145308  0.326936  1
  O  O25  1  0.919634  0.327849  0.670845  1
  O  O26  1  0.650375  0.433080  0.142105  1
  O  O27  1  0.806590  0.783042  0.163569  1
  O  O28  1  0.041698  0.928273  0.580829  1
  O  O29  1  0.990304  0.689460  0.614644  1
  O  O30  1  0.709696  0.981417  0.075223  1
  O  O31  1  0.279234  0.026516  0.924052  1
  O  O32  1  0.960391  0.312908  0.367512  1
  O  O33  1  0.996871  0.081808  0.418732  1
  O  O34  1  0.225514  0.219305  0.829226  1
  O  O35  1  0.348250  0.589473  0.870479  1
  O  O36  1  0.071570  0.644552  0.324563  1
  O  O37  1  0.420942  0.818587  0.662665  1
  O  O38  1  0.535401  0.422340  0.574966  1
  O  O39  1  0.495257  0.209056  0.643223  1
  O  O40  1  0.767501  0.496632  0.916447  1
  O  O41  1  0.715532  0.693140  0.822411  1
  O  O42  1  0.848731  0.107108  0.866399  1
