# generated using pymatgen
data_WN2
_symmetry_space_group_name_H-M   'P 1'
_cell_length_a   5.78037559
_cell_length_b   5.78037559
_cell_length_c   6.33070105
_cell_angle_alpha   90.00000000
_cell_angle_beta   90.00000000
_cell_angle_gamma   120.00000000
_symmetry_Int_Tables_number   1
_chemical_formula_structural   WN2
_chemical_formula_sum   'W3 N6'
_cell_volume   183.18695961
_cell_formula_units_Z   3
loop_
 _symmetry_equiv_pos_site_id
 _symmetry_equiv_pos_as_xyz
  1  'x, y, z'
loop_
 _atom_site_type_symbol
 _atom_site_label
 _atom_site_symmetry_multiplicity
 _atom_site_fract_x
 _atom_site_fract_y
 _atom_site_fract_z
 _atom_site_occupancy
  W  W0  1  0.000000  0.474578  0.666667  1
  W  W1  1  0.525422  0.525422  0.000000  1
  W  W2  1  0.474578  0.000000  0.333333  1
  N  N3  1  0.163338  0.742284  0.464080  1
  N  N4  1  0.257716  0.421054  0.797413  1
  N  N5  1  0.578946  0.836662  0.130746  1
  N  N6  1  0.421054  0.257716  0.202587  1
  N  N7  1  0.836662  0.578946  0.869254  1
  N  N8  1  0.742284  0.163338  0.535920  1
