# generated using pymatgen
data_Li3MnSiO5
_symmetry_space_group_name_H-M   'P 1'
_cell_length_a   5.00750815
_cell_length_b   5.48688723
_cell_length_c   15.88359764
_cell_angle_alpha   90.00000000
_cell_angle_beta   90.00000000
_cell_angle_gamma   90.00000000
_symmetry_Int_Tables_number   1
_chemical_formula_structural   Li3MnSiO5
_chemical_formula_sum   'Li12 Mn4 Si4 O20'
_cell_volume   436.41189194
_cell_formula_units_Z   4
loop_
 _symmetry_equiv_pos_site_id
 _symmetry_equiv_pos_as_xyz
  1  'x, y, z'
loop_
 _atom_site_type_symbol
 _atom_site_label
 _atom_site_symmetry_multiplicity
 _atom_site_fract_x
 _atom_site_fract_y
 _atom_site_fract_z
 _atom_site_occupancy
  Li  Li0  1  0.994257  0.163847  0.590546  1
  Li  Li1  1  0.994257  0.663847  0.909454  1
  Li  Li2  1  0.499226  0.835817  0.993543  1
  Li  Li3  1  0.499226  0.335817  0.506457  1
  Li  Li4  1  0.508572  0.826895  0.802686  1
  Li  Li5  1  0.508572  0.326895  0.697314  1
  Li  Li6  1  0.494257  0.836153  0.409454  1
  Li  Li7  1  0.494257  0.336153  0.090546  1
  Li  Li8  1  0.999226  0.164183  0.006457  1
  Li  Li9  1  0.999226  0.664183  0.493543  1
  Li  Li10  1  0.008572  0.673105  0.302686  1
  Li  Li11  1  0.008572  0.173105  0.197314  1
  Mn  Mn12  1  0.007546  0.671643  0.697282  1
  Mn  Mn13  1  0.007546  0.171643  0.802718  1
  Mn  Mn14  1  0.507546  0.828357  0.197282  1
  Mn  Mn15  1  0.507546  0.328357  0.302718  1
  Si  Si16  1  0.005893  0.663247  0.097965  1
  Si  Si17  1  0.005893  0.163247  0.402035  1
  Si  Si18  1  0.505893  0.836753  0.597965  1
  Si  Si19  1  0.505893  0.336753  0.902035  1
  O  O20  1  0.098544  0.840701  0.795792  1
  O  O21  1  0.098544  0.340701  0.704208  1
  O  O22  1  0.103353  0.880064  0.397792  1
  O  O23  1  0.103353  0.380064  0.102208  1
  O  O24  1  0.103945  0.813521  0.015207  1
  O  O25  1  0.103945  0.313521  0.484793  1
  O  O26  1  0.105141  0.810238  0.185702  1
  O  O27  1  0.105141  0.310238  0.314298  1
  O  O28  1  0.168805  0.829636  0.601508  1
  O  O29  1  0.168805  0.329636  0.898492  1
  O  O30  1  0.598544  0.159299  0.204208  1
  O  O31  1  0.598544  0.659299  0.295792  1
  O  O32  1  0.603353  0.119936  0.602208  1
  O  O33  1  0.603353  0.619936  0.897792  1
  O  O34  1  0.603945  0.686479  0.515207  1
  O  O35  1  0.603945  0.186479  0.984793  1
  O  O36  1  0.605141  0.689762  0.685702  1
  O  O37  1  0.605141  0.189762  0.814298  1
  O  O38  1  0.668805  0.670364  0.101508  1
  O  O39  1  0.668805  0.170364  0.398492  1
