# generated using pymatgen
data_LaAsO4
_symmetry_space_group_name_H-M   'P 1'
_cell_length_a   6.23426473
_cell_length_b   6.23426473
_cell_length_c   6.23426473
_cell_angle_alpha   106.42444117
_cell_angle_beta   106.42444117
_cell_angle_gamma   115.75339913
_symmetry_Int_Tables_number   1
_chemical_formula_structural   LaAsO4
_chemical_formula_sum   'La2 As2 O8'
_cell_volume   184.82371054
_cell_formula_units_Z   2
loop_
 _symmetry_equiv_pos_site_id
 _symmetry_equiv_pos_as_xyz
  1  'x, y, z'
loop_
 _atom_site_type_symbol
 _atom_site_label
 _atom_site_symmetry_multiplicity
 _atom_site_fract_x
 _atom_site_fract_y
 _atom_site_fract_z
 _atom_site_occupancy
  La  La0  1  0.000000  0.000000  0.000000  1
  La  La1  1  0.250000  0.750000  0.500000  1
  As  As2  1  0.500000  0.500000  0.000000  1
  As  As3  1  0.750000  0.250000  0.500000  1
  O  O4  1  0.334267  0.511945  0.177679  1
  O  O5  1  0.843412  0.665733  0.177679  1
  O  O6  1  0.406588  0.084267  0.322321  1
  O  O7  1  0.488055  0.665733  0.822321  1
  O  O8  1  0.915733  0.593412  0.677679  1
  O  O9  1  0.915733  0.238055  0.322321  1
  O  O10  1  0.334267  0.156588  0.822321  1
  O  O11  1  0.761945  0.084267  0.677679  1
