# generated using pymatgen
data_Li2Fe2NiO6
_symmetry_space_group_name_H-M   'P 1'
_cell_length_a   5.04917328
_cell_length_b   5.04917328
_cell_length_c   10.15864296
_cell_angle_alpha   90.00000000
_cell_angle_beta   90.00000000
_cell_angle_gamma   120.01674522
_symmetry_Int_Tables_number   1
_chemical_formula_structural   Li2Fe2NiO6
_chemical_formula_sum   'Li4 Fe4 Ni2 O12'
_cell_volume   224.25057938
_cell_formula_units_Z   2
loop_
 _symmetry_equiv_pos_site_id
 _symmetry_equiv_pos_as_xyz
  1  'x, y, z'
loop_
 _atom_site_type_symbol
 _atom_site_label
 _atom_site_symmetry_multiplicity
 _atom_site_fract_x
 _atom_site_fract_y
 _atom_site_fract_z
 _atom_site_occupancy
  Li  Li0  1  0.658804  0.158804  0.750000  1
  Li  Li1  1  0.841196  0.341196  0.250000  1
  Li  Li2  1  0.158804  0.658804  0.750000  1
  Li  Li3  1  0.341196  0.841196  0.250000  1
  Fe  Fe4  1  0.835770  0.164230  0.500000  1
  Fe  Fe5  1  0.664230  0.335770  0.000000  1
  Fe  Fe6  1  0.335770  0.664230  1.000000  1
  Fe  Fe7  1  0.164230  0.835770  0.500000  1
  Ni  Ni8  1  0.000000  0.000000  0.000000  1
  Ni  Ni9  1  0.500000  0.500000  0.500000  1
  O  O10  1  0.644331  0.007392  0.104562  1
  O  O11  1  0.355669  0.992608  0.895438  1
  O  O12  1  0.507392  0.144331  0.395438  1
  O  O13  1  0.855669  0.492608  0.604562  1
  O  O14  1  0.148643  0.148643  0.598099  1
  O  O15  1  0.351357  0.351357  0.098099  1
  O  O16  1  0.648643  0.648643  0.901901  1
  O  O17  1  0.992608  0.355669  0.895438  1
  O  O18  1  0.851357  0.851357  0.401901  1
  O  O19  1  0.144331  0.507392  0.395438  1
  O  O20  1  0.492608  0.855669  0.604562  1
  O  O21  1  0.007392  0.644331  0.104562  1
