# generated using pymatgen
data_Mn6O7F5
_symmetry_space_group_name_H-M   'P 1'
_cell_length_a   4.62123863
_cell_length_b   5.63289300
_cell_length_c   7.73685310
_cell_angle_alpha   86.19793110
_cell_angle_beta   89.50348986
_cell_angle_gamma   88.61748164
_symmetry_Int_Tables_number   1
_chemical_formula_structural   Mn6O7F5
_chemical_formula_sum   'Mn6 O7 F5'
_cell_volume   200.89078061
_cell_formula_units_Z   1
loop_
 _symmetry_equiv_pos_site_id
 _symmetry_equiv_pos_as_xyz
  1  'x, y, z'
loop_
 _atom_site_type_symbol
 _atom_site_label
 _atom_site_symmetry_multiplicity
 _atom_site_fract_x
 _atom_site_fract_y
 _atom_site_fract_z
 _atom_site_occupancy
  Mn  Mn0  1  0.492951  0.497672  0.997816  1
  Mn  Mn1  1  0.511687  0.825828  0.649474  1
  Mn  Mn2  1  0.506590  0.178338  0.356683  1
  Mn  Mn3  1  0.994050  0.332507  0.671722  1
  Mn  Mn4  1  0.976694  0.650755  0.318297  1
  Mn  Mn5  1  0.007645  0.004098  0.004882  1
  O  O6  1  0.797623  0.363946  0.444886  1
  O  O7  1  0.817166  0.711239  0.092131  1
  O  O8  1  0.683656  0.539230  0.765162  1
  O  O9  1  0.709274  0.879155  0.429395  1
  O  O10  1  0.311245  0.124596  0.567148  1
  O  O11  1  0.310702  0.460201  0.235207  1
  O  O12  1  0.184407  0.291465  0.902648  1
  F  F13  1  0.790366  0.031104  0.780527  1
  F  F14  1  0.703485  0.194665  0.124549  1
  F  F15  1  0.295482  0.809282  0.876723  1
  F  F16  1  0.184916  0.634704  0.548317  1
  F  F17  1  0.222062  0.971217  0.234433  1
