# generated using pymatgen
data_LiMnF4
_symmetry_space_group_name_H-M   'P 1'
_cell_length_a   6.36313111
_cell_length_b   6.36313111
_cell_length_c   11.38294830
_cell_angle_alpha   90.00000000
_cell_angle_beta   90.00000000
_cell_angle_gamma   93.01059645
_symmetry_Int_Tables_number   1
_chemical_formula_structural   LiMnF4
_chemical_formula_sum   'Li6 Mn6 F24'
_cell_volume   460.25307246
_cell_formula_units_Z   6
loop_
 _symmetry_equiv_pos_site_id
 _symmetry_equiv_pos_as_xyz
  1  'x, y, z'
loop_
 _atom_site_type_symbol
 _atom_site_label
 _atom_site_symmetry_multiplicity
 _atom_site_fract_x
 _atom_site_fract_y
 _atom_site_fract_z
 _atom_site_occupancy
  Li  Li0  1  0.329468  0.329468  0.000000  1
  Li  Li1  1  0.329468  0.329468  0.500000  1
  Li  Li2  1  0.826404  0.173596  0.250000  1
  Li  Li3  1  0.173596  0.826404  0.750000  1
  Li  Li4  1  0.670532  0.670532  0.500000  1
  Li  Li5  1  0.670532  0.670532  0.000000  1
  Mn  Mn6  1  0.147436  0.852564  0.071674  1
  Mn  Mn7  1  0.147436  0.852564  0.428326  1
  Mn  Mn8  1  0.573356  0.426644  0.750000  1
  Mn  Mn9  1  0.852564  0.147436  0.928326  1
  Mn  Mn10  1  0.852564  0.147436  0.571674  1
  Mn  Mn11  1  0.426644  0.573356  0.250000  1
  F  F12  1  0.348778  0.066120  0.073364  1
  F  F13  1  0.348778  0.066120  0.426636  1
  F  F14  1  0.066120  0.348778  0.926636  1
  F  F15  1  0.066120  0.348778  0.573364  1
  F  F16  1  0.212276  0.371262  0.250000  1
  F  F17  1  0.371262  0.212276  0.750000  1
  F  F18  1  0.076798  0.923202  0.598169  1
  F  F19  1  0.629675  0.370325  0.250000  1
  F  F20  1  0.076798  0.923202  0.901831  1
  F  F21  1  0.203506  0.796494  0.250000  1
  F  F22  1  0.370325  0.629675  0.750000  1
  F  F23  1  0.923202  0.076798  0.098169  1
  F  F24  1  0.796494  0.203506  0.750000  1
  F  F25  1  0.626554  0.373446  0.560255  1
  F  F26  1  0.373446  0.626554  0.060255  1
  F  F27  1  0.923202  0.076798  0.401831  1
  F  F28  1  0.373446  0.626554  0.439745  1
  F  F29  1  0.626554  0.373446  0.939745  1
  F  F30  1  0.628738  0.787724  0.250000  1
  F  F31  1  0.787724  0.628738  0.750000  1
  F  F32  1  0.651222  0.933880  0.573364  1
  F  F33  1  0.651222  0.933880  0.926636  1
  F  F34  1  0.933880  0.651222  0.073364  1
  F  F35  1  0.933880  0.651222  0.426636  1
