# generated using pymatgen
data_Li3Bi(BO3)2
_symmetry_space_group_name_H-M   'P 1'
_cell_length_a   6.66131758
_cell_length_b   8.61209511
_cell_length_c   11.00693222
_cell_angle_alpha   90.00000000
_cell_angle_beta   122.05195982
_cell_angle_gamma   90.00000000
_symmetry_Int_Tables_number   1
_chemical_formula_structural   Li3Bi(BO3)2
_chemical_formula_sum   'Li12 Bi4 B8 O24'
_cell_volume   535.19171301
_cell_formula_units_Z   4
loop_
 _symmetry_equiv_pos_site_id
 _symmetry_equiv_pos_as_xyz
  1  'x, y, z'
loop_
 _atom_site_type_symbol
 _atom_site_label
 _atom_site_symmetry_multiplicity
 _atom_site_fract_x
 _atom_site_fract_y
 _atom_site_fract_z
 _atom_site_occupancy
  Li  Li0  1  0.731884  0.741467  0.178699  1
  Li  Li1  1  0.938367  0.182122  0.388963  1
  Li  Li2  1  0.154434  0.575397  0.401792  1
  Li  Li3  1  0.845566  0.075397  0.098208  1
  Li  Li4  1  0.061633  0.682122  0.111037  1
  Li  Li5  1  0.268116  0.241467  0.321301  1
  Li  Li6  1  0.731884  0.758533  0.678699  1
  Li  Li7  1  0.938367  0.317878  0.888963  1
  Li  Li8  1  0.154434  0.924603  0.901792  1
  Li  Li9  1  0.845566  0.424603  0.598208  1
  Li  Li10  1  0.061633  0.817878  0.611037  1
  Li  Li11  1  0.268116  0.258533  0.821301  1
  Bi  Bi12  1  0.504206  0.621619  0.850075  1
  Bi  Bi13  1  0.495794  0.121619  0.649925  1
  Bi  Bi14  1  0.504206  0.878381  0.350075  1
  Bi  Bi15  1  0.495794  0.378381  0.149925  1
  B  B16  1  0.075290  0.894960  0.353651  1
  B  B17  1  0.344070  0.435733  0.606613  1
  B  B18  1  0.655930  0.935733  0.893387  1
  B  B19  1  0.924710  0.394960  0.146349  1
  B  B20  1  0.075290  0.605040  0.853651  1
  B  B21  1  0.344070  0.064267  0.106613  1
  B  B22  1  0.655930  0.564267  0.393387  1
  B  B23  1  0.924710  0.105040  0.646349  1
  O  O24  1  0.881401  0.890564  0.365013  1
  O  O25  1  0.788753  0.529375  0.117131  1
  O  O26  1  0.858320  0.263544  0.192825  1
  O  O27  1  0.271414  0.587515  0.603974  1
  O  O28  1  0.705837  0.860288  0.016737  1
  O  O29  1  0.473421  0.362346  0.741377  1
  O  O30  1  0.526579  0.862346  0.758623  1
  O  O31  1  0.294163  0.360288  0.483263  1
  O  O32  1  0.141680  0.763544  0.307175  1
  O  O33  1  0.728586  0.087515  0.896026  1
  O  O34  1  0.211247  0.029375  0.382869  1
  O  O35  1  0.118599  0.390564  0.134987  1
  O  O36  1  0.881401  0.609436  0.865013  1
  O  O37  1  0.788753  0.970625  0.617131  1
  O  O38  1  0.271414  0.912485  0.103974  1
  O  O39  1  0.858320  0.236456  0.692825  1
  O  O40  1  0.705837  0.639712  0.516737  1
  O  O41  1  0.473421  0.137654  0.241377  1
  O  O42  1  0.526579  0.637654  0.258623  1
  O  O43  1  0.294163  0.139712  0.983263  1
  O  O44  1  0.728586  0.412485  0.396026  1
  O  O45  1  0.141680  0.736456  0.807175  1
  O  O46  1  0.211247  0.470625  0.882869  1
  O  O47  1  0.118599  0.109436  0.634987  1
