# generated using pymatgen
data_VF5
_symmetry_space_group_name_H-M   'P 1'
_cell_length_a   7.21359930
_cell_length_b   6.59135823
_cell_length_c   8.70076567
_cell_angle_alpha   90.00000000
_cell_angle_beta   92.97250813
_cell_angle_gamma   90.00000000
_symmetry_Int_Tables_number   1
_chemical_formula_structural   VF5
_chemical_formula_sum   'V4 F20'
_cell_volume   413.14231572
_cell_formula_units_Z   4
loop_
 _symmetry_equiv_pos_site_id
 _symmetry_equiv_pos_as_xyz
  1  'x, y, z'
loop_
 _atom_site_type_symbol
 _atom_site_label
 _atom_site_symmetry_multiplicity
 _atom_site_fract_x
 _atom_site_fract_y
 _atom_site_fract_z
 _atom_site_occupancy
  V  V0  1  0.253892  0.780665  0.567953  1
  V  V1  1  0.253892  0.719335  0.067953  1
  V  V2  1  0.746108  0.280665  0.932047  1
  V  V3  1  0.746108  0.219335  0.432047  1
  F  F4  1  0.976748  0.234224  0.885499  1
  F  F5  1  0.976748  0.265776  0.385499  1
  F  F6  1  0.253650  0.652000  0.874093  1
  F  F7  1  0.253650  0.848000  0.374093  1
  F  F8  1  0.227006  0.026316  0.646791  1
  F  F9  1  0.227006  0.473684  0.146791  1
  F  F10  1  0.281693  0.516511  0.545874  1
  F  F11  1  0.281693  0.983489  0.045874  1
  F  F12  1  0.515377  0.287586  0.855518  1
  F  F13  1  0.515377  0.212414  0.355518  1
  F  F14  1  0.484623  0.787586  0.644482  1
  F  F15  1  0.484623  0.712414  0.144482  1
  F  F16  1  0.718307  0.016511  0.954126  1
  F  F17  1  0.718307  0.483489  0.454126  1
  F  F18  1  0.772994  0.526316  0.853209  1
  F  F19  1  0.772994  0.973684  0.353209  1
  F  F20  1  0.746350  0.152000  0.625907  1
  F  F21  1  0.746350  0.348000  0.125907  1
  F  F22  1  0.023252  0.734224  0.614501  1
  F  F23  1  0.023252  0.765776  0.114501  1
