# generated using pymatgen
data_Li4V3Fe3(WO8)2
_symmetry_space_group_name_H-M   'P 1'
_cell_length_a   6.04838991
_cell_length_b   6.04838991
_cell_length_c   9.82020056
_cell_angle_alpha   89.18401846
_cell_angle_beta   90.81598154
_cell_angle_gamma   119.95325509
_symmetry_Int_Tables_number   1
_chemical_formula_structural   Li4V3Fe3(WO8)2
_chemical_formula_sum   'Li4 V3 Fe3 W2 O16'
_cell_volume   311.22621361
_cell_formula_units_Z   1
loop_
 _symmetry_equiv_pos_site_id
 _symmetry_equiv_pos_as_xyz
  1  'x, y, z'
loop_
 _atom_site_type_symbol
 _atom_site_label
 _atom_site_symmetry_multiplicity
 _atom_site_fract_x
 _atom_site_fract_y
 _atom_site_fract_z
 _atom_site_occupancy
  Li  Li0  1  0.670329  0.329671  0.095258  1
  Li  Li1  1  0.996512  0.003488  0.011254  1
  Li  Li2  1  0.997906  0.002094  0.512035  1
  Li  Li3  1  0.338330  0.661670  0.593539  1
  V  V4  1  0.823812  0.176188  0.777812  1
  V  V5  1  0.654367  0.834166  0.283813  1
  V  V6  1  0.165834  0.345633  0.283813  1
  Fe  Fe7  1  0.826931  0.662926  0.787921  1
  Fe  Fe8  1  0.337074  0.173069  0.787921  1
  Fe  Fe9  1  0.168770  0.831230  0.288698  1
  W  W10  1  0.663017  0.336983  0.511142  1
  W  W11  1  0.329249  0.670751  0.011468  1
  O  O12  1  0.818460  0.655089  0.414549  1
  O  O13  1  0.525249  0.474751  0.641763  1
  O  O14  1  0.683521  0.316479  0.888474  1
  O  O15  1  0.986586  0.013414  0.703454  1
  O  O16  1  0.995722  0.004278  0.199548  1
  O  O17  1  0.344911  0.181540  0.414549  1
  O  O18  1  0.961154  0.463491  0.648492  1
  O  O19  1  0.536509  0.038846  0.648492  1
  O  O20  1  0.170454  0.829546  0.919237  1
  O  O21  1  0.824534  0.175466  0.407480  1
  O  O22  1  0.494460  0.958462  0.147895  1
  O  O23  1  0.041538  0.505540  0.147895  1
  O  O24  1  0.337259  0.662741  0.391962  1
  O  O25  1  0.646902  0.833321  0.911731  1
  O  O26  1  0.479884  0.520116  0.152004  1
  O  O27  1  0.166679  0.353098  0.911731  1
