# generated using pymatgen
data_Fe7O3F13
_symmetry_space_group_name_H-M   'P 1'
_cell_length_a   6.16752738
_cell_length_b   6.19914357
_cell_length_c   10.59866844
_cell_angle_alpha   106.70737013
_cell_angle_beta   90.56335961
_cell_angle_gamma   118.57239985
_symmetry_Int_Tables_number   1
_chemical_formula_structural   Fe7O3F13
_chemical_formula_sum   'Fe7 O3 F13'
_cell_volume   335.58031952
_cell_formula_units_Z   1
loop_
 _symmetry_equiv_pos_site_id
 _symmetry_equiv_pos_as_xyz
  1  'x, y, z'
loop_
 _atom_site_type_symbol
 _atom_site_label
 _atom_site_symmetry_multiplicity
 _atom_site_fract_x
 _atom_site_fract_y
 _atom_site_fract_z
 _atom_site_occupancy
  Fe  Fe0  1  0.734001  0.234156  0.263478  1
  Fe  Fe1  1  0.470083  0.489216  0.994597  1
  Fe  Fe2  1  0.243352  0.260593  0.751332  1
  Fe  Fe3  1  0.754415  0.734216  0.747935  1
  Fe  Fe4  1  0.733995  0.736609  0.259273  1
  Fe  Fe5  1  0.017709  0.997512  0.494762  1
  Fe  Fe6  1  0.817746  0.210158  0.927780  1
  O  O7  1  0.635350  0.408150  0.870631  1
  O  O8  1  0.685349  0.907734  0.365234  1
  O  O9  1  0.121532  0.350700  0.885072  1
  F  F10  1  0.435051  0.160731  0.131308  1
  F  F11  1  0.839278  0.591540  0.148203  1
  F  F12  1  0.874364  0.079547  0.622837  1
  F  F13  1  0.413104  0.623720  0.654736  1
  F  F14  1  0.074523  0.327441  0.373100  1
  F  F15  1  0.845453  0.108785  0.126728  1
  F  F16  1  0.322627  0.129158  0.615577  1
  F  F17  1  0.437677  0.655238  0.124837  1
  F  F18  1  0.086807  0.891097  0.849174  1
  F  F19  1  0.645410  0.394787  0.361824  1
  F  F20  1  0.879850  0.671420  0.618866  1
  F  F21  1  0.080128  0.859563  0.370908  1
  F  F22  1  0.653123  0.875282  0.875936  1
