# generated using pymatgen
data_Li4Mn5O9F
_symmetry_space_group_name_H-M   'P 1'
_cell_length_a   5.13428316
_cell_length_b   5.13428316
_cell_length_c   13.98417390
_cell_angle_alpha   78.23329955
_cell_angle_beta   101.76670045
_cell_angle_gamma   147.22094946
_symmetry_Int_Tables_number   1
_chemical_formula_structural   Li4Mn5O9F
_chemical_formula_sum   'Li4 Mn5 O9 F1'
_cell_volume   195.01826243
_cell_formula_units_Z   1
loop_
 _symmetry_equiv_pos_site_id
 _symmetry_equiv_pos_as_xyz
  1  'x, y, z'
loop_
 _atom_site_type_symbol
 _atom_site_label
 _atom_site_symmetry_multiplicity
 _atom_site_fract_x
 _atom_site_fract_y
 _atom_site_fract_z
 _atom_site_occupancy
  Li  Li0  1  0.803284  0.196716  0.605815  1
  Li  Li1  1  0.607746  0.392254  0.203541  1
  Li  Li2  1  0.383607  0.616393  0.813934  1
  Li  Li3  1  0.209723  0.790277  0.398167  1
  Mn  Mn4  1  0.909716  0.090284  0.300289  1
  Mn  Mn5  1  0.667798  0.332202  0.896554  1
  Mn  Mn6  1  0.329337  0.670663  0.091065  1
  Mn  Mn7  1  0.510561  0.489439  0.495276  1
  Mn  Mn8  1  0.093226  0.906774  0.696202  1
  O  O9  1  0.876933  0.123067  0.441840  1
  O  O10  1  0.953102  0.046898  0.174435  1
  O  O11  1  0.726999  0.273001  0.739074  1
  O  O12  1  0.543740  0.456260  0.342509  1
  O  O13  1  0.461861  0.538139  0.642505  1
  O  O14  1  0.277255  0.722745  0.267532  1
  O  O15  1  0.298210  0.701790  0.939464  1
  O  O16  1  0.039751  0.960249  0.843181  1
  O  O17  1  0.145405  0.854595  0.535559  1
  F  F18  1  0.661749  0.338251  0.073058  1
