# generated using pymatgen
data_AlCuO3
_symmetry_space_group_name_H-M   'P 1'
_cell_length_a   4.70912309
_cell_length_b   6.78166696
_cell_length_c   6.23274991
_cell_angle_alpha   90.00000000
_cell_angle_beta   94.51788193
_cell_angle_gamma   90.00000000
_symmetry_Int_Tables_number   1
_chemical_formula_structural   AlCuO3
_chemical_formula_sum   'Al4 Cu4 O12'
_cell_volume   198.42877915
_cell_formula_units_Z   4
loop_
 _symmetry_equiv_pos_site_id
 _symmetry_equiv_pos_as_xyz
  1  'x, y, z'
loop_
 _atom_site_type_symbol
 _atom_site_label
 _atom_site_symmetry_multiplicity
 _atom_site_fract_x
 _atom_site_fract_y
 _atom_site_fract_z
 _atom_site_occupancy
  Al  Al0  1  0.481508  0.197756  0.748111  1
  Al  Al1  1  0.518492  0.697756  0.751889  1
  Al  Al2  1  0.481508  0.302244  0.248111  1
  Al  Al3  1  0.518492  0.802244  0.251889  1
  Cu  Cu4  1  0.000000  0.000000  0.500000  1
  Cu  Cu5  1  0.000000  0.500000  0.500000  1
  Cu  Cu6  1  0.000000  0.000000  0.000000  1
  Cu  Cu7  1  0.000000  0.500000  0.000000  1
  O  O8  1  0.148832  0.605581  0.758462  1
  O  O9  1  0.148832  0.894419  0.258462  1
  O  O10  1  0.304719  0.188520  0.002837  1
  O  O11  1  0.304719  0.311480  0.502837  1
  O  O12  1  0.339216  0.943571  0.669671  1
  O  O13  1  0.339216  0.556429  0.169671  1
  O  O14  1  0.660784  0.443571  0.830329  1
  O  O15  1  0.660784  0.056429  0.330329  1
  O  O16  1  0.695281  0.688520  0.497163  1
  O  O17  1  0.695281  0.811480  0.997163  1
  O  O18  1  0.851168  0.105581  0.741538  1
  O  O19  1  0.851168  0.394419  0.241538  1
