# generated using pymatgen
data_ZnPH3O5
_symmetry_space_group_name_H-M   'P 1'
_cell_length_a   6.51011376
_cell_length_b   7.79010300
_cell_length_c   12.35956171
_cell_angle_alpha   74.37566354
_cell_angle_beta   81.92706170
_cell_angle_gamma   81.70870988
_symmetry_Int_Tables_number   1
_chemical_formula_structural   ZnPH3O5
_chemical_formula_sum   'Zn6 P6 H18 O30'
_cell_volume   593.93320559
_cell_formula_units_Z   6
loop_
 _symmetry_equiv_pos_site_id
 _symmetry_equiv_pos_as_xyz
  1  'x, y, z'
loop_
 _atom_site_type_symbol
 _atom_site_label
 _atom_site_symmetry_multiplicity
 _atom_site_fract_x
 _atom_site_fract_y
 _atom_site_fract_z
 _atom_site_occupancy
  Zn  Zn0  1  0.025406  0.062489  0.799949  1
  Zn  Zn1  1  0.139033  0.670515  0.449524  1
  Zn  Zn2  1  0.352052  0.885450  0.590776  1
  Zn  Zn3  1  0.647948  0.114550  0.409224  1
  Zn  Zn4  1  0.860967  0.329485  0.550476  1
  Zn  Zn5  1  0.974594  0.937511  0.200051  1
  P  P6  1  0.145551  0.130931  0.365368  1
  P  P7  1  0.351658  0.290948  0.612200  1
  P  P8  1  0.330665  0.690092  0.865037  1
  P  P9  1  0.669335  0.309908  0.134963  1
  P  P10  1  0.648342  0.709052  0.387800  1
  P  P11  1  0.854449  0.869069  0.634632  1
  H  H12  1  0.990764  0.214827  0.974055  1
  H  H13  1  0.165658  0.510584  0.279998  1
  H  H14  1  0.356740  0.051309  0.103856  1
  H  H15  1  0.293952  0.289257  0.196603  1
  H  H16  1  0.261798  0.989125  0.014278  1
  H  H17  1  0.163078  0.312925  0.880639  1
  H  H18  1  0.318522  0.662319  0.252582  1
  H  H19  1  0.348747  0.423403  0.996119  1
  H  H20  1  0.636921  0.498421  0.290937  1
  H  H21  1  0.363079  0.501579  0.709063  1
  H  H22  1  0.651253  0.576597  0.003881  1
  H  H23  1  0.681478  0.337681  0.747418  1
  H  H24  1  0.836922  0.687075  0.119361  1
  H  H25  1  0.738202  0.010875  0.985722  1
  H  H26  1  0.706048  0.710743  0.803397  1
  H  H27  1  0.643260  0.948691  0.896144  1
  H  H28  1  0.834342  0.489416  0.720002  1
  H  H29  1  0.009236  0.785173  0.025945  1
  O  O30  1  0.176133  0.301580  0.261668  1
  O  O31  1  0.061898  0.815126  0.567962  1
  O  O32  1  0.092175  0.203425  0.906892  1
  O  O33  1  0.176585  0.635387  0.285239  1
  O  O34  1  0.166901  0.408875  0.552436  1
  O  O35  1  0.131478  0.967402  0.320599  1
  O  O36  1  0.328102  0.095112  0.438053  1
  O  O37  1  0.282954  0.955082  0.094923  1
  O  O38  1  0.289296  0.100808  0.672946  1
  O  O39  1  0.456730  0.287630  0.099914  1
  O  O40  1  0.157061  0.830483  0.896512  1
  O  O41  1  0.264105  0.498083  0.932906  1
  O  O42  1  0.390309  0.367946  0.714540  1
  O  O43  1  0.349578  0.690966  0.739018  1
  O  O44  1  0.443675  0.711574  0.466971  1
  O  O45  1  0.556325  0.288426  0.533029  1
  O  O46  1  0.650422  0.309034  0.260982  1
  O  O47  1  0.609691  0.632054  0.285460  1
  O  O48  1  0.735895  0.501917  0.067094  1
  O  O49  1  0.842939  0.169517  0.103488  1
  O  O50  1  0.543270  0.712370  0.900086  1
  O  O51  1  0.710704  0.899192  0.327054  1
  O  O52  1  0.717046  0.044918  0.905077  1
  O  O53  1  0.671898  0.904888  0.561947  1
  O  O54  1  0.868522  0.032598  0.679401  1
  O  O55  1  0.833099  0.591125  0.447564  1
  O  O56  1  0.823415  0.364613  0.714761  1
  O  O57  1  0.907825  0.796575  0.093108  1
  O  O58  1  0.938102  0.184874  0.432038  1
  O  O59  1  0.823867  0.698420  0.738332  1
