# generated using pymatgen
data_Li3TiSiO5
_symmetry_space_group_name_H-M   'P 1'
_cell_length_a   5.01078687
_cell_length_b   5.45107928
_cell_length_c   15.85207979
_cell_angle_alpha   90.00000000
_cell_angle_beta   90.00000000
_cell_angle_gamma   90.00000000
_symmetry_Int_Tables_number   1
_chemical_formula_structural   Li3TiSiO5
_chemical_formula_sum   'Li12 Ti4 Si4 O20'
_cell_volume   432.98682206
_cell_formula_units_Z   4
loop_
 _symmetry_equiv_pos_site_id
 _symmetry_equiv_pos_as_xyz
  1  'x, y, z'
loop_
 _atom_site_type_symbol
 _atom_site_label
 _atom_site_symmetry_multiplicity
 _atom_site_fract_x
 _atom_site_fract_y
 _atom_site_fract_z
 _atom_site_occupancy
  Li  Li0  1  0.999144  0.666602  0.590247  1
  Li  Li1  1  0.999144  0.166602  0.909753  1
  Li  Li2  1  0.501979  0.336159  0.993207  1
  Li  Li3  1  0.501979  0.836159  0.506793  1
  Li  Li4  1  0.498947  0.326465  0.805528  1
  Li  Li5  1  0.498947  0.826465  0.694472  1
  Li  Li6  1  0.499144  0.333398  0.409753  1
  Li  Li7  1  0.499144  0.833398  0.090247  1
  Li  Li8  1  0.001979  0.663841  0.006793  1
  Li  Li9  1  0.001979  0.163841  0.493207  1
  Li  Li10  1  0.998947  0.173535  0.305528  1
  Li  Li11  1  0.998947  0.673535  0.194472  1
  Ti  Ti12  1  0.996131  0.179321  0.698314  1
  Ti  Ti13  1  0.996131  0.679321  0.801686  1
  Ti  Ti14  1  0.496131  0.320679  0.198314  1
  Ti  Ti15  1  0.496131  0.820679  0.301686  1
  Si  Si16  1  0.006213  0.161344  0.096975  1
  Si  Si17  1  0.006213  0.661344  0.403025  1
  Si  Si18  1  0.506213  0.338656  0.596975  1
  Si  Si19  1  0.506213  0.838656  0.903025  1
  O  O20  1  0.099444  0.343021  0.800241  1
  O  O21  1  0.099444  0.843021  0.699759  1
  O  O22  1  0.109110  0.379276  0.397858  1
  O  O23  1  0.109110  0.879276  0.102142  1
  O  O24  1  0.110529  0.314853  0.015599  1
  O  O25  1  0.110529  0.814853  0.484401  1
  O  O26  1  0.102025  0.309125  0.186734  1
  O  O27  1  0.102025  0.809125  0.313266  1
  O  O28  1  0.171476  0.327726  0.600884  1
  O  O29  1  0.171476  0.827726  0.899116  1
  O  O30  1  0.599444  0.656979  0.199759  1
  O  O31  1  0.599444  0.156979  0.300241  1
  O  O32  1  0.609110  0.620724  0.602142  1
  O  O33  1  0.609110  0.120724  0.897858  1
  O  O34  1  0.610529  0.185147  0.515599  1
  O  O35  1  0.610529  0.685147  0.984401  1
  O  O36  1  0.602025  0.190875  0.686734  1
  O  O37  1  0.602025  0.690875  0.813266  1
  O  O38  1  0.671476  0.172274  0.100884  1
  O  O39  1  0.671476  0.672274  0.399116  1
