# generated using pymatgen
data_Li2Ti3O7
_symmetry_space_group_name_H-M   'P 1'
_cell_length_a   5.70610254
_cell_length_b   5.70610254
_cell_length_c   10.57124715
_cell_angle_alpha   88.24946180
_cell_angle_beta   91.75053820
_cell_angle_gamma   128.71502820
_symmetry_Int_Tables_number   1
_chemical_formula_structural   Li2Ti3O7
_chemical_formula_sum   'Li4 Ti6 O14'
_cell_volume   268.41006324
_cell_formula_units_Z   2
loop_
 _symmetry_equiv_pos_site_id
 _symmetry_equiv_pos_as_xyz
  1  'x, y, z'
loop_
 _atom_site_type_symbol
 _atom_site_label
 _atom_site_symmetry_multiplicity
 _atom_site_fract_x
 _atom_site_fract_y
 _atom_site_fract_z
 _atom_site_occupancy
  Li  Li0  1  0.175033  0.472708  0.816661  1
  Li  Li1  1  0.527292  0.824967  0.316661  1
  Li  Li2  1  0.472708  0.175033  0.683339  1
  Li  Li3  1  0.824967  0.527292  0.183339  1
  Ti  Ti4  1  0.500000  0.000000  0.000000  1
  Ti  Ti5  1  0.762255  0.881691  0.603841  1
  Ti  Ti6  1  0.881691  0.762255  0.896159  1
  Ti  Ti7  1  0.118309  0.237745  0.103841  1
  Ti  Ti8  1  0.237745  0.118309  0.396159  1
  Ti  Ti9  1  0.000000  0.500000  0.500000  1
  O  O10  1  0.246903  0.884451  0.837901  1
  O  O11  1  0.115549  0.753097  0.337901  1
  O  O12  1  0.866067  0.077316  0.927403  1
  O  O13  1  0.406137  0.671067  0.517672  1
  O  O14  1  0.922684  0.133933  0.427403  1
  O  O15  1  0.626611  0.626611  0.750000  1
  O  O16  1  0.328933  0.593863  0.017672  1
  O  O17  1  0.671067  0.406137  0.982328  1
  O  O18  1  0.373389  0.373389  0.250000  1
  O  O19  1  0.077316  0.866067  0.572597  1
  O  O20  1  0.593863  0.328933  0.482328  1
  O  O21  1  0.133933  0.922684  0.072597  1
  O  O22  1  0.884451  0.246903  0.662099  1
  O  O23  1  0.753097  0.115549  0.162099  1
