# generated using pymatgen
data_Co3OF5
_symmetry_space_group_name_H-M   'P 1'
_cell_length_a   4.76362965
_cell_length_b   3.09443455
_cell_length_c   14.18754880
_cell_angle_alpha   90.00000000
_cell_angle_beta   92.27772720
_cell_angle_gamma   90.00000000
_symmetry_Int_Tables_number   1
_chemical_formula_structural   Co3OF5
_chemical_formula_sum   'Co6 O2 F10'
_cell_volume   208.96973716
_cell_formula_units_Z   2
loop_
 _symmetry_equiv_pos_site_id
 _symmetry_equiv_pos_as_xyz
  1  'x, y, z'
loop_
 _atom_site_type_symbol
 _atom_site_label
 _atom_site_symmetry_multiplicity
 _atom_site_fract_x
 _atom_site_fract_y
 _atom_site_fract_z
 _atom_site_occupancy
  Co  Co0  1  0.000000  0.000000  0.000000  1
  Co  Co1  1  0.015598  0.000000  0.671778  1
  Co  Co2  1  0.984402  0.000000  0.328222  1
  Co  Co3  1  0.475124  0.500000  0.824774  1
  Co  Co4  1  0.500000  0.500000  0.500000  1
  Co  Co5  1  0.524876  0.500000  0.175226  1
  O  O6  1  0.685198  0.000000  0.231669  1
  O  O7  1  0.314802  0.000000  0.768331  1
  F  F8  1  0.807063  0.500000  0.733855  1
  F  F9  1  0.799210  0.500000  0.064555  1
  F  F10  1  0.797767  0.500000  0.399147  1
  F  F11  1  0.689757  0.000000  0.895849  1
  F  F12  1  0.702957  0.000000  0.567407  1
  F  F13  1  0.297043  0.000000  0.432593  1
  F  F14  1  0.310243  0.000000  0.104151  1
  F  F15  1  0.200790  0.500000  0.935445  1
  F  F16  1  0.202233  0.500000  0.600853  1
  F  F17  1  0.192937  0.500000  0.266145  1
