# generated using pymatgen
data_Li2MnF4
_symmetry_space_group_name_H-M   'P 1'
_cell_length_a   6.12999239
_cell_length_b   6.12999239
_cell_length_c   8.62473388
_cell_angle_alpha   90.00000000
_cell_angle_beta   90.00000000
_cell_angle_gamma   90.00000000
_symmetry_Int_Tables_number   1
_chemical_formula_structural   Li2MnF4
_chemical_formula_sum   'Li8 Mn4 F16'
_cell_volume   324.08995786
_cell_formula_units_Z   4
loop_
 _symmetry_equiv_pos_site_id
 _symmetry_equiv_pos_as_xyz
  1  'x, y, z'
loop_
 _atom_site_type_symbol
 _atom_site_label
 _atom_site_symmetry_multiplicity
 _atom_site_fract_x
 _atom_site_fract_y
 _atom_site_fract_z
 _atom_site_occupancy
  Li  Li0  1  0.000000  0.216370  0.000000  1
  Li  Li1  1  0.000000  0.783630  0.500000  1
  Li  Li2  1  0.247501  0.247501  0.625000  1
  Li  Li3  1  0.247501  0.752499  0.875000  1
  Li  Li4  1  0.216370  0.000000  0.250000  1
  Li  Li5  1  0.783630  0.000000  0.750000  1
  Li  Li6  1  0.752499  0.247501  0.375000  1
  Li  Li7  1  0.752499  0.752499  0.125000  1
  Mn  Mn8  1  0.227689  0.500000  0.250000  1
  Mn  Mn9  1  0.500000  0.227689  0.000000  1
  Mn  Mn10  1  0.500000  0.772311  0.500000  1
  Mn  Mn11  1  0.772311  0.500000  0.750000  1
  F  F12  1  0.003049  0.242915  0.237792  1
  F  F13  1  0.003049  0.757085  0.262208  1
  F  F14  1  0.242915  0.003049  0.012208  1
  F  F15  1  0.242915  0.996951  0.487792  1
  F  F16  1  0.248578  0.519726  0.498345  1
  F  F17  1  0.248578  0.480274  0.001655  1
  F  F18  1  0.519726  0.248578  0.751655  1
  F  F19  1  0.519726  0.751422  0.748345  1
  F  F20  1  0.480274  0.248578  0.248345  1
  F  F21  1  0.480274  0.751422  0.251655  1
  F  F22  1  0.751422  0.519726  0.501655  1
  F  F23  1  0.751422  0.480274  0.998345  1
  F  F24  1  0.757085  0.996951  0.512208  1
  F  F25  1  0.757085  0.003049  0.987792  1
  F  F26  1  0.996951  0.242915  0.762208  1
  F  F27  1  0.996951  0.757085  0.737792  1
