# generated using pymatgen
data_FeOF
_symmetry_space_group_name_H-M   'P 1'
_cell_length_a   4.74314214
_cell_length_b   3.12166012
_cell_length_c   14.19509250
_cell_angle_alpha   90.00000000
_cell_angle_beta   90.15110383
_cell_angle_gamma   90.00000000
_symmetry_Int_Tables_number   1
_chemical_formula_structural   FeOF
_chemical_formula_sum   'Fe6 O6 F6'
_cell_volume   210.17858929
_cell_formula_units_Z   6
loop_
 _symmetry_equiv_pos_site_id
 _symmetry_equiv_pos_as_xyz
  1  'x, y, z'
loop_
 _atom_site_type_symbol
 _atom_site_label
 _atom_site_symmetry_multiplicity
 _atom_site_fract_x
 _atom_site_fract_y
 _atom_site_fract_z
 _atom_site_occupancy
  Fe  Fe0  1  0.971028  0.000000  0.004591  1
  Fe  Fe1  1  0.974657  0.000000  0.672887  1
  Fe  Fe2  1  0.967984  0.000000  0.340683  1
  Fe  Fe3  1  0.481157  0.500000  0.812080  1
  Fe  Fe4  1  0.545800  0.500000  0.506756  1
  Fe  Fe5  1  0.545735  0.500000  0.172386  1
  O  O6  1  0.804279  0.500000  0.732304  1
  O  O7  1  0.810734  0.500000  0.399619  1
  O  O8  1  0.800847  0.500000  0.061615  1
  O  O9  1  0.703745  0.000000  0.231778  1
  O  O10  1  0.701430  0.000000  0.566634  1
  O  O11  1  0.293053  0.000000  0.765924  1
  F  F12  1  0.692154  0.000000  0.897341  1
  F  F13  1  0.309993  0.000000  0.433882  1
  F  F14  1  0.303455  0.000000  0.100709  1
  F  F15  1  0.193673  0.500000  0.936448  1
  F  F16  1  0.198402  0.500000  0.597222  1
  F  F17  1  0.201873  0.500000  0.267142  1
