# generated using pymatgen
data_Mn2CuO4
_symmetry_space_group_name_H-M   'P 1'
_cell_length_a   6.05905102
_cell_length_b   6.05905102
_cell_length_c   14.78408484
_cell_angle_alpha   90.00000000
_cell_angle_beta   90.00000000
_cell_angle_gamma   120.00000000
_symmetry_Int_Tables_number   1
_chemical_formula_structural   Mn2CuO4
_chemical_formula_sum   'Mn12 Cu6 O24'
_cell_volume   470.03943585
_cell_formula_units_Z   6
loop_
 _symmetry_equiv_pos_site_id
 _symmetry_equiv_pos_as_xyz
  1  'x, y, z'
loop_
 _atom_site_type_symbol
 _atom_site_label
 _atom_site_symmetry_multiplicity
 _atom_site_fract_x
 _atom_site_fract_y
 _atom_site_fract_z
 _atom_site_occupancy
  Mn  Mn0  1  0.000000  0.000000  0.002294  1
  Mn  Mn1  1  0.167694  0.832306  0.791595  1
  Mn  Mn2  1  0.664612  0.832306  0.791595  1
  Mn  Mn3  1  0.666667  0.333333  0.669465  1
  Mn  Mn4  1  0.167694  0.335388  0.791595  1
  Mn  Mn5  1  0.834634  0.165366  0.457901  1
  Mn  Mn6  1  0.330731  0.165366  0.457901  1
  Mn  Mn7  1  0.834634  0.669269  0.457901  1
  Mn  Mn8  1  0.499729  0.500271  0.126164  1
  Mn  Mn9  1  0.000541  0.500271  0.126164  1
  Mn  Mn10  1  0.666667  0.333333  0.292688  1
  Mn  Mn11  1  0.499729  0.999459  0.126164  1
  Cu  Cu12  1  0.666667  0.333333  0.915485  1
  Cu  Cu13  1  0.333333  0.666667  0.580383  1
  Cu  Cu14  1  0.333333  0.666667  0.958101  1
  Cu  Cu15  1  0.000000  0.000000  0.249761  1
  Cu  Cu16  1  0.000000  0.000000  0.623679  1
  Cu  Cu17  1  0.333333  0.666667  0.333592  1
  O  O18  1  0.485477  0.970954  0.865979  1
  O  O19  1  0.029046  0.514523  0.865979  1
  O  O20  1  0.333333  0.666667  0.714041  1
  O  O21  1  0.152801  0.305602  0.532408  1
  O  O22  1  0.849351  0.150649  0.717049  1
  O  O23  1  0.485477  0.514523  0.865979  1
  O  O24  1  0.000000  0.000000  0.866010  1
  O  O25  1  0.694398  0.847199  0.532408  1
  O  O26  1  0.301297  0.150649  0.717049  1
  O  O27  1  0.000000  0.000000  0.383195  1
  O  O28  1  0.817183  0.634367  0.203149  1
  O  O29  1  0.515637  0.484363  0.380259  1
  O  O30  1  0.849351  0.698703  0.717049  1
  O  O31  1  0.152801  0.847199  0.532408  1
  O  O32  1  0.666667  0.333333  0.530551  1
  O  O33  1  0.365633  0.182817  0.203149  1
  O  O34  1  0.968725  0.484363  0.380259  1
  O  O35  1  0.666667  0.333333  0.049604  1
  O  O36  1  0.817183  0.182817  0.203149  1
  O  O37  1  0.515637  0.031275  0.380259  1
  O  O38  1  0.181807  0.818193  0.052010  1
  O  O39  1  0.333333  0.666667  0.201613  1
  O  O40  1  0.636385  0.818193  0.052010  1
  O  O41  1  0.181807  0.363615  0.052010  1
