# generated using pymatgen
data_Li4Co3Sn(PO4)4
_symmetry_space_group_name_H-M   'P 1'
_cell_length_a   4.82507677
_cell_length_b   6.06476558
_cell_length_c   10.72727969
_cell_angle_alpha   90.00000000
_cell_angle_beta   91.22796975
_cell_angle_gamma   90.00000000
_symmetry_Int_Tables_number   1
_chemical_formula_structural   Li4Co3Sn(PO4)4
_chemical_formula_sum   'Li4 Co3 Sn1 P4 O16'
_cell_volume   313.83985864
_cell_formula_units_Z   1
loop_
 _symmetry_equiv_pos_site_id
 _symmetry_equiv_pos_as_xyz
  1  'x, y, z'
loop_
 _atom_site_type_symbol
 _atom_site_label
 _atom_site_symmetry_multiplicity
 _atom_site_fract_x
 _atom_site_fract_y
 _atom_site_fract_z
 _atom_site_occupancy
  Li  Li0  1  0.003854  0.251866  0.986781  1
  Li  Li1  1  0.003854  0.748134  0.986781  1
  Li  Li2  1  0.502023  0.745795  0.514862  1
  Li  Li3  1  0.502023  0.254205  0.514862  1
  Co  Co4  1  0.021326  0.000000  0.725146  1
  Co  Co5  1  0.484214  0.000000  0.211048  1
  Co  Co6  1  0.531274  0.500000  0.785550  1
  Sn  Sn7  1  0.992168  0.500000  0.283533  1
  P  P8  1  0.088861  0.500000  0.611670  1
  P  P9  1  0.434617  0.500000  0.073638  1
  P  P10  1  0.586442  0.000000  0.902151  1
  P  P11  1  0.879752  0.000000  0.414076  1
  O  O12  1  0.220957  0.500000  0.480057  1
  O  O13  1  0.221157  0.294629  0.679833  1
  O  O14  1  0.221157  0.705371  0.679833  1
  O  O15  1  0.193931  0.000000  0.395409  1
  O  O16  1  0.267411  0.000000  0.898948  1
  O  O17  1  0.321612  0.292283  0.144951  1
  O  O18  1  0.321612  0.707717  0.144951  1
  O  O19  1  0.286401  0.500000  0.943784  1
  O  O20  1  0.715583  0.000000  0.036286  1
  O  O21  1  0.718959  0.798407  0.831461  1
  O  O22  1  0.718959  0.201593  0.831461  1
  O  O23  1  0.751600  0.500000  0.064685  1
  O  O24  1  0.771235  0.500000  0.607750  1
  O  O25  1  0.723173  0.801154  0.348994  1
  O  O26  1  0.723173  0.198846  0.348994  1
  O  O27  1  0.792674  0.000000  0.552505  1
