# generated using pymatgen
data_Hf2N2O
_symmetry_space_group_name_H-M   'P 1'
_cell_length_a   8.70616679
_cell_length_b   8.73081038
_cell_length_c   8.74603621
_cell_angle_alpha   109.51806957
_cell_angle_beta   109.41060967
_cell_angle_gamma   109.32844469
_symmetry_Int_Tables_number   1
_chemical_formula_structural   Hf2N2O
_chemical_formula_sum   'Hf16 N16 O8'
_cell_volume   512.75062937
_cell_formula_units_Z   8
loop_
 _symmetry_equiv_pos_site_id
 _symmetry_equiv_pos_as_xyz
  1  'x, y, z'
loop_
 _atom_site_type_symbol
 _atom_site_label
 _atom_site_symmetry_multiplicity
 _atom_site_fract_x
 _atom_site_fract_y
 _atom_site_fract_z
 _atom_site_occupancy
  Hf  Hf0  1  0.218831  0.258795  0.977248  1
  Hf  Hf1  1  0.995842  0.488780  0.991309  1
  Hf  Hf2  1  0.753186  0.972236  0.721382  1
  Hf  Hf3  1  0.244693  0.531692  0.783351  1
  Hf  Hf4  1  0.538489  0.783700  0.252118  1
  Hf  Hf5  1  0.038779  0.282221  0.253068  1
  Hf  Hf6  1  0.512192  0.019420  0.005660  1
  Hf  Hf7  1  0.722469  0.255475  0.470222  1
  Hf  Hf8  1  0.499529  0.490132  0.501809  1
  Hf  Hf9  1  0.289127  0.753750  0.541678  1
  Hf  Hf10  1  0.988965  0.990316  0.483180  1
  Hf  Hf11  1  0.466636  0.210210  0.748238  1
  Hf  Hf12  1  0.951689  0.709045  0.740190  1
  Hf  Hf13  1  0.250968  0.039442  0.292426  1
  Hf  Hf14  1  0.743353  0.461545  0.208914  1
  Hf  Hf15  1  0.785751  0.747061  0.031831  1
  N  N16  1  0.276491  0.535510  0.048170  1
  N  N17  1  0.260869  0.492319  0.537443  1
  N  N18  1  0.769976  0.043651  0.513097  1
  N  N19  1  0.275512  0.261995  0.228790  1
  N  N20  1  0.464040  0.236560  0.007151  1
  N  N21  1  0.970077  0.460862  0.729836  1
  N  N22  1  0.223174  0.950024  0.489175  1
  N  N23  1  0.729992  0.742655  0.775036  1
  N  N24  1  0.771255  0.226519  0.236970  1
  N  N25  1  0.989725  0.032375  0.261126  1
  N  N26  1  0.542228  0.004591  0.771457  1
  N  N27  1  0.741430  0.518186  0.467068  1
  N  N28  1  0.756282  0.726939  0.270035  1
  N  N29  1  0.954154  0.227667  0.965041  1
  N  N30  1  0.511165  0.269541  0.542515  1
  N  N31  1  0.730984  0.467815  0.953722  1
  O  O32  1  0.481737  0.726935  0.450195  1
  O  O33  1  0.050047  0.774853  0.037615  1
  O  O34  1  0.235234  0.272633  0.726062  1
  O  O35  1  0.447601  0.981216  0.218117  1
  O  O36  1  0.228611  0.775727  0.766565  1
  O  O37  1  0.019803  0.966775  0.740509  1
  O  O38  1  0.531900  0.763076  0.989162  1
  O  O39  1  0.037210  0.547750  0.272514  1
