# generated using pymatgen
data_Zr2N2O
_symmetry_space_group_name_H-M   'P 1'
_cell_length_a   5.62505197
_cell_length_b   5.62505197
_cell_length_c   17.19992089
_cell_angle_alpha   75.03930348
_cell_angle_beta   104.96069652
_cell_angle_gamma   146.15759399
_symmetry_Int_Tables_number   1
_chemical_formula_structural   Zr2N2O
_chemical_formula_sum   'Zr8 N8 O4'
_cell_volume   291.84254332
_cell_formula_units_Z   4
loop_
 _symmetry_equiv_pos_site_id
 _symmetry_equiv_pos_as_xyz
  1  'x, y, z'
loop_
 _atom_site_type_symbol
 _atom_site_label
 _atom_site_symmetry_multiplicity
 _atom_site_fract_x
 _atom_site_fract_y
 _atom_site_fract_z
 _atom_site_occupancy
  Zr  Zr0  1  0.760262  0.239738  0.085323  1
  Zr  Zr1  1  0.001384  0.998616  0.331817  1
  Zr  Zr2  1  0.226151  0.773849  0.575393  1
  Zr  Zr3  1  0.998616  0.001384  0.668183  1
  Zr  Zr4  1  0.239738  0.760262  0.914677  1
  Zr  Zr5  1  0.231345  0.768655  0.243415  1
  Zr  Zr6  1  0.773849  0.226151  0.424607  1
  Zr  Zr7  1  0.768655  0.231345  0.756585  1
  N  N8  1  0.845132  0.154868  0.217757  1
  N  N9  1  0.154868  0.845132  0.782243  1
  N  N10  1  0.155596  0.844404  0.446408  1
  N  N11  1  0.378074  0.621926  0.703118  1
  N  N12  1  0.618648  0.381352  0.630797  1
  N  N13  1  0.381352  0.618648  0.369203  1
  N  N14  1  0.844404  0.155596  0.553592  1
  N  N15  1  0.621926  0.378074  0.296882  1
  O  O16  1  0.652977  0.347023  0.957376  1
  O  O17  1  0.347023  0.652977  0.042624  1
  O  O18  1  0.154597  0.845403  0.118644  1
  O  O19  1  0.845403  0.154597  0.881356  1
