# generated using pymatgen
data_Li9Co13O28
_symmetry_space_group_name_H-M   'P 1'
_cell_length_a   7.44119238
_cell_length_b   8.09455051
_cell_length_c   8.53722894
_cell_angle_alpha   101.57677409
_cell_angle_beta   104.39464447
_cell_angle_gamma   105.16888864
_symmetry_Int_Tables_number   1
_chemical_formula_structural   Li9Co13O28
_chemical_formula_sum   'Li9 Co13 O28'
_cell_volume   460.89731201
_cell_formula_units_Z   1
loop_
 _symmetry_equiv_pos_site_id
 _symmetry_equiv_pos_as_xyz
  1  'x, y, z'
loop_
 _atom_site_type_symbol
 _atom_site_label
 _atom_site_symmetry_multiplicity
 _atom_site_fract_x
 _atom_site_fract_y
 _atom_site_fract_z
 _atom_site_occupancy
  Li  Li0  1  0.925218  0.273399  0.208092  1
  Li  Li1  1  0.584661  0.202466  0.293403  1
  Li  Li2  1  0.207351  0.135626  0.351500  1
  Li  Li3  1  0.288076  0.354459  0.131615  1
  Li  Li4  1  0.701352  0.649864  0.864033  1
  Li  Li5  1  0.000142  0.499309  0.996314  1
  Li  Li6  1  0.769622  0.871047  0.642760  1
  Li  Li7  1  0.086764  0.719846  0.792865  1
  Li  Li8  1  0.161445  0.933009  0.570943  1
  Co  Co9  1  0.716986  0.139730  0.860083  1
  Co  Co10  1  0.355106  0.073885  0.932921  1
  Co  Co11  1  0.070933  0.213606  0.790285  1
  Co  Co12  1  0.782660  0.350182  0.639100  1
  Co  Co13  1  0.432153  0.291978  0.719927  1
  Co  Co14  1  0.143605  0.429099  0.572415  1
  Co  Co15  1  0.499595  0.500515  0.499909  1
  Co  Co16  1  0.855601  0.568771  0.426086  1
  Co  Co17  1  0.569721  0.711377  0.281273  1
  Co  Co18  1  0.217595  0.649514  0.362044  1
  Co  Co19  1  0.927201  0.790420  0.211069  1
  Co  Co20  1  0.641521  0.923975  0.065177  1
  Co  Co21  1  0.280654  0.859641  0.141051  1
  O  O22  1  0.904122  0.002644  0.202399  1
  O  O23  1  0.798735  0.124985  0.666665  1
  O  O24  1  0.442456  0.067995  0.743419  1
  O  O25  1  0.989023  0.247559  0.975217  1
  O  O26  1  0.300958  0.090283  0.135696  1
  O  O27  1  0.631367  0.154311  0.057010  1
  O  O28  1  0.705520  0.372230  0.834855  1
  O  O29  1  0.344457  0.301103  0.911898  1
  O  O30  1  0.505366  0.271643  0.520308  1
  O  O31  1  0.867166  0.344126  0.440739  1
  O  O32  1  0.162178  0.202762  0.595922  1
  O  O33  1  0.053235  0.437671  0.763759  1
  O  O34  1  0.418926  0.511727  0.694837  1
  O  O35  1  0.777239  0.586992  0.623516  1
  O  O36  1  0.223870  0.413177  0.372827  1
  O  O37  1  0.581120  0.484102  0.303816  1
  O  O38  1  0.945653  0.560617  0.238050  1
  O  O39  1  0.842703  0.793322  0.407287  1
  O  O40  1  0.122538  0.657553  0.553197  1
  O  O41  1  0.494461  0.727790  0.474578  1
  O  O42  1  0.655595  0.699478  0.088602  1
  O  O43  1  0.296045  0.631227  0.166316  1
  O  O44  1  0.362417  0.845269  0.948174  1
  O  O45  1  0.706616  0.917945  0.870044  1
  O  O46  1  0.017226  0.753044  0.025821  1
  O  O47  1  0.552754  0.932867  0.256988  1
  O  O48  1  0.198662  0.878437  0.340202  1
  O  O49  1  0.098699  0.991863  0.791955  1
