# generated using pymatgen
data_Na3NiBPO7
_symmetry_space_group_name_H-M   'P 1'
_cell_length_a   5.16161169
_cell_length_b   6.75227749
_cell_length_c   8.88775237
_cell_angle_alpha   90.00000000
_cell_angle_beta   91.65375283
_cell_angle_gamma   90.00000000
_symmetry_Int_Tables_number   1
_chemical_formula_structural   Na3NiBPO7
_chemical_formula_sum   'Na6 Ni2 B2 P2 O14'
_cell_volume   309.63256196
_cell_formula_units_Z   2
loop_
 _symmetry_equiv_pos_site_id
 _symmetry_equiv_pos_as_xyz
  1  'x, y, z'
loop_
 _atom_site_type_symbol
 _atom_site_label
 _atom_site_symmetry_multiplicity
 _atom_site_fract_x
 _atom_site_fract_y
 _atom_site_fract_z
 _atom_site_occupancy
  Na  Na0  1  0.235100  0.750000  0.584196  1
  Na  Na1  1  0.746871  0.993030  0.768053  1
  Na  Na2  1  0.746871  0.506970  0.768053  1
  Na  Na3  1  0.253129  0.493030  0.231947  1
  Na  Na4  1  0.253129  0.006970  0.231947  1
  Na  Na5  1  0.764900  0.250000  0.415804  1
  Ni  Ni6  1  0.218032  0.250000  0.842904  1
  Ni  Ni7  1  0.781968  0.750000  0.157096  1
  B  B8  1  0.267220  0.250000  0.569157  1
  B  B9  1  0.732780  0.750000  0.430843  1
  P  P10  1  0.282575  0.750000  0.918921  1
  P  P11  1  0.717425  0.250000  0.081079  1
  O  O12  1  0.706166  0.750000  0.580605  1
  O  O13  1  0.031274  0.250000  0.639815  1
  O  O14  1  0.472001  0.250000  0.674331  1
  O  O15  1  0.219238  0.934014  0.819851  1
  O  O16  1  0.219238  0.565986  0.819851  1
  O  O17  1  0.580576  0.750000  0.960729  1
  O  O18  1  0.868312  0.250000  0.933550  1
  O  O19  1  0.131688  0.750000  0.066450  1
  O  O20  1  0.419424  0.250000  0.039271  1
  O  O21  1  0.780762  0.434014  0.180149  1
  O  O22  1  0.780762  0.065986  0.180149  1
  O  O23  1  0.527999  0.750000  0.325669  1
  O  O24  1  0.968726  0.750000  0.360185  1
  O  O25  1  0.293834  0.250000  0.419395  1
