# generated using pymatgen
data_Li3V7O12
_symmetry_space_group_name_H-M   'P 1'
_cell_length_a   5.22644437
_cell_length_b   5.22644437
_cell_length_c   9.91032552
_cell_angle_alpha   84.48436516
_cell_angle_beta   95.51563484
_cell_angle_gamma   59.71989914
_symmetry_Int_Tables_number   1
_chemical_formula_structural   Li3V7O12
_chemical_formula_sum   'Li3 V7 O12'
_cell_volume   229.37754496
_cell_formula_units_Z   1
loop_
 _symmetry_equiv_pos_site_id
 _symmetry_equiv_pos_as_xyz
  1  'x, y, z'
loop_
 _atom_site_type_symbol
 _atom_site_label
 _atom_site_symmetry_multiplicity
 _atom_site_fract_x
 _atom_site_fract_y
 _atom_site_fract_z
 _atom_site_occupancy
  Li  Li0  1  0.323937  0.843561  0.762620  1
  Li  Li1  1  0.843561  0.323937  0.237380  1
  Li  Li2  1  0.079806  0.079806  0.000000  1
  V  V3  1  0.915332  0.915332  0.500000  1
  V  V4  1  0.481441  0.000735  0.237545  1
  V  V5  1  0.762701  0.762701  0.000000  1
  V  V6  1  0.000735  0.481441  0.762455  1
  V  V7  1  0.575465  0.575465  0.500000  1
  V  V8  1  0.425929  0.425929  0.000000  1
  V  V9  1  0.248638  0.248638  0.500000  1
  O  O10  1  0.629923  0.852221  0.612522  1
  O  O11  1  0.211926  0.966200  0.386105  1
  O  O12  1  0.852221  0.629923  0.387478  1
  O  O13  1  0.494761  0.711721  0.117874  1
  O  O14  1  0.711721  0.494761  0.882126  1
  O  O15  1  0.055132  0.761821  0.883363  1
  O  O16  1  0.267027  0.550229  0.613699  1
  O  O17  1  0.966200  0.211926  0.613895  1
  O  O18  1  0.153321  0.357646  0.121709  1
  O  O19  1  0.550229  0.267027  0.386301  1
  O  O20  1  0.761821  0.055132  0.116637  1
  O  O21  1  0.357646  0.153321  0.878291  1
