# generated using pymatgen
data_Hf2N2O
_symmetry_space_group_name_H-M   'P 1'
_cell_length_a   7.04210979
_cell_length_b   7.04210979
_cell_length_c   8.17680178
_cell_angle_alpha   79.83057868
_cell_angle_beta   100.16942132
_cell_angle_gamma   153.25648977
_symmetry_Int_Tables_number   1
_chemical_formula_structural   Hf2N2O
_chemical_formula_sum   'Hf6 N6 O3'
_cell_volume   179.44313233
_cell_formula_units_Z   3
loop_
 _symmetry_equiv_pos_site_id
 _symmetry_equiv_pos_as_xyz
  1  'x, y, z'
loop_
 _atom_site_type_symbol
 _atom_site_label
 _atom_site_symmetry_multiplicity
 _atom_site_fract_x
 _atom_site_fract_y
 _atom_site_fract_z
 _atom_site_occupancy
  Hf  Hf0  1  0.030258  0.969742  0.808931  1
  Hf  Hf1  1  0.629204  0.370796  0.474647  1
  Hf  Hf2  1  0.696143  0.303857  0.132276  1
  Hf  Hf3  1  0.303857  0.696143  0.867724  1
  Hf  Hf4  1  0.370796  0.629204  0.525353  1
  Hf  Hf5  1  0.969742  0.030258  0.191069  1
  N  N6  1  0.535158  0.464842  0.656649  1
  N  N7  1  0.171771  0.828229  0.964331  1
  N  N8  1  0.126620  0.873380  0.285452  1
  N  N9  1  0.873380  0.126620  0.714548  1
  N  N10  1  0.828229  0.171771  0.035669  1
  N  N11  1  0.464842  0.535158  0.343351  1
  O  O12  1  0.209829  0.790171  0.617413  1
  O  O13  1  0.790171  0.209829  0.382587  1
  O  O14  1  0.500000  0.500000  0.000000  1
