# generated using pymatgen
data_LiMnVO4
_symmetry_space_group_name_H-M   'P 1'
_cell_length_a   6.08756875
_cell_length_b   6.08756875
_cell_length_c   8.34923216
_cell_angle_alpha   90.00000000
_cell_angle_beta   90.00000000
_cell_angle_gamma   90.00000000
_symmetry_Int_Tables_number   1
_chemical_formula_structural   LiMnVO4
_chemical_formula_sum   'Li4 Mn4 V4 O16'
_cell_volume   309.40996394
_cell_formula_units_Z   4
loop_
 _symmetry_equiv_pos_site_id
 _symmetry_equiv_pos_as_xyz
  1  'x, y, z'
loop_
 _atom_site_type_symbol
 _atom_site_label
 _atom_site_symmetry_multiplicity
 _atom_site_fract_x
 _atom_site_fract_y
 _atom_site_fract_z
 _atom_site_occupancy
  Li  Li0  1  0.000000  0.246236  0.000000  1
  Li  Li1  1  0.000000  0.753764  0.500000  1
  Li  Li2  1  0.246236  0.000000  0.250000  1
  Li  Li3  1  0.753764  0.000000  0.750000  1
  Mn  Mn4  1  0.255519  0.255519  0.625000  1
  Mn  Mn5  1  0.255519  0.744481  0.875000  1
  Mn  Mn6  1  0.744481  0.255519  0.375000  1
  Mn  Mn7  1  0.744481  0.744481  0.125000  1
  V  V8  1  0.224031  0.500000  0.250000  1
  V  V9  1  0.500000  0.224031  0.000000  1
  V  V10  1  0.500000  0.775969  0.500000  1
  V  V11  1  0.775969  0.500000  0.750000  1
  O  O12  1  0.039047  0.273351  0.257601  1
  O  O13  1  0.039047  0.726649  0.242399  1
  O  O14  1  0.273351  0.039047  0.992399  1
  O  O15  1  0.273351  0.960953  0.507601  1
  O  O16  1  0.270953  0.482989  0.025488  1
  O  O17  1  0.270953  0.517011  0.474512  1
  O  O18  1  0.482989  0.270953  0.224512  1
  O  O19  1  0.482989  0.729047  0.275488  1
  O  O20  1  0.517011  0.270953  0.775488  1
  O  O21  1  0.517011  0.729047  0.724512  1
  O  O22  1  0.729047  0.517011  0.525488  1
  O  O23  1  0.729047  0.482989  0.974512  1
  O  O24  1  0.726649  0.039047  0.007601  1
  O  O25  1  0.726649  0.960953  0.492399  1
  O  O26  1  0.960953  0.273351  0.742399  1
  O  O27  1  0.960953  0.726649  0.757601  1
