# generated using pymatgen
data_NaCu(PO3)3
_symmetry_space_group_name_H-M   'P 1'
_cell_length_a   9.71176285
_cell_length_b   9.72647822
_cell_length_c   9.78764965
_cell_angle_alpha   106.83430058
_cell_angle_beta   105.57775424
_cell_angle_gamma   111.87050506
_symmetry_Int_Tables_number   1
_chemical_formula_structural   NaCu(PO3)3
_chemical_formula_sum   'Na4 Cu4 P12 O36'
_cell_volume   743.85297057
_cell_formula_units_Z   4
loop_
 _symmetry_equiv_pos_site_id
 _symmetry_equiv_pos_as_xyz
  1  'x, y, z'
loop_
 _atom_site_type_symbol
 _atom_site_label
 _atom_site_symmetry_multiplicity
 _atom_site_fract_x
 _atom_site_fract_y
 _atom_site_fract_z
 _atom_site_occupancy
  Na  Na0  1  0.933623  0.344250  0.506314  1
  Na  Na1  1  0.171708  0.379984  0.314595  1
  Na  Na2  1  0.828292  0.620016  0.685405  1
  Na  Na3  1  0.066377  0.655750  0.493686  1
  Cu  Cu4  1  0.232048  0.745979  0.275916  1
  Cu  Cu5  1  0.294095  0.102463  0.212783  1
  Cu  Cu6  1  0.705905  0.897537  0.787217  1
  Cu  Cu7  1  0.767952  0.254021  0.724084  1
  P  P8  1  0.916452  0.816444  0.081209  1
  P  P9  1  0.851080  0.489681  0.098302  1
  P  P10  1  0.601005  0.983945  0.351889  1
  P  P11  1  0.782005  0.040019  0.153550  1
  P  P12  1  0.656736  0.424725  0.290008  1
  P  P13  1  0.568153  0.689177  0.409247  1
  P  P14  1  0.431847  0.310823  0.590753  1
  P  P15  1  0.343264  0.575275  0.709992  1
  P  P16  1  0.217995  0.959981  0.846450  1
  P  P17  1  0.398995  0.016055  0.648111  1
  P  P18  1  0.148920  0.510319  0.901698  1
  P  P19  1  0.083548  0.183556  0.918791  1
  O  O20  1  0.277366  0.973328  0.010539  1
  O  O21  1  0.825765  0.638153  0.080708  1
  O  O22  1  0.821200  0.893941  0.160993  1
  O  O23  1  0.625701  0.988805  0.198147  1
  O  O24  1  0.701913  0.401029  0.139401  1
  O  O25  1  0.179107  0.633931  0.054047  1
  O  O26  1  0.096130  0.904308  0.193880  1
  O  O27  1  0.425326  0.941571  0.317556  1
  O  O28  1  0.636659  0.838966  0.362225  1
  O  O29  1  0.609085  0.568297  0.295447  1
  O  O30  1  0.918586  0.201940  0.280599  1
  O  O31  1  0.130751  0.201178  0.084090  1
  O  O32  1  0.511322  0.267101  0.247686  1
  O  O33  1  0.807122  0.488557  0.435271  1
  O  O34  1  0.387159  0.617413  0.356933  1
  O  O35  1  0.015338  0.560561  0.236776  1
  O  O36  1  0.678844  0.745699  0.579522  1
  O  O37  1  0.271290  0.858049  0.502944  1
  O  O38  1  0.728710  0.141951  0.497056  1
  O  O39  1  0.321156  0.254301  0.420478  1
  O  O40  1  0.984662  0.439439  0.763224  1
  O  O41  1  0.612841  0.382587  0.643067  1
  O  O42  1  0.192878  0.511443  0.564729  1
  O  O43  1  0.488678  0.732899  0.752314  1
  O  O44  1  0.869249  0.798822  0.915910  1
  O  O45  1  0.081414  0.798060  0.719401  1
  O  O46  1  0.390915  0.431703  0.704553  1
  O  O47  1  0.363341  0.161034  0.637775  1
  O  O48  1  0.574674  0.058429  0.682444  1
  O  O49  1  0.903870  0.095692  0.806120  1
  O  O50  1  0.820893  0.366069  0.945953  1
  O  O51  1  0.298087  0.598971  0.860599  1
  O  O52  1  0.374299  0.011195  0.801853  1
  O  O53  1  0.178800  0.106059  0.839007  1
  O  O54  1  0.174235  0.361847  0.919292  1
  O  O55  1  0.722634  0.026672  0.989461  1
