# generated using pymatgen
data_Cd(CuO2)2
_symmetry_space_group_name_H-M   'P 1'
_cell_length_a   6.24399483
_cell_length_b   6.24399483
_cell_length_c   6.24399483
_cell_angle_alpha   124.93547319
_cell_angle_beta   124.93547319
_cell_angle_gamma   81.64493816
_symmetry_Int_Tables_number   1
_chemical_formula_structural   Cd(CuO2)2
_chemical_formula_sum   'Cd2 Cu4 O8'
_cell_volume   157.45037041
_cell_formula_units_Z   2
loop_
 _symmetry_equiv_pos_site_id
 _symmetry_equiv_pos_as_xyz
  1  'x, y, z'
loop_
 _atom_site_type_symbol
 _atom_site_label
 _atom_site_symmetry_multiplicity
 _atom_site_fract_x
 _atom_site_fract_y
 _atom_site_fract_z
 _atom_site_occupancy
  Cd  Cd0  1  0.750000  0.250000  0.500000  1
  Cd  Cd1  1  0.000000  0.000000  0.000000  1
  Cu  Cu2  1  0.375000  0.625000  0.250000  1
  Cu  Cu3  1  0.375000  0.625000  0.750000  1
  Cu  Cu4  1  0.875000  0.625000  0.250000  1
  Cu  Cu5  1  0.375000  0.125000  0.750000  1
  O  O6  1  0.171621  0.592285  0.866053  1
  O  O7  1  0.726233  0.305569  0.133947  1
  O  O8  1  0.342285  0.976233  0.920664  1
  O  O9  1  0.694431  0.828379  0.420664  1
  O  O10  1  0.055569  0.421621  0.079336  1
  O  O11  1  0.407715  0.273767  0.579336  1
  O  O12  1  0.023767  0.944431  0.366053  1
  O  O13  1  0.578379  0.657715  0.633947  1
