# generated using pymatgen
data_Ba3Zr2O7
_symmetry_space_group_name_H-M   'P 1'
_cell_length_a   11.44932795
_cell_length_b   11.44932795
_cell_length_c   11.44932795
_cell_angle_alpha   158.57286645
_cell_angle_beta   158.57286645
_cell_angle_gamma   30.48456748
_symmetry_Int_Tables_number   1
_chemical_formula_structural   Ba3Zr2O7
_chemical_formula_sum   'Ba3 Zr2 O7'
_cell_volume   200.17180893
_cell_formula_units_Z   1
loop_
 _symmetry_equiv_pos_site_id
 _symmetry_equiv_pos_as_xyz
  1  'x, y, z'
loop_
 _atom_site_type_symbol
 _atom_site_label
 _atom_site_symmetry_multiplicity
 _atom_site_fract_x
 _atom_site_fract_y
 _atom_site_fract_z
 _atom_site_occupancy
  Ba  Ba0  1  1.000000  1.000000  0.000000  1
  Ba  Ba1  1  0.185523  0.185523  0.000000  1
  Ba  Ba2  1  0.814477  0.814477  0.000000  1
  Zr  Zr3  1  0.402634  0.402634  0.000000  1
  Zr  Zr4  1  0.597366  0.597366  0.000000  1
  O  O5  1  0.403807  0.903807  0.500000  1
  O  O6  1  0.500000  0.500000  0.000000  1
  O  O7  1  0.306811  0.306811  0.000000  1
  O  O8  1  0.096193  0.596193  0.500000  1
  O  O9  1  0.903807  0.403807  0.500000  1
  O  O10  1  0.693189  0.693189  0.000000  1
  O  O11  1  0.596193  0.096193  0.500000  1
