# generated using pymatgen
data_ScTiO3
_symmetry_space_group_name_H-M   'P 1'
_cell_length_a   5.15558638
_cell_length_b   5.51972200
_cell_length_c   7.53918927
_cell_angle_alpha   90.00000000
_cell_angle_beta   90.00000000
_cell_angle_gamma   90.00000000
_symmetry_Int_Tables_number   1
_chemical_formula_structural   ScTiO3
_chemical_formula_sum   'Sc4 Ti4 O12'
_cell_volume   214.54575161
_cell_formula_units_Z   4
loop_
 _symmetry_equiv_pos_site_id
 _symmetry_equiv_pos_as_xyz
  1  'x, y, z'
loop_
 _atom_site_type_symbol
 _atom_site_label
 _atom_site_symmetry_multiplicity
 _atom_site_fract_x
 _atom_site_fract_y
 _atom_site_fract_z
 _atom_site_occupancy
  Sc  Sc0  1  0.980271  0.931055  0.749701  1
  Sc  Sc1  1  0.519729  0.431055  0.749701  1
  Sc  Sc2  1  0.480271  0.568945  0.249701  1
  Sc  Sc3  1  0.019729  0.068945  0.249701  1
  Ti  Ti4  1  0.001125  0.503645  0.506708  1
  Ti  Ti5  1  0.498875  0.003645  0.506708  1
  Ti  Ti6  1  0.501125  0.996355  0.006708  1
  Ti  Ti7  1  0.998875  0.496355  0.006708  1
  O  O8  1  0.855638  0.430237  0.258653  1
  O  O9  1  0.816069  0.198307  0.580984  1
  O  O10  1  0.828156  0.176845  0.944204  1
  O  O11  1  0.683931  0.698307  0.580984  1
  O  O12  1  0.671844  0.676845  0.944204  1
  O  O13  1  0.644362  0.930237  0.258653  1
  O  O14  1  0.355638  0.069763  0.758653  1
  O  O15  1  0.316069  0.301693  0.080984  1
  O  O16  1  0.328156  0.323155  0.444204  1
  O  O17  1  0.183931  0.801693  0.080984  1
  O  O18  1  0.171844  0.823155  0.444204  1
  O  O19  1  0.144362  0.569763  0.758653  1
