# generated using pymatgen
data_LiFe2(BO3)2
_symmetry_space_group_name_H-M   'P 1'
_cell_length_a   5.28313586
_cell_length_b   9.06982847
_cell_length_c   11.33064980
_cell_angle_alpha   113.25354797
_cell_angle_beta   102.16082380
_cell_angle_gamma   90.27683721
_symmetry_Int_Tables_number   1
_chemical_formula_structural   LiFe2(BO3)2
_chemical_formula_sum   'Li4 Fe8 B8 O24'
_cell_volume   485.28829833
_cell_formula_units_Z   4
loop_
 _symmetry_equiv_pos_site_id
 _symmetry_equiv_pos_as_xyz
  1  'x, y, z'
loop_
 _atom_site_type_symbol
 _atom_site_label
 _atom_site_symmetry_multiplicity
 _atom_site_fract_x
 _atom_site_fract_y
 _atom_site_fract_z
 _atom_site_occupancy
  Li  Li0  1  0.825698  0.182924  0.344199  1
  Li  Li1  1  0.391350  0.040177  0.088875  1
  Li  Li2  1  0.070663  0.403066  0.834218  1
  Li  Li3  1  0.888252  0.553914  0.103816  1
  Fe  Fe4  1  0.593418  0.604347  0.864679  1
  Fe  Fe5  1  0.903205  0.899722  0.118378  1
  Fe  Fe6  1  0.161615  0.473497  0.616018  1
  Fe  Fe7  1  0.347169  0.014048  0.374429  1
  Fe  Fe8  1  0.649553  0.981224  0.629261  1
  Fe  Fe9  1  0.847866  0.525991  0.370524  1
  Fe  Fe10  1  0.096427  0.083634  0.866328  1
  Fe  Fe11  1  0.394240  0.401482  0.119844  1
  B  B12  1  0.352040  0.346038  0.365719  1
  B  B13  1  0.112601  0.761806  0.879405  1
  B  B14  1  0.848898  0.859047  0.371223  1
  B  B15  1  0.593523  0.275829  0.870372  1
  B  B16  1  0.142000  0.137037  0.622487  1
  B  B17  1  0.395159  0.728748  0.121747  1
  B  B18  1  0.658872  0.646630  0.621067  1
  B  B19  1  0.902835  0.233154  0.128623  1
  O  O20  1  0.875168  0.767512  0.915127  1
  O  O21  1  0.556362  0.547058  0.672083  1
  O  O22  1  0.767335  0.112717  0.142994  1
  O  O23  1  0.464235  0.209623  0.365490  1
  O  O24  1  0.109072  0.374107  0.398500  1
  O  O25  1  0.212578  0.611181  0.834995  1
  O  O26  1  0.733670  0.416122  0.886092  1
  O  O27  1  0.966013  0.973131  0.337728  1
  O  O28  1  0.313639  0.885473  0.172024  1
  O  O29  1  0.363178  0.093825  0.570376  1
  O  O30  1  0.051393  0.281793  0.639722  1
  O  O31  1  0.625444  0.709957  0.076636  1
  O  O32  1  0.354906  0.285093  0.904837  1
  O  O33  1  0.630659  0.900003  0.423069  1
  O  O34  1  0.702812  0.131192  0.823789  1
  O  O35  1  0.024057  0.026398  0.656250  1
  O  O36  1  0.248327  0.600471  0.114222  1
  O  O37  1  0.806228  0.385598  0.162380  1
  O  O38  1  0.869268  0.598725  0.562520  1
  O  O39  1  0.550487  0.783722  0.628626  1
  O  O40  1  0.940194  0.713290  0.347289  1
  O  O41  1  0.248005  0.899263  0.897386  1
  O  O42  1  0.476998  0.453118  0.332090  1
  O  O43  1  0.132490  0.207817  0.086078  1
