# generated using pymatgen
data_YbCO3
_symmetry_space_group_name_H-M   'P 1'
_cell_length_a   4.37097434
_cell_length_b   6.27881727
_cell_length_c   8.63539860
_cell_angle_alpha   90.00000000
_cell_angle_beta   90.00000000
_cell_angle_gamma   90.00000000
_symmetry_Int_Tables_number   1
_chemical_formula_structural   YbCO3
_chemical_formula_sum   'Yb4 C4 O12'
_cell_volume   236.99462150
_cell_formula_units_Z   4
loop_
 _symmetry_equiv_pos_site_id
 _symmetry_equiv_pos_as_xyz
  1  'x, y, z'
loop_
 _atom_site_type_symbol
 _atom_site_label
 _atom_site_symmetry_multiplicity
 _atom_site_fract_x
 _atom_site_fract_y
 _atom_site_fract_z
 _atom_site_occupancy
  Yb  Yb0  1  0.000000  0.000000  0.000000  1
  Yb  Yb1  1  0.000000  0.000000  0.500000  1
  Yb  Yb2  1  0.500000  0.500000  0.000000  1
  Yb  Yb3  1  0.500000  0.500000  0.500000  1
  C  C4  1  0.111397  0.645413  0.250000  1
  C  C5  1  0.388603  0.145413  0.250000  1
  C  C6  1  0.611397  0.854587  0.750000  1
  C  C7  1  0.888603  0.354587  0.750000  1
  O  O8  1  0.975748  0.661605  0.116346  1
  O  O9  1  0.024252  0.338395  0.616346  1
  O  O10  1  0.975748  0.661605  0.383654  1
  O  O11  1  0.024252  0.338395  0.883654  1
  O  O12  1  0.096470  0.111778  0.250000  1
  O  O13  1  0.403530  0.611778  0.250000  1
  O  O14  1  0.524252  0.161605  0.383654  1
  O  O15  1  0.524252  0.161605  0.116346  1
  O  O16  1  0.475748  0.838395  0.616346  1
  O  O17  1  0.475748  0.838395  0.883654  1
  O  O18  1  0.596470  0.388222  0.750000  1
  O  O19  1  0.903530  0.888222  0.750000  1
