# generated using pymatgen
data_LiCuPO4
_symmetry_space_group_name_H-M   'P 1'
_cell_length_a   5.62405223
_cell_length_b   5.86873565
_cell_length_c   10.58184120
_cell_angle_alpha   90.00000000
_cell_angle_beta   108.98445924
_cell_angle_gamma   90.00000000
_symmetry_Int_Tables_number   1
_chemical_formula_structural   LiCuPO4
_chemical_formula_sum   'Li4 Cu4 P4 O16'
_cell_volume   330.26742570
_cell_formula_units_Z   4
loop_
 _symmetry_equiv_pos_site_id
 _symmetry_equiv_pos_as_xyz
  1  'x, y, z'
loop_
 _atom_site_type_symbol
 _atom_site_label
 _atom_site_symmetry_multiplicity
 _atom_site_fract_x
 _atom_site_fract_y
 _atom_site_fract_z
 _atom_site_occupancy
  Li  Li0  1  0.295353  0.337593  0.066096  1
  Li  Li1  1  0.704647  0.837593  0.433904  1
  Li  Li2  1  0.295353  0.162407  0.566096  1
  Li  Li3  1  0.704647  0.662407  0.933904  1
  Cu  Cu4  1  0.745624  0.403144  0.358040  1
  Cu  Cu5  1  0.254376  0.903144  0.141960  1
  Cu  Cu6  1  0.745624  0.096856  0.858040  1
  Cu  Cu7  1  0.254376  0.596856  0.641960  1
  P  P8  1  0.825258  0.316382  0.607751  1
  P  P9  1  0.174742  0.816382  0.892249  1
  P  P10  1  0.825258  0.183618  0.107751  1
  P  P11  1  0.174742  0.683618  0.392249  1
  O  O12  1  0.109044  0.192017  0.190782  1
  O  O13  1  0.346366  0.732988  0.306966  1
  O  O14  1  0.766211  0.551605  0.534602  1
  O  O15  1  0.757315  0.147466  0.486322  1
  O  O16  1  0.242685  0.647466  0.013678  1
  O  O17  1  0.233789  0.051605  0.965398  1
  O  O18  1  0.109044  0.307983  0.690782  1
  O  O19  1  0.346366  0.767012  0.806966  1
  O  O20  1  0.653634  0.232988  0.193034  1
  O  O21  1  0.890956  0.692017  0.309218  1
  O  O22  1  0.766211  0.948395  0.034602  1
  O  O23  1  0.757315  0.352534  0.986322  1
  O  O24  1  0.242685  0.852534  0.513678  1
  O  O25  1  0.233789  0.448395  0.465398  1
  O  O26  1  0.653634  0.267012  0.693034  1
  O  O27  1  0.890956  0.807983  0.809218  1
