# generated using pymatgen
data_Mn6O11F
_symmetry_space_group_name_H-M   'P 1'
_cell_length_a   4.50718455
_cell_length_b   5.39903395
_cell_length_c   7.44730387
_cell_angle_alpha   86.15776506
_cell_angle_beta   89.46281177
_cell_angle_gamma   89.12560152
_symmetry_Int_Tables_number   1
_chemical_formula_structural   Mn6O11F
_chemical_formula_sum   'Mn6 O11 F1'
_cell_volume   180.79126014
_cell_formula_units_Z   1
loop_
 _symmetry_equiv_pos_site_id
 _symmetry_equiv_pos_as_xyz
  1  'x, y, z'
loop_
 _atom_site_type_symbol
 _atom_site_label
 _atom_site_symmetry_multiplicity
 _atom_site_fract_x
 _atom_site_fract_y
 _atom_site_fract_z
 _atom_site_occupancy
  Mn  Mn0  1  0.496389  0.497291  0.998739  1
  Mn  Mn1  1  0.516999  0.844418  0.672769  1
  Mn  Mn2  1  0.499126  0.165597  0.333702  1
  Mn  Mn3  1  0.992483  0.324635  0.667805  1
  Mn  Mn4  1  0.987346  0.663855  0.322656  1
  Mn  Mn5  1  0.006426  0.002825  0.004190  1
  O  O6  1  0.804175  0.370672  0.434082  1
  O  O7  1  0.808232  0.035589  0.772204  1
  O  O8  1  0.803165  0.704465  0.098834  1
  O  O9  1  0.693206  0.202742  0.102020  1
  O  O10  1  0.695133  0.537162  0.767561  1
  O  O11  1  0.696254  0.869906  0.436026  1
  O  O12  1  0.306277  0.130098  0.566569  1
  O  O13  1  0.306589  0.465848  0.232289  1
  O  O14  1  0.302056  0.793992  0.896195  1
  O  O15  1  0.193457  0.961667  0.232304  1
  O  O16  1  0.194578  0.294689  0.898310  1
  F  F17  1  0.198108  0.634548  0.563744  1
