# generated using pymatgen
data_Na2TiO3
_symmetry_space_group_name_H-M   'P 1'
_cell_length_a   5.37441440
_cell_length_b   5.37441440
_cell_length_c   11.06895685
_cell_angle_alpha   85.17795010
_cell_angle_beta   94.82204990
_cell_angle_gamma   59.97485626
_symmetry_Int_Tables_number   1
_chemical_formula_structural   Na2TiO3
_chemical_formula_sum   'Na8 Ti4 O12'
_cell_volume   272.87176730
_cell_formula_units_Z   4
loop_
 _symmetry_equiv_pos_site_id
 _symmetry_equiv_pos_as_xyz
  1  'x, y, z'
loop_
 _atom_site_type_symbol
 _atom_site_label
 _atom_site_symmetry_multiplicity
 _atom_site_fract_x
 _atom_site_fract_y
 _atom_site_fract_z
 _atom_site_occupancy
  Na  Na0  1  0.317410  0.841353  0.499055  1
  Na  Na1  1  0.500000  1.000000  0.000000  1
  Na  Na2  1  0.918344  0.918344  0.250000  1
  Na  Na3  1  0.841353  0.317410  0.000945  1
  Na  Na4  1  0.000000  0.500000  0.500000  1
  Na  Na5  1  0.158647  0.682590  0.999055  1
  Na  Na6  1  0.081656  0.081656  0.750000  1
  Na  Na7  1  0.682590  0.158647  0.500945  1
  Ti  Ti8  1  0.746652  0.746652  0.750000  1
  Ti  Ti9  1  0.585202  0.585202  0.250000  1
  Ti  Ti10  1  0.414798  0.414798  0.750000  1
  Ti  Ti11  1  0.253348  0.253348  0.250000  1
  O  O12  1  0.260587  0.951417  0.147867  1
  O  O13  1  0.496269  0.669490  0.851009  1
  O  O14  1  0.572609  0.883079  0.350638  1
  O  O15  1  0.669490  0.496269  0.648991  1
  O  O16  1  0.048583  0.739413  0.647867  1
  O  O17  1  0.116921  0.427391  0.850638  1
  O  O18  1  0.883079  0.572609  0.149362  1
  O  O19  1  0.951417  0.260587  0.352133  1
  O  O20  1  0.330510  0.503731  0.351009  1
  O  O21  1  0.427391  0.116921  0.649362  1
  O  O22  1  0.503731  0.330510  0.148991  1
  O  O23  1  0.739413  0.048583  0.852133  1
