# generated using pymatgen
data_Mo5(O4F)3
_symmetry_space_group_name_H-M   'P 1'
_cell_length_a   5.59999648
_cell_length_b   6.79096671
_cell_length_c   8.57982555
_cell_angle_alpha   103.41159812
_cell_angle_beta   108.75037803
_cell_angle_gamma   89.28382178
_symmetry_Int_Tables_number   1
_chemical_formula_structural   Mo5(O4F)3
_chemical_formula_sum   'Mo5 O12 F3'
_cell_volume   299.86010574
_cell_formula_units_Z   1
loop_
 _symmetry_equiv_pos_site_id
 _symmetry_equiv_pos_as_xyz
  1  'x, y, z'
loop_
 _atom_site_type_symbol
 _atom_site_label
 _atom_site_symmetry_multiplicity
 _atom_site_fract_x
 _atom_site_fract_y
 _atom_site_fract_z
 _atom_site_occupancy
  Mo  Mo0  1  0.950679  0.987302  0.996048  1
  Mo  Mo1  1  0.370655  0.613814  0.804175  1
  Mo  Mo2  1  0.841929  0.194245  0.599227  1
  Mo  Mo3  1  0.254724  0.813662  0.406811  1
  Mo  Mo4  1  0.600354  0.400906  0.198801  1
  O  O5  1  0.686728  0.800737  0.899986  1
  O  O6  1  0.181638  0.793894  0.896133  1
  O  O7  1  0.093470  0.395660  0.696069  1
  O  O8  1  0.897062  0.098312  0.797943  1
  O  O9  1  0.511293  0.005349  0.499090  1
  O  O10  1  0.012463  0.006100  0.501355  1
  O  O11  1  0.296664  0.705366  0.593509  1
  O  O12  1  0.698968  0.300877  0.398501  1
  O  O13  1  0.408741  0.612305  0.303746  1
  O  O14  1  0.793271  0.191107  0.095413  1
  O  O15  1  0.098861  0.901429  0.198788  1
  O  O16  1  0.498167  0.495962  0.003076  1
  F  F17  1  0.597857  0.403539  0.700283  1
  F  F18  1  0.909801  0.601821  0.298790  1
  F  F19  1  0.289044  0.197957  0.098693  1
