# generated using pymatgen
data_LiVSiO4
_symmetry_space_group_name_H-M   'P 1'
_cell_length_a   5.60561361
_cell_length_b   10.66757247
_cell_length_c   10.42850198
_cell_angle_alpha   90.00000000
_cell_angle_beta   90.54462975
_cell_angle_gamma   90.00000000
_symmetry_Int_Tables_number   1
_chemical_formula_structural   LiVSiO4
_chemical_formula_sum   'Li8 V8 Si8 O32'
_cell_volume   623.57840665
_cell_formula_units_Z   8
loop_
 _symmetry_equiv_pos_site_id
 _symmetry_equiv_pos_as_xyz
  1  'x, y, z'
loop_
 _atom_site_type_symbol
 _atom_site_label
 _atom_site_symmetry_multiplicity
 _atom_site_fract_x
 _atom_site_fract_y
 _atom_site_fract_z
 _atom_site_occupancy
  Li  Li0  1  0.107433  0.158442  0.325848  1
  Li  Li1  1  0.107433  0.341558  0.825848  1
  Li  Li2  1  0.373225  0.619413  0.088342  1
  Li  Li3  1  0.373225  0.880587  0.588342  1
  Li  Li4  1  0.626775  0.119413  0.411658  1
  Li  Li5  1  0.626775  0.380587  0.911658  1
  Li  Li6  1  0.892567  0.658442  0.174152  1
  Li  Li7  1  0.892567  0.841558  0.674152  1
  V  V8  1  0.155282  0.872257  0.016602  1
  V  V9  1  0.155282  0.627743  0.516602  1
  V  V10  1  0.338076  0.407996  0.269847  1
  V  V11  1  0.338076  0.092004  0.769847  1
  V  V12  1  0.661924  0.907996  0.230153  1
  V  V13  1  0.661924  0.592004  0.730153  1
  V  V14  1  0.844718  0.372257  0.483398  1
  V  V15  1  0.844718  0.127743  0.983398  1
  Si  Si16  1  0.117462  0.900431  0.336985  1
  Si  Si17  1  0.117462  0.599569  0.836985  1
  Si  Si18  1  0.390063  0.145246  0.079831  1
  Si  Si19  1  0.390063  0.354754  0.579831  1
  Si  Si20  1  0.609937  0.645246  0.420169  1
  Si  Si21  1  0.609937  0.854754  0.920169  1
  Si  Si22  1  0.882538  0.400431  0.163015  1
  Si  Si23  1  0.882538  0.099569  0.663015  1
  O  O24  1  0.115798  0.803902  0.458943  1
  O  O25  1  0.112474  0.500497  0.154746  1
  O  O26  1  0.115798  0.696098  0.958943  1
  O  O27  1  0.112474  0.999503  0.654746  1
  O  O28  1  0.047909  0.830488  0.196396  1
  O  O29  1  0.146041  0.062157  0.070869  1
  O  O30  1  0.047909  0.669512  0.696396  1
  O  O31  1  0.146041  0.437843  0.570869  1
  O  O32  1  0.353336  0.247057  0.191247  1
  O  O33  1  0.368113  0.979871  0.331713  1
  O  O34  1  0.353336  0.252943  0.691247  1
  O  O35  1  0.368113  0.520129  0.831713  1
  O  O36  1  0.371407  0.560626  0.381876  1
  O  O37  1  0.475105  0.305959  0.435365  1
  O  O38  1  0.371407  0.939374  0.881876  1
  O  O39  1  0.475105  0.194041  0.935365  1
  O  O40  1  0.524895  0.805959  0.064635  1
  O  O41  1  0.628593  0.060626  0.118124  1
  O  O42  1  0.524895  0.694041  0.564635  1
  O  O43  1  0.628593  0.439374  0.618124  1
  O  O44  1  0.631887  0.479871  0.168287  1
  O  O45  1  0.646664  0.747057  0.308753  1
  O  O46  1  0.631887  0.020129  0.668287  1
  O  O47  1  0.646664  0.752943  0.808753  1
  O  O48  1  0.853959  0.562157  0.429131  1
  O  O49  1  0.952091  0.330488  0.303604  1
  O  O50  1  0.853959  0.937843  0.929131  1
  O  O51  1  0.952091  0.169512  0.803604  1
  O  O52  1  0.887526  0.000497  0.345254  1
  O  O53  1  0.884202  0.303902  0.041057  1
  O  O54  1  0.887526  0.499503  0.845254  1
  O  O55  1  0.884202  0.196098  0.541057  1
