# generated using pymatgen
data_Ti3MnCr(PO4)6
_symmetry_space_group_name_H-M   'P 1'
_cell_length_a   8.62865430
_cell_length_b   8.62865430
_cell_length_c   8.62865430
_cell_angle_alpha   60.21528028
_cell_angle_beta   60.21528028
_cell_angle_gamma   60.21528028
_symmetry_Int_Tables_number   1
_chemical_formula_structural   Ti3MnCr(PO4)6
_chemical_formula_sum   'Ti3 Mn1 Cr1 P6 O24'
_cell_volume   456.48439905
_cell_formula_units_Z   1
loop_
 _symmetry_equiv_pos_site_id
 _symmetry_equiv_pos_as_xyz
  1  'x, y, z'
loop_
 _atom_site_type_symbol
 _atom_site_label
 _atom_site_symmetry_multiplicity
 _atom_site_fract_x
 _atom_site_fract_y
 _atom_site_fract_z
 _atom_site_occupancy
  Ti  Ti0  1  0.865021  0.865021  0.865021  1
  Ti  Ti1  1  0.646268  0.646268  0.646268  1
  Ti  Ti2  1  0.135418  0.135418  0.135418  1
  Mn  Mn3  1  0.499834  0.499835  0.499834  1
  Cr  Cr4  1  0.355638  0.355638  0.355638  1
  P  P5  1  0.959810  0.252669  0.532499  1
  P  P6  1  0.464958  0.043933  0.747229  1
  P  P7  1  0.747229  0.464958  0.043933  1
  P  P8  1  0.252669  0.532499  0.959810  1
  P  P9  1  0.532499  0.959810  0.252669  1
  P  P10  1  0.043933  0.747229  0.464958  1
  O  O11  1  0.936787  0.088394  0.722349  1
  O  O12  1  0.999715  0.199707  0.368177  1
  O  O13  1  0.911151  0.276267  0.061339  1
  O  O14  1  0.502376  0.117978  0.309272  1
  O  O15  1  0.765398  0.418900  0.551829  1
  O  O16  1  0.445852  0.236235  0.580159  1
  O  O17  1  0.276267  0.061339  0.911151  1
  O  O18  1  0.002399  0.799051  0.630221  1
  O  O19  1  0.688807  0.503984  0.880379  1
  O  O20  1  0.799051  0.630221  0.002399  1
  O  O21  1  0.880379  0.688807  0.503984  1
  O  O22  1  0.580159  0.445852  0.236235  1
  O  O23  1  0.418900  0.551829  0.765398  1
  O  O24  1  0.117978  0.309272  0.502376  1
  O  O25  1  0.199707  0.368177  0.999715  1
  O  O26  1  0.309272  0.502376  0.117978  1
  O  O27  1  0.722349  0.936787  0.088394  1
  O  O28  1  0.551829  0.765398  0.418900  1
  O  O29  1  0.236235  0.580159  0.445852  1
  O  O30  1  0.503984  0.880379  0.688807  1
  O  O31  1  0.630221  0.002399  0.799051  1
  O  O32  1  0.368177  0.999715  0.199707  1
  O  O33  1  0.088394  0.722349  0.936787  1
  O  O34  1  0.061339  0.911151  0.276267  1
