# generated using pymatgen
data_Sn2P2O7
_symmetry_space_group_name_H-M   'P 1'
_cell_length_a   13.54650726
_cell_length_b   13.54650726
_cell_length_c   9.65681579
_cell_angle_alpha   59.06433669
_cell_angle_beta   120.93566331
_cell_angle_gamma   137.61458079
_symmetry_Int_Tables_number   1
_chemical_formula_structural   Sn2P2O7
_chemical_formula_sum   'Sn12 P12 O42'
_cell_volume   996.61202512
_cell_formula_units_Z   6
loop_
 _symmetry_equiv_pos_site_id
 _symmetry_equiv_pos_as_xyz
  1  'x, y, z'
loop_
 _atom_site_type_symbol
 _atom_site_label
 _atom_site_symmetry_multiplicity
 _atom_site_fract_x
 _atom_site_fract_y
 _atom_site_fract_z
 _atom_site_occupancy
  Sn  Sn0  1  0.189760  0.186390  0.992466  1
  Sn  Sn1  1  0.480745  0.153544  0.161104  1
  Sn  Sn2  1  0.866950  0.521664  0.167650  1
  Sn  Sn3  1  0.519081  0.865915  0.329089  1
  Sn  Sn4  1  0.149776  0.477889  0.333022  1
  Sn  Sn5  1  0.192804  0.194021  0.506472  1
  Sn  Sn6  1  0.813610  0.810240  0.492466  1
  Sn  Sn7  1  0.846456  0.519255  0.661104  1
  Sn  Sn8  1  0.478336  0.133050  0.667650  1
  Sn  Sn9  1  0.134085  0.480919  0.829089  1
  Sn  Sn10  1  0.522111  0.850224  0.833022  1
  Sn  Sn11  1  0.805979  0.807196  0.006472  1
  P  P12  1  0.221005  0.744059  0.447306  1
  P  P13  1  0.451392  0.580047  0.719479  1
  P  P14  1  0.911306  0.111276  0.617210  1
  P  P15  1  0.114157  0.909700  0.879372  1
  P  P16  1  0.585436  0.451847  0.777132  1
  P  P17  1  0.747588  0.220550  0.053725  1
  P  P18  1  0.255941  0.778995  0.947306  1
  P  P19  1  0.419953  0.548608  0.219479  1
  P  P20  1  0.888724  0.088694  0.117210  1
  P  P21  1  0.090300  0.885843  0.379372  1
  P  P22  1  0.548153  0.414564  0.277132  1
  P  P23  1  0.779450  0.252412  0.553725  1
  O  O24  1  0.551929  0.715607  0.792943  1
  O  O25  1  0.327530  0.431638  0.806681  1
  O  O26  1  0.952421  0.049098  0.806045  1
  O  O27  1  0.889713  0.217795  0.610168  1
  O  O28  1  0.727453  0.281690  0.361445  1
  O  O29  1  0.359230  0.876021  0.371096  1
  O  O30  1  0.111853  0.599959  0.385185  1
  O  O31  1  0.577582  0.575776  0.746913  1
  O  O32  1  0.391097  0.618816  0.529295  1
  O  O33  1  0.764625  0.988661  0.526689  1
  O  O34  1  0.049500  0.219021  0.543510  1
  O  O35  1  0.219770  0.046734  0.953799  1
  O  O36  1  0.991783  0.762774  0.970013  1
  O  O37  1  0.627217  0.395690  0.968423  1
  O  O38  1  0.602369  0.111121  0.113873  1
  O  O39  1  0.878407  0.356793  0.133105  1
  O  O40  1  0.285724  0.729559  0.138758  1
  O  O41  1  0.284393  0.448071  0.292943  1
  O  O42  1  0.222347  0.889651  0.887417  1
  O  O43  1  0.052730  0.951436  0.690594  1
  O  O44  1  0.568362  0.672470  0.306681  1
  O  O45  1  0.435711  0.323771  0.694912  1
  O  O46  1  0.950902  0.047579  0.306045  1
  O  O47  1  0.782205  0.110287  0.110168  1
  O  O48  1  0.718533  0.551577  0.700835  1
  O  O49  1  0.718310  0.272547  0.861445  1
  O  O50  1  0.123979  0.640770  0.871096  1
  O  O51  1  0.400041  0.888147  0.885185  1
  O  O52  1  0.424224  0.422418  0.246913  1
  O  O53  1  0.381184  0.608903  0.029295  1
  O  O54  1  0.011339  0.235375  0.026689  1
  O  O55  1  0.780979  0.950500  0.043510  1
  O  O56  1  0.953266  0.780230  0.453799  1
  O  O57  1  0.237226  0.008217  0.470013  1
  O  O58  1  0.604310  0.372783  0.468423  1
  O  O59  1  0.888879  0.397631  0.613873  1
  O  O60  1  0.643207  0.121593  0.633105  1
  O  O61  1  0.270441  0.714276  0.638758  1
  O  O62  1  0.110349  0.777653  0.387417  1
  O  O63  1  0.048564  0.947270  0.190594  1
  O  O64  1  0.676229  0.564289  0.194912  1
  O  O65  1  0.448423  0.281467  0.200835  1
