# generated using pymatgen
data_Fe9O10
_symmetry_space_group_name_H-M   'P 1'
_cell_length_a   5.35679887
_cell_length_b   6.14284889
_cell_length_c   6.88518630
_cell_angle_alpha   103.28055124
_cell_angle_beta   97.39946312
_cell_angle_gamma   107.37748159
_symmetry_Int_Tables_number   1
_chemical_formula_structural   Fe9O10
_chemical_formula_sum   'Fe9 O10'
_cell_volume   205.63349287
_cell_formula_units_Z   1
loop_
 _symmetry_equiv_pos_site_id
 _symmetry_equiv_pos_as_xyz
  1  'x, y, z'
loop_
 _atom_site_type_symbol
 _atom_site_label
 _atom_site_symmetry_multiplicity
 _atom_site_fract_x
 _atom_site_fract_y
 _atom_site_fract_z
 _atom_site_occupancy
  Fe  Fe0  1  0.000000  0.500000  0.000000  1
  Fe  Fe1  1  0.381297  0.294964  0.800757  1
  Fe  Fe2  1  0.407388  0.805669  0.804325  1
  Fe  Fe3  1  0.201436  0.903678  0.385650  1
  Fe  Fe4  1  0.192909  0.388921  0.387943  1
  Fe  Fe5  1  0.807091  0.611079  0.612057  1
  Fe  Fe6  1  0.798564  0.096322  0.614350  1
  Fe  Fe7  1  0.592612  0.194331  0.195675  1
  Fe  Fe8  1  0.618703  0.705036  0.199243  1
  O  O9  1  0.668633  0.631903  0.902264  1
  O  O10  1  0.111964  0.446233  0.704481  1
  O  O11  1  0.121895  0.946837  0.684136  1
  O  O12  1  0.677399  0.169942  0.887793  1
  O  O13  1  0.501037  0.266030  0.516722  1
  O  O14  1  0.498963  0.733970  0.483278  1
  O  O15  1  0.888036  0.553767  0.295519  1
  O  O16  1  0.322601  0.830058  0.112207  1
  O  O17  1  0.878105  0.053163  0.315864  1
  O  O18  1  0.331367  0.368097  0.097736  1
