# generated using pymatgen
data_LiCoSiO4
_symmetry_space_group_name_H-M   'P 1'
_cell_length_a   4.89412047
_cell_length_b   4.89412047
_cell_length_c   6.26044442
_cell_angle_alpha   90.00000000
_cell_angle_beta   90.00000000
_cell_angle_gamma   111.58997409
_symmetry_Int_Tables_number   1
_chemical_formula_structural   LiCoSiO4
_chemical_formula_sum   'Li2 Co2 Si2 O8'
_cell_volume   139.43221117
_cell_formula_units_Z   2
loop_
 _symmetry_equiv_pos_site_id
 _symmetry_equiv_pos_as_xyz
  1  'x, y, z'
loop_
 _atom_site_type_symbol
 _atom_site_label
 _atom_site_symmetry_multiplicity
 _atom_site_fract_x
 _atom_site_fract_y
 _atom_site_fract_z
 _atom_site_occupancy
  Li  Li0  1  0.673441  0.326559  0.750000  1
  Li  Li1  1  0.326559  0.673441  0.250000  1
  Co  Co2  1  0.000000  0.000000  0.000000  1
  Co  Co3  1  0.000000  0.000000  0.500000  1
  Si  Si4  1  0.652307  0.347693  0.250000  1
  Si  Si5  1  0.347693  0.652307  0.750000  1
  O  O6  1  0.232569  0.287713  0.750000  1
  O  O7  1  0.287713  0.232569  0.250000  1
  O  O8  1  0.769236  0.230764  0.036987  1
  O  O9  1  0.769236  0.230764  0.463013  1
  O  O10  1  0.230764  0.769236  0.536987  1
  O  O11  1  0.230764  0.769236  0.963013  1
  O  O12  1  0.767431  0.712287  0.250000  1
  O  O13  1  0.712287  0.767431  0.750000  1
