# generated using pymatgen
data_Li10Cr2Fe3Co3O16
_symmetry_space_group_name_H-M   'P 1'
_cell_length_a   5.96222410
_cell_length_b   5.96222410
_cell_length_c   9.83417541
_cell_angle_alpha   89.84653012
_cell_angle_beta   90.15346988
_cell_angle_gamma   119.94845712
_symmetry_Int_Tables_number   1
_chemical_formula_structural   Li10Cr2Fe3Co3O16
_chemical_formula_sum   'Li10 Cr2 Fe3 Co3 O16'
_cell_volume   302.90638281
_cell_formula_units_Z   1
loop_
 _symmetry_equiv_pos_site_id
 _symmetry_equiv_pos_as_xyz
  1  'x, y, z'
loop_
 _atom_site_type_symbol
 _atom_site_label
 _atom_site_symmetry_multiplicity
 _atom_site_fract_x
 _atom_site_fract_y
 _atom_site_fract_z
 _atom_site_occupancy
  Li  Li0  1  0.382286  0.202199  0.950934  1
  Li  Li1  1  0.797801  0.617714  0.950934  1
  Li  Li2  1  0.654735  0.345265  0.731977  1
  Li  Li3  1  0.992250  0.007750  0.024937  1
  Li  Li4  1  0.988282  0.011718  0.520070  1
  Li  Li5  1  0.798860  0.201140  0.950070  1
  Li  Li6  1  0.182823  0.817177  0.447950  1
  Li  Li7  1  0.593541  0.808512  0.453049  1
  Li  Li8  1  0.191488  0.406459  0.453049  1
  Li  Li9  1  0.321017  0.678983  0.231768  1
  Cr  Cr10  1  0.321690  0.678310  0.978069  1
  Cr  Cr11  1  0.653618  0.346382  0.474765  1
  Fe  Fe12  1  0.822375  0.177625  0.222132  1
  Fe  Fe13  1  0.157212  0.350454  0.720158  1
  Fe  Fe14  1  0.649546  0.842788  0.720158  1
  Co  Co15  1  0.332535  0.184859  0.218290  1
  Co  Co16  1  0.156266  0.843734  0.718839  1
  Co  Co17  1  0.815141  0.667465  0.218290  1
  O  O18  1  0.320934  0.187809  0.593749  1
  O  O19  1  0.500695  0.499305  0.346376  1
  O  O20  1  0.660041  0.339959  0.102089  1
  O  O21  1  0.509104  0.033962  0.347200  1
  O  O22  1  0.991460  0.008540  0.328237  1
  O  O23  1  0.983475  0.016525  0.831804  1
  O  O24  1  0.812191  0.679066  0.593749  1
  O  O25  1  0.966038  0.490896  0.347200  1
  O  O26  1  0.159466  0.840534  0.094804  1
  O  O27  1  0.821480  0.178520  0.600992  1
  O  O28  1  0.012214  0.516607  0.846517  1
  O  O29  1  0.483393  0.987786  0.846517  1
  O  O30  1  0.325265  0.674735  0.601789  1
  O  O31  1  0.152179  0.344696  0.097206  1
  O  O32  1  0.478718  0.521282  0.845124  1
  O  O33  1  0.655304  0.847821  0.097206  1
