# generated using pymatgen
data_LiCu2C2O7
_symmetry_space_group_name_H-M   'P 1'
_cell_length_a   4.81447913
_cell_length_b   4.83438740
_cell_length_c   15.24270448
_cell_angle_alpha   89.65741764
_cell_angle_beta   89.62444947
_cell_angle_gamma   60.27491891
_symmetry_Int_Tables_number   1
_chemical_formula_structural   LiCu2C2O7
_chemical_formula_sum   'Li2 Cu4 C4 O14'
_cell_volume   308.08347355
_cell_formula_units_Z   2
loop_
 _symmetry_equiv_pos_site_id
 _symmetry_equiv_pos_as_xyz
  1  'x, y, z'
loop_
 _atom_site_type_symbol
 _atom_site_label
 _atom_site_symmetry_multiplicity
 _atom_site_fract_x
 _atom_site_fract_y
 _atom_site_fract_z
 _atom_site_occupancy
  Li  Li0  1  0.000000  0.000000  0.500000  1
  Li  Li1  1  0.000000  0.000000  0.000000  1
  Cu  Cu2  1  0.330755  0.334291  0.864882  1
  Cu  Cu3  1  0.331982  0.337962  0.634605  1
  Cu  Cu4  1  0.668018  0.662038  0.365395  1
  Cu  Cu5  1  0.669245  0.665709  0.135118  1
  C  C6  1  0.664129  0.669655  0.588693  1
  C  C7  1  0.665461  0.669455  0.910550  1
  C  C8  1  0.335871  0.330345  0.411307  1
  C  C9  1  0.334539  0.330545  0.089450  1
  O  O10  1  0.388287  0.925685  0.912790  1
  O  O11  1  0.077778  0.609386  0.412538  1
  O  O12  1  0.386083  0.688640  0.585812  1
  O  O13  1  0.316344  0.606165  0.091017  1
  O  O14  1  0.684897  0.926772  0.586926  1
  O  O15  1  0.073903  0.312946  0.085548  1
  O  O16  1  0.677068  0.679042  0.251195  1
  O  O17  1  0.347664  0.308877  0.749730  1
  O  O18  1  0.926097  0.687054  0.914452  1
  O  O19  1  0.315103  0.073228  0.413074  1
  O  O20  1  0.683656  0.393835  0.908983  1
  O  O21  1  0.613917  0.311360  0.414188  1
  O  O22  1  0.922222  0.390614  0.587462  1
  O  O23  1  0.611713  0.074315  0.087210  1
