# generated using pymatgen
data_LiCr3O4
_symmetry_space_group_name_H-M   'P 1'
_cell_length_a   5.32661092
_cell_length_b   5.32661092
_cell_length_c   3.17624091
_cell_angle_alpha   84.07217792
_cell_angle_beta   95.92782208
_cell_angle_gamma   76.76485585
_symmetry_Int_Tables_number   1
_chemical_formula_structural   LiCr3O4
_chemical_formula_sum   'Li1 Cr3 O4'
_cell_volume   86.50312205
_cell_formula_units_Z   1
loop_
 _symmetry_equiv_pos_site_id
 _symmetry_equiv_pos_as_xyz
  1  'x, y, z'
loop_
 _atom_site_type_symbol
 _atom_site_label
 _atom_site_symmetry_multiplicity
 _atom_site_fract_x
 _atom_site_fract_y
 _atom_site_fract_z
 _atom_site_occupancy
  Li  Li0  1  0.500000  0.500000  0.500000  1
  Cr  Cr1  1  1.000000  0.500000  0.000000  1
  Cr  Cr2  1  0.000000  0.000000  0.500000  1
  Cr  Cr3  1  0.500000  0.000000  0.000000  1
  O  O4  1  0.788357  0.211643  0.939371  1
  O  O5  1  0.756074  0.756074  0.500000  1
  O  O6  1  0.243926  0.243926  0.500000  1
  O  O7  1  0.211643  0.788357  0.060629  1
