# generated using pymatgen
data_NaNiPO4
_symmetry_space_group_name_H-M   'P 1'
_cell_length_a   4.97258548
_cell_length_b   4.97258548
_cell_length_c   6.73997889
_cell_angle_alpha   90.00000000
_cell_angle_beta   90.00000000
_cell_angle_gamma   114.83664634
_symmetry_Int_Tables_number   1
_chemical_formula_structural   NaNiPO4
_chemical_formula_sum   'Na2 Ni2 P2 O8'
_cell_volume   151.24255207
_cell_formula_units_Z   2
loop_
 _symmetry_equiv_pos_site_id
 _symmetry_equiv_pos_as_xyz
  1  'x, y, z'
loop_
 _atom_site_type_symbol
 _atom_site_label
 _atom_site_symmetry_multiplicity
 _atom_site_fract_x
 _atom_site_fract_y
 _atom_site_fract_z
 _atom_site_occupancy
  Na  Na0  1  0.688499  0.311501  0.750000  1
  Na  Na1  1  0.311501  0.688499  0.250000  1
  Ni  Ni2  1  0.000000  0.000000  0.000000  1
  Ni  Ni3  1  0.000000  0.000000  0.500000  1
  P  P4  1  0.661512  0.338488  0.250000  1
  P  P5  1  0.338488  0.661512  0.750000  1
  O  O6  1  0.311838  0.211403  0.250000  1
  O  O7  1  0.211403  0.311838  0.750000  1
  O  O8  1  0.766536  0.233464  0.435731  1
  O  O9  1  0.233464  0.766536  0.564269  1
  O  O10  1  0.766536  0.233464  0.064269  1
  O  O11  1  0.233464  0.766536  0.935731  1
  O  O12  1  0.688162  0.788597  0.750000  1
  O  O13  1  0.788597  0.688162  0.250000  1
