# generated using pymatgen
data_LiCoSiO4
_symmetry_space_group_name_H-M   'P 1'
_cell_length_a   5.31666020
_cell_length_b   5.31666020
_cell_length_c   5.31666020
_cell_angle_alpha   130.10922152
_cell_angle_beta   130.10922152
_cell_angle_gamma   73.23221656
_symmetry_Int_Tables_number   1
_chemical_formula_structural   LiCoSiO4
_chemical_formula_sum   'Li1 Co1 Si1 O4'
_cell_volume   85.82656264
_cell_formula_units_Z   1
loop_
 _symmetry_equiv_pos_site_id
 _symmetry_equiv_pos_as_xyz
  1  'x, y, z'
loop_
 _atom_site_type_symbol
 _atom_site_label
 _atom_site_symmetry_multiplicity
 _atom_site_fract_x
 _atom_site_fract_y
 _atom_site_fract_z
 _atom_site_occupancy
  Li  Li0  1  0.500000  0.500000  0.000000  1
  Co  Co1  1  0.250000  0.750000  0.500000  1
  Si  Si2  1  0.000000  0.000000  0.000000  1
  O  O3  1  0.136651  0.708494  0.059953  1
  O  O4  1  0.923302  0.863349  0.571843  1
  O  O5  1  0.648541  0.076698  0.940047  1
  O  O6  1  0.291506  0.351459  0.428157  1
