# generated using pymatgen
data_Li24Ti5Cr7O36
_symmetry_space_group_name_H-M   'P 1'
_cell_length_a   5.05810241
_cell_length_b   9.80127182
_cell_length_c   13.37242674
_cell_angle_alpha   80.64781402
_cell_angle_beta   79.34609348
_cell_angle_gamma   85.22287018
_symmetry_Int_Tables_number   1
_chemical_formula_structural   Li24Ti5Cr7O36
_chemical_formula_sum   'Li24 Ti5 Cr7 O36'
_cell_volume   641.89172259
_cell_formula_units_Z   1
loop_
 _symmetry_equiv_pos_site_id
 _symmetry_equiv_pos_as_xyz
  1  'x, y, z'
loop_
 _atom_site_type_symbol
 _atom_site_label
 _atom_site_symmetry_multiplicity
 _atom_site_fract_x
 _atom_site_fract_y
 _atom_site_fract_z
 _atom_site_occupancy
  Li  Li0  1  0.660674  0.999829  0.168262  1
  Li  Li1  1  0.565855  0.999645  0.386709  1
  Li  Li2  1  0.250754  0.750762  0.750445  1
  Li  Li3  1  0.584048  0.749902  0.082592  1
  Li  Li4  1  0.062148  0.500037  0.886401  1
  Li  Li5  1  0.403451  0.500249  0.219722  1
  Li  Li6  1  0.162051  0.498731  0.666589  1
  Li  Li7  1  0.497201  0.500941  0.000716  1
  Li  Li8  1  0.269705  0.500404  0.446257  1
  Li  Li9  1  0.085566  0.249960  0.584059  1
  Li  Li10  1  0.992284  0.998807  0.500885  1
  Li  Li11  1  0.770921  0.998289  0.945299  1
  Li  Li12  1  0.104843  0.999027  0.279334  1
  Li  Li13  1  0.900917  0.999494  0.720945  1
  Li  Li14  1  0.229704  0.000675  0.053925  1
  Li  Li15  1  0.919297  0.750156  0.417512  1
  Li  Li16  1  0.735327  0.499956  0.554096  1
  Li  Li17  1  0.825500  0.501059  0.334604  1
  Li  Li18  1  0.605581  0.499945  0.779395  1
  Li  Li19  1  0.936081  0.500573  0.113601  1
  Li  Li20  1  0.418584  0.250591  0.915601  1
  Li  Li21  1  0.329922  0.000458  0.833850  1
  Li  Li22  1  0.750928  0.249218  0.249586  1
  Li  Li23  1  0.436004  0.000302  0.611970  1
  Ti  Ti24  1  0.854357  0.253176  0.029591  1
  Ti  Ti25  1  0.358835  0.751238  0.527171  1
  Ti  Ti26  1  0.197248  0.246275  0.360518  1
  Ti  Ti27  1  0.031432  0.746373  0.192846  1
  Ti  Ti28  1  0.526895  0.249659  0.693313  1
  Cr  Cr29  1  0.475751  0.750477  0.305997  1
  Cr  Cr30  1  0.974003  0.249472  0.806983  1
  Cr  Cr31  1  0.302075  0.250486  0.137721  1
  Cr  Cr32  1  0.686648  0.751949  0.863786  1
  Cr  Cr33  1  0.806382  0.748007  0.641443  1
  Cr  Cr34  1  0.643290  0.251063  0.472314  1
  Cr  Cr35  1  0.135468  0.751336  0.969234  1
  O  O36  1  0.930641  0.863256  0.068750  1
  O  O37  1  0.717896  0.633412  0.213341  1
  O  O38  1  0.426244  0.364527  0.571757  1
  O  O39  1  0.502718  0.362145  0.358093  1
  O  O40  1  0.622261  0.367448  0.118521  1
  O  O41  1  0.258005  0.864565  0.405306  1
  O  O42  1  0.218753  0.133020  0.713996  1
  O  O43  1  0.336460  0.137611  0.477441  1
  O  O44  1  0.540092  0.135524  0.050288  1
  O  O45  1  0.004713  0.861906  0.858239  1
  O  O46  1  0.111602  0.864611  0.619718  1
  O  O47  1  0.336738  0.861780  0.190615  1
  O  O48  1  0.406604  0.137789  0.260323  1
  O  O49  1  0.830712  0.637467  0.972569  1
  O  O50  1  0.051930  0.632718  0.547938  1
  O  O51  1  0.170673  0.637651  0.310663  1
  O  O52  1  0.904803  0.639786  0.760536  1
  O  O53  1  0.238836  0.637529  0.093521  1
  O  O54  1  0.757536  0.364378  0.905071  1
  O  O55  1  0.098169  0.362380  0.235272  1
  O  O56  1  0.836307  0.361634  0.691121  1
  O  O57  1  0.945740  0.364515  0.451942  1
  O  O58  1  0.172536  0.362364  0.024546  1
  O  O59  1  0.595968  0.862357  0.740748  1
  O  O60  1  0.671442  0.137797  0.811304  1
  O  O61  1  0.882940  0.134393  0.380915  1
  O  O62  1  0.996789  0.135717  0.143300  1
  O  O63  1  0.456569  0.865409  0.950305  1
  O  O64  1  0.668864  0.861417  0.525173  1
  O  O65  1  0.776903  0.864148  0.285634  1
  O  O66  1  0.739447  0.137505  0.592688  1
  O  O67  1  0.374084  0.636786  0.884174  1
  O  O68  1  0.504076  0.637334  0.644852  1
  O  O69  1  0.573804  0.637974  0.425525  1
  O  O70  1  0.276966  0.364750  0.786250  1
  O  O71  1  0.072453  0.137871  0.926296  1
