# generated using pymatgen
data_Sn2P2O7
_symmetry_space_group_name_H-M   'P 1'
_cell_length_a   7.03127285
_cell_length_b   7.03127285
_cell_length_c   25.55367069
_cell_angle_alpha   90.00000000
_cell_angle_beta   90.00000000
_cell_angle_gamma   90.00000000
_symmetry_Int_Tables_number   1
_chemical_formula_structural   Sn2P2O7
_chemical_formula_sum   'Sn16 P16 O56'
_cell_volume   1263.34276062
_cell_formula_units_Z   8
loop_
 _symmetry_equiv_pos_site_id
 _symmetry_equiv_pos_as_xyz
  1  'x, y, z'
loop_
 _atom_site_type_symbol
 _atom_site_label
 _atom_site_symmetry_multiplicity
 _atom_site_fract_x
 _atom_site_fract_y
 _atom_site_fract_z
 _atom_site_occupancy
  Sn  Sn0  1  0.118495  0.636730  0.884311  1
  Sn  Sn1  1  0.120062  0.219737  0.002080  1
  Sn  Sn2  1  0.194055  0.547416  0.244355  1
  Sn  Sn3  1  0.201103  0.264861  0.638765  1
  Sn  Sn4  1  0.219737  0.879938  0.752080  1
  Sn  Sn5  1  0.264861  0.798897  0.388765  1
  Sn  Sn6  1  0.363270  0.118495  0.134311  1
  Sn  Sn7  1  0.452584  0.194055  0.494355  1
  Sn  Sn8  1  0.547416  0.805945  0.994355  1
  Sn  Sn9  1  0.636730  0.881505  0.634311  1
  Sn  Sn10  1  0.735139  0.201103  0.888765  1
  Sn  Sn11  1  0.780263  0.120062  0.252080  1
  Sn  Sn12  1  0.798897  0.735139  0.138765  1
  Sn  Sn13  1  0.805945  0.452584  0.744355  1
  Sn  Sn14  1  0.879938  0.780263  0.502080  1
  Sn  Sn15  1  0.881505  0.363270  0.384311  1
  P  P16  1  0.048666  0.711175  0.020714  1
  P  P17  1  0.136956  0.747182  0.622083  1
  P  P18  1  0.252818  0.136956  0.872083  1
  P  P19  1  0.288825  0.048666  0.270714  1
  P  P20  1  0.280239  0.653345  0.118442  1
  P  P21  1  0.305229  0.373064  0.775985  1
  P  P22  1  0.346655  0.280239  0.368442  1
  P  P23  1  0.373064  0.694771  0.525985  1
  P  P24  1  0.626936  0.305229  0.025985  1
  P  P25  1  0.653345  0.719761  0.868442  1
  P  P26  1  0.694771  0.626936  0.275985  1
  P  P27  1  0.719761  0.346655  0.618442  1
  P  P28  1  0.711175  0.951334  0.770714  1
  P  P29  1  0.747182  0.863044  0.372083  1
  P  P30  1  0.863044  0.252818  0.122083  1
  P  P31  1  0.951334  0.288825  0.520714  1
  O  O32  1  0.017233  0.558539  0.979028  1
  O  O33  1  0.039751  0.179300  0.092148  1
  O  O34  1  0.085346  0.261464  0.892079  1
  O  O35  1  0.099939  0.601488  0.664643  1
  O  O36  1  0.128391  0.180906  0.251826  1
  O  O37  1  0.136092  0.213197  0.545897  1
  O  O38  1  0.143141  0.772003  0.153287  1
  O  O39  1  0.159737  0.590639  0.066636  1
  O  O40  1  0.165182  0.529137  0.794238  1
  O  O41  1  0.179300  0.960249  0.842148  1
  O  O42  1  0.180906  0.871609  0.001826  1
  O  O43  1  0.203908  0.224356  0.741000  1
  O  O44  1  0.213197  0.863908  0.295897  1
  O  O45  1  0.220976  0.446264  0.348789  1
  O  O46  1  0.224356  0.796092  0.491000  1
  O  O47  1  0.227997  0.143141  0.403287  1
  O  O48  1  0.262223  0.627701  0.579102  1
  O  O49  1  0.261464  0.914654  0.642079  1
  O  O50  1  0.340810  0.468741  0.145042  1
  O  O51  1  0.372299  0.262223  0.829102  1
  O  O52  1  0.398512  0.099939  0.914643  1
  O  O53  1  0.409361  0.159737  0.316636  1
  O  O54  1  0.441461  0.017233  0.229028  1
  O  O55  1  0.468741  0.659190  0.895042  1
  O  O56  1  0.470863  0.165182  0.044238  1
  O  O57  1  0.446264  0.779024  0.098789  1
  O  O58  1  0.455735  0.513702  0.502755  1
  O  O59  1  0.486298  0.455735  0.752755  1
  O  O60  1  0.513702  0.544265  0.252755  1
  O  O61  1  0.544265  0.486298  0.002755  1
  O  O62  1  0.553736  0.220976  0.598789  1
  O  O63  1  0.529137  0.834818  0.544238  1
  O  O64  1  0.531259  0.340810  0.395042  1
  O  O65  1  0.558539  0.982767  0.729028  1
  O  O66  1  0.590639  0.840263  0.816636  1
  O  O67  1  0.601488  0.900061  0.414643  1
  O  O68  1  0.627701  0.737777  0.329102  1
  O  O69  1  0.659190  0.531259  0.645042  1
  O  O70  1  0.738536  0.085346  0.142079  1
  O  O71  1  0.737777  0.372299  0.079102  1
  O  O72  1  0.772003  0.856859  0.903287  1
  O  O73  1  0.775644  0.203908  0.991000  1
  O  O74  1  0.779024  0.553736  0.848789  1
  O  O75  1  0.786803  0.136092  0.795897  1
  O  O76  1  0.796092  0.775644  0.241000  1
  O  O77  1  0.819094  0.128391  0.501826  1
  O  O78  1  0.820700  0.039751  0.342148  1
  O  O79  1  0.834818  0.470863  0.294238  1
  O  O80  1  0.840263  0.409361  0.566636  1
  O  O81  1  0.856859  0.227997  0.653287  1
  O  O82  1  0.863908  0.786803  0.045897  1
  O  O83  1  0.871609  0.819094  0.751826  1
  O  O84  1  0.900061  0.398512  0.164643  1
  O  O85  1  0.914654  0.738536  0.392079  1
  O  O86  1  0.960249  0.820700  0.592148  1
  O  O87  1  0.982767  0.441461  0.479028  1
