# generated using pymatgen
data_Dy29Y3O48
_symmetry_space_group_name_H-M   'P 1'
_cell_length_a   9.24379677
_cell_length_b   9.24480788
_cell_length_c   15.09416606
_cell_angle_alpha   90.00760999
_cell_angle_beta   90.00126675
_cell_angle_gamma   109.47139384
_symmetry_Int_Tables_number   1
_chemical_formula_structural   Dy29Y3O48
_chemical_formula_sum   'Dy29 Y3 O48'
_cell_volume   1216.13187608
_cell_formula_units_Z   1
loop_
 _symmetry_equiv_pos_site_id
 _symmetry_equiv_pos_as_xyz
  1  'x, y, z'
loop_
 _atom_site_type_symbol
 _atom_site_label
 _atom_site_symmetry_multiplicity
 _atom_site_fract_x
 _atom_site_fract_y
 _atom_site_fract_z
 _atom_site_occupancy
  Dy  Dy0  1  0.842193  0.092221  0.624942  1
  Dy  Dy1  1  0.657722  0.407851  0.874901  1
  Dy  Dy2  1  0.983648  0.516549  0.733494  1
  Dy  Dy3  1  0.233843  0.266382  0.983619  1
  Dy  Dy4  1  0.749947  0.749887  0.749930  1
  Dy  Dy5  1  0.250130  0.250056  0.749955  1
  Dy  Dy6  1  0.499909  0.999929  0.000034  1
  Dy  Dy7  1  0.999910  0.499929  0.500032  1
  Dy  Dy8  1  0.391483  0.608640  0.858581  1
  Dy  Dy9  1  0.891395  0.108600  0.358629  1
  Dy  Dy10  1  0.641421  0.358587  0.608613  1
  Dy  Dy11  1  0.516264  0.983504  0.766330  1
  Dy  Dy12  1  0.266404  0.233460  0.516443  1
  Dy  Dy13  1  0.342127  0.592127  0.625075  1
  Dy  Dy14  1  0.157915  0.907803  0.874942  1
  Dy  Dy15  1  0.657862  0.407702  0.374985  1
  Dy  Dy16  1  0.842081  0.092029  0.125117  1
  Dy  Dy17  1  0.483670  0.016555  0.233563  1
  Dy  Dy18  1  0.733728  0.766423  0.483620  1
  Dy  Dy19  1  0.108614  0.891397  0.641369  1
  Dy  Dy20  1  0.750174  0.750027  0.249989  1
  Dy  Dy21  1  0.249917  0.249889  0.249961  1
  Dy  Dy22  1  0.500050  0.000114  0.500006  1
  Dy  Dy23  1  0.608519  0.391354  0.141419  1
  Dy  Dy24  1  0.016286  0.483509  0.266396  1
  Dy  Dy25  1  0.766283  0.733508  0.016445  1
  Dy  Dy26  1  0.157849  0.907931  0.374975  1
  Dy  Dy27  1  0.342302  0.592293  0.125011  1
  Dy  Dy28  1  0.141463  0.858730  0.108653  1
  Y  Y29  1  0.858573  0.141209  0.891314  1
  Y  Y30  1  0.000047  0.500122  1.000000  1
  Y  Y31  1  0.358616  0.641364  0.391355  1
  O  O32  1  0.907093  0.396356  0.864402  1
  O  O33  1  0.608159  0.151005  0.880292  1
  O  O34  1  0.401054  0.358590  0.869620  1
  O  O35  1  0.999478  0.760180  0.771220  1
  O  O36  1  0.891422  0.348958  0.619682  1
  O  O37  1  0.646029  0.657182  0.885301  1
  O  O38  1  0.733244  0.962479  0.994700  1
  O  O39  1  0.592899  0.104072  0.635358  1
  O  O40  1  0.286935  0.016174  0.744340  1
  O  O41  1  0.093749  0.124779  0.864039  1
  O  O42  1  0.255545  0.526840  0.984398  1
  O  O43  1  0.755072  0.026821  0.484337  1
  O  O44  1  0.723194  0.495075  0.734227  1
  O  O45  1  0.374677  0.843316  0.885894  1
  O  O46  1  0.874699  0.343336  0.385919  1
  O  O47  1  0.406695  0.375268  0.635918  1
  O  O48  1  0.776537  0.004776  0.765506  1
  O  O49  1  0.854077  0.842856  0.614600  1
  O  O50  1  0.766187  0.536908  0.505573  1
  O  O51  1  0.213075  0.483797  0.755589  1
  O  O52  1  0.010064  0.749927  0.978813  1
  O  O53  1  0.510160  0.249487  0.478792  1
  O  O54  1  0.500459  0.739821  0.728766  1
  O  O55  1  0.098979  0.141415  0.630343  1
  O  O56  1  0.901059  0.858638  0.369695  1
  O  O57  1  0.499446  0.260173  0.271243  1
  O  O58  1  0.490035  0.750679  0.521415  1
  O  O59  1  0.990127  0.250238  0.021386  1
  O  O60  1  0.146007  0.157134  0.385358  1
  O  O61  1  0.233328  0.462524  0.494693  1
  O  O62  1  0.786931  0.516134  0.244365  1
  O  O63  1  0.125322  0.656680  0.614052  1
  O  O64  1  0.593714  0.624754  0.364090  1
  O  O65  1  0.223228  0.995058  0.234290  1
  O  O66  1  0.625346  0.156705  0.114075  1
  O  O67  1  0.906662  0.875241  0.135972  1
  O  O68  1  0.244943  0.973124  0.515659  1
  O  O69  1  0.276573  0.504759  0.265573  1
  O  O70  1  0.744462  0.473106  0.015594  1
  O  O71  1  0.354045  0.342808  0.114658  1
  O  O72  1  0.266282  0.036963  0.005566  1
  O  O73  1  0.407335  0.896674  0.364606  1
  O  O74  1  0.713078  0.983769  0.255614  1
  O  O75  1  0.108219  0.651072  0.380313  1
  O  O76  1  0.000435  0.239816  0.228787  1
  O  O77  1  0.598982  0.641459  0.130417  1
  O  O78  1  0.391483  0.849022  0.119702  1
  O  O79  1  0.093134  0.604375  0.135551  1
