# generated using pymatgen
data_LiMnCO4
_symmetry_space_group_name_H-M   'P 1'
_cell_length_a   3.30942635
_cell_length_b   9.19137228
_cell_length_c   9.44776148
_cell_angle_alpha   90.00000000
_cell_angle_beta   95.53610029
_cell_angle_gamma   90.00000000
_symmetry_Int_Tables_number   1
_chemical_formula_structural   LiMnCO4
_chemical_formula_sum   'Li4 Mn4 C4 O16'
_cell_volume   286.04314224
_cell_formula_units_Z   4
loop_
 _symmetry_equiv_pos_site_id
 _symmetry_equiv_pos_as_xyz
  1  'x, y, z'
loop_
 _atom_site_type_symbol
 _atom_site_label
 _atom_site_symmetry_multiplicity
 _atom_site_fract_x
 _atom_site_fract_y
 _atom_site_fract_z
 _atom_site_occupancy
  Li  Li0  1  0.766258  0.684881  0.096918  1
  Li  Li1  1  0.766258  0.815119  0.596918  1
  Li  Li2  1  0.233742  0.184881  0.403082  1
  Li  Li3  1  0.233742  0.315119  0.903082  1
  Mn  Mn4  1  0.759453  0.063782  0.114717  1
  Mn  Mn5  1  0.759453  0.436218  0.614717  1
  Mn  Mn6  1  0.240547  0.563782  0.385283  1
  Mn  Mn7  1  0.240547  0.936218  0.885283  1
  C  C8  1  0.773024  0.369103  0.159200  1
  C  C9  1  0.773024  0.130897  0.659200  1
  C  C10  1  0.226976  0.869103  0.340800  1
  C  C11  1  0.226976  0.630897  0.840800  1
  O  O12  1  0.795987  0.491688  0.232270  1
  O  O13  1  0.729500  0.888600  0.005149  1
  O  O14  1  0.763740  0.246729  0.231819  1
  O  O15  1  0.795987  0.008312  0.732270  1
  O  O16  1  0.729500  0.611400  0.505149  1
  O  O17  1  0.763740  0.253271  0.731819  1
  O  O18  1  0.754694  0.369843  0.025583  1
  O  O19  1  0.754694  0.130157  0.525583  1
  O  O20  1  0.245306  0.869843  0.474417  1
  O  O21  1  0.245306  0.630157  0.974417  1
  O  O22  1  0.236260  0.746729  0.268181  1
  O  O23  1  0.270500  0.388600  0.494851  1
  O  O24  1  0.204013  0.991688  0.267730  1
  O  O25  1  0.236260  0.753271  0.768181  1
  O  O26  1  0.270500  0.111400  0.994851  1
  O  O27  1  0.204013  0.508312  0.767730  1
