# generated using pymatgen
data_LiV5H18N2O19
_symmetry_space_group_name_H-M   'P 1'
_cell_length_a   8.58116375
_cell_length_b   10.31353058
_cell_length_c   11.30350214
_cell_angle_alpha   111.71413872
_cell_angle_beta   86.54934285
_cell_angle_gamma   112.92401169
_symmetry_Int_Tables_number   1
_chemical_formula_structural   LiV5H18N2O19
_chemical_formula_sum   'Li2 V10 H36 N4 O38'
_cell_volume   851.86914459
_cell_formula_units_Z   2
loop_
 _symmetry_equiv_pos_site_id
 _symmetry_equiv_pos_as_xyz
  1  'x, y, z'
loop_
 _atom_site_type_symbol
 _atom_site_label
 _atom_site_symmetry_multiplicity
 _atom_site_fract_x
 _atom_site_fract_y
 _atom_site_fract_z
 _atom_site_occupancy
  Li  Li0  1  0.434925  0.339614  0.864415  1
  Li  Li1  1  0.565075  0.660386  0.135585  1
  V  V2  1  0.965952  0.798689  0.766519  1
  V  V3  1  0.034048  0.201311  0.233481  1
  V  V4  1  0.811245  0.503034  0.519335  1
  V  V5  1  0.188755  0.496966  0.480665  1
  V  V6  1  0.976268  0.496260  0.256267  1
  V  V7  1  0.023732  0.503740  0.743733  1
  V  V8  1  0.126277  0.790707  0.503271  1
  V  V9  1  0.873723  0.209293  0.496729  1
  V  V10  1  0.329836  0.790004  0.725984  1
  V  V11  1  0.670164  0.209996  0.274016  1
  H  H12  1  0.761998  0.565358  0.936147  1
  H  H13  1  0.238002  0.434642  0.063853  1
  H  H14  1  0.751812  0.496155  0.038092  1
  H  H15  1  0.248188  0.503845  0.961908  1
  H  H16  1  0.427799  0.462302  0.275748  1
  H  H17  1  0.572201  0.537698  0.724252  1
  H  H18  1  0.605053  0.463585  0.231321  1
  H  H19  1  0.394947  0.536415  0.768679  1
  H  H20  1  0.120223  0.089269  0.725403  1
  H  H21  1  0.879777  0.910731  0.274597  1
  H  H22  1  0.104512  0.246015  0.764484  1
  H  H23  1  0.895488  0.753985  0.235516  1
  H  H24  1  0.495390  0.094728  0.676544  1
  H  H25  1  0.504610  0.905272  0.323456  1
  H  H26  1  0.638888  0.251479  0.679264  1
  H  H27  1  0.361112  0.748521  0.320736  1
  H  H28  1  0.332562  0.103227  0.936631  1
  H  H29  1  0.667438  0.896773  0.063369  1
  H  H30  1  0.411542  0.253412  0.057362  1
  H  H31  1  0.588458  0.746588  0.942638  1
  H  H32  1  0.255356  0.089176  0.456234  1
  H  H33  1  0.744644  0.910824  0.543766  1
  H  H34  1  0.407466  0.259569  0.462726  1
  H  H35  1  0.592534  0.740431  0.537274  1
  H  H36  1  0.384296  0.211269  0.592107  1
  H  H37  1  0.615704  0.788731  0.407893  1
  H  H38  1  0.234427  0.254559  0.543583  1
  H  H39  1  0.765573  0.745441  0.456417  1
  H  H40  1  0.229760  0.928913  0.120869  1
  H  H41  1  0.770240  0.071087  0.879131  1
  H  H42  1  0.149612  0.748222  0.120102  1
  H  H43  1  0.850388  0.251778  0.879898  1
  H  H44  1  0.167029  0.778930  0.982174  1
  H  H45  1  0.832971  0.221070  0.017826  1
  H  H46  1  0.345068  0.821347  0.069625  1
  H  H47  1  0.654932  0.178653  0.930375  1
  N  N48  1  0.320223  0.203519  0.512773  1
  N  N49  1  0.679777  0.796481  0.487227  1
  N  N50  1  0.223012  0.819664  0.074042  1
  N  N51  1  0.776988  0.180336  0.925958  1
  O  O52  1  0.158448  0.889483  0.411568  1
  O  O53  1  0.841552  0.110517  0.588432  1
  O  O54  1  0.006610  0.604527  0.171616  1
  O  O55  1  0.993390  0.395473  0.828384  1
  O  O56  1  0.882635  0.907607  0.866769  1
  O  O57  1  0.117365  0.092393  0.133231  1
  O  O58  1  0.522250  0.890996  0.796752  1
  O  O59  1  0.477750  0.109004  0.203248  1
  O  O60  1  0.018308  0.877008  0.637169  1
  O  O61  1  0.981692  0.122992  0.362831  1
  O  O62  1  0.760951  0.633987  0.647471  1
  O  O63  1  0.239049  0.366013  0.352529  1
  O  O64  1  0.752571  0.367148  0.206829  1
  O  O65  1  0.247429  0.632852  0.793171  1
  O  O66  1  0.327669  0.872825  0.601852  1
  O  O67  1  0.672331  0.127175  0.398148  1
  O  O68  1  0.624217  0.372899  0.425090  1
  O  O69  1  0.375783  0.627101  0.574910  1
  O  O70  1  0.937258  0.642393  0.833262  1
  O  O71  1  0.062742  0.357607  0.166738  1
  O  O72  1  0.197096  0.884909  0.826013  1
  O  O73  1  0.802904  0.115091  0.173987  1
  O  O74  1  0.895853  0.625678  0.419246  1
  O  O75  1  0.104147  0.374322  0.580754  1
  O  O76  1  0.815789  0.379859  0.616854  1
  O  O77  1  0.184211  0.620141  0.383146  1
  O  O78  1  0.064490  0.620952  0.604210  1
  O  O79  1  0.935510  0.379048  0.395790  1
  O  O80  1  0.681317  0.513808  0.986175  1
  O  O81  1  0.318683  0.486192  0.013825  1
  O  O82  1  0.516818  0.499747  0.223638  1
  O  O83  1  0.483182  0.500253  0.776362  1
  O  O84  1  0.183462  0.199791  0.767707  1
  O  O85  1  0.816538  0.800209  0.232293  1
  O  O86  1  0.529214  0.205217  0.710264  1
  O  O87  1  0.470786  0.794783  0.289736  1
  O  O88  1  0.426018  0.204426  0.967639  1
  O  O89  1  0.573982  0.795574  0.032361  1
