# generated using pymatgen
data_Ni3OF5
_symmetry_space_group_name_H-M   'P 1'
_cell_length_a   5.62698986
_cell_length_b   5.62698986
_cell_length_c   7.28441010
_cell_angle_alpha   72.78738328
_cell_angle_beta   107.21261672
_cell_angle_gamma   106.86233838
_symmetry_Int_Tables_number   1
_chemical_formula_structural   Ni3OF5
_chemical_formula_sum   'Ni6 O2 F10'
_cell_volume   205.20066273
_cell_formula_units_Z   2
loop_
 _symmetry_equiv_pos_site_id
 _symmetry_equiv_pos_as_xyz
  1  'x, y, z'
loop_
 _atom_site_type_symbol
 _atom_site_label
 _atom_site_symmetry_multiplicity
 _atom_site_fract_x
 _atom_site_fract_y
 _atom_site_fract_z
 _atom_site_occupancy
  Ni  Ni0  1  0.665434  0.334566  0.165829  1
  Ni  Ni1  1  0.675579  0.324421  0.663146  1
  Ni  Ni2  1  0.000000  0.000000  0.000000  1
  Ni  Ni3  1  1.000000  0.000000  0.500000  1
  Ni  Ni4  1  0.334566  0.665434  0.834171  1
  Ni  Ni5  1  0.324421  0.675579  0.336854  1
  O  O6  1  0.096389  0.903611  0.295566  1
  O  O7  1  0.903611  0.096389  0.704434  1
  F  F8  1  0.973435  0.631647  0.664646  1
  F  F9  1  0.303812  0.303812  0.000000  1
  F  F10  1  0.766481  0.233519  0.963719  1
  F  F11  1  0.440613  0.559387  0.634473  1
  F  F12  1  0.559387  0.440613  0.365527  1
  F  F13  1  0.233519  0.766481  0.036281  1
  F  F14  1  0.026565  0.368353  0.335354  1
  F  F15  1  0.368353  0.026565  0.664646  1
  F  F16  1  0.696188  0.696188  0.000000  1
  F  F17  1  0.631647  0.973435  0.335354  1
