# generated using pymatgen
data_Ca2Fe3Sb(PO4)6
_symmetry_space_group_name_H-M   'P 1'
_cell_length_a   8.91176242
_cell_length_b   8.91176242
_cell_length_c   8.91176242
_cell_angle_alpha   58.22929459
_cell_angle_beta   58.22929459
_cell_angle_gamma   58.22929459
_symmetry_Int_Tables_number   1
_chemical_formula_structural   Ca2Fe3Sb(PO4)6
_chemical_formula_sum   'Ca2 Fe3 Sb1 P6 O24'
_cell_volume   480.16478592
_cell_formula_units_Z   1
loop_
 _symmetry_equiv_pos_site_id
 _symmetry_equiv_pos_as_xyz
  1  'x, y, z'
loop_
 _atom_site_type_symbol
 _atom_site_label
 _atom_site_symmetry_multiplicity
 _atom_site_fract_x
 _atom_site_fract_y
 _atom_site_fract_z
 _atom_site_occupancy
  Ca  Ca0  1  0.005668  0.005668  0.005668  1
  Ca  Ca1  1  0.499885  0.499885  0.499885  1
  Fe  Fe2  1  0.647250  0.647250  0.647250  1
  Fe  Fe3  1  0.351905  0.351905  0.351905  1
  Fe  Fe4  1  0.148527  0.148527  0.148527  1
  Sb  Sb5  1  0.853198  0.853198  0.853198  1
  P  P6  1  0.252245  0.537638  0.957982  1
  P  P7  1  0.957982  0.252245  0.537638  1
  P  P8  1  0.537638  0.957982  0.252245  1
  P  P9  1  0.455694  0.042101  0.747752  1
  P  P10  1  0.042101  0.747752  0.455694  1
  P  P11  1  0.747752  0.455694  0.042101  1
  O  O12  1  0.708906  0.493438  0.876085  1
  O  O13  1  0.493438  0.876085  0.708906  1
  O  O14  1  0.075261  0.731063  0.937918  1
  O  O15  1  0.876085  0.708906  0.493438  1
  O  O16  1  0.205020  0.379512  0.989974  1
  O  O17  1  0.415502  0.565690  0.770138  1
  O  O18  1  0.937918  0.075261  0.731063  1
  O  O19  1  0.770138  0.415502  0.565690  1
  O  O20  1  0.565690  0.770138  0.415502  1
  O  O21  1  0.623724  0.015445  0.787778  1
  O  O22  1  0.273957  0.060753  0.919778  1
  O  O23  1  0.015445  0.787778  0.623724  1
  O  O24  1  0.989974  0.205020  0.379512  1
  O  O25  1  0.731063  0.937918  0.075261  1
  O  O26  1  0.379512  0.989974  0.205020  1
  O  O27  1  0.440443  0.228083  0.579864  1
  O  O28  1  0.228083  0.579864  0.440443  1
  O  O29  1  0.060753  0.919778  0.273957  1
  O  O30  1  0.579864  0.440443  0.228083  1
  O  O31  1  0.787778  0.623724  0.015445  1
  O  O32  1  0.122594  0.284394  0.514835  1
  O  O33  1  0.919778  0.273957  0.060753  1
  O  O34  1  0.514835  0.122594  0.284394  1
  O  O35  1  0.284394  0.514835  0.122594  1
