# generated using pymatgen
data_Li4Cr3GaO8
_symmetry_space_group_name_H-M   'P 1'
_cell_length_a   5.92808904
_cell_length_b   5.92808904
_cell_length_c   5.13779493
_cell_angle_alpha   73.23963874
_cell_angle_beta   106.76036126
_cell_angle_gamma   120.00184160
_symmetry_Int_Tables_number   1
_chemical_formula_structural   Li4Cr3GaO8
_chemical_formula_sum   'Li4 Cr3 Ga1 O8'
_cell_volume   147.43835137
_cell_formula_units_Z   1
loop_
 _symmetry_equiv_pos_site_id
 _symmetry_equiv_pos_as_xyz
  1  'x, y, z'
loop_
 _atom_site_type_symbol
 _atom_site_label
 _atom_site_symmetry_multiplicity
 _atom_site_fract_x
 _atom_site_fract_y
 _atom_site_fract_z
 _atom_site_occupancy
  Li  Li0  1  0.750117  0.249883  0.000380  1
  Li  Li1  1  0.249883  0.750117  0.999620  1
  Li  Li2  1  0.249836  0.249836  0.000000  1
  Li  Li3  1  0.750164  0.750164  0.000000  1
  Cr  Cr4  1  0.000000  0.500000  0.500000  1
  Cr  Cr5  1  0.500000  0.000000  0.500000  1
  Cr  Cr6  1  0.000000  1.000000  0.500000  1
  Ga  Ga7  1  0.500000  0.500000  0.500000  1
  O  O8  1  0.628790  0.371210  0.274251  1
  O  O9  1  0.870479  0.628876  0.725806  1
  O  O10  1  0.129223  0.870777  0.275460  1
  O  O11  1  0.371124  0.129521  0.725806  1
  O  O12  1  0.129521  0.371124  0.274194  1
  O  O13  1  0.371210  0.628790  0.725749  1
  O  O14  1  0.628876  0.870479  0.274194  1
  O  O15  1  0.870777  0.129223  0.724540  1
