# generated using pymatgen
data_Li4Cu3WO8
_symmetry_space_group_name_H-M   'P 1'
_cell_length_a   5.82562773
_cell_length_b   5.93609118
_cell_length_c   5.99645203
_cell_angle_alpha   117.41055454
_cell_angle_beta   115.27158697
_cell_angle_gamma   93.32393552
_symmetry_Int_Tables_number   1
_chemical_formula_structural   Li4Cu3WO8
_chemical_formula_sum   'Li4 Cu3 W1 O8'
_cell_volume   157.87920959
_cell_formula_units_Z   1
loop_
 _symmetry_equiv_pos_site_id
 _symmetry_equiv_pos_as_xyz
  1  'x, y, z'
loop_
 _atom_site_type_symbol
 _atom_site_label
 _atom_site_symmetry_multiplicity
 _atom_site_fract_x
 _atom_site_fract_y
 _atom_site_fract_z
 _atom_site_occupancy
  Li  Li0  1  0.500000  0.500000  0.000000  1
  Li  Li1  1  0.000000  0.500000  0.500000  1
  Li  Li2  1  0.500000  0.000000  0.000000  1
  Li  Li3  1  0.000000  0.000000  0.500000  1
  Cu  Cu4  1  0.500000  0.000000  0.500000  1
  Cu  Cu5  1  0.000000  0.500000  0.000000  1
  Cu  Cu6  1  0.500000  0.500000  0.500000  1
  W  W7  1  0.000000  0.000000  0.000000  1
  O  O8  1  0.257024  0.715795  0.443822  1
  O  O9  1  0.762768  0.804994  0.042056  1
  O  O10  1  0.233645  0.214054  0.439457  1
  O  O11  1  0.742976  0.284205  0.556178  1
  O  O12  1  0.796879  0.254784  0.042284  1
  O  O13  1  0.237232  0.195006  0.957944  1
  O  O14  1  0.766355  0.785946  0.560543  1
  O  O15  1  0.203121  0.745216  0.957716  1
