# generated using pymatgen
data_LiP4WO12
_symmetry_space_group_name_H-M   'P 1'
_cell_length_a   8.73801054
_cell_length_b   8.73801054
_cell_length_c   9.77335184
_cell_angle_alpha   60.36740286
_cell_angle_beta   119.63259714
_cell_angle_gamma   129.44611271
_symmetry_Int_Tables_number   1
_chemical_formula_structural   LiP4WO12
_chemical_formula_sum   'Li2 P8 W2 O24'
_cell_volume   482.47723952
_cell_formula_units_Z   2
loop_
 _symmetry_equiv_pos_site_id
 _symmetry_equiv_pos_as_xyz
  1  'x, y, z'
loop_
 _atom_site_type_symbol
 _atom_site_label
 _atom_site_symmetry_multiplicity
 _atom_site_fract_x
 _atom_site_fract_y
 _atom_site_fract_z
 _atom_site_occupancy
  Li  Li0  1  0.688524  0.688524  0.250000  1
  Li  Li1  1  0.311476  0.311476  0.750000  1
  P  P2  1  0.028802  0.315024  0.826750  1
  P  P3  1  0.442536  0.705191  0.867009  1
  P  P4  1  0.705191  0.442536  0.632991  1
  P  P5  1  0.315024  0.028802  0.673250  1
  P  P6  1  0.684977  0.971198  0.326750  1
  P  P7  1  0.294809  0.557464  0.367009  1
  P  P8  1  0.557464  0.294809  0.132991  1
  P  P9  1  0.971198  0.684977  0.173250  1
  W  W10  1  0.136293  0.136293  0.250000  1
  W  W11  1  0.863707  0.863707  0.750000  1
  O  O12  1  0.597977  0.805166  0.778921  1
  O  O13  1  0.234801  0.524543  0.783059  1
  O  O14  1  0.016760  0.262550  0.993574  1
  O  O15  1  0.857028  0.363207  0.687951  1
  O  O16  1  0.978384  0.837458  0.211592  1
  O  O17  1  0.363207  0.857028  0.812049  1
  O  O18  1  0.262550  0.016760  0.506426  1
  O  O19  1  0.635031  0.492732  0.452429  1
  O  O20  1  0.492732  0.635031  0.047571  1
  O  O21  1  0.524543  0.234801  0.716941  1
  O  O22  1  0.805166  0.597977  0.721079  1
  O  O23  1  0.837458  0.978384  0.288408  1
  O  O24  1  0.162542  0.021616  0.711592  1
  O  O25  1  0.194834  0.402023  0.278921  1
  O  O26  1  0.475457  0.765199  0.283059  1
  O  O27  1  0.507268  0.364969  0.952429  1
  O  O28  1  0.364969  0.507268  0.547571  1
  O  O29  1  0.737450  0.983240  0.493574  1
  O  O30  1  0.636793  0.142972  0.187951  1
  O  O31  1  0.021616  0.162542  0.788408  1
  O  O32  1  0.142972  0.636793  0.312049  1
  O  O33  1  0.983240  0.737450  0.006426  1
  O  O34  1  0.765199  0.475457  0.216941  1
  O  O35  1  0.402023  0.194834  0.221079  1
