# generated using pymatgen
data_Fe3OF5
_symmetry_space_group_name_H-M   'P 1'
_cell_length_a   5.78408685
_cell_length_b   5.78408685
_cell_length_c   7.50100433
_cell_angle_alpha   72.93901043
_cell_angle_beta   107.06098957
_cell_angle_gamma   107.82685187
_symmetry_Int_Tables_number   1
_chemical_formula_structural   Fe3OF5
_chemical_formula_sum   'Fe6 O2 F10'
_cell_volume   222.60169493
_cell_formula_units_Z   2
loop_
 _symmetry_equiv_pos_site_id
 _symmetry_equiv_pos_as_xyz
  1  'x, y, z'
loop_
 _atom_site_type_symbol
 _atom_site_label
 _atom_site_symmetry_multiplicity
 _atom_site_fract_x
 _atom_site_fract_y
 _atom_site_fract_z
 _atom_site_occupancy
  Fe  Fe0  1  0.500000  0.500000  0.000000  1
  Fe  Fe1  1  0.854290  0.145710  0.849118  1
  Fe  Fe2  1  0.500000  0.500000  0.500000  1
  Fe  Fe3  1  0.836243  0.163757  0.327471  1
  Fe  Fe4  1  0.163757  0.836243  0.672529  1
  Fe  Fe5  1  0.145710  0.854290  0.150882  1
  O  O6  1  0.933594  0.066406  0.123973  1
  O  O7  1  0.066406  0.933594  0.876027  1
  F  F8  1  0.136629  0.464417  0.823770  1
  F  F9  1  0.798482  0.798482  0.500000  1
  F  F10  1  0.257171  0.742829  0.446449  1
  F  F11  1  0.616615  0.383385  0.810682  1
  F  F12  1  0.383385  0.616615  0.189318  1
  F  F13  1  0.742829  0.257171  0.553551  1
  F  F14  1  0.201518  0.201518  0.500000  1
  F  F15  1  0.535583  0.863371  0.823770  1
  F  F16  1  0.863371  0.535583  0.176230  1
  F  F17  1  0.464417  0.136629  0.176230  1
