# generated using pymatgen
data_Na4Bi2As(CO4)4
_symmetry_space_group_name_H-M   'P 1'
_cell_length_a   10.70411506
_cell_length_b   10.60430890
_cell_length_c   10.32361814
_cell_angle_alpha   61.50695990
_cell_angle_beta   60.53779769
_cell_angle_gamma   57.95524241
_symmetry_Int_Tables_number   1
_chemical_formula_structural   Na4Bi2As(CO4)4
_chemical_formula_sum   'Na8 Bi4 As2 C8 O32'
_cell_volume   826.93244344
_cell_formula_units_Z   2
loop_
 _symmetry_equiv_pos_site_id
 _symmetry_equiv_pos_as_xyz
  1  'x, y, z'
loop_
 _atom_site_type_symbol
 _atom_site_label
 _atom_site_symmetry_multiplicity
 _atom_site_fract_x
 _atom_site_fract_y
 _atom_site_fract_z
 _atom_site_occupancy
  Na  Na0  1  0.545692  0.954308  0.545692  1
  Na  Na1  1  0.955665  0.544335  0.544335  1
  Na  Na2  1  0.705665  0.294335  0.294335  1
  Na  Na3  1  0.295692  0.704308  0.295692  1
  Na  Na4  1  0.954308  0.545692  0.954308  1
  Na  Na5  1  0.544335  0.955665  0.955665  1
  Na  Na6  1  0.294335  0.705665  0.705665  1
  Na  Na7  1  0.704308  0.295692  0.704308  1
  Bi  Bi8  1  0.125000  0.125000  0.625000  1
  Bi  Bi9  1  0.125000  0.125000  0.125000  1
  Bi  Bi10  1  0.625000  0.125000  0.125000  1
  Bi  Bi11  1  0.125000  0.625000  0.125000  1
  As  As12  1  0.500000  0.500000  0.500000  1
  As  As13  1  0.750000  0.750000  0.750000  1
  C  C14  1  0.907609  0.913476  0.283223  1
  C  C15  1  0.336524  0.342391  0.354308  1
  C  C16  1  0.283223  0.895692  0.907609  1
  C  C17  1  0.895692  0.283223  0.913476  1
  C  C18  1  0.354308  0.966777  0.336524  1
  C  C19  1  0.966777  0.354308  0.342391  1
  C  C20  1  0.913476  0.907609  0.895692  1
  C  C21  1  0.342391  0.336524  0.966777  1
  O  O22  1  0.776861  0.925687  0.291220  1
  O  O23  1  0.583747  0.299464  0.558588  1
  O  O24  1  0.920477  0.033480  0.271815  1
  O  O25  1  0.216520  0.329523  0.475772  1
  O  O26  1  0.271815  0.774228  0.920477  1
  O  O27  1  0.471024  0.224307  0.343448  1
  O  O28  1  0.558588  0.558201  0.583747  1
  O  O29  1  0.299464  0.583747  0.558201  1
  O  O30  1  0.961221  0.343448  0.224307  1
  O  O31  1  0.774228  0.271815  0.033480  1
  O  O32  1  0.324313  0.473139  0.243767  1
  O  O33  1  0.558201  0.558588  0.299464  1
  O  O34  1  0.291220  0.006233  0.776861  1
  O  O35  1  0.006233  0.291220  0.925687  1
  O  O36  1  0.025693  0.778976  0.288779  1
  O  O37  1  0.343448  0.961221  0.471024  1
  O  O38  1  0.906552  0.288779  0.778976  1
  O  O39  1  0.224307  0.471024  0.961221  1
  O  O40  1  0.243767  0.958780  0.324313  1
  O  O41  1  0.958780  0.243767  0.473139  1
  O  O42  1  0.691799  0.691412  0.950536  1
  O  O43  1  0.925687  0.776861  0.006233  1
  O  O44  1  0.475772  0.978185  0.216520  1
  O  O45  1  0.288779  0.906552  0.025693  1
  O  O46  1  0.950536  0.666253  0.691799  1
  O  O47  1  0.691412  0.691799  0.666253  1
  O  O48  1  0.778976  0.025693  0.906552  1
  O  O49  1  0.978185  0.475772  0.329523  1
  O  O50  1  0.033480  0.920477  0.774228  1
  O  O51  1  0.329523  0.216520  0.978185  1
  O  O52  1  0.666253  0.950536  0.691412  1
  O  O53  1  0.473139  0.324313  0.958780  1
