# generated using pymatgen
data_V3Sb(PO4)6
_symmetry_space_group_name_H-M   'P 1'
_cell_length_a   8.77827686
_cell_length_b   8.77827686
_cell_length_c   8.77827686
_cell_angle_alpha   58.48146586
_cell_angle_beta   58.48146586
_cell_angle_gamma   58.48146586
_symmetry_Int_Tables_number   1
_chemical_formula_structural   V3Sb(PO4)6
_chemical_formula_sum   'V3 Sb1 P6 O24'
_cell_volume   461.69642390
_cell_formula_units_Z   1
loop_
 _symmetry_equiv_pos_site_id
 _symmetry_equiv_pos_as_xyz
  1  'x, y, z'
loop_
 _atom_site_type_symbol
 _atom_site_label
 _atom_site_symmetry_multiplicity
 _atom_site_fract_x
 _atom_site_fract_y
 _atom_site_fract_z
 _atom_site_occupancy
  V  V0  1  0.858047  0.858047  0.858047  1
  V  V1  1  0.641494  0.641494  0.641494  1
  V  V2  1  0.359277  0.359277  0.359277  1
  Sb  Sb3  1  0.142498  0.142498  0.142498  1
  P  P4  1  0.249482  0.539118  0.966532  1
  P  P5  1  0.966532  0.249482  0.539118  1
  P  P6  1  0.539118  0.966532  0.249482  1
  P  P7  1  0.468531  0.033821  0.747337  1
  P  P8  1  0.033821  0.747337  0.468531  1
  P  P9  1  0.747337  0.468531  0.033821  1
  O  O10  1  0.716888  0.499505  0.859744  1
  O  O11  1  0.499505  0.859744  0.716888  1
  O  O12  1  0.075238  0.716250  0.938561  1
  O  O13  1  0.859744  0.716888  0.499505  1
  O  O14  1  0.425523  0.568586  0.783640  1
  O  O15  1  0.231790  0.363497  0.979846  1
  O  O16  1  0.938561  0.075238  0.716250  1
  O  O17  1  0.783640  0.425523  0.568586  1
  O  O18  1  0.568586  0.783640  0.425523  1
  O  O19  1  0.635821  0.005789  0.782687  1
  O  O20  1  0.281412  0.054648  0.923145  1
  O  O21  1  0.005789  0.782687  0.635821  1
  O  O22  1  0.979846  0.231790  0.363497  1
  O  O23  1  0.716250  0.938561  0.075238  1
  O  O24  1  0.363497  0.979846  0.231790  1
  O  O25  1  0.440614  0.213879  0.575187  1
  O  O26  1  0.213879  0.575187  0.440614  1
  O  O27  1  0.054648  0.923145  0.281412  1
  O  O28  1  0.782687  0.635821  0.005789  1
  O  O29  1  0.575187  0.440614  0.213879  1
  O  O30  1  0.140074  0.276525  0.505017  1
  O  O31  1  0.923145  0.281412  0.054648  1
  O  O32  1  0.505017  0.140074  0.276525  1
  O  O33  1  0.276525  0.505017  0.140074  1
