# generated using pymatgen
data_Na2NiPCO7
_symmetry_space_group_name_H-M   'P 1'
_cell_length_a   5.10316366
_cell_length_b   6.81101340
_cell_length_c   8.72018113
_cell_angle_alpha   90.00000000
_cell_angle_beta   91.66996753
_cell_angle_gamma   90.00000000
_symmetry_Int_Tables_number   1
_chemical_formula_structural   Na2NiPCO7
_chemical_formula_sum   'Na4 Ni2 P2 C2 O14'
_cell_volume   302.96484782
_cell_formula_units_Z   2
loop_
 _symmetry_equiv_pos_site_id
 _symmetry_equiv_pos_as_xyz
  1  'x, y, z'
loop_
 _atom_site_type_symbol
 _atom_site_label
 _atom_site_symmetry_multiplicity
 _atom_site_fract_x
 _atom_site_fract_y
 _atom_site_fract_z
 _atom_site_occupancy
  Na  Na0  1  0.247143  0.014003  0.743347  1
  Na  Na1  1  0.247143  0.485997  0.743347  1
  Na  Na2  1  0.752857  0.514003  0.256653  1
  Na  Na3  1  0.752857  0.985997  0.256653  1
  Ni  Ni4  1  0.780486  0.750000  0.651757  1
  Ni  Ni5  1  0.219514  0.250000  0.348243  1
  P  P6  1  0.720996  0.250000  0.582025  1
  P  P7  1  0.279004  0.750000  0.417975  1
  C  C8  1  0.714707  0.750000  0.926286  1
  C  C9  1  0.285293  0.250000  0.073714  1
  O  O10  1  0.315569  0.250000  0.932327  1
  O  O11  1  0.942210  0.750000  0.863232  1
  O  O12  1  0.521789  0.750000  0.824754  1
  O  O13  1  0.787123  0.065459  0.676137  1
  O  O14  1  0.787123  0.434541  0.676137  1
  O  O15  1  0.138984  0.750000  0.573814  1
  O  O16  1  0.417857  0.250000  0.541932  1
  O  O17  1  0.582143  0.750000  0.458068  1
  O  O18  1  0.861016  0.250000  0.426186  1
  O  O19  1  0.212877  0.565459  0.323863  1
  O  O20  1  0.212877  0.934541  0.323863  1
  O  O21  1  0.478211  0.250000  0.175246  1
  O  O22  1  0.057790  0.250000  0.136768  1
  O  O23  1  0.684431  0.750000  0.067673  1
