# generated using pymatgen
data_V6O5F19
_symmetry_space_group_name_H-M   'P 1'
_cell_length_a   5.37474421
_cell_length_b   5.59869751
_cell_length_c   15.02954291
_cell_angle_alpha   100.25422697
_cell_angle_beta   89.71077370
_cell_angle_gamma   93.00887740
_symmetry_Int_Tables_number   1
_chemical_formula_structural   V6O5F19
_chemical_formula_sum   'V6 O5 F19'
_cell_volume   444.42099370
_cell_formula_units_Z   1
loop_
 _symmetry_equiv_pos_site_id
 _symmetry_equiv_pos_as_xyz
  1  'x, y, z'
loop_
 _atom_site_type_symbol
 _atom_site_label
 _atom_site_symmetry_multiplicity
 _atom_site_fract_x
 _atom_site_fract_y
 _atom_site_fract_z
 _atom_site_occupancy
  V  V0  1  0.037111  0.957859  0.997330  1
  V  V1  1  0.489440  0.848412  0.665062  1
  V  V2  1  0.971288  0.735651  0.337293  1
  V  V3  1  0.542103  0.465568  0.003169  1
  V  V4  1  0.961080  0.391795  0.670682  1
  V  V5  1  0.516456  0.225228  0.334598  1
  O  O6  1  0.804369  0.976740  0.360139  1
  O  O7  1  0.792456  0.631197  0.691563  1
  O  O8  1  0.701222  0.474618  0.356409  1
  O  O9  1  0.760930  0.287643  0.016315  1
  O  O10  1  0.220541  0.734724  0.984104  1
  F  F11  1  0.736358  0.775529  0.027759  1
  F  F12  1  0.278047  0.855830  0.309021  1
  F  F13  1  0.909069  0.943000  0.887730  1
  F  F14  1  0.599998  0.772255  0.552920  1
  F  F15  1  0.907824  0.609998  0.222656  1
  F  F16  1  0.431098  0.869724  0.782132  1
  F  F17  1  0.078195  0.678738  0.442523  1
  F  F18  1  0.412556  0.540077  0.112618  1
  F  F19  1  0.275921  0.537365  0.644392  1
  F  F20  1  0.231473  0.341781  0.304506  1
  F  F21  1  0.556509  0.482584  0.886528  1
  F  F22  1  0.925668  0.276127  0.554499  1
  F  F23  1  0.595361  0.096198  0.222791  1
  F  F24  1  0.082393  0.352391  0.775592  1
  F  F25  1  0.425007  0.181970  0.444091  1
  F  F26  1  0.063412  0.083861  0.113783  1
  F  F27  1  0.701416  0.150166  0.688801  1
  F  F28  1  0.272660  0.214789  0.972316  1
  F  F29  1  0.220040  0.008180  0.638678  1
