# generated using pymatgen
data_Li2Cr3(NiO6)2
_symmetry_space_group_name_H-M   'P 1'
_cell_length_a   9.09328415
_cell_length_b   9.10285525
_cell_length_c   12.57156128
_cell_angle_alpha   90.00000000
_cell_angle_beta   90.00000000
_cell_angle_gamma   90.00000000
_symmetry_Int_Tables_number   1
_chemical_formula_structural   Li2Cr3(NiO6)2
_chemical_formula_sum   'Li8 Cr12 Ni8 O48'
_cell_volume   1040.60909123
_cell_formula_units_Z   4
loop_
 _symmetry_equiv_pos_site_id
 _symmetry_equiv_pos_as_xyz
  1  'x, y, z'
loop_
 _atom_site_type_symbol
 _atom_site_label
 _atom_site_symmetry_multiplicity
 _atom_site_fract_x
 _atom_site_fract_y
 _atom_site_fract_z
 _atom_site_occupancy
  Li  Li0  1  0.728355  0.779704  0.187127  1
  Li  Li1  1  0.228355  0.220296  0.187127  1
  Li  Li2  1  0.228355  0.720296  0.312873  1
  Li  Li3  1  0.728355  0.279704  0.312873  1
  Li  Li4  1  0.271645  0.720296  0.687127  1
  Li  Li5  1  0.771645  0.279704  0.687127  1
  Li  Li6  1  0.771645  0.779704  0.812873  1
  Li  Li7  1  0.271645  0.220296  0.812873  1
  Cr  Cr8  1  0.750000  0.537708  0.000000  1
  Cr  Cr9  1  0.250000  0.462292  0.000000  1
  Cr  Cr10  1  0.394382  0.899305  0.143508  1
  Cr  Cr11  1  0.894382  0.100695  0.143508  1
  Cr  Cr12  1  0.894382  0.600695  0.356492  1
  Cr  Cr13  1  0.394382  0.399305  0.356492  1
  Cr  Cr14  1  0.250000  0.962292  0.500000  1
  Cr  Cr15  1  0.750000  0.037708  0.500000  1
  Cr  Cr16  1  0.605618  0.600695  0.643508  1
  Cr  Cr17  1  0.105618  0.399305  0.643508  1
  Cr  Cr18  1  0.105618  0.899305  0.856492  1
  Cr  Cr19  1  0.605618  0.100695  0.856492  1
  Ni  Ni20  1  0.032456  0.747170  0.119032  1
  Ni  Ni21  1  0.532456  0.252830  0.119032  1
  Ni  Ni22  1  0.532456  0.752830  0.380968  1
  Ni  Ni23  1  0.032456  0.247170  0.380968  1
  Ni  Ni24  1  0.967544  0.752830  0.619032  1
  Ni  Ni25  1  0.467544  0.247170  0.619032  1
  Ni  Ni26  1  0.467544  0.747170  0.880968  1
  Ni  Ni27  1  0.967544  0.252830  0.880968  1
  O  O28  1  0.432778  0.856350  0.020365  1
  O  O29  1  0.932778  0.143650  0.020365  1
  O  O30  1  0.631653  0.435675  0.064880  1
  O  O31  1  0.131653  0.564325  0.064880  1
  O  O32  1  0.835519  0.646615  0.088749  1
  O  O33  1  0.335519  0.353385  0.088749  1
  O  O34  1  0.893241  0.917807  0.160324  1
  O  O35  1  0.393241  0.082193  0.160324  1
  O  O36  1  0.229496  0.833171  0.175660  1
  O  O37  1  0.729496  0.166829  0.175660  1
  O  O38  1  0.523554  0.827335  0.222839  1
  O  O39  1  0.023554  0.172665  0.222839  1
  O  O40  1  0.023554  0.672665  0.277161  1
  O  O41  1  0.523554  0.327335  0.277161  1
  O  O42  1  0.229496  0.333171  0.324340  1
  O  O43  1  0.729496  0.666829  0.324340  1
  O  O44  1  0.393241  0.582193  0.339676  1
  O  O45  1  0.893241  0.417807  0.339676  1
  O  O46  1  0.335519  0.853385  0.411251  1
  O  O47  1  0.835519  0.146615  0.411251  1
  O  O48  1  0.631653  0.935675  0.435120  1
  O  O49  1  0.131653  0.064325  0.435120  1
  O  O50  1  0.432778  0.356350  0.479635  1
  O  O51  1  0.932778  0.643650  0.479635  1
  O  O52  1  0.567222  0.643650  0.520365  1
  O  O53  1  0.067222  0.356350  0.520365  1
  O  O54  1  0.868347  0.935675  0.564880  1
  O  O55  1  0.368347  0.064325  0.564880  1
  O  O56  1  0.164481  0.853385  0.588749  1
  O  O57  1  0.664481  0.146615  0.588749  1
  O  O58  1  0.106759  0.582193  0.660324  1
  O  O59  1  0.606759  0.417807  0.660324  1
  O  O60  1  0.770504  0.666829  0.675660  1
  O  O61  1  0.270504  0.333171  0.675660  1
  O  O62  1  0.476446  0.672665  0.722839  1
  O  O63  1  0.976446  0.327335  0.722839  1
  O  O64  1  0.976446  0.827335  0.777161  1
  O  O65  1  0.476446  0.172665  0.777161  1
  O  O66  1  0.270504  0.833171  0.824340  1
  O  O67  1  0.770504  0.166829  0.824340  1
  O  O68  1  0.606759  0.917807  0.839676  1
  O  O69  1  0.106759  0.082193  0.839676  1
  O  O70  1  0.664481  0.646615  0.911251  1
  O  O71  1  0.164481  0.353385  0.911251  1
  O  O72  1  0.368347  0.564325  0.935120  1
  O  O73  1  0.868347  0.435675  0.935120  1
  O  O74  1  0.067222  0.856350  0.979635  1
  O  O75  1  0.567222  0.143650  0.979635  1
