# generated using pymatgen
data_Sm11Y5O24
_symmetry_space_group_name_H-M   'P 1'
_cell_length_a   9.44477946
_cell_length_b   9.44565631
_cell_length_c   9.45700041
_cell_angle_alpha   109.47112679
_cell_angle_beta   109.47620587
_cell_angle_gamma   109.41317249
_symmetry_Int_Tables_number   1
_chemical_formula_structural   Sm11Y5O24
_chemical_formula_sum   'Sm11 Y5 O24'
_cell_volume   649.89012451
_cell_formula_units_Z   1
loop_
 _symmetry_equiv_pos_site_id
 _symmetry_equiv_pos_as_xyz
  1  'x, y, z'
loop_
 _atom_site_type_symbol
 _atom_site_label
 _atom_site_symmetry_multiplicity
 _atom_site_fract_x
 _atom_site_fract_y
 _atom_site_fract_z
 _atom_site_occupancy
  Sm  Sm0  1  0.504872  0.002033  0.003839  1
  Sm  Sm1  1  0.218640  0.469380  0.749883  1
  Sm  Sm2  1  0.994230  0.000261  0.498159  1
  Sm  Sm3  1  0.000121  0.497879  0.999357  1
  Sm  Sm4  1  0.500196  0.500611  0.500111  1
  Sm  Sm5  1  0.251217  0.717886  0.467690  1
  Sm  Sm6  1  0.781198  0.531947  0.249963  1
  Sm  Sm7  1  0.281634  0.031551  0.250789  1
  Sm  Sm8  1  0.532898  0.250222  0.781419  1
  Sm  Sm9  1  0.966227  0.749333  0.719140  1
  Sm  Sm10  1  0.248249  0.218666  0.968810  1
  Y  Y11  1  0.750153  0.784385  0.033168  1
  Y  Y12  1  0.030245  0.248621  0.281139  1
  Y  Y13  1  0.470097  0.752155  0.219246  1
  Y  Y14  1  0.717809  0.967689  0.750683  1
  Y  Y15  1  0.749873  0.280340  0.531949  1
  O  O16  1  0.268590  0.507950  0.537755  1
  O  O17  1  0.473785  0.731072  0.961938  1
  O  O18  1  0.725823  0.759809  0.267183  1
  O  O19  1  0.230880  0.957647  0.970748  1
  O  O20  1  0.006448  0.536317  0.768097  1
  O  O21  1  0.517351  0.745000  0.470206  1
  O  O22  1  0.231246  0.768877  0.239094  1
  O  O23  1  0.026137  0.988318  0.257470  1
  O  O24  1  0.737156  0.731913  0.773425  1
  O  O25  1  0.463691  0.969074  0.731686  1
  O  O26  1  0.246479  0.475709  0.016216  1
  O  O27  1  0.954390  0.230299  0.483824  1
  O  O28  1  0.760871  0.534682  0.988426  1
  O  O29  1  0.041259  0.772578  0.511911  1
  O  O30  1  0.254882  0.270644  0.230057  1
  O  O31  1  0.545703  0.029940  0.275163  1
  O  O32  1  0.771214  0.225049  0.755900  1
  O  O33  1  0.965677  0.011539  0.740773  1
  O  O34  1  0.986790  0.453785  0.227642  1
  O  O35  1  0.492926  0.260757  0.530236  1
  O  O36  1  0.775187  0.042496  0.030708  1
  O  O37  1  0.267940  0.238971  0.726477  1
  O  O38  1  0.728848  0.484567  0.458792  1
  O  O39  1  0.529067  0.270047  0.040930  1
