# generated using pymatgen
data_Li4Mn5CoO12
_symmetry_space_group_name_H-M   'P 1'
_cell_length_a   5.14959550
_cell_length_b   5.14959550
_cell_length_c   10.26430333
_cell_angle_alpha   89.21632906
_cell_angle_beta   90.78367094
_cell_angle_gamma   59.82823501
_symmetry_Int_Tables_number   1
_chemical_formula_structural   Li4Mn5CoO12
_chemical_formula_sum   'Li4 Mn5 Co1 O12'
_cell_volume   235.22780750
_cell_formula_units_Z   1
loop_
 _symmetry_equiv_pos_site_id
 _symmetry_equiv_pos_as_xyz
  1  'x, y, z'
loop_
 _atom_site_type_symbol
 _atom_site_label
 _atom_site_symmetry_multiplicity
 _atom_site_fract_x
 _atom_site_fract_y
 _atom_site_fract_z
 _atom_site_occupancy
  Li  Li0  1  0.164532  0.349151  0.749211  1
  Li  Li1  1  0.349151  0.164532  0.250789  1
  Li  Li2  1  0.661914  0.839641  0.751205  1
  Li  Li3  1  0.839641  0.661914  0.248795  1
  Mn  Mn4  1  0.157919  0.157919  0.500000  1
  Mn  Mn5  1  0.663418  0.663418  0.000000  1
  Mn  Mn6  1  0.337027  0.337027  0.000000  1
  Mn  Mn7  1  0.829477  0.829477  0.500000  1
  Mn  Mn8  1  0.498198  0.498198  0.500000  1
  Co  Co9  1  0.000214  0.000214  0.000000  1
  O  O10  1  0.008102  0.355191  0.104925  1
  O  O11  1  0.355191  0.008102  0.895075  1
  O  O12  1  0.131110  0.499854  0.394703  1
  O  O13  1  0.528703  0.825974  0.390191  1
  O  O14  1  0.499854  0.131110  0.605297  1
  O  O15  1  0.168038  0.818644  0.592580  1
  O  O16  1  0.825974  0.528703  0.609809  1
  O  O17  1  0.640989  0.991489  0.104804  1
  O  O18  1  0.356776  0.642786  0.097899  1
  O  O19  1  0.991489  0.640989  0.895196  1
  O  O20  1  0.642786  0.356776  0.902101  1
  O  O21  1  0.818644  0.168038  0.407420  1
