# generated using pymatgen
data_LiFeB2O5
_symmetry_space_group_name_H-M   'P 1'
_cell_length_a   7.31004021
_cell_length_b   7.31004021
_cell_length_c   9.78424726
_cell_angle_alpha   69.46284561
_cell_angle_beta   110.53715439
_cell_angle_gamma   89.02107451
_symmetry_Int_Tables_number   1
_chemical_formula_structural   LiFeB2O5
_chemical_formula_sum   'Li4 Fe4 B8 O20'
_cell_volume   452.59784309
_cell_formula_units_Z   4
loop_
 _symmetry_equiv_pos_site_id
 _symmetry_equiv_pos_as_xyz
  1  'x, y, z'
loop_
 _atom_site_type_symbol
 _atom_site_label
 _atom_site_symmetry_multiplicity
 _atom_site_fract_x
 _atom_site_fract_y
 _atom_site_fract_z
 _atom_site_occupancy
  Li  Li0  1  0.838855  0.838855  0.250000  1
  Li  Li1  1  0.378785  0.378785  0.250000  1
  Li  Li2  1  0.621215  0.621215  0.750000  1
  Li  Li3  1  0.161145  0.161145  0.750000  1
  Fe  Fe4  1  0.957506  0.352747  0.348940  1
  Fe  Fe5  1  0.647253  0.042494  0.848940  1
  Fe  Fe6  1  0.352747  0.957506  0.151060  1
  Fe  Fe7  1  0.042494  0.647253  0.651060  1
  B  B8  1  0.761177  0.227473  0.094612  1
  B  B9  1  0.736919  0.599417  0.025415  1
  B  B10  1  0.772527  0.238823  0.594612  1
  B  B11  1  0.400584  0.263081  0.525415  1
  B  B12  1  0.599417  0.736919  0.474585  1
  B  B13  1  0.227473  0.761177  0.405388  1
  B  B14  1  0.263081  0.400583  0.974585  1
  B  B15  1  0.238823  0.772527  0.905388  1
  O  O16  1  0.706337  0.081038  0.038590  1
  O  O17  1  0.855327  0.174289  0.253524  1
  O  O18  1  0.918962  0.293663  0.538590  1
  O  O19  1  0.816399  0.595076  0.174978  1
  O  O20  1  0.334000  0.232288  0.109529  1
  O  O21  1  0.825711  0.144673  0.753524  1
  O  O22  1  0.573095  0.282832  0.487498  1
  O  O23  1  0.282832  0.573095  0.012502  1
  O  O24  1  0.404924  0.183601  0.674978  1
  O  O25  1  0.767712  0.666000  0.609529  1
  O  O26  1  0.232288  0.334000  0.390471  1
  O  O27  1  0.595076  0.816399  0.325022  1
  O  O28  1  0.717168  0.426905  0.987498  1
  O  O29  1  0.426905  0.717168  0.512502  1
  O  O30  1  0.174289  0.855327  0.246476  1
  O  O31  1  0.666000  0.767712  0.890471  1
  O  O32  1  0.183601  0.404924  0.825022  1
  O  O33  1  0.081038  0.706337  0.461410  1
  O  O34  1  0.144673  0.825711  0.746476  1
  O  O35  1  0.293663  0.918962  0.961410  1
