# generated using pymatgen
data_Na2V2O5
_symmetry_space_group_name_H-M   'P 1'
_cell_length_a   5.34774845
_cell_length_b   6.60973854
_cell_length_c   17.00700436
_cell_angle_alpha   90.00000000
_cell_angle_beta   90.00000000
_cell_angle_gamma   90.00000000
_symmetry_Int_Tables_number   1
_chemical_formula_structural   Na2V2O5
_chemical_formula_sum   'Na8 V8 O20'
_cell_volume   601.15030828
_cell_formula_units_Z   4
loop_
 _symmetry_equiv_pos_site_id
 _symmetry_equiv_pos_as_xyz
  1  'x, y, z'
loop_
 _atom_site_type_symbol
 _atom_site_label
 _atom_site_symmetry_multiplicity
 _atom_site_fract_x
 _atom_site_fract_y
 _atom_site_fract_z
 _atom_site_occupancy
  Na  Na0  1  0.776156  0.594501  0.943265  1
  Na  Na1  1  0.223844  0.594501  0.443265  1
  Na  Na2  1  0.276156  0.905499  0.943265  1
  Na  Na3  1  0.723844  0.905499  0.443265  1
  Na  Na4  1  0.276156  0.094501  0.556735  1
  Na  Na5  1  0.723844  0.094501  0.056735  1
  Na  Na6  1  0.776156  0.405499  0.556735  1
  Na  Na7  1  0.223844  0.405499  0.056735  1
  V  V8  1  0.292347  0.594101  0.650609  1
  V  V9  1  0.707653  0.594101  0.150609  1
  V  V10  1  0.792347  0.905899  0.650609  1
  V  V11  1  0.207653  0.905899  0.150609  1
  V  V12  1  0.207653  0.094101  0.349391  1
  V  V13  1  0.792347  0.094101  0.849391  1
  V  V14  1  0.292347  0.405899  0.849391  1
  V  V15  1  0.707653  0.405899  0.349391  1
  O  O16  1  0.240809  0.500000  0.750000  1
  O  O17  1  0.759191  0.500000  0.250000  1
  O  O18  1  0.219473  0.557337  0.930149  1
  O  O19  1  0.780527  0.557337  0.430149  1
  O  O20  1  0.629865  0.657313  0.638252  1
  O  O21  1  0.370135  0.657313  0.138252  1
  O  O22  1  0.129865  0.842687  0.638252  1
  O  O23  1  0.870135  0.842687  0.138252  1
  O  O24  1  0.719473  0.942663  0.930149  1
  O  O25  1  0.280527  0.942663  0.430149  1
  O  O26  1  0.740809  0.000000  0.750000  1
  O  O27  1  0.259191  0.000000  0.250000  1
  O  O28  1  0.719473  0.057337  0.569851  1
  O  O29  1  0.280527  0.057337  0.069851  1
  O  O30  1  0.129865  0.157313  0.861748  1
  O  O31  1  0.870135  0.157313  0.361748  1
  O  O32  1  0.629865  0.342687  0.861748  1
  O  O33  1  0.370135  0.342687  0.361748  1
  O  O34  1  0.219473  0.442663  0.569851  1
  O  O35  1  0.780527  0.442663  0.069851  1
