# generated using pymatgen
data_Li6Ti2O7
_symmetry_space_group_name_H-M   'P 1'
_cell_length_a   5.76870334
_cell_length_b   5.76870334
_cell_length_c   5.13153444
_cell_angle_alpha   72.15520645
_cell_angle_beta   107.84479355
_cell_angle_gamma   119.06129725
_symmetry_Int_Tables_number   1
_chemical_formula_structural   Li6Ti2O7
_chemical_formula_sum   'Li6 Ti2 O7'
_cell_volume   139.51448762
_cell_formula_units_Z   1
loop_
 _symmetry_equiv_pos_site_id
 _symmetry_equiv_pos_as_xyz
  1  'x, y, z'
loop_
 _atom_site_type_symbol
 _atom_site_label
 _atom_site_symmetry_multiplicity
 _atom_site_fract_x
 _atom_site_fract_y
 _atom_site_fract_z
 _atom_site_occupancy
  Li  Li0  1  0.076720  0.350477  0.724690  1
  Li  Li1  1  0.632182  0.902192  0.730032  1
  Li  Li2  1  0.363088  0.624508  0.313807  1
  Li  Li3  1  0.624508  0.363088  0.686193  1
  Li  Li4  1  0.902192  0.632182  0.269968  1
  Li  Li5  1  0.350477  0.076720  0.275310  1
  Ti  Ti6  1  0.855193  0.127968  0.238547  1
  Ti  Ti7  1  0.127968  0.855193  0.761453  1
  O  O8  1  0.994703  0.994703  0.000000  1
  O  O9  1  0.218806  0.218806  0.500000  1
  O  O10  1  0.241414  0.736237  0.550919  1
  O  O11  1  0.486100  0.981267  0.001800  1
  O  O12  1  0.981267  0.486100  0.998200  1
  O  O13  1  0.736237  0.241414  0.449081  1
  O  O14  1  0.763617  0.763617  0.500000  1
