# generated using pymatgen
data_Ba2B2O5
_symmetry_space_group_name_H-M   'P 1'
_cell_length_a   11.02514436
_cell_length_b   4.24823281
_cell_length_c   13.44142612
_cell_angle_alpha   90.00000000
_cell_angle_beta   105.89870145
_cell_angle_gamma   90.00000000
_symmetry_Int_Tables_number   1
_chemical_formula_structural   Ba2B2O5
_chemical_formula_sum   'Ba8 B8 O20'
_cell_volume   605.47890530
_cell_formula_units_Z   4
loop_
 _symmetry_equiv_pos_site_id
 _symmetry_equiv_pos_as_xyz
  1  'x, y, z'
loop_
 _atom_site_type_symbol
 _atom_site_label
 _atom_site_symmetry_multiplicity
 _atom_site_fract_x
 _atom_site_fract_y
 _atom_site_fract_z
 _atom_site_occupancy
  Ba  Ba0  1  0.584038  0.721500  0.912745  1
  Ba  Ba1  1  0.895232  0.263402  0.860092  1
  Ba  Ba2  1  0.104768  0.763402  0.639908  1
  Ba  Ba3  1  0.415962  0.221500  0.587255  1
  Ba  Ba4  1  0.584038  0.778500  0.412745  1
  Ba  Ba5  1  0.895232  0.236598  0.360092  1
  Ba  Ba6  1  0.104768  0.736598  0.139908  1
  Ba  Ba7  1  0.415962  0.278500  0.087255  1
  B  B8  1  0.174292  0.842625  0.924277  1
  B  B9  1  0.304377  0.177304  0.816883  1
  B  B10  1  0.695623  0.677304  0.683117  1
  B  B11  1  0.825708  0.342625  0.575723  1
  B  B12  1  0.174292  0.657375  0.424277  1
  B  B13  1  0.304377  0.322696  0.316883  1
  B  B14  1  0.695623  0.822696  0.183117  1
  B  B15  1  0.825708  0.157375  0.075723  1
  O  O16  1  0.734234  0.219336  0.985783  1
  O  O17  1  0.418869  0.210226  0.888428  1
  O  O18  1  0.200716  0.012698  0.840012  1
  O  O19  1  0.050196  0.761876  0.909536  1
  O  O20  1  0.723296  0.782610  0.783257  1
  O  O21  1  0.276704  0.282610  0.716743  1
  O  O22  1  0.799284  0.512698  0.659988  1
  O  O23  1  0.581131  0.710226  0.611572  1
  O  O24  1  0.265766  0.719336  0.514217  1
  O  O25  1  0.949804  0.261876  0.590464  1
  O  O26  1  0.734234  0.280664  0.485783  1
  O  O27  1  0.418869  0.289774  0.388428  1
  O  O28  1  0.200716  0.487302  0.340012  1
  O  O29  1  0.050196  0.738124  0.409536  1
  O  O30  1  0.723296  0.717390  0.283257  1
  O  O31  1  0.276704  0.217390  0.216743  1
  O  O32  1  0.799284  0.987302  0.159988  1
  O  O33  1  0.581131  0.789774  0.111572  1
  O  O34  1  0.265766  0.780664  0.014217  1
  O  O35  1  0.949804  0.238124  0.090464  1
