# generated using pymatgen
data_Rb4SbO4
_symmetry_space_group_name_H-M   'P 1'
_cell_length_a   11.53130755
_cell_length_b   7.18432601
_cell_length_c   11.67336743
_cell_angle_alpha   90.00000000
_cell_angle_beta   111.41257127
_cell_angle_gamma   90.00000000
_symmetry_Int_Tables_number   1
_chemical_formula_structural   Rb4SbO4
_chemical_formula_sum   'Rb16 Sb4 O16'
_cell_volume   900.32457411
_cell_formula_units_Z   4
loop_
 _symmetry_equiv_pos_site_id
 _symmetry_equiv_pos_as_xyz
  1  'x, y, z'
loop_
 _atom_site_type_symbol
 _atom_site_label
 _atom_site_symmetry_multiplicity
 _atom_site_fract_x
 _atom_site_fract_y
 _atom_site_fract_z
 _atom_site_occupancy
  Rb  Rb0  1  0.082431  0.683230  0.713981  1
  Rb  Rb1  1  0.124931  0.172942  0.607152  1
  Rb  Rb2  1  0.344392  0.386796  0.922983  1
  Rb  Rb3  1  0.082431  0.816770  0.213981  1
  Rb  Rb4  1  0.124931  0.327058  0.107152  1
  Rb  Rb5  1  0.434117  0.916523  0.797594  1
  Rb  Rb6  1  0.344392  0.113204  0.422983  1
  Rb  Rb7  1  0.565883  0.416523  0.702406  1
  Rb  Rb8  1  0.434117  0.583477  0.297594  1
  Rb  Rb9  1  0.655608  0.886796  0.577017  1
  Rb  Rb10  1  0.565883  0.083477  0.202406  1
  Rb  Rb11  1  0.875069  0.672942  0.892848  1
  Rb  Rb12  1  0.917569  0.183230  0.786019  1
  Rb  Rb13  1  0.655608  0.613204  0.077017  1
  Rb  Rb14  1  0.875069  0.827058  0.392848  1
  Rb  Rb15  1  0.917569  0.316770  0.286019  1
  Sb  Sb16  1  0.257898  0.618135  0.512312  1
  Sb  Sb17  1  0.257898  0.881865  0.012312  1
  Sb  Sb18  1  0.742102  0.118135  0.987688  1
  Sb  Sb19  1  0.742102  0.381865  0.487688  1
  O  O20  1  0.184477  0.038188  0.858029  1
  O  O21  1  0.144988  0.833381  0.497972  1
  O  O22  1  0.291314  0.487643  0.673308  1
  O  O23  1  0.184477  0.461812  0.358029  1
  O  O24  1  0.144988  0.666619  0.997972  1
  O  O25  1  0.416516  0.731751  0.523920  1
  O  O26  1  0.583484  0.231751  0.976080  1
  O  O27  1  0.291314  0.012357  0.173308  1
  O  O28  1  0.708686  0.987643  0.826692  1
  O  O29  1  0.416516  0.768249  0.023920  1
  O  O30  1  0.583484  0.268249  0.476080  1
  O  O31  1  0.855012  0.333381  0.002028  1
  O  O32  1  0.815523  0.538188  0.641971  1
  O  O33  1  0.708686  0.512357  0.326692  1
  O  O34  1  0.855012  0.166619  0.502028  1
  O  O35  1  0.815523  0.961812  0.141971  1
