# generated using pymatgen
data_Li5Fe8(BO3)8
_symmetry_space_group_name_H-M   'P 1'
_cell_length_a   5.25764498
_cell_length_b   9.09987433
_cell_length_c   11.36067441
_cell_angle_alpha   113.11549968
_cell_angle_beta   102.68461073
_cell_angle_gamma   89.79384826
_symmetry_Int_Tables_number   1
_chemical_formula_structural   Li5Fe8(BO3)8
_chemical_formula_sum   'Li5 Fe8 B8 O24'
_cell_volume   485.62910709
_cell_formula_units_Z   1
loop_
 _symmetry_equiv_pos_site_id
 _symmetry_equiv_pos_as_xyz
  1  'x, y, z'
loop_
 _atom_site_type_symbol
 _atom_site_label
 _atom_site_symmetry_multiplicity
 _atom_site_fract_x
 _atom_site_fract_y
 _atom_site_fract_z
 _atom_site_occupancy
  Li  Li0  1  0.028663  0.030848  0.400750  1
  Li  Li1  1  0.487141  0.509776  0.664286  1
  Li  Li2  1  0.525375  0.528936  0.394004  1
  Li  Li3  1  0.988422  0.009650  0.667217  1
  Li  Li4  1  0.758156  0.746425  0.157807  1
  Fe  Fe5  1  0.021353  0.352344  0.370884  1
  Fe  Fe6  1  0.273428  0.937727  0.888835  1
  Fe  Fe7  1  0.470346  0.157209  0.630772  1
  Fe  Fe8  1  0.238917  0.553736  0.127127  1
  Fe  Fe9  1  0.771845  0.436497  0.885267  1
  Fe  Fe10  1  0.522582  0.849270  0.380878  1
  Fe  Fe11  1  0.970397  0.658103  0.631420  1
  Fe  Fe12  1  0.746308  0.067374  0.126605  1
  B  B13  1  0.025538  0.683337  0.376707  1
  B  B14  1  0.262083  0.601752  0.874188  1
  B  B15  1  0.478014  0.816029  0.626859  1
  B  B16  1  0.237186  0.890605  0.130274  1
  B  B17  1  0.519236  0.192506  0.381279  1
  B  B18  1  0.765898  0.101703  0.874611  1
  B  B19  1  0.972940  0.314199  0.622365  1
  B  B20  1  0.730764  0.403119  0.136207  1
  O  O21  1  0.012112  0.070181  0.856307  1
  O  O22  1  0.136627  0.717668  0.837961  1
  O  O23  1  0.132352  0.510781  0.919601  1
  O  O24  1  0.080746  0.170790  0.608447  1
  O  O25  1  0.086666  0.421665  0.583000  1
  O  O26  1  0.247268  0.848666  0.671534  1
  O  O27  1  0.266565  0.659668  0.347479  1
  O  O28  1  0.512914  0.574231  0.858990  1
  O  O29  1  0.642099  0.220428  0.840899  1
  O  O30  1  0.414524  0.079883  0.415601  1
  O  O31  1  0.387678  0.323699  0.381562  1
  O  O32  1  0.635227  0.014435  0.922366  1
  O  O33  1  0.348828  0.985313  0.079421  1
  O  O34  1  0.583889  0.671723  0.609805  1
  O  O35  1  0.597700  0.928307  0.595523  1
  O  O36  1  0.394667  0.785490  0.168667  1
  O  O37  1  0.485771  0.404711  0.149666  1
  O  O38  1  0.748033  0.350450  0.671567  1
  O  O39  1  0.766930  0.175622  0.349874  1
  O  O40  1  0.915008  0.573369  0.415548  1
  O  O41  1  0.892267  0.810087  0.366249  1
  O  O42  1  0.831736  0.503707  0.083836  1
  O  O43  1  0.902210  0.305217  0.180270  1
  O  O44  1  0.983741  0.901730  0.143446  1
