# generated using pymatgen
data_Li2AgF3
_symmetry_space_group_name_H-M   'P 1'
_cell_length_a   2.94185839
_cell_length_b   7.61015030
_cell_length_c   12.81001348
_cell_angle_alpha   90.00000000
_cell_angle_beta   90.00000000
_cell_angle_gamma   90.00000000
_symmetry_Int_Tables_number   1
_chemical_formula_structural   Li2AgF3
_chemical_formula_sum   'Li8 Ag4 F12'
_cell_volume   286.79038335
_cell_formula_units_Z   4
loop_
 _symmetry_equiv_pos_site_id
 _symmetry_equiv_pos_as_xyz
  1  'x, y, z'
loop_
 _atom_site_type_symbol
 _atom_site_label
 _atom_site_symmetry_multiplicity
 _atom_site_fract_x
 _atom_site_fract_y
 _atom_site_fract_z
 _atom_site_occupancy
  Li  Li0  1  0.250000  0.851801  0.991079  1
  Li  Li1  1  0.750000  0.530009  0.916186  1
  Li  Li2  1  0.250000  0.030009  0.583814  1
  Li  Li3  1  0.750000  0.351801  0.508921  1
  Li  Li4  1  0.250000  0.648199  0.491079  1
  Li  Li5  1  0.750000  0.969991  0.416186  1
  Li  Li6  1  0.250000  0.469991  0.083814  1
  Li  Li7  1  0.750000  0.148199  0.008921  1
  Ag  Ag8  1  0.250000  0.336155  0.755411  1
  Ag  Ag9  1  0.750000  0.836155  0.744589  1
  Ag  Ag10  1  0.250000  0.163845  0.255411  1
  Ag  Ag11  1  0.750000  0.663845  0.244589  1
  F  F12  1  0.250000  0.343920  0.954127  1
  F  F13  1  0.750000  0.954119  0.912097  1
  F  F14  1  0.250000  0.625580  0.836084  1
  F  F15  1  0.750000  0.125580  0.663916  1
  F  F16  1  0.250000  0.454119  0.587903  1
  F  F17  1  0.750000  0.843920  0.545873  1
  F  F18  1  0.250000  0.156080  0.454127  1
  F  F19  1  0.750000  0.545881  0.412097  1
  F  F20  1  0.250000  0.874420  0.336084  1
  F  F21  1  0.750000  0.374420  0.163916  1
  F  F22  1  0.250000  0.045881  0.087903  1
  F  F23  1  0.750000  0.656080  0.045873  1
