# generated using pymatgen
data_BaSiP4(HO7)2
_symmetry_space_group_name_H-M   'P 1'
_cell_length_a   4.67151667
_cell_length_b   6.69579593
_cell_length_c   9.18007354
_cell_angle_alpha   75.21694335
_cell_angle_beta   85.56508638
_cell_angle_gamma   75.34742780
_symmetry_Int_Tables_number   1
_chemical_formula_structural   BaSiP4(HO7)2
_chemical_formula_sum   'Ba1 Si1 P4 H2 O14'
_cell_volume   268.58864475
_cell_formula_units_Z   1
loop_
 _symmetry_equiv_pos_site_id
 _symmetry_equiv_pos_as_xyz
  1  'x, y, z'
loop_
 _atom_site_type_symbol
 _atom_site_label
 _atom_site_symmetry_multiplicity
 _atom_site_fract_x
 _atom_site_fract_y
 _atom_site_fract_z
 _atom_site_occupancy
  Ba  Ba0  1  0.000000  0.000000  0.000000  1
  Si  Si1  1  0.000000  0.000000  0.500000  1
  P  P2  1  0.413865  0.167323  0.665779  1
  P  P3  1  0.586135  0.832677  0.334221  1
  P  P4  1  0.095656  0.561925  0.738394  1
  P  P5  1  0.904344  0.438075  0.261606  1
  H  H6  1  0.545636  0.541992  0.830358  1
  H  H7  1  0.454364  0.458008  0.169642  1
  O  O8  1  0.510237  0.087915  0.827944  1
  O  O9  1  0.489763  0.912085  0.172056  1
  O  O10  1  0.151644  0.074523  0.646540  1
  O  O11  1  0.848356  0.925477  0.353460  1
  O  O12  1  0.353166  0.852303  0.459124  1
  O  O13  1  0.646834  0.147697  0.540876  1
  O  O14  1  0.287168  0.424091  0.629051  1
  O  O15  1  0.712832  0.575909  0.370949  1
  O  O16  1  0.068510  0.227900  0.364183  1
  O  O17  1  0.931490  0.772100  0.635817  1
  O  O18  1  0.118485  0.555264  0.166893  1
  O  O19  1  0.881515  0.444736  0.833107  1
  O  O20  1  0.320047  0.607292  0.836800  1
  O  O21  1  0.679953  0.392708  0.163200  1
