# generated using pymatgen
data_Mn2V3P6WO24
_symmetry_space_group_name_H-M   'P 1'
_cell_length_a   8.73067663
_cell_length_b   8.73067663
_cell_length_c   8.73067663
_cell_angle_alpha   59.94348779
_cell_angle_beta   59.94348779
_cell_angle_gamma   59.94348779
_symmetry_Int_Tables_number   1
_chemical_formula_structural   Mn2V3P6WO24
_chemical_formula_sum   'Mn2 V3 P6 W1 O24'
_cell_volume   469.97169919
_cell_formula_units_Z   1
loop_
 _symmetry_equiv_pos_site_id
 _symmetry_equiv_pos_as_xyz
  1  'x, y, z'
loop_
 _atom_site_type_symbol
 _atom_site_label
 _atom_site_symmetry_multiplicity
 _atom_site_fract_x
 _atom_site_fract_y
 _atom_site_fract_z
 _atom_site_occupancy
  Mn  Mn0  1  0.995220  0.995220  0.995220  1
  Mn  Mn1  1  0.499819  0.499819  0.499819  1
  V  V2  1  0.643321  0.643321  0.643321  1
  V  V3  1  0.855661  0.855661  0.855661  1
  V  V4  1  0.356689  0.356689  0.356689  1
  P  P5  1  0.252642  0.546161  0.956449  1
  P  P6  1  0.956449  0.252642  0.546161  1
  P  P7  1  0.546161  0.956449  0.252642  1
  P  P8  1  0.461917  0.042952  0.745530  1
  P  P9  1  0.042952  0.745530  0.461917  1
  P  P10  1  0.745530  0.461917  0.042952  1
  W  W11  1  0.143590  0.143590  0.143590  1
  O  O12  1  0.114124  0.310186  0.503171  1
  O  O13  1  0.503171  0.114124  0.310186  1
  O  O14  1  0.310186  0.503171  0.114124  1
  O  O15  1  0.087821  0.735225  0.940675  1
  O  O16  1  0.187731  0.385685  0.997467  1
  O  O17  1  0.411699  0.555029  0.764346  1
  O  O18  1  0.940675  0.087821  0.735225  1
  O  O19  1  0.764346  0.411699  0.555029  1
  O  O20  1  0.613606  0.007094  0.809491  1
  O  O21  1  0.555029  0.764346  0.411699  1
  O  O22  1  0.263549  0.064501  0.914154  1
  O  O23  1  0.007094  0.809491  0.613606  1
  O  O24  1  0.997467  0.187731  0.385685  1
  O  O25  1  0.735225  0.940675  0.087821  1
  O  O26  1  0.437457  0.237310  0.588941  1
  O  O27  1  0.385685  0.997467  0.187731  1
  O  O28  1  0.237310  0.588941  0.437457  1
  O  O29  1  0.064501  0.914154  0.263549  1
  O  O30  1  0.588941  0.437457  0.237310  1
  O  O31  1  0.809491  0.613606  0.007094  1
  O  O32  1  0.914154  0.263549  0.064501  1
  O  O33  1  0.697062  0.489029  0.884723  1
  O  O34  1  0.489029  0.884723  0.697062  1
  O  O35  1  0.884723  0.697062  0.489029  1
