# generated using pymatgen
data_Li4Cr3CoO8
_symmetry_space_group_name_H-M   'P 1'
_cell_length_a   5.10918514
_cell_length_b   5.86102178
_cell_length_c   10.56417704
_cell_angle_alpha   73.91037563
_cell_angle_beta   76.20451306
_cell_angle_gamma   73.34834710
_symmetry_Int_Tables_number   1
_chemical_formula_structural   Li4Cr3CoO8
_chemical_formula_sum   'Li8 Cr6 Co2 O16'
_cell_volume   286.82779342
_cell_formula_units_Z   2
loop_
 _symmetry_equiv_pos_site_id
 _symmetry_equiv_pos_as_xyz
  1  'x, y, z'
loop_
 _atom_site_type_symbol
 _atom_site_label
 _atom_site_symmetry_multiplicity
 _atom_site_fract_x
 _atom_site_fract_y
 _atom_site_fract_z
 _atom_site_occupancy
  Li  Li0  1  0.006181  0.933426  0.375042  1
  Li  Li1  1  0.997784  0.558720  0.628762  1
  Li  Li2  1  0.991867  0.316098  0.126457  1
  Li  Li3  1  0.008133  0.683902  0.873543  1
  Li  Li4  1  0.002216  0.441280  0.371238  1
  Li  Li5  1  0.993819  0.066574  0.624958  1
  Li  Li6  1  0.000007  0.809309  0.127183  1
  Li  Li7  1  0.999993  0.190691  0.872817  1
  Cr  Cr8  1  0.499696  0.747920  0.500173  1
  Cr  Cr9  1  0.500196  0.124718  0.250212  1
  Cr  Cr10  1  0.500000  0.500000  0.000000  1
  Cr  Cr11  1  0.500304  0.252080  0.499827  1
  Cr  Cr12  1  0.499804  0.875282  0.749788  1
  Cr  Cr13  1  0.500000  0.000000  0.000000  1
  Co  Co14  1  0.499898  0.625148  0.249823  1
  Co  Co15  1  0.500102  0.374852  0.750177  1
  O  O16  1  0.276533  0.339743  0.932448  1
  O  O17  1  0.726957  0.161161  0.064716  1
  O  O18  1  0.273061  0.088746  0.436262  1
  O  O19  1  0.726939  0.911254  0.563738  1
  O  O20  1  0.722371  0.533623  0.813340  1
  O  O21  1  0.276500  0.707096  0.686970  1
  O  O22  1  0.277629  0.466377  0.186660  1
  O  O23  1  0.723500  0.292904  0.313030  1
  O  O24  1  0.273043  0.838839  0.935284  1
  O  O25  1  0.723467  0.660257  0.067552  1
  O  O26  1  0.276551  0.589832  0.431573  1
  O  O27  1  0.723449  0.410168  0.568427  1
  O  O28  1  0.277921  0.217563  0.686443  1
  O  O29  1  0.276744  0.958084  0.186955  1
  O  O30  1  0.723256  0.041916  0.813045  1
  O  O31  1  0.722079  0.782437  0.313557  1
