# generated using pymatgen
data_Li2Ti2O5
_symmetry_space_group_name_H-M   'P 1'
_cell_length_a   5.34419355
_cell_length_b   5.88208983
_cell_length_c   15.84698403
_cell_angle_alpha   90.00000000
_cell_angle_beta   90.00000000
_cell_angle_gamma   90.00000000
_symmetry_Int_Tables_number   1
_chemical_formula_structural   Li2Ti2O5
_chemical_formula_sum   'Li8 Ti8 O20'
_cell_volume   498.15036340
_cell_formula_units_Z   4
loop_
 _symmetry_equiv_pos_site_id
 _symmetry_equiv_pos_as_xyz
  1  'x, y, z'
loop_
 _atom_site_type_symbol
 _atom_site_label
 _atom_site_symmetry_multiplicity
 _atom_site_fract_x
 _atom_site_fract_y
 _atom_site_fract_z
 _atom_site_occupancy
  Li  Li0  1  0.180883  0.901484  0.049469  1
  Li  Li1  1  0.819117  0.901484  0.549469  1
  Li  Li2  1  0.680883  0.598516  0.049469  1
  Li  Li3  1  0.319117  0.598516  0.549469  1
  Li  Li4  1  0.680883  0.401484  0.450531  1
  Li  Li5  1  0.319117  0.401484  0.950531  1
  Li  Li6  1  0.180883  0.098516  0.450531  1
  Li  Li7  1  0.819117  0.098516  0.950531  1
  Ti  Ti8  1  0.690047  0.907570  0.356871  1
  Ti  Ti9  1  0.309953  0.907570  0.856871  1
  Ti  Ti10  1  0.809953  0.592430  0.856871  1
  Ti  Ti11  1  0.190047  0.592430  0.356871  1
  Ti  Ti12  1  0.809953  0.407570  0.643129  1
  Ti  Ti13  1  0.190047  0.407570  0.143129  1
  Ti  Ti14  1  0.690047  0.092430  0.143129  1
  Ti  Ti15  1  0.309953  0.092430  0.643129  1
  O  O16  1  0.773673  0.000000  0.250000  1
  O  O17  1  0.226327  0.000000  0.750000  1
  O  O18  1  0.808042  0.912366  0.062899  1
  O  O19  1  0.191958  0.912366  0.562899  1
  O  O20  1  0.344816  0.874149  0.372624  1
  O  O21  1  0.655184  0.874149  0.872624  1
  O  O22  1  0.844816  0.625851  0.372624  1
  O  O23  1  0.155184  0.625851  0.872624  1
  O  O24  1  0.691958  0.587634  0.562899  1
  O  O25  1  0.308042  0.587634  0.062899  1
  O  O26  1  0.726327  0.500000  0.750000  1
  O  O27  1  0.273673  0.500000  0.250000  1
  O  O28  1  0.308042  0.412366  0.437101  1
  O  O29  1  0.691958  0.412366  0.937101  1
  O  O30  1  0.844816  0.374149  0.127376  1
  O  O31  1  0.155184  0.374149  0.627376  1
  O  O32  1  0.344816  0.125851  0.127376  1
  O  O33  1  0.655184  0.125851  0.627376  1
  O  O34  1  0.808042  0.087634  0.437101  1
  O  O35  1  0.191958  0.087634  0.937101  1
