# generated using pymatgen
data_InPH5NO5
_symmetry_space_group_name_H-M   'P 1'
_cell_length_a   9.48500750
_cell_length_b   9.48500750
_cell_length_c   11.42407101
_cell_angle_alpha   90.00000000
_cell_angle_beta   90.00000000
_cell_angle_gamma   90.00000000
_symmetry_Int_Tables_number   1
_chemical_formula_structural   InPH5NO5
_chemical_formula_sum   'In8 P8 H40 N8 O40'
_cell_volume   1027.77074419
_cell_formula_units_Z   8
loop_
 _symmetry_equiv_pos_site_id
 _symmetry_equiv_pos_as_xyz
  1  'x, y, z'
loop_
 _atom_site_type_symbol
 _atom_site_label
 _atom_site_symmetry_multiplicity
 _atom_site_fract_x
 _atom_site_fract_y
 _atom_site_fract_z
 _atom_site_occupancy
  In  In0  1  0.094751  0.094751  0.000000  1
  In  In1  1  0.152002  0.847998  0.250000  1
  In  In2  1  0.347998  0.347998  0.500000  1
  In  In3  1  0.405249  0.594751  0.750000  1
  In  In4  1  0.594751  0.405249  0.250000  1
  In  In5  1  0.652002  0.652002  0.000000  1
  In  In6  1  0.847998  0.152002  0.750000  1
  In  In7  1  0.905249  0.905249  0.500000  1
  P  P8  1  0.165623  0.306688  0.756845  1
  P  P9  1  0.193312  0.665623  0.506845  1
  P  P10  1  0.306688  0.165623  0.243155  1
  P  P11  1  0.334377  0.806688  0.993155  1
  P  P12  1  0.665623  0.193312  0.493155  1
  P  P13  1  0.693312  0.834377  0.743155  1
  P  P14  1  0.806688  0.334377  0.006845  1
  P  P15  1  0.834377  0.693312  0.256845  1
  H  H16  1  0.010173  0.558220  0.777494  1
  H  H17  1  0.019281  0.717406  0.713647  1
  H  H18  1  0.062276  0.113376  0.599901  1
  H  H19  1  0.074967  0.299667  0.336343  1
  H  H20  1  0.058220  0.489827  0.027494  1
  H  H21  1  0.109199  0.685173  0.838695  1
  H  H22  1  0.113376  0.062276  0.400099  1
  H  H23  1  0.185173  0.390801  0.088695  1
  H  H24  1  0.200333  0.574967  0.086343  1
  H  H25  1  0.217406  0.480719  0.963647  1
  H  H26  1  0.282594  0.980719  0.786353  1
  H  H27  1  0.299667  0.074967  0.663657  1
  H  H28  1  0.314827  0.890801  0.661305  1
  H  H29  1  0.386624  0.562276  0.349901  1
  H  H30  1  0.390801  0.185173  0.911305  1
  H  H31  1  0.441780  0.989827  0.722506  1
  H  H32  1  0.425033  0.799667  0.413657  1
  H  H33  1  0.437724  0.613376  0.150099  1
  H  H34  1  0.480719  0.217406  0.036353  1
  H  H35  1  0.489827  0.058220  0.972506  1
  H  H36  1  0.510173  0.941780  0.472506  1
  H  H37  1  0.519281  0.782594  0.536353  1
  H  H38  1  0.562276  0.386624  0.650099  1
  H  H39  1  0.574967  0.200333  0.913657  1
  H  H40  1  0.558220  0.010173  0.222506  1
  H  H41  1  0.609199  0.814827  0.411305  1
  H  H42  1  0.613376  0.437724  0.849901  1
  H  H43  1  0.685173  0.109199  0.161305  1
  H  H44  1  0.700333  0.925033  0.163657  1
  H  H45  1  0.717406  0.019281  0.286353  1
  H  H46  1  0.782594  0.519281  0.463647  1
  H  H47  1  0.799667  0.425033  0.586343  1
  H  H48  1  0.814827  0.609199  0.588695  1
  H  H49  1  0.886624  0.937724  0.900099  1
  H  H50  1  0.890801  0.314827  0.338695  1
  H  H51  1  0.941780  0.510173  0.527494  1
  H  H52  1  0.925033  0.700333  0.836343  1
  H  H53  1  0.937724  0.886624  0.099901  1
  H  H54  1  0.980719  0.282594  0.213647  1
  H  H55  1  0.989827  0.441780  0.277494  1
  N  N56  1  0.015917  0.665221  0.793179  1
  N  N57  1  0.165221  0.484083  0.043179  1
  N  N58  1  0.334779  0.984083  0.706821  1
  N  N59  1  0.484083  0.165221  0.956821  1
  N  N60  1  0.515917  0.834779  0.456821  1
  N  N61  1  0.665221  0.015917  0.206821  1
  N  N62  1  0.834779  0.515917  0.543179  1
  N  N63  1  0.984083  0.334779  0.293179  1
  O  O64  1  0.003009  0.325069  0.749987  1
  O  O65  1  0.011591  0.951407  0.126206  1
  O  O66  1  0.047112  0.729338  0.531676  1
  O  O67  1  0.048593  0.988409  0.373794  1
  O  O68  1  0.174931  0.503009  0.499987  1
  O  O69  1  0.208068  0.205274  0.858741  1
  O  O70  1  0.205274  0.208068  0.141259  1
  O  O71  1  0.229338  0.452888  0.781676  1
  O  O72  1  0.224442  0.240541  0.639751  1
  O  O73  1  0.240541  0.224442  0.360249  1
  O  O74  1  0.259459  0.724442  0.389751  1
  O  O75  1  0.275558  0.740541  0.110249  1
  O  O76  1  0.270662  0.952888  0.968324  1
  O  O77  1  0.294726  0.708068  0.608741  1
  O  O78  1  0.291932  0.705274  0.891259  1
  O  O79  1  0.325069  0.003009  0.250013  1
  O  O80  1  0.451407  0.488409  0.376206  1
  O  O81  1  0.452888  0.229338  0.218324  1
  O  O82  1  0.488409  0.451407  0.623794  1
  O  O83  1  0.496991  0.825069  0.000013  1
  O  O84  1  0.503009  0.174931  0.500013  1
  O  O85  1  0.511591  0.548593  0.123794  1
  O  O86  1  0.547112  0.770662  0.718324  1
  O  O87  1  0.548593  0.511591  0.876206  1
  O  O88  1  0.674931  0.996991  0.750013  1
  O  O89  1  0.708068  0.294726  0.391259  1
  O  O90  1  0.705274  0.291932  0.108741  1
  O  O91  1  0.729338  0.047112  0.468324  1
  O  O92  1  0.724442  0.259459  0.610249  1
  O  O93  1  0.740541  0.275558  0.889751  1
  O  O94  1  0.759459  0.775558  0.860249  1
  O  O95  1  0.775558  0.759459  0.139751  1
  O  O96  1  0.770662  0.547112  0.281676  1
  O  O97  1  0.794726  0.791932  0.641259  1
  O  O98  1  0.791932  0.794726  0.358741  1
  O  O99  1  0.825069  0.496991  0.999987  1
  O  O100  1  0.951407  0.011591  0.873794  1
  O  O101  1  0.952888  0.270662  0.031676  1
  O  O102  1  0.988409  0.048593  0.626206  1
  O  O103  1  0.996991  0.674931  0.249987  1
