# generated using pymatgen
data_Li2Mn3(PO4)3
_symmetry_space_group_name_H-M   'P 1'
_cell_length_a   8.60737623
_cell_length_b   8.60737623
_cell_length_c   8.53395000
_cell_angle_alpha   63.76681549
_cell_angle_beta   116.23318451
_cell_angle_gamma   117.44478542
_symmetry_Int_Tables_number   1
_chemical_formula_structural   Li2Mn3(PO4)3
_chemical_formula_sum   'Li4 Mn6 P6 O24'
_cell_volume   480.22556034
_cell_formula_units_Z   2
loop_
 _symmetry_equiv_pos_site_id
 _symmetry_equiv_pos_as_xyz
  1  'x, y, z'
loop_
 _atom_site_type_symbol
 _atom_site_label
 _atom_site_symmetry_multiplicity
 _atom_site_fract_x
 _atom_site_fract_y
 _atom_site_fract_z
 _atom_site_occupancy
  Li  Li0  1  0.855712  0.855712  0.000000  1
  Li  Li1  1  0.158770  0.158770  0.500000  1
  Li  Li2  1  0.746089  0.347910  0.899143  1
  Li  Li3  1  0.347910  0.746089  0.100857  1
  Mn  Mn4  1  0.997988  0.490249  0.258316  1
  Mn  Mn5  1  0.649654  0.855643  0.603508  1
  Mn  Mn6  1  0.152965  0.343651  0.093504  1
  Mn  Mn7  1  0.490249  0.997988  0.741684  1
  Mn  Mn8  1  0.855643  0.649654  0.396492  1
  Mn  Mn9  1  0.343651  0.152965  0.906496  1
  P  P10  1  0.249367  0.939847  0.316865  1
  P  P11  1  0.939847  0.249367  0.683135  1
  P  P12  1  0.559561  0.559561  0.000000  1
  P  P13  1  0.462655  0.462655  0.500000  1
  P  P14  1  0.044100  0.750802  0.806315  1
  P  P15  1  0.750802  0.044100  0.193685  1
  O  O16  1  0.097635  0.192851  0.710976  1
  O  O17  1  0.528405  0.405992  0.934266  1
  O  O18  1  0.303578  0.963024  0.156601  1
  O  O19  1  0.081748  0.752326  0.323482  1
  O  O20  1  0.192851  0.097635  0.289024  1
  O  O21  1  0.400852  0.917442  0.502684  1
  O  O22  1  0.917442  0.400852  0.497316  1
  O  O23  1  0.752326  0.081748  0.676518  1
  O  O24  1  0.613495  0.507325  0.422534  1
  O  O25  1  0.582732  0.754845  0.852530  1
  O  O26  1  0.268377  0.443449  0.352706  1
  O  O27  1  0.989780  0.686850  0.643882  1
  O  O28  1  0.963024  0.303578  0.843399  1
  O  O29  1  0.754845  0.582732  0.147470  1
  O  O30  1  0.443449  0.268377  0.647294  1
  O  O31  1  0.405992  0.528405  0.065734  1
  O  O32  1  0.239403  0.903468  0.817363  1
  O  O33  1  0.070975  0.597208  0.996392  1
  O  O34  1  0.597208  0.070975  0.003608  1
  O  O35  1  0.816666  0.899612  0.206672  1
  O  O36  1  0.903468  0.239403  0.182637  1
  O  O37  1  0.686850  0.989780  0.356118  1
  O  O38  1  0.507325  0.613495  0.577466  1
  O  O39  1  0.899612  0.816666  0.793328  1
