# generated using pymatgen
data_Li4Y3MnO8
_symmetry_space_group_name_H-M   'P 1'
_cell_length_a   6.05757798
_cell_length_b   6.05757798
_cell_length_c   6.11690052
_cell_angle_alpha   90.00000000
_cell_angle_beta   90.00000000
_cell_angle_gamma   119.36198140
_symmetry_Int_Tables_number   1
_chemical_formula_structural   Li4Y3MnO8
_chemical_formula_sum   'Li4 Y3 Mn1 O8'
_cell_volume   195.62143873
_cell_formula_units_Z   1
loop_
 _symmetry_equiv_pos_site_id
 _symmetry_equiv_pos_as_xyz
  1  'x, y, z'
loop_
 _atom_site_type_symbol
 _atom_site_label
 _atom_site_symmetry_multiplicity
 _atom_site_fract_x
 _atom_site_fract_y
 _atom_site_fract_z
 _atom_site_occupancy
  Li  Li0  1  1.000000  0.500000  0.755410  1
  Li  Li1  1  0.000000  0.000000  0.500000  1
  Li  Li2  1  0.500000  0.000000  0.244590  1
  Li  Li3  1  0.500000  0.500000  1.000000  1
  Y  Y4  1  0.500000  0.500000  0.500000  1
  Y  Y5  1  0.500000  0.000000  0.757118  1
  Y  Y6  1  1.000000  0.500000  0.242882  1
  Mn  Mn7  1  0.000000  0.000000  0.000000  1
  O  O8  1  0.254030  0.215876  0.764462  1
  O  O9  1  0.714003  0.285997  0.500000  1
  O  O10  1  0.745970  0.784124  0.764462  1
  O  O11  1  0.784124  0.745970  0.235538  1
  O  O12  1  0.221377  0.778623  0.000000  1
  O  O13  1  0.285997  0.714003  0.500000  1
  O  O14  1  0.215876  0.254030  0.235538  1
  O  O15  1  0.778623  0.221377  1.000000  1
