# generated using pymatgen
data_Li2CuS2
_symmetry_space_group_name_H-M   'P 1'
_cell_length_a   5.59905935
_cell_length_b   5.59905935
_cell_length_c   5.80595841
_cell_angle_alpha   90.00000000
_cell_angle_beta   90.00000000
_cell_angle_gamma   90.34440324
_symmetry_Int_Tables_number   1
_chemical_formula_structural   Li2CuS2
_chemical_formula_sum   'Li4 Cu2 S4'
_cell_volume   182.01040520
_cell_formula_units_Z   2
loop_
 _symmetry_equiv_pos_site_id
 _symmetry_equiv_pos_as_xyz
  1  'x, y, z'
loop_
 _atom_site_type_symbol
 _atom_site_label
 _atom_site_symmetry_multiplicity
 _atom_site_fract_x
 _atom_site_fract_y
 _atom_site_fract_z
 _atom_site_occupancy
  Li  Li0  1  0.503609  0.002735  0.748314  1
  Li  Li1  1  0.002735  0.503609  0.748314  1
  Li  Li2  1  0.503609  0.002735  0.251686  1
  Li  Li3  1  0.002735  0.503609  0.251686  1
  Cu  Cu4  1  0.499134  0.499134  0.248579  1
  Cu  Cu5  1  0.499134  0.499134  0.751421  1
  S  S6  1  0.272534  0.272534  0.500000  1
  S  S7  1  0.276381  0.732085  0.000000  1
  S  S8  1  0.732085  0.276381  0.000000  1
  S  S9  1  0.728081  0.728081  0.500000  1
