# generated using pymatgen
data_Li4Ti2Co3Sn3O16
_symmetry_space_group_name_H-M   'P 1'
_cell_length_a   6.02711687
_cell_length_b   6.02711687
_cell_length_c   9.54432013
_cell_angle_alpha   89.10686370
_cell_angle_beta   90.89313630
_cell_angle_gamma   120.01441635
_symmetry_Int_Tables_number   1
_chemical_formula_structural   Li4Ti2Co3Sn3O16
_chemical_formula_sum   'Li4 Ti2 Co3 Sn3 O16'
_cell_volume   300.16593123
_cell_formula_units_Z   1
loop_
 _symmetry_equiv_pos_site_id
 _symmetry_equiv_pos_as_xyz
  1  'x, y, z'
loop_
 _atom_site_type_symbol
 _atom_site_label
 _atom_site_symmetry_multiplicity
 _atom_site_fract_x
 _atom_site_fract_y
 _atom_site_fract_z
 _atom_site_occupancy
  Li  Li0  1  0.673350  0.326650  0.114960  1
  Li  Li1  1  0.985237  0.014763  0.010424  1
  Li  Li2  1  0.989985  0.010015  0.497828  1
  Li  Li3  1  0.334184  0.665816  0.598006  1
  Ti  Ti4  1  0.676864  0.323136  0.498162  1
  Ti  Ti5  1  0.347284  0.652716  0.014568  1
  Co  Co6  1  0.829471  0.170529  0.785610  1
  Co  Co7  1  0.657124  0.827150  0.285890  1
  Co  Co8  1  0.172850  0.342876  0.285890  1
  Sn  Sn9  1  0.831958  0.658075  0.784624  1
  Sn  Sn10  1  0.341925  0.168042  0.784624  1
  Sn  Sn11  1  0.168876  0.831124  0.285419  1
  O  O12  1  0.822038  0.666731  0.402686  1
  O  O13  1  0.513738  0.486262  0.654435  1
  O  O14  1  0.669069  0.330931  0.905504  1
  O  O15  1  0.996575  0.003425  0.686582  1
  O  O16  1  0.989062  0.010938  0.195986  1
  O  O17  1  0.333269  0.177962  0.402686  1
  O  O18  1  0.959200  0.484861  0.644336  1
  O  O19  1  0.515139  0.040800  0.644336  1
  O  O20  1  0.165995  0.834005  0.913247  1
  O  O21  1  0.830330  0.169670  0.395305  1
  O  O22  1  0.492885  0.956123  0.159004  1
  O  O23  1  0.043877  0.507115  0.159004  1
  O  O24  1  0.343783  0.656217  0.388970  1
  O  O25  1  0.658420  0.820028  0.911704  1
  O  O26  1  0.478090  0.521910  0.170691  1
  O  O27  1  0.179972  0.341580  0.911704  1
