# generated using pymatgen
data_Li2CoP2O7
_symmetry_space_group_name_H-M   'P 1'
_cell_length_a   8.11099932
_cell_length_b   5.11947871
_cell_length_c   14.17029031
_cell_angle_alpha   90.00000000
_cell_angle_beta   112.24856971
_cell_angle_gamma   90.00000000
_symmetry_Int_Tables_number   1
_chemical_formula_structural   Li2CoP2O7
_chemical_formula_sum   'Li8 Co4 P8 O28'
_cell_volume   544.60135659
_cell_formula_units_Z   4
loop_
 _symmetry_equiv_pos_site_id
 _symmetry_equiv_pos_as_xyz
  1  'x, y, z'
loop_
 _atom_site_type_symbol
 _atom_site_label
 _atom_site_symmetry_multiplicity
 _atom_site_fract_x
 _atom_site_fract_y
 _atom_site_fract_z
 _atom_site_occupancy
  Li  Li0  1  0.024076  0.182930  0.678424  1
  Li  Li1  1  0.024076  0.317070  0.178424  1
  Li  Li2  1  0.574588  0.719177  0.838213  1
  Li  Li3  1  0.425412  0.219177  0.661787  1
  Li  Li4  1  0.574588  0.780823  0.338213  1
  Li  Li5  1  0.425412  0.280823  0.161787  1
  Li  Li6  1  0.975924  0.682930  0.821576  1
  Li  Li7  1  0.975924  0.817070  0.321576  1
  Co  Co8  1  0.276550  0.286765  0.878142  1
  Co  Co9  1  0.276550  0.213235  0.378142  1
  Co  Co10  1  0.723450  0.786765  0.621858  1
  Co  Co11  1  0.723450  0.713235  0.121858  1
  P  P12  1  0.187590  0.706564  0.692431  1
  P  P13  1  0.301168  0.711370  0.521342  1
  P  P14  1  0.187590  0.793436  0.192431  1
  P  P15  1  0.698832  0.211370  0.978658  1
  P  P16  1  0.301168  0.788630  0.021342  1
  P  P17  1  0.812410  0.206564  0.807569  1
  P  P18  1  0.698832  0.288630  0.478658  1
  P  P19  1  0.812410  0.293436  0.307569  1
  O  O20  1  0.997253  0.270520  0.806470  1
  O  O21  1  0.997253  0.229480  0.306470  1
  O  O22  1  0.216377  0.655740  0.917786  1
  O  O23  1  0.153914  0.752138  0.572744  1
  O  O24  1  0.237060  0.416708  0.716069  1
  O  O25  1  0.329990  0.896208  0.757066  1
  O  O26  1  0.323752  0.415240  0.513283  1
  O  O27  1  0.216377  0.844260  0.417786  1
  O  O28  1  0.153914  0.747862  0.072744  1
  O  O29  1  0.533014  0.355070  0.906676  1
  O  O30  1  0.237060  0.083292  0.216069  1
  O  O31  1  0.329990  0.603792  0.257066  1
  O  O32  1  0.466986  0.855070  0.593324  1
  O  O33  1  0.323752  0.084760  0.013283  1
  O  O34  1  0.676248  0.915240  0.986717  1
  O  O35  1  0.533014  0.144930  0.406676  1
  O  O36  1  0.670010  0.396208  0.742934  1
  O  O37  1  0.762940  0.916708  0.783931  1
  O  O38  1  0.466986  0.644930  0.093324  1
  O  O39  1  0.846086  0.252138  0.927256  1
  O  O40  1  0.783623  0.155740  0.582214  1
  O  O41  1  0.676248  0.584760  0.486717  1
  O  O42  1  0.670010  0.103792  0.242934  1
  O  O43  1  0.762940  0.583292  0.283931  1
  O  O44  1  0.846086  0.247862  0.427256  1
  O  O45  1  0.783623  0.344260  0.082214  1
  O  O46  1  0.002747  0.770520  0.693530  1
  O  O47  1  0.002747  0.729480  0.193530  1
