# generated using pymatgen
data_NaY3SiS7
_symmetry_space_group_name_H-M   'P 1'
_cell_length_a   9.98512515
_cell_length_b   9.98512515
_cell_length_c   5.75609684
_cell_angle_alpha   90.00000000
_cell_angle_beta   90.00000000
_cell_angle_gamma   120.00000000
_symmetry_Int_Tables_number   1
_chemical_formula_structural   NaY3SiS7
_chemical_formula_sum   'Na2 Y6 Si2 S14'
_cell_volume   497.01071156
_cell_formula_units_Z   2
loop_
 _symmetry_equiv_pos_site_id
 _symmetry_equiv_pos_as_xyz
  1  'x, y, z'
loop_
 _atom_site_type_symbol
 _atom_site_label
 _atom_site_symmetry_multiplicity
 _atom_site_fract_x
 _atom_site_fract_y
 _atom_site_fract_z
 _atom_site_occupancy
  Na  Na0  1  0.000000  0.000000  0.037914  1
  Na  Na1  1  0.000000  0.000000  0.537914  1
  Y  Y2  1  0.131098  0.768881  0.753767  1
  Y  Y3  1  0.362217  0.131098  0.253767  1
  Y  Y4  1  0.231119  0.362217  0.753767  1
  Y  Y5  1  0.637783  0.868902  0.753767  1
  Y  Y6  1  0.768881  0.637783  0.253767  1
  Y  Y7  1  0.868902  0.231119  0.253767  1
  Si  Si8  1  0.666667  0.333333  0.666138  1
  Si  Si9  1  0.333333  0.666667  0.166138  1
  S  S10  1  0.097312  0.834687  0.290812  1
  S  S11  1  0.737375  0.902688  0.290812  1
  S  S12  1  0.834687  0.737375  0.790812  1
  S  S13  1  0.902688  0.165313  0.790812  1
  S  S14  1  0.522574  0.413874  0.514975  1
  S  S15  1  0.165313  0.262625  0.290812  1
  S  S16  1  0.333333  0.666667  0.534684  1
  S  S17  1  0.666667  0.333333  0.034684  1
  S  S18  1  0.413874  0.891299  0.014975  1
  S  S19  1  0.108701  0.522574  0.014975  1
  S  S20  1  0.477426  0.586126  0.014975  1
  S  S21  1  0.586126  0.108701  0.514975  1
  S  S22  1  0.891299  0.477426  0.514975  1
  S  S23  1  0.262625  0.097312  0.790812  1
