# generated using pymatgen
data_Co3O5F
_symmetry_space_group_name_H-M   'P 1'
_cell_length_a   2.88795874
_cell_length_b   4.51660621
_cell_length_c   13.53765731
_cell_angle_alpha   90.00000000
_cell_angle_beta   90.00000000
_cell_angle_gamma   90.00000000
_symmetry_Int_Tables_number   1
_chemical_formula_structural   Co3O5F
_chemical_formula_sum   'Co6 O10 F2'
_cell_volume   176.58212033
_cell_formula_units_Z   2
loop_
 _symmetry_equiv_pos_site_id
 _symmetry_equiv_pos_as_xyz
  1  'x, y, z'
loop_
 _atom_site_type_symbol
 _atom_site_label
 _atom_site_symmetry_multiplicity
 _atom_site_fract_x
 _atom_site_fract_y
 _atom_site_fract_z
 _atom_site_occupancy
  Co  Co0  1  0.000000  0.720394  0.000446  1
  Co  Co1  1  0.000000  0.777186  0.341517  1
  Co  Co2  1  0.000000  0.784662  0.658033  1
  Co  Co3  1  0.500000  0.215338  0.158033  1
  Co  Co4  1  0.500000  0.279606  0.500446  1
  Co  Co5  1  0.500000  0.222814  0.841517  1
  O  O6  1  0.500000  0.944086  0.270669  1
  O  O7  1  0.500000  0.906220  0.938945  1
  O  O8  1  0.500000  0.985087  0.596139  1
  O  O9  1  0.000000  0.055914  0.770669  1
  O  O10  1  0.000000  0.014913  0.096139  1
  O  O11  1  0.000000  0.093780  0.438945  1
  O  O12  1  0.000000  0.469590  0.562512  1
  O  O13  1  0.000000  0.419959  0.901347  1
  O  O14  1  0.500000  0.530410  0.062512  1
  O  O15  1  0.500000  0.580041  0.401347  1
  F  F16  1  0.000000  0.438100  0.230695  1
  F  F17  1  0.500000  0.561900  0.730695  1
