# generated using pymatgen
data_Li3Mn4(PO4)6
_symmetry_space_group_name_H-M   'P 1'
_cell_length_a   6.29085955
_cell_length_b   8.38743345
_cell_length_c   8.65825347
_cell_angle_alpha   92.44236685
_cell_angle_beta   106.79752835
_cell_angle_gamma   105.27229016
_symmetry_Int_Tables_number   1
_chemical_formula_structural   Li3Mn4(PO4)6
_chemical_formula_sum   'Li3 Mn4 P6 O24'
_cell_volume   418.40608344
_cell_formula_units_Z   1
loop_
 _symmetry_equiv_pos_site_id
 _symmetry_equiv_pos_as_xyz
  1  'x, y, z'
loop_
 _atom_site_type_symbol
 _atom_site_label
 _atom_site_symmetry_multiplicity
 _atom_site_fract_x
 _atom_site_fract_y
 _atom_site_fract_z
 _atom_site_occupancy
  Li  Li0  1  0.751596  0.714705  0.294944  1
  Li  Li1  1  0.000000  0.500000  0.500000  1
  Li  Li2  1  0.248404  0.285295  0.705056  1
  Mn  Mn3  1  0.366858  0.943324  0.621853  1
  Mn  Mn4  1  0.869198  0.625978  0.943078  1
  Mn  Mn5  1  0.130802  0.374022  0.056922  1
  Mn  Mn6  1  0.633142  0.056676  0.378147  1
  P  P7  1  0.248564  0.709653  0.286273  1
  P  P8  1  0.873341  0.852405  0.654236  1
  P  P9  1  0.358887  0.652941  0.852542  1
  P  P10  1  0.641113  0.347059  0.147458  1
  P  P11  1  0.126659  0.147595  0.345764  1
  P  P12  1  0.751436  0.290347  0.713727  1
  O  O13  1  0.098203  0.991596  0.658666  1
  O  O14  1  0.678110  0.948466  0.596504  1
  O  O15  1  0.024080  0.737905  0.169863  1
  O  O16  1  0.474755  0.825674  0.266236  1
  O  O17  1  0.390541  0.835321  0.818477  1
  O  O18  1  0.233811  0.735012  0.461879  1
  O  O19  1  0.894897  0.822107  0.832825  1
  O  O20  1  0.821834  0.702296  0.536026  1
  O  O21  1  0.261389  0.528262  0.257386  1
  O  O22  1  0.182147  0.604453  0.958481  1
  O  O23  1  0.593372  0.652226  0.978244  1
  O  O24  1  0.269290  0.526086  0.705242  1
  O  O25  1  0.730710  0.473914  0.294758  1
  O  O26  1  0.406628  0.347774  0.021756  1
  O  O27  1  0.817853  0.395547  0.041519  1
  O  O28  1  0.738611  0.471738  0.742614  1
  O  O29  1  0.178166  0.297704  0.463974  1
  O  O30  1  0.105103  0.177893  0.167175  1
  O  O31  1  0.766189  0.264988  0.538121  1
  O  O32  1  0.609459  0.164679  0.181523  1
  O  O33  1  0.525245  0.174326  0.733764  1
  O  O34  1  0.975920  0.262095  0.830137  1
  O  O35  1  0.321890  0.051534  0.403496  1
  O  O36  1  0.901797  0.008404  0.341334  1
