# generated using pymatgen
data_Sn(SO4)2
_symmetry_space_group_name_H-M   'P 1'
_cell_length_a   9.13502624
_cell_length_b   9.33391030
_cell_length_c   13.80475084
_cell_angle_alpha   90.00000000
_cell_angle_beta   90.00000000
_cell_angle_gamma   90.00000000
_symmetry_Int_Tables_number   1
_chemical_formula_structural   Sn(SO4)2
_chemical_formula_sum   'Sn8 S16 O64'
_cell_volume   1177.06919689
_cell_formula_units_Z   8
loop_
 _symmetry_equiv_pos_site_id
 _symmetry_equiv_pos_as_xyz
  1  'x, y, z'
loop_
 _atom_site_type_symbol
 _atom_site_label
 _atom_site_symmetry_multiplicity
 _atom_site_fract_x
 _atom_site_fract_y
 _atom_site_fract_z
 _atom_site_occupancy
  Sn  Sn0  1  0.897180  0.859818  0.125691  1
  Sn  Sn1  1  0.602820  0.859818  0.625691  1
  Sn  Sn2  1  0.397180  0.640182  0.125691  1
  Sn  Sn3  1  0.102820  0.640182  0.625691  1
  Sn  Sn4  1  0.897180  0.359818  0.374309  1
  Sn  Sn5  1  0.602820  0.359818  0.874309  1
  Sn  Sn6  1  0.397180  0.140182  0.374309  1
  Sn  Sn7  1  0.102820  0.140182  0.874309  1
  S  S8  1  0.933369  0.926166  0.723093  1
  S  S9  1  0.566631  0.926166  0.223093  1
  S  S10  1  0.066631  0.573834  0.223093  1
  S  S11  1  0.433369  0.573834  0.723093  1
  S  S12  1  0.566631  0.426166  0.276907  1
  S  S13  1  0.933369  0.426166  0.776907  1
  S  S14  1  0.433369  0.073834  0.776907  1
  S  S15  1  0.066631  0.073834  0.276907  1
  S  S16  1  0.311259  0.838419  0.487189  1
  S  S17  1  0.188741  0.838419  0.987189  1
  S  S18  1  0.811259  0.661581  0.487189  1
  S  S19  1  0.688741  0.661581  0.987189  1
  S  S20  1  0.311259  0.338419  0.012811  1
  S  S21  1  0.188741  0.338419  0.512811  1
  S  S22  1  0.811259  0.161581  0.012811  1
  S  S23  1  0.688741  0.161581  0.512811  1
  O  O24  1  0.302526  0.999374  0.475872  1
  O  O25  1  0.197474  0.999374  0.975872  1
  O  O26  1  0.005549  0.984334  0.350250  1
  O  O27  1  0.494451  0.984334  0.850250  1
  O  O28  1  0.532899  0.976511  0.326005  1
  O  O29  1  0.967101  0.976511  0.826005  1
  O  O30  1  0.766994  0.918691  0.723818  1
  O  O31  1  0.733006  0.918691  0.223818  1
  O  O32  1  0.270667  0.811673  0.081798  1
  O  O33  1  0.229333  0.811673  0.581798  1
  O  O34  1  0.030902  0.800144  0.010399  1
  O  O35  1  0.469098  0.800144  0.510399  1
  O  O36  1  0.987381  0.772116  0.721647  1
  O  O37  1  0.512619  0.772116  0.221647  1
  O  O38  1  0.258946  0.759983  0.405795  1
  O  O39  1  0.241054  0.759983  0.905795  1
  O  O40  1  0.758946  0.740017  0.405795  1
  O  O41  1  0.741054  0.740017  0.905795  1
  O  O42  1  0.012619  0.727884  0.221647  1
  O  O43  1  0.487381  0.727884  0.721647  1
  O  O44  1  0.969098  0.699856  0.510399  1
  O  O45  1  0.530902  0.699856  0.010399  1
  O  O46  1  0.770667  0.688327  0.081798  1
  O  O47  1  0.729333  0.688327  0.581798  1
  O  O48  1  0.233006  0.581309  0.223818  1
  O  O49  1  0.266994  0.581309  0.723818  1
  O  O50  1  0.467101  0.523489  0.826005  1
  O  O51  1  0.032899  0.523489  0.326005  1
  O  O52  1  0.505549  0.515666  0.350250  1
  O  O53  1  0.994451  0.515666  0.850250  1
  O  O54  1  0.802526  0.500626  0.475872  1
  O  O55  1  0.697474  0.500626  0.975872  1
  O  O56  1  0.302526  0.499374  0.024128  1
  O  O57  1  0.197474  0.499374  0.524128  1
  O  O58  1  0.494451  0.484334  0.649750  1
  O  O59  1  0.005549  0.484334  0.149750  1
  O  O60  1  0.532899  0.476511  0.173995  1
  O  O61  1  0.967101  0.476511  0.673995  1
  O  O62  1  0.733006  0.418691  0.276182  1
  O  O63  1  0.766994  0.418691  0.776182  1
  O  O64  1  0.270667  0.311673  0.418202  1
  O  O65  1  0.229333  0.311673  0.918202  1
  O  O66  1  0.469098  0.300144  0.989601  1
  O  O67  1  0.030902  0.300144  0.489601  1
  O  O68  1  0.512619  0.272116  0.278353  1
  O  O69  1  0.987381  0.272116  0.778353  1
  O  O70  1  0.258946  0.259983  0.094205  1
  O  O71  1  0.241054  0.259983  0.594205  1
  O  O72  1  0.758946  0.240017  0.094205  1
  O  O73  1  0.741054  0.240017  0.594205  1
  O  O74  1  0.487381  0.227884  0.778353  1
  O  O75  1  0.012619  0.227884  0.278353  1
  O  O76  1  0.530902  0.199856  0.489601  1
  O  O77  1  0.969098  0.199856  0.989601  1
  O  O78  1  0.770667  0.188327  0.418202  1
  O  O79  1  0.729333  0.188327  0.918202  1
  O  O80  1  0.266994  0.081309  0.776182  1
  O  O81  1  0.233006  0.081309  0.276182  1
  O  O82  1  0.467101  0.023489  0.673995  1
  O  O83  1  0.032899  0.023489  0.173995  1
  O  O84  1  0.994451  0.015666  0.649750  1
  O  O85  1  0.505549  0.015666  0.149750  1
  O  O86  1  0.802526  0.000626  0.024128  1
  O  O87  1  0.697474  0.000626  0.524128  1
