# generated using pymatgen
data_Mn3V2Co3O16
_symmetry_space_group_name_H-M   'P 1'
_cell_length_a   5.69504975
_cell_length_b   5.69504975
_cell_length_c   8.83426054
_cell_angle_alpha   89.25168671
_cell_angle_beta   90.74831329
_cell_angle_gamma   119.80658801
_symmetry_Int_Tables_number   1
_chemical_formula_structural   Mn3V2Co3O16
_chemical_formula_sum   'Mn3 V2 Co3 O16'
_cell_volume   248.59335497
_cell_formula_units_Z   1
loop_
 _symmetry_equiv_pos_site_id
 _symmetry_equiv_pos_as_xyz
  1  'x, y, z'
loop_
 _atom_site_type_symbol
 _atom_site_label
 _atom_site_symmetry_multiplicity
 _atom_site_fract_x
 _atom_site_fract_y
 _atom_site_fract_z
 _atom_site_occupancy
  Mn  Mn0  1  0.828855  0.171145  0.213061  1
  Mn  Mn1  1  0.168478  0.342793  0.714389  1
  Mn  Mn2  1  0.657207  0.831522  0.714389  1
  V  V3  1  0.659057  0.340943  0.498568  1
  V  V4  1  0.325631  0.674369  0.000853  1
  Co  Co5  1  0.340442  0.174717  0.211838  1
  Co  Co6  1  0.825283  0.659558  0.211838  1
  Co  Co7  1  0.167472  0.832528  0.711676  1
  O  O8  1  0.343004  0.175473  0.594927  1
  O  O9  1  0.520711  0.479289  0.335787  1
  O  O10  1  0.659602  0.340398  0.105527  1
  O  O11  1  0.003462  0.996538  0.311086  1
  O  O12  1  0.999352  0.000648  0.816503  1
  O  O13  1  0.824527  0.656996  0.594927  1
  O  O14  1  0.521581  0.046158  0.338116  1
  O  O15  1  0.953842  0.478419  0.338116  1
  O  O16  1  0.168638  0.831362  0.097496  1
  O  O17  1  0.826228  0.173772  0.593595  1
  O  O18  1  0.043347  0.528333  0.838261  1
  O  O19  1  0.471667  0.956653  0.838261  1
  O  O20  1  0.330720  0.669280  0.602022  1
  O  O21  1  0.172285  0.350070  0.095921  1
  O  O22  1  0.479772  0.520228  0.839406  1
  O  O23  1  0.649930  0.827715  0.095921  1
