# generated using pymatgen
data_Li3Mn2Fe(BO3)3
_symmetry_space_group_name_H-M   'P 1'
_cell_length_a   8.25338431
_cell_length_b   6.34106377
_cell_length_c   8.26642555
_cell_angle_alpha   90.00000000
_cell_angle_beta   119.87310581
_cell_angle_gamma   90.00000000
_symmetry_Int_Tables_number   1
_chemical_formula_structural   Li3Mn2Fe(BO3)3
_chemical_formula_sum   'Li6 Mn4 Fe2 B6 O18'
_cell_volume   375.14268250
_cell_formula_units_Z   2
loop_
 _symmetry_equiv_pos_site_id
 _symmetry_equiv_pos_as_xyz
  1  'x, y, z'
loop_
 _atom_site_type_symbol
 _atom_site_label
 _atom_site_symmetry_multiplicity
 _atom_site_fract_x
 _atom_site_fract_y
 _atom_site_fract_z
 _atom_site_occupancy
  Li  Li0  1  0.716179  0.750553  0.698201  1
  Li  Li1  1  0.716179  0.249447  0.698201  1
  Li  Li2  1  0.983250  0.750014  0.284428  1
  Li  Li3  1  0.983250  0.249986  0.284428  1
  Li  Li4  1  0.301681  0.250331  0.016975  1
  Li  Li5  1  0.301681  0.749669  0.016975  1
  Mn  Mn6  1  0.627473  0.000000  0.987821  1
  Mn  Mn7  1  0.627297  0.500000  0.987723  1
  Mn  Mn8  1  0.359514  0.500000  0.371931  1
  Mn  Mn9  1  0.012307  0.000000  0.639876  1
  Fe  Fe10  1  0.359407  0.000000  0.367022  1
  Fe  Fe11  1  0.006971  0.500000  0.639845  1
  B  B12  1  0.000367  0.000000  0.003042  1
  B  B13  1  0.002251  0.500000  0.999400  1
  B  B14  1  0.666618  0.750121  0.334226  1
  B  B15  1  0.666618  0.249879  0.334226  1
  B  B16  1  0.332096  0.750001  0.665212  1
  B  B17  1  0.332096  0.249999  0.665212  1
  O  O18  1  0.888796  0.500000  0.804887  1
  O  O19  1  0.888186  0.000000  0.809664  1
  O  O20  1  0.860449  0.746130  0.442047  1
  O  O21  1  0.860449  0.253870  0.442047  1
  O  O22  1  0.920392  0.000000  0.116742  1
  O  O23  1  0.920808  0.500000  0.111818  1
  O  O24  1  0.558514  0.754351  0.419924  1
  O  O25  1  0.558514  0.245649  0.419924  1
  O  O26  1  0.581137  0.749720  0.140939  1
  O  O27  1  0.581137  0.250280  0.140939  1
  O  O28  1  0.526230  0.750373  0.777668  1
  O  O29  1  0.526230  0.249627  0.777668  1
  O  O30  1  0.195167  0.000000  0.084151  1
  O  O31  1  0.195712  0.500000  0.078956  1
  O  O32  1  0.219685  0.747532  0.746895  1
  O  O33  1  0.219685  0.252468  0.746895  1
  O  O34  1  0.251836  0.247919  0.472042  1
  O  O35  1  0.251836  0.752081  0.472042  1
