# generated using pymatgen
data_CrH14N4Cl3O
_symmetry_space_group_name_H-M   'P 1'
_cell_length_a   6.83469620
_cell_length_b   10.75180947
_cell_length_c   6.85833281
_cell_angle_alpha   90.00000000
_cell_angle_beta   98.13710775
_cell_angle_gamma   90.00000000
_symmetry_Int_Tables_number   1
_chemical_formula_structural   CrH14N4Cl3O
_chemical_formula_sum   'Cr2 H28 N8 Cl6 O2'
_cell_volume   498.91295352
_cell_formula_units_Z   2
loop_
 _symmetry_equiv_pos_site_id
 _symmetry_equiv_pos_as_xyz
  1  'x, y, z'
loop_
 _atom_site_type_symbol
 _atom_site_label
 _atom_site_symmetry_multiplicity
 _atom_site_fract_x
 _atom_site_fract_y
 _atom_site_fract_z
 _atom_site_occupancy
  Cr  Cr0  1  0.274332  0.250000  0.836299  1
  Cr  Cr1  1  0.725668  0.750000  0.163701  1
  H  H2  1  0.408642  0.021889  0.791074  1
  H  H3  1  0.591358  0.521889  0.208926  1
  H  H4  1  0.591358  0.978111  0.208926  1
  H  H5  1  0.408642  0.478111  0.791074  1
  H  H6  1  0.263898  0.016936  0.964280  1
  H  H7  1  0.736102  0.516936  0.035720  1
  H  H8  1  0.736102  0.983064  0.035720  1
  H  H9  1  0.263898  0.483064  0.964280  1
  H  H10  1  0.165749  0.019015  0.728987  1
  H  H11  1  0.834251  0.519015  0.271013  1
  H  H12  1  0.834251  0.980985  0.271013  1
  H  H13  1  0.165749  0.480985  0.728987  1
  H  H14  1  0.118625  0.327237  0.151138  1
  H  H15  1  0.881375  0.827237  0.848862  1
  H  H16  1  0.881375  0.672763  0.848862  1
  H  H17  1  0.118625  0.172763  0.151138  1
  H  H18  1  0.942426  0.250000  0.010124  1
  H  H19  1  0.057574  0.750000  0.989876  1
  H  H20  1  0.516250  0.327245  0.587250  1
  H  H21  1  0.483750  0.827245  0.412750  1
  H  H22  1  0.483750  0.672755  0.412750  1
  H  H23  1  0.516250  0.172755  0.587250  1
  H  H24  1  0.321394  0.250000  0.475465  1
  H  H25  1  0.678606  0.750000  0.524535  1
  H  H26  1  0.942086  0.325219  0.628572  1
  H  H27  1  0.057914  0.825219  0.371428  1
  H  H28  1  0.057914  0.674781  0.371428  1
  H  H29  1  0.942086  0.174781  0.628572  1
  N  N30  1  0.278088  0.054440  0.828972  1
  N  N31  1  0.721912  0.554440  0.171028  1
  N  N32  1  0.721912  0.945560  0.171028  1
  N  N33  1  0.278088  0.445560  0.828972  1
  N  N34  1  0.090940  0.250000  0.062305  1
  N  N35  1  0.909060  0.750000  0.937695  1
  N  N36  1  0.429345  0.250000  0.595070  1
  N  N37  1  0.570655  0.750000  0.404930  1
  Cl  Cl38  1  0.555518  0.250000  0.069967  1
  Cl  Cl39  1  0.444482  0.750000  0.930033  1
  Cl  Cl40  1  0.217246  0.979837  0.314611  1
  Cl  Cl41  1  0.782754  0.479837  0.685389  1
  Cl  Cl42  1  0.782754  0.020163  0.685389  1
  Cl  Cl43  1  0.217246  0.520163  0.314611  1
  O  O44  1  0.028462  0.250000  0.623086  1
  O  O45  1  0.971538  0.750000  0.376914  1
