# generated using pymatgen
data_Co6O7F5
_symmetry_space_group_name_H-M   'P 1'
_cell_length_a   4.55986357
_cell_length_b   5.45946969
_cell_length_c   7.56235327
_cell_angle_alpha   86.65060090
_cell_angle_beta   87.13554387
_cell_angle_gamma   86.31033472
_symmetry_Int_Tables_number   1
_chemical_formula_structural   Co6O7F5
_chemical_formula_sum   'Co6 O7 F5'
_cell_volume   187.34748640
_cell_formula_units_Z   1
loop_
 _symmetry_equiv_pos_site_id
 _symmetry_equiv_pos_as_xyz
  1  'x, y, z'
loop_
 _atom_site_type_symbol
 _atom_site_label
 _atom_site_symmetry_multiplicity
 _atom_site_fract_x
 _atom_site_fract_y
 _atom_site_fract_z
 _atom_site_occupancy
  Co  Co0  1  0.531224  0.507175  0.013333  1
  Co  Co1  1  0.489093  0.166590  0.335902  1
  Co  Co2  1  0.542036  0.848733  0.663323  1
  Co  Co3  1  0.998164  0.324035  0.668463  1
  Co  Co4  1  0.991017  0.664563  0.323929  1
  Co  Co5  1  0.958456  0.001565  0.997230  1
  O  O6  1  0.811841  0.040879  0.766910  1
  O  O7  1  0.802641  0.701488  0.101942  1
  O  O8  1  0.700064  0.532190  0.772474  1
  O  O9  1  0.685950  0.200473  0.109411  1
  O  O10  1  0.694974  0.871684  0.425739  1
  O  O11  1  0.304808  0.125621  0.565221  1
  O  O12  1  0.305477  0.464430  0.232249  1
  F  F13  1  0.801250  0.366168  0.433619  1
  F  F14  1  0.300315  0.797273  0.898042  1
  F  F15  1  0.193589  0.966843  0.219716  1
  F  F16  1  0.202160  0.297643  0.908804  1
  F  F17  1  0.186939  0.622646  0.563691  1
