# generated using pymatgen
data_Cr(PO3)4
_symmetry_space_group_name_H-M   'P 1'
_cell_length_a   7.18401192
_cell_length_b   7.18401192
_cell_length_c   10.08397295
_cell_angle_alpha   66.73531648
_cell_angle_beta   113.26468352
_cell_angle_gamma   109.78319127
_symmetry_Int_Tables_number   1
_chemical_formula_structural   Cr(PO3)4
_chemical_formula_sum   'Cr2 P8 O24'
_cell_volume   428.85546510
_cell_formula_units_Z   2
loop_
 _symmetry_equiv_pos_site_id
 _symmetry_equiv_pos_as_xyz
  1  'x, y, z'
loop_
 _atom_site_type_symbol
 _atom_site_label
 _atom_site_symmetry_multiplicity
 _atom_site_fract_x
 _atom_site_fract_y
 _atom_site_fract_z
 _atom_site_occupancy
  Cr  Cr0  1  0.553945  0.553945  0.750000  1
  Cr  Cr1  1  0.446055  0.446055  0.250000  1
  P  P2  1  0.746416  0.765764  0.018678  1
  P  P3  1  0.765764  0.746416  0.481322  1
  P  P4  1  0.188487  0.787576  0.693256  1
  P  P5  1  0.212424  0.811513  0.193256  1
  P  P6  1  0.787576  0.188487  0.806744  1
  P  P7  1  0.811513  0.212424  0.306744  1
  P  P8  1  0.234236  0.253584  0.518678  1
  P  P9  1  0.253584  0.234236  0.981322  1
  O  O10  1  0.584056  0.650969  0.097225  1
  O  O11  1  0.966834  0.792042  0.144930  1
  O  O12  1  0.650969  0.584056  0.402775  1
  O  O13  1  0.759743  0.694514  0.901981  1
  O  O14  1  0.309612  0.849704  0.342818  1
  O  O15  1  0.250493  0.617732  0.190507  1
  O  O16  1  0.382268  0.749507  0.690507  1
  O  O17  1  0.002188  0.715046  0.557390  1
  O  O18  1  0.150296  0.690388  0.842818  1
  O  O19  1  0.694514  0.759743  0.598019  1
  O  O20  1  0.792042  0.966834  0.355070  1
  O  O21  1  0.284954  0.997812  0.057390  1
  O  O22  1  0.715046  0.002188  0.942610  1
  O  O23  1  0.207958  0.033166  0.644930  1
  O  O24  1  0.305486  0.240257  0.401981  1
  O  O25  1  0.849704  0.309612  0.157182  1
  O  O26  1  0.997812  0.284954  0.442610  1
  O  O27  1  0.617732  0.250493  0.309493  1
  O  O28  1  0.749507  0.382268  0.809493  1
  O  O29  1  0.690388  0.150296  0.657182  1
  O  O30  1  0.240257  0.305486  0.098019  1
  O  O31  1  0.349031  0.415944  0.597225  1
  O  O32  1  0.033166  0.207958  0.855070  1
  O  O33  1  0.415944  0.349031  0.902775  1
