# generated using pymatgen
data_Ho3ReO8
_symmetry_space_group_name_H-M   'P 1'
_cell_length_a   7.18244672
_cell_length_b   6.28037142
_cell_length_c   7.19788763
_cell_angle_alpha   90.00000000
_cell_angle_beta   111.87038109
_cell_angle_gamma   90.00000000
_symmetry_Int_Tables_number   1
_chemical_formula_structural   Ho3ReO8
_chemical_formula_sum   'Ho6 Re2 O16'
_cell_volume   301.31747975
_cell_formula_units_Z   2
loop_
 _symmetry_equiv_pos_site_id
 _symmetry_equiv_pos_as_xyz
  1  'x, y, z'
loop_
 _atom_site_type_symbol
 _atom_site_label
 _atom_site_symmetry_multiplicity
 _atom_site_fract_x
 _atom_site_fract_y
 _atom_site_fract_z
 _atom_site_occupancy
  Ho  Ho0  1  0.328242  0.250000  0.107779  1
  Ho  Ho1  1  0.594734  0.750000  0.406000  1
  Ho  Ho2  1  0.108501  0.750000  0.337250  1
  Ho  Ho3  1  0.891499  0.250000  0.662750  1
  Ho  Ho4  1  0.405266  0.250000  0.594000  1
  Ho  Ho5  1  0.671758  0.750000  0.892221  1
  Re  Re6  1  0.817028  0.250000  0.177078  1
  Re  Re7  1  0.182972  0.750000  0.822922  1
  O  O8  1  0.431615  0.750000  0.044609  1
  O  O9  1  0.813804  0.949398  0.187955  1
  O  O10  1  0.813804  0.550602  0.187955  1
  O  O11  1  0.030498  0.750000  0.980012  1
  O  O12  1  0.652904  0.250000  0.339828  1
  O  O13  1  0.327935  0.000082  0.330405  1
  O  O14  1  0.327935  0.499918  0.330405  1
  O  O15  1  0.958510  0.750000  0.574752  1
  O  O16  1  0.041490  0.250000  0.425248  1
  O  O17  1  0.672065  0.999918  0.669595  1
  O  O18  1  0.672065  0.500082  0.669595  1
  O  O19  1  0.347096  0.750000  0.660172  1
  O  O20  1  0.969502  0.250000  0.019988  1
  O  O21  1  0.186196  0.050602  0.812045  1
  O  O22  1  0.186196  0.449398  0.812045  1
  O  O23  1  0.568385  0.250000  0.955391  1
