# generated using pymatgen
data_YbB4O7
_symmetry_space_group_name_H-M   'P 1'
_cell_length_a   4.21514430
_cell_length_b   4.37993121
_cell_length_c   10.63426298
_cell_angle_alpha   90.00000000
_cell_angle_beta   90.00000000
_cell_angle_gamma   90.00000000
_symmetry_Int_Tables_number   1
_chemical_formula_structural   YbB4O7
_chemical_formula_sum   'Yb2 B8 O14'
_cell_volume   196.33021057
_cell_formula_units_Z   2
loop_
 _symmetry_equiv_pos_site_id
 _symmetry_equiv_pos_as_xyz
  1  'x, y, z'
loop_
 _atom_site_type_symbol
 _atom_site_label
 _atom_site_symmetry_multiplicity
 _atom_site_fract_x
 _atom_site_fract_y
 _atom_site_fract_z
 _atom_site_occupancy
  Yb  Yb0  1  0.467941  0.805944  0.500000  1
  Yb  Yb1  1  0.967941  0.194056  0.000000  1
  B  B2  1  0.001692  0.822309  0.751212  1
  B  B3  1  0.001692  0.822309  0.248788  1
  B  B4  1  0.478626  0.673921  0.879748  1
  B  B5  1  0.478626  0.673921  0.120252  1
  B  B6  1  0.501692  0.177691  0.748788  1
  B  B7  1  0.501692  0.177691  0.251212  1
  B  B8  1  0.978626  0.326079  0.620252  1
  B  B9  1  0.978626  0.326079  0.379748  1
  O  O10  1  0.055643  0.648311  0.637859  1
  O  O11  1  0.055643  0.648311  0.362141  1
  O  O12  1  0.093706  0.217558  0.500000  1
  O  O13  1  0.137691  0.726759  0.867963  1
  O  O14  1  0.137691  0.726759  0.132037  1
  O  O15  1  0.142815  0.137013  0.724629  1
  O  O16  1  0.142815  0.137013  0.275371  1
  O  O17  1  0.555643  0.351689  0.862141  1
  O  O18  1  0.555643  0.351689  0.137859  1
  O  O19  1  0.593706  0.782442  0.000000  1
  O  O20  1  0.637691  0.273241  0.632037  1
  O  O21  1  0.637691  0.273241  0.367963  1
  O  O22  1  0.642815  0.862987  0.775371  1
  O  O23  1  0.642815  0.862987  0.224629  1
