# generated using pymatgen
data_K2PHO4
_symmetry_space_group_name_H-M   'P 1'
_cell_length_a   6.04479697
_cell_length_b   10.48376919
_cell_length_c   22.81466086
_cell_angle_alpha   90.00000000
_cell_angle_beta   90.00000000
_cell_angle_gamma   90.00000000
_symmetry_Int_Tables_number   1
_chemical_formula_structural   K2PHO4
_chemical_formula_sum   'K24 P12 H12 O48'
_cell_volume   1445.81653391
_cell_formula_units_Z   12
loop_
 _symmetry_equiv_pos_site_id
 _symmetry_equiv_pos_as_xyz
  1  'x, y, z'
loop_
 _atom_site_type_symbol
 _atom_site_label
 _atom_site_symmetry_multiplicity
 _atom_site_fract_x
 _atom_site_fract_y
 _atom_site_fract_z
 _atom_site_occupancy
  K  K0  1  0.249172  0.403524  0.450479  1
  K  K1  1  0.749172  0.596476  0.549521  1
  K  K2  1  0.749172  0.903524  0.049521  1
  K  K3  1  0.249172  0.096476  0.950479  1
  K  K4  1  0.258905  0.365984  0.098799  1
  K  K5  1  0.758905  0.634016  0.901201  1
  K  K6  1  0.758905  0.865984  0.401201  1
  K  K7  1  0.258905  0.134016  0.598799  1
  K  K8  1  0.261056  0.637244  0.328109  1
  K  K9  1  0.761056  0.362756  0.671891  1
  K  K10  1  0.761056  0.137244  0.171891  1
  K  K11  1  0.261056  0.862756  0.828109  1
  K  K12  1  0.226944  0.724391  0.164151  1
  K  K13  1  0.726944  0.275609  0.835849  1
  K  K14  1  0.726944  0.224391  0.335849  1
  K  K15  1  0.226944  0.775609  0.664151  1
  K  K16  1  0.206270  0.992570  0.282633  1
  K  K17  1  0.706270  0.007430  0.717367  1
  K  K18  1  0.706270  0.492570  0.217367  1
  K  K19  1  0.206270  0.507430  0.782633  1
  K  K20  1  0.260826  0.752471  0.486995  1
  K  K21  1  0.760826  0.247529  0.513005  1
  K  K22  1  0.760826  0.252471  0.013005  1
  K  K23  1  0.260826  0.747529  0.986995  1
  P  P24  1  0.253647  0.043989  0.094200  1
  P  P25  1  0.753647  0.956011  0.905800  1
  P  P26  1  0.753647  0.543989  0.405800  1
  P  P27  1  0.253647  0.456011  0.594200  1
  P  P28  1  0.239146  0.068373  0.424710  1
  P  P29  1  0.739146  0.931627  0.575290  1
  P  P30  1  0.739146  0.568373  0.075290  1
  P  P31  1  0.239146  0.431627  0.924710  1
  P  P32  1  0.214206  0.349632  0.244590  1
  P  P33  1  0.714206  0.650368  0.755410  1
  P  P34  1  0.714206  0.849632  0.255410  1
  P  P35  1  0.214206  0.150368  0.744590  1
  H  H36  1  0.306127  0.133552  0.183008  1
  H  H37  1  0.806127  0.866448  0.816992  1
  H  H38  1  0.806127  0.633552  0.316992  1
  H  H39  1  0.306127  0.366448  0.683008  1
  H  H40  1  0.533780  0.020892  0.478725  1
  H  H41  1  0.033780  0.979108  0.521275  1
  H  H42  1  0.033780  0.520892  0.021275  1
  H  H43  1  0.533780  0.479108  0.978725  1
  H  H44  1  0.262824  0.293762  0.336873  1
  H  H45  1  0.762824  0.706238  0.663127  1
  H  H46  1  0.762824  0.793762  0.163127  1
  H  H47  1  0.262824  0.206238  0.836873  1
  O  O48  1  0.263338  0.046741  0.165972  1
  O  O49  1  0.763338  0.953259  0.834028  1
  O  O50  1  0.763338  0.546741  0.334028  1
  O  O51  1  0.263338  0.453259  0.665972  1
  O  O52  1  0.245110  0.902370  0.077789  1
  O  O53  1  0.745110  0.097630  0.922211  1
  O  O54  1  0.745110  0.402370  0.422211  1
  O  O55  1  0.245110  0.597630  0.577789  1
  O  O56  1  0.463824  0.112658  0.072374  1
  O  O57  1  0.963824  0.887342  0.927626  1
  O  O58  1  0.963824  0.612658  0.427626  1
  O  O59  1  0.463824  0.387342  0.572374  1
  O  O60  1  0.043040  0.116397  0.075230  1
  O  O61  1  0.543040  0.883603  0.924770  1
  O  O62  1  0.543040  0.616397  0.424770  1
  O  O63  1  0.043040  0.383603  0.575230  1
  O  O64  1  0.091767  0.090412  0.479377  1
  O  O65  1  0.591767  0.909588  0.520623  1
  O  O66  1  0.591767  0.590412  0.020623  1
  O  O67  1  0.091767  0.409588  0.979377  1
  O  O68  1  0.213709  0.933104  0.400018  1
  O  O69  1  0.713709  0.066896  0.599982  1
  O  O70  1  0.713709  0.433104  0.099982  1
  O  O71  1  0.213709  0.566896  0.900018  1
  O  O72  1  0.206387  0.172507  0.378050  1
  O  O73  1  0.706387  0.827493  0.621950  1
  O  O74  1  0.706387  0.672507  0.121950  1
  O  O75  1  0.206387  0.327493  0.878050  1
  O  O76  1  0.495467  0.086990  0.446526  1
  O  O77  1  0.995467  0.913010  0.553474  1
  O  O78  1  0.995467  0.586990  0.053474  1
  O  O79  1  0.495467  0.413010  0.946526  1
  O  O80  1  0.295350  0.371885  0.312625  1
  O  O81  1  0.795350  0.628115  0.687375  1
  O  O82  1  0.795350  0.871885  0.187375  1
  O  O83  1  0.295350  0.128115  0.812625  1
  O  O84  1  0.217838  0.483705  0.217478  1
  O  O85  1  0.717838  0.516295  0.782522  1
  O  O86  1  0.717838  0.983705  0.282522  1
  O  O87  1  0.217838  0.016295  0.717478  1
  O  O88  1  0.389858  0.260055  0.216580  1
  O  O89  1  0.889858  0.739945  0.783420  1
  O  O90  1  0.889858  0.760055  0.283420  1
  O  O91  1  0.389858  0.239945  0.716580  1
  O  O92  1  0.985211  0.286643  0.246155  1
  O  O93  1  0.485211  0.713357  0.753845  1
  O  O94  1  0.485211  0.786643  0.253845  1
  O  O95  1  0.985211  0.213357  0.746155  1
