# generated using pymatgen
data_Li4V5O9F
_symmetry_space_group_name_H-M   'P 1'
_cell_length_a   5.22605691
_cell_length_b   5.22605691
_cell_length_c   13.12776613
_cell_angle_alpha   79.09310256
_cell_angle_beta   100.90689744
_cell_angle_gamma   146.51586959
_symmetry_Int_Tables_number   1
_chemical_formula_structural   Li4V5O9F
_chemical_formula_sum   'Li4 V5 O9 F1'
_cell_volume   193.90951628
_cell_formula_units_Z   1
loop_
 _symmetry_equiv_pos_site_id
 _symmetry_equiv_pos_as_xyz
  1  'x, y, z'
loop_
 _atom_site_type_symbol
 _atom_site_label
 _atom_site_symmetry_multiplicity
 _atom_site_fract_x
 _atom_site_fract_y
 _atom_site_fract_z
 _atom_site_occupancy
  Li  Li0  1  0.798550  0.201450  0.601451  1
  Li  Li1  1  0.603785  0.396215  0.200190  1
  Li  Li2  1  0.200065  0.799935  0.402959  1
  Li  Li3  1  0.396543  0.603457  0.805867  1
  V  V4  1  0.901174  0.098826  0.301357  1
  V  V5  1  0.686030  0.313970  0.894987  1
  V  V6  1  0.321560  0.678440  0.101790  1
  V  V7  1  0.497963  0.502037  0.499260  1
  V  V8  1  0.095340  0.904660  0.696004  1
  O  O9  1  0.858013  0.141987  0.447281  1
  O  O10  1  0.947320  0.052680  0.155876  1
  O  O11  1  0.539915  0.460085  0.351388  1
  O  O12  1  0.733396  0.266604  0.748711  1
  O  O13  1  0.455646  0.544354  0.644407  1
  O  O14  1  0.263973  0.736027  0.244658  1
  O  O15  1  0.310894  0.689106  0.950605  1
  O  O16  1  0.051209  0.948791  0.839891  1
  O  O17  1  0.137407  0.862593  0.548660  1
  F  F18  1  0.667493  0.332507  0.059176  1
