# generated using pymatgen
data_Li3FeBO4
_symmetry_space_group_name_H-M   'P 1'
_cell_length_a   9.65792334
_cell_length_b   9.65792334
_cell_length_c   9.65792334
_cell_angle_alpha   116.50313543
_cell_angle_beta   116.50313543
_cell_angle_gamma   96.17159188
_symmetry_Int_Tables_number   1
_chemical_formula_structural   Li3FeBO4
_chemical_formula_sum   'Li24 Fe8 B8 O32'
_cell_volume   666.47684770
_cell_formula_units_Z   8
loop_
 _symmetry_equiv_pos_site_id
 _symmetry_equiv_pos_as_xyz
  1  'x, y, z'
loop_
 _atom_site_type_symbol
 _atom_site_label
 _atom_site_symmetry_multiplicity
 _atom_site_fract_x
 _atom_site_fract_y
 _atom_site_fract_z
 _atom_site_occupancy
  Li  Li0  1  0.922567  0.093932  0.139958  1
  Li  Li1  1  0.827433  0.156068  0.360042  1
  Li  Li2  1  0.906068  0.046026  0.828634  1
  Li  Li3  1  0.532609  0.172567  0.328634  1
  Li  Li4  1  0.413500  0.267147  0.102236  1
  Li  Li5  1  0.714759  0.560865  0.132623  1
  Li  Li6  1  0.217391  0.077433  0.171366  1
  Li  Li7  1  0.843932  0.203974  0.671366  1
  Li  Li8  1  0.732853  0.835089  0.146353  1
  Li  Li9  1  0.439135  0.571758  0.153894  1
  Li  Li10  1  0.796026  0.467391  0.639958  1
  Li  Li11  1  0.953974  0.782609  0.860042  1
  Li  Li12  1  0.310865  0.678242  0.346106  1
  Li  Li13  1  0.417865  0.285241  0.846106  1
  Li  Li14  1  0.017147  0.414911  0.353647  1
  Li  Li15  1  0.688736  0.586501  0.853647  1
  Li  Li16  1  0.035241  0.689135  0.367377  1
  Li  Li17  1  0.428242  0.582135  0.867377  1
  Li  Li18  1  0.585089  0.938736  0.602236  1
  Li  Li19  1  0.336501  0.982853  0.397764  1
  Li  Li20  1  0.164911  0.311264  0.897764  1
  Li  Li21  1  0.321758  0.667865  0.632623  1
  Li  Li22  1  0.061264  0.663500  0.646353  1
  Li  Li23  1  0.332135  0.964759  0.653894  1
  Fe  Fe24  1  0.461380  0.919213  0.994114  1
  Fe  Fe25  1  0.532734  0.538620  0.457832  1
  Fe  Fe26  1  0.669213  0.175098  0.957832  1
  Fe  Fe27  1  0.824902  0.782734  0.494114  1
  Fe  Fe28  1  0.288620  0.330787  0.505886  1
  Fe  Fe29  1  0.080787  0.074902  0.542168  1
  Fe  Fe30  1  0.217266  0.711380  0.042168  1
  Fe  Fe31  1  0.925098  0.467266  0.005886  1
  B  B32  1  0.726523  0.396776  0.276694  1
  B  B33  1  0.550171  0.273477  0.670253  1
  B  B34  1  0.146776  0.370082  0.170253  1
  B  B35  1  0.603224  0.879918  0.329747  1
  B  B36  1  0.629918  0.800171  0.776694  1
  B  B37  1  0.023477  0.853224  0.223306  1
  B  B38  1  0.120082  0.449829  0.723306  1
  B  B39  1  0.199829  0.976523  0.829747  1
  O  O40  1  0.798540  0.263268  0.230062  1
  O  O41  1  0.318479  0.048540  0.035272  1
  O  O42  1  0.594270  0.360076  0.089864  1
  O  O43  1  0.885422  0.680729  0.113017  1
  O  O44  1  0.864578  0.569271  0.386983  1
  O  O45  1  0.648414  0.385378  0.375591  1
  O  O46  1  0.431521  0.201460  0.464728  1
  O  O47  1  0.319271  0.432288  0.204693  1
  O  O48  1  0.522405  0.135422  0.704693  1
  O  O49  1  0.951460  0.986732  0.269938  1
  O  O50  1  0.135378  0.259787  0.236964  1
  O  O51  1  0.727177  0.351586  0.736964  1
  O  O52  1  0.639924  0.729788  0.234194  1
  O  O53  1  0.110076  0.520212  0.265806  1
  O  O54  1  0.495593  0.405730  0.765806  1
  O  O55  1  0.614622  0.990213  0.263036  1
  O  O56  1  0.716793  0.681521  0.730062  1
  O  O57  1  0.227595  0.114578  0.795307  1
  O  O58  1  0.430729  0.817712  0.295307  1
  O  O59  1  0.736732  0.966793  0.535272  1
  O  O60  1  0.479788  0.745593  0.589864  1
  O  O61  1  0.101586  0.864622  0.124409  1
  O  O62  1  0.009787  0.272823  0.624409  1
  O  O63  1  0.182288  0.477595  0.613017  1
  O  O64  1  0.567712  0.772405  0.886983  1
  O  O65  1  0.740213  0.977177  0.875591  1
  O  O66  1  0.270212  0.504407  0.910136  1
  O  O67  1  0.155730  0.889924  0.410136  1
  O  O68  1  0.013268  0.283207  0.964728  1
  O  O69  1  0.033207  0.568479  0.769938  1
  O  O70  1  0.254407  0.844270  0.734194  1
  O  O71  1  0.022823  0.898414  0.763036  1
