# generated using pymatgen
data_Fe3O5F
_symmetry_space_group_name_H-M   'P 1'
_cell_length_a   4.64186587
_cell_length_b   5.53535384
_cell_length_c   7.61296574
_cell_angle_alpha   85.45388274
_cell_angle_beta   88.48959334
_cell_angle_gamma   88.00823495
_symmetry_Int_Tables_number   1
_chemical_formula_structural   Fe3O5F
_chemical_formula_sum   'Fe6 O10 F2'
_cell_volume   194.82242812
_cell_formula_units_Z   2
loop_
 _symmetry_equiv_pos_site_id
 _symmetry_equiv_pos_as_xyz
  1  'x, y, z'
loop_
 _atom_site_type_symbol
 _atom_site_label
 _atom_site_symmetry_multiplicity
 _atom_site_fract_x
 _atom_site_fract_y
 _atom_site_fract_z
 _atom_site_occupancy
  Fe  Fe0  1  0.513902  0.843562  0.670995  1
  Fe  Fe1  1  0.498365  0.499036  0.998548  1
  Fe  Fe2  1  0.517825  0.177586  0.340220  1
  Fe  Fe3  1  0.995452  0.324413  0.672064  1
  Fe  Fe4  1  0.978984  0.653812  0.324291  1
  Fe  Fe5  1  0.991213  0.999069  0.992243  1
  O  O6  1  0.815757  0.369289  0.444137  1
  O  O7  1  0.801671  0.035198  0.767102  1
  O  O8  1  0.806289  0.710222  0.096333  1
  O  O9  1  0.696490  0.203594  0.105124  1
  O  O10  1  0.690911  0.538479  0.766629  1
  O  O11  1  0.691560  0.870113  0.434507  1
  O  O12  1  0.306622  0.131515  0.564831  1
  O  O13  1  0.310148  0.461602  0.232157  1
  O  O14  1  0.303700  0.794251  0.896208  1
  O  O15  1  0.185207  0.289780  0.896247  1
  F  F16  1  0.196823  0.962493  0.234101  1
  F  F17  1  0.199081  0.635987  0.564264  1
