# generated using pymatgen
data_Te2P4H3O16
_symmetry_space_group_name_H-M   'P 1'
_cell_length_a   5.13990521
_cell_length_b   7.70120424
_cell_length_c   8.23908675
_cell_angle_alpha   90.76272380
_cell_angle_beta   91.24423392
_cell_angle_gamma   103.10562512
_symmetry_Int_Tables_number   1
_chemical_formula_structural   Te2P4H3O16
_chemical_formula_sum   'Te2 P4 H3 O16'
_cell_volume   317.50645726
_cell_formula_units_Z   1
loop_
 _symmetry_equiv_pos_site_id
 _symmetry_equiv_pos_as_xyz
  1  'x, y, z'
loop_
 _atom_site_type_symbol
 _atom_site_label
 _atom_site_symmetry_multiplicity
 _atom_site_fract_x
 _atom_site_fract_y
 _atom_site_fract_z
 _atom_site_occupancy
  Te  Te0  1  0.996812  0.496264  0.002832  1
  Te  Te1  1  0.498418  0.002627  0.497387  1
  P  P2  1  0.108834  0.259314  0.662895  1
  P  P3  1  0.373115  0.229471  0.142605  1
  P  P4  1  0.620385  0.763177  0.854502  1
  P  P5  1  0.889768  0.741822  0.336611  1
  H  H6  1  0.951217  0.980886  0.986670  1
  H  H7  1  0.388307  0.446724  0.545928  1
  H  H8  1  0.609300  0.552519  0.451690  1
  O  O9  1  0.114510  0.848326  0.446494  1
  O  O10  1  0.004699  0.294347  0.831381  1
  O  O11  1  0.185097  0.367735  0.172821  1
  O  O12  1  0.212458  0.450161  0.585389  1
  O  O13  1  0.385383  0.661937  0.957157  1
  O  O14  1  0.530402  0.798408  0.680104  1
  O  O15  1  0.229986  0.062028  0.056469  1
  O  O16  1  0.347931  0.169216  0.673463  1
  O  O17  1  0.651059  0.831627  0.324515  1
  O  O18  1  0.755320  0.940676  0.941393  1
  O  O19  1  0.467599  0.202254  0.321206  1
  O  O20  1  0.617415  0.333182  0.042710  1
  O  O21  1  0.788407  0.551700  0.416118  1
  O  O22  1  0.825391  0.639349  0.829820  1
  O  O23  1  0.991988  0.704912  0.167802  1
  O  O24  1  0.885077  0.153237  0.552141  1
