# generated using pymatgen
data_Tm2P4O13
_symmetry_space_group_name_H-M   'P 1'
_cell_length_a   6.84826291
_cell_length_b   6.84826291
_cell_length_c   12.89205653
_cell_angle_alpha   75.84092880
_cell_angle_beta   104.15907120
_cell_angle_gamma   121.02986618
_symmetry_Int_Tables_number   1
_chemical_formula_structural   Tm2P4O13
_chemical_formula_sum   'Tm4 P8 O26'
_cell_volume   497.22185890
_cell_formula_units_Z   2
loop_
 _symmetry_equiv_pos_site_id
 _symmetry_equiv_pos_as_xyz
  1  'x, y, z'
loop_
 _atom_site_type_symbol
 _atom_site_label
 _atom_site_symmetry_multiplicity
 _atom_site_fract_x
 _atom_site_fract_y
 _atom_site_fract_z
 _atom_site_occupancy
  Tm  Tm0  1  0.303058  0.692345  0.949449  1
  Tm  Tm1  1  0.692345  0.303058  0.550551  1
  Tm  Tm2  1  0.307655  0.696942  0.449449  1
  Tm  Tm3  1  0.696942  0.307655  0.050551  1
  P  P4  1  0.861348  0.836983  0.867040  1
  P  P5  1  0.163017  0.138652  0.367040  1
  P  P6  1  0.759416  0.226517  0.840115  1
  P  P7  1  0.226517  0.759416  0.659885  1
  P  P8  1  0.773483  0.240584  0.340115  1
  P  P9  1  0.240584  0.773483  0.159885  1
  P  P10  1  0.836983  0.861348  0.632960  1
  P  P11  1  0.138652  0.163017  0.132960  1
  O  O12  1  0.682555  0.670746  0.942012  1
  O  O13  1  0.102478  0.875632  0.897427  1
  O  O14  1  0.329254  0.317445  0.442012  1
  O  O15  1  0.090959  0.897452  0.652915  1
  O  O16  1  0.560444  0.074034  0.906622  1
  O  O17  1  0.924186  0.426108  0.905256  1
  O  O18  1  0.693409  0.295379  0.722033  1
  O  O19  1  0.124368  0.897522  0.397427  1
  O  O20  1  0.102548  0.909041  0.152915  1
  O  O21  1  0.295379  0.693409  0.777967  1
  O  O22  1  0.426108  0.924186  0.594744  1
  O  O23  1  0.074034  0.560444  0.593378  1
  O  O24  1  0.925966  0.439556  0.406622  1
  O  O25  1  0.573892  0.075814  0.405256  1
  O  O26  1  0.704621  0.306591  0.222033  1
  O  O27  1  0.897452  0.090959  0.847085  1
  O  O28  1  0.875632  0.102478  0.602573  1
  O  O29  1  0.306591  0.704621  0.277967  1
  O  O30  1  0.075814  0.573892  0.094744  1
  O  O31  1  0.439556  0.925966  0.093378  1
  O  O32  1  0.751865  0.751865  0.750000  1
  O  O33  1  0.909041  0.102548  0.347085  1
  O  O34  1  0.670746  0.682555  0.557988  1
  O  O35  1  0.897522  0.124368  0.102573  1
  O  O36  1  0.248135  0.248135  0.250000  1
  O  O37  1  0.317445  0.329254  0.057988  1
