# generated using pymatgen
data_Li4CrP2(O4F)2
_symmetry_space_group_name_H-M   'P 1'
_cell_length_a   6.47076557
_cell_length_b   10.01715551
_cell_length_c   10.06442139
_cell_angle_alpha   60.24158654
_cell_angle_beta   89.90335425
_cell_angle_gamma   89.85182930
_symmetry_Int_Tables_number   1
_chemical_formula_structural   Li4CrP2(O4F)2
_chemical_formula_sum   'Li12 Cr3 P6 O24 F6'
_cell_volume   566.33073037
_cell_formula_units_Z   3
loop_
 _symmetry_equiv_pos_site_id
 _symmetry_equiv_pos_as_xyz
  1  'x, y, z'
loop_
 _atom_site_type_symbol
 _atom_site_label
 _atom_site_symmetry_multiplicity
 _atom_site_fract_x
 _atom_site_fract_y
 _atom_site_fract_z
 _atom_site_occupancy
  Li  Li0  1  0.572270  0.999858  0.000995  1
  Li  Li1  1  0.738305  0.139931  0.181608  1
  Li  Li2  1  0.736380  0.676693  0.143759  1
  Li  Li3  1  0.070483  0.328792  0.341061  1
  Li  Li4  1  0.505070  0.327377  0.342388  1
  Li  Li5  1  0.483760  0.831914  0.340169  1
  Li  Li6  1  0.735463  0.181259  0.672013  1
  Li  Li7  1  0.492715  0.340165  0.821812  1
  Li  Li8  1  0.443931  0.669788  0.661772  1
  Li  Li9  1  0.052204  0.669087  0.660686  1
  Li  Li10  1  0.261496  0.477993  0.997987  1
  Li  Li11  1  0.494292  0.834452  0.830371  1
  Cr  Cr12  1  0.999366  0.832199  0.333299  1
  Cr  Cr13  1  0.994356  0.331721  0.830314  1
  Cr  Cr14  1  0.996968  0.835065  0.833727  1
  P  P15  1  0.252071  0.145064  0.152777  1
  P  P16  1  0.251239  0.703745  0.139644  1
  P  P17  1  0.731105  0.532688  0.508439  1
  P  P18  1  0.255539  0.153629  0.698242  1
  P  P19  1  0.733091  0.957775  0.533523  1
  P  P20  1  0.731035  0.508079  0.963354  1
  O  O21  1  0.450628  0.056459  0.163367  1
  O  O22  1  0.058569  0.039676  0.189926  1
  O  O23  1  0.737220  0.387363  0.132786  1
  O  O24  1  0.255729  0.234119  0.238791  1
  O  O25  1  0.054689  0.777086  0.037544  1
  O  O26  1  0.449563  0.785001  0.054056  1
  O  O27  1  0.253986  0.530500  0.199028  1
  O  O28  1  0.737381  0.127666  0.487074  1
  O  O29  1  0.737326  0.480961  0.389654  1
  O  O30  1  0.216905  0.747685  0.268194  1
  O  O31  1  0.257634  0.248474  0.525445  1
  O  O32  1  0.921227  0.640322  0.491566  1
  O  O33  1  0.538374  0.620167  0.508270  1
  O  O34  1  0.770721  0.934140  0.392311  1
  O  O35  1  0.451906  0.163744  0.778128  1
  O  O36  1  0.058387  0.192431  0.765265  1
  O  O37  1  0.765716  0.393238  0.675369  1
  O  O38  1  0.541464  0.869874  0.621144  1
  O  O39  1  0.922704  0.865632  0.642211  1
  O  O40  1  0.216431  0.268658  0.977431  1
  O  O41  1  0.920992  0.488777  0.874295  1
  O  O42  1  0.531120  0.505087  0.882375  1
  O  O43  1  0.219788  0.977252  0.756517  1
  O  O44  1  0.765637  0.674931  0.935873  1
  F  F45  1  0.774880  0.830886  0.205029  1
  F  F46  1  0.209368  0.823828  0.472761  1
  F  F47  1  0.204924  0.475362  0.704734  1
  F  F48  1  0.773823  0.202398  0.963146  1
  F  F49  1  0.207308  0.693737  0.833339  1
  F  F50  1  0.774856  0.966891  0.829507  1
