# generated using pymatgen
data_Li4Fe2TeWO12
_symmetry_space_group_name_H-M   'P 1'
_cell_length_a   5.14006878
_cell_length_b   5.41869738
_cell_length_c   7.46853952
_cell_angle_alpha   85.77342883
_cell_angle_beta   89.91538303
_cell_angle_gamma   89.96537860
_symmetry_Int_Tables_number   1
_chemical_formula_structural   Li4Fe2TeWO12
_chemical_formula_sum   'Li4 Fe2 Te1 W1 O12'
_cell_volume   207.45135206
_cell_formula_units_Z   1
loop_
 _symmetry_equiv_pos_site_id
 _symmetry_equiv_pos_as_xyz
  1  'x, y, z'
loop_
 _atom_site_type_symbol
 _atom_site_label
 _atom_site_symmetry_multiplicity
 _atom_site_fract_x
 _atom_site_fract_y
 _atom_site_fract_z
 _atom_site_occupancy
  Li  Li0  1  0.994668  0.418618  0.711315  1
  Li  Li1  1  0.507866  0.924088  0.208941  1
  Li  Li2  1  0.000540  0.427414  0.213639  1
  Li  Li3  1  0.499449  0.927389  0.716603  1
  Fe  Fe4  1  0.999585  0.995673  0.496204  1
  Fe  Fe5  1  0.500555  0.492101  0.997566  1
  Te  Te6  1  0.498599  0.500869  0.500062  1
  W  W7  1  0.002511  0.992345  0.996803  1
  O  O8  1  0.689128  0.205708  0.578999  1
  O  O9  1  0.885362  0.018820  0.250118  1
  O  O10  1  0.686004  0.825186  0.951252  1
  O  O11  1  0.795875  0.697323  0.577403  1
  O  O12  1  0.191863  0.699006  0.065842  1
  O  O13  1  0.631549  0.522606  0.257829  1
  O  O14  1  0.368777  0.525136  0.745187  1
  O  O15  1  0.819513  0.317767  0.952563  1
  O  O16  1  0.179646  0.333299  0.445132  1
  O  O17  1  0.302091  0.195410  0.066046  1
  O  O18  1  0.118154  0.016417  0.754130  1
  O  O19  1  0.328262  0.822422  0.443163  1
