# generated using pymatgen
data_LiMnP2O7
_symmetry_space_group_name_H-M   'P 1'
_cell_length_a   7.12461749
_cell_length_b   8.18946268
_cell_length_c   9.71885106
_cell_angle_alpha   90.00000000
_cell_angle_beta   111.87565233
_cell_angle_gamma   90.00000000
_symmetry_Int_Tables_number   1
_chemical_formula_structural   LiMnP2O7
_chemical_formula_sum   'Li4 Mn4 P8 O28'
_cell_volume   526.23214009
_cell_formula_units_Z   4
loop_
 _symmetry_equiv_pos_site_id
 _symmetry_equiv_pos_as_xyz
  1  'x, y, z'
loop_
 _atom_site_type_symbol
 _atom_site_label
 _atom_site_symmetry_multiplicity
 _atom_site_fract_x
 _atom_site_fract_y
 _atom_site_fract_z
 _atom_site_occupancy
  Li  Li0  1  0.218065  0.628159  0.132562  1
  Li  Li1  1  0.594512  0.827734  0.492747  1
  Li  Li2  1  0.218065  0.371841  0.632562  1
  Li  Li3  1  0.594512  0.172266  0.992747  1
  Mn  Mn4  1  0.503418  0.751488  0.999248  1
  Mn  Mn5  1  0.012303  0.752039  0.499228  1
  Mn  Mn6  1  0.012303  0.247961  0.999228  1
  Mn  Mn7  1  0.503418  0.248512  0.499248  1
  P  P8  1  0.344985  0.992610  0.204984  1
  P  P9  1  0.654049  0.499812  0.300146  1
  P  P10  1  0.923991  0.077006  0.682987  1
  P  P11  1  0.072709  0.570583  0.814828  1
  P  P12  1  0.923991  0.922994  0.182987  1
  P  P13  1  0.072709  0.429417  0.314828  1
  P  P14  1  0.344985  0.007390  0.704984  1
  P  P15  1  0.654049  0.500188  0.800146  1
  O  O16  1  0.282145  0.144212  0.107235  1
  O  O17  1  0.447145  0.022580  0.370965  1
  O  O18  1  0.521982  0.383050  0.347343  1
  O  O19  1  0.480253  0.877420  0.159335  1
  O  O20  1  0.845999  0.608534  0.805678  1
  O  O21  1  0.528792  0.545528  0.141258  1
  O  O22  1  0.799210  0.214762  0.585750  1
  O  O23  1  0.943988  0.081090  0.846056  1
  O  O24  1  0.731205  0.646465  0.407032  1
  O  O25  1  0.866765  0.905204  0.620203  1
  O  O26  1  0.128204  0.396585  0.868204  1
  O  O27  1  0.845999  0.391466  0.305678  1
  O  O28  1  0.075783  0.582282  0.656628  1
  O  O29  1  0.198139  0.700497  0.924602  1
  O  O30  1  0.799210  0.785238  0.085750  1
  O  O31  1  0.943988  0.918910  0.346056  1
  O  O32  1  0.146447  0.120451  0.678901  1
  O  O33  1  0.866765  0.094796  0.120203  1
  O  O34  1  0.128204  0.603415  0.368204  1
  O  O35  1  0.282145  0.855788  0.607235  1
  O  O36  1  0.075783  0.417718  0.156628  1
  O  O37  1  0.198139  0.299503  0.424602  1
  O  O38  1  0.447145  0.977420  0.870965  1
  O  O39  1  0.146447  0.879549  0.178901  1
  O  O40  1  0.521982  0.616950  0.847343  1
  O  O41  1  0.480253  0.122580  0.659335  1
  O  O42  1  0.528792  0.454472  0.641258  1
  O  O43  1  0.731205  0.353535  0.907032  1
