# generated using pymatgen
data_Ca3Zr2O7
_symmetry_space_group_name_H-M   'P 1'
_cell_length_a   10.43677827
_cell_length_b   10.43677827
_cell_length_c   5.82143404
_cell_angle_alpha   90.00000000
_cell_angle_beta   90.00000000
_cell_angle_gamma   147.70452989
_symmetry_Int_Tables_number   1
_chemical_formula_structural   Ca3Zr2O7
_chemical_formula_sum   'Ca6 Zr4 O14'
_cell_volume   338.79445910
_cell_formula_units_Z   2
loop_
 _symmetry_equiv_pos_site_id
 _symmetry_equiv_pos_as_xyz
  1  'x, y, z'
loop_
 _atom_site_type_symbol
 _atom_site_label
 _atom_site_symmetry_multiplicity
 _atom_site_fract_x
 _atom_site_fract_y
 _atom_site_fract_z
 _atom_site_occupancy
  Ca  Ca0  1  0.552739  0.938062  0.750000  1
  Ca  Ca1  1  0.061938  0.447261  0.250000  1
  Ca  Ca2  1  0.722600  0.722600  0.750000  1
  Ca  Ca3  1  0.277400  0.277400  0.250000  1
  Ca  Ca4  1  0.938062  0.552739  0.750000  1
  Ca  Ca5  1  0.447261  0.061938  0.250000  1
  Zr  Zr6  1  0.652610  0.855764  0.250000  1
  Zr  Zr7  1  0.144236  0.347390  0.750000  1
  Zr  Zr8  1  0.347390  0.144236  0.750000  1
  Zr  Zr9  1  0.855764  0.652610  0.250000  1
  O  O10  1  0.128069  0.871931  0.500000  1
  O  O11  1  0.128069  0.871931  0.000000  1
  O  O12  1  0.443298  0.845415  0.250000  1
  O  O13  1  0.154585  0.556702  0.750000  1
  O  O14  1  0.424081  0.575919  0.500000  1
  O  O15  1  0.424081  0.575919  0.000000  1
  O  O16  1  0.871589  0.871589  0.250000  1
  O  O17  1  0.128411  0.128411  0.750000  1
  O  O18  1  0.575919  0.424081  0.000000  1
  O  O19  1  0.575919  0.424081  0.500000  1
  O  O20  1  0.556702  0.154585  0.750000  1
  O  O21  1  0.845415  0.443298  0.250000  1
  O  O22  1  0.871931  0.128069  0.000000  1
  O  O23  1  0.871931  0.128069  0.500000  1
