# generated using pymatgen
data_Li5Mn6(BO3)6
_symmetry_space_group_name_H-M   'P 1'
_cell_length_a   9.14852043
_cell_length_b   9.14852043
_cell_length_c   11.85011382
_cell_angle_alpha   65.67008552
_cell_angle_beta   114.32991448
_cell_angle_gamma   120.07879778
_symmetry_Int_Tables_number   1
_chemical_formula_structural   Li5Mn6(BO3)6
_chemical_formula_sum   'Li10 Mn12 B12 O36'
_cell_volume   754.99154246
_cell_formula_units_Z   2
loop_
 _symmetry_equiv_pos_site_id
 _symmetry_equiv_pos_as_xyz
  1  'x, y, z'
loop_
 _atom_site_type_symbol
 _atom_site_label
 _atom_site_symmetry_multiplicity
 _atom_site_fract_x
 _atom_site_fract_y
 _atom_site_fract_z
 _atom_site_occupancy
  Li  Li0  1  0.123740  0.404818  0.665818  1
  Li  Li1  1  0.083750  0.413637  0.913355  1
  Li  Li2  1  0.788163  0.734073  0.670413  1
  Li  Li3  1  0.586363  0.916250  0.413355  1
  Li  Li4  1  0.746423  0.740788  0.914589  1
  Li  Li5  1  0.462042  0.079873  0.664482  1
  Li  Li6  1  0.265927  0.211837  0.170413  1
  Li  Li7  1  0.259212  0.253577  0.414589  1
  Li  Li8  1  0.920127  0.537958  0.164482  1
  Li  Li9  1  0.595182  0.876260  0.165818  1
  Mn  Mn10  1  0.725849  0.405984  0.881513  1
  Mn  Mn11  1  0.104433  0.068090  0.634664  1
  Mn  Mn12  1  0.092714  0.095950  0.886181  1
  Mn  Mn13  1  0.581637  0.221830  0.127752  1
  Mn  Mn14  1  0.778170  0.418363  0.627752  1
  Mn  Mn15  1  0.594016  0.274151  0.381513  1
  Mn  Mn16  1  0.437099  0.748740  0.633608  1
  Mn  Mn17  1  0.223408  0.597045  0.383764  1
  Mn  Mn18  1  0.402955  0.776592  0.883764  1
  Mn  Mn19  1  0.931910  0.895567  0.134664  1
  Mn  Mn20  1  0.904050  0.907286  0.386181  1
  Mn  Mn21  1  0.251260  0.562901  0.133608  1
  B  B22  1  0.433235  0.406551  0.626765  1
  B  B23  1  0.409158  0.446099  0.877213  1
  B  B24  1  0.898564  0.249831  0.372621  1
  B  B25  1  0.063116  0.756711  0.876560  1
  B  B26  1  0.775878  0.076788  0.625908  1
  B  B27  1  0.750169  0.101436  0.872621  1
  B  B28  1  0.260314  0.893191  0.132472  1
  B  B29  1  0.243289  0.936884  0.376560  1
  B  B30  1  0.923212  0.224122  0.125908  1
  B  B31  1  0.106809  0.739686  0.632472  1
  B  B32  1  0.593449  0.566765  0.126765  1
  B  B33  1  0.553901  0.590842  0.377213  1
  O  O34  1  0.616026  0.482655  0.676681  1
  O  O35  1  0.510625  0.349221  0.929005  1
  O  O36  1  0.333779  0.502106  0.594357  1
  O  O37  1  0.231137  0.363454  0.862997  1
  O  O38  1  0.147435  0.937576  0.837788  1
  O  O39  1  0.999736  0.151502  0.422921  1
  O  O40  1  0.972044  0.425830  0.352088  1
  O  O41  1  0.828286  0.327164  0.087345  1
  O  O42  1  0.957429  0.158292  0.669921  1
  O  O43  1  0.713516  0.164781  0.339631  1
  O  O44  1  0.884876  0.677259  0.862991  1
  O  O45  1  0.835219  0.286484  0.839631  1
  O  O46  1  0.848498  0.000264  0.922921  1
  O  O47  1  0.694585  0.907056  0.615240  1
  O  O48  1  0.672836  0.171714  0.587345  1
  O  O49  1  0.517345  0.383974  0.176681  1
  O  O50  1  0.432154  0.963178  0.136097  1
  O  O51  1  0.370410  0.508301  0.339716  1
  O  O52  1  0.574170  0.027956  0.852088  1
  O  O53  1  0.491699  0.629590  0.839716  1
  O  O54  1  0.342865  0.839740  0.423131  1
  O  O55  1  0.322741  0.115124  0.362991  1
  O  O56  1  0.174933  0.004720  0.094326  1
  O  O57  1  0.353699  0.242589  0.607474  1
  O  O58  1  0.164649  0.712168  0.167275  1
  O  O59  1  0.092944  0.305415  0.115240  1
  O  O60  1  0.287832  0.835351  0.667275  1
  O  O61  1  0.062424  0.852565  0.337788  1
  O  O62  1  0.160260  0.657135  0.923131  1
  O  O63  1  0.036822  0.567846  0.636097  1
  O  O64  1  0.995280  0.825067  0.594326  1
  O  O65  1  0.841708  0.042571  0.169921  1
  O  O66  1  0.757411  0.646301  0.107474  1
  O  O67  1  0.650779  0.489375  0.429005  1
  O  O68  1  0.636546  0.768863  0.362997  1
  O  O69  1  0.497894  0.666221  0.094357  1
