# generated using pymatgen
data_Li3MnCr4O8
_symmetry_space_group_name_H-M   'P 1'
_cell_length_a   6.09592682
_cell_length_b   6.09592682
_cell_length_c   5.92213921
_cell_angle_alpha   61.20883119
_cell_angle_beta   118.79116881
_cell_angle_gamma   121.54547176
_symmetry_Int_Tables_number   1
_chemical_formula_structural   Li3MnCr4O8
_chemical_formula_sum   'Li3 Mn1 Cr4 O8'
_cell_volume   156.40091711
_cell_formula_units_Z   1
loop_
 _symmetry_equiv_pos_site_id
 _symmetry_equiv_pos_as_xyz
  1  'x, y, z'
loop_
 _atom_site_type_symbol
 _atom_site_label
 _atom_site_symmetry_multiplicity
 _atom_site_fract_x
 _atom_site_fract_y
 _atom_site_fract_z
 _atom_site_occupancy
  Li  Li0  1  0.000000  0.500000  0.500000  1
  Li  Li1  1  0.000000  0.000000  0.500000  1
  Li  Li2  1  0.500000  1.000000  0.500000  1
  Mn  Mn3  1  0.500000  0.500000  0.000000  1
  Cr  Cr4  1  0.500000  0.500000  0.500000  1
  Cr  Cr5  1  0.000000  0.000000  0.000000  1
  Cr  Cr6  1  0.000000  0.500000  0.000000  1
  Cr  Cr7  1  0.500000  0.000000  0.000000  1
  O  O8  1  0.746925  0.253075  0.230763  1
  O  O9  1  0.741388  0.774231  0.235801  1
  O  O10  1  0.225769  0.258612  0.235801  1
  O  O11  1  0.232002  0.767998  0.220019  1
  O  O12  1  0.767998  0.232002  0.779981  1
  O  O13  1  0.774231  0.741388  0.764199  1
  O  O14  1  0.258612  0.225769  0.764199  1
  O  O15  1  0.253075  0.746925  0.769237  1
