# generated using pymatgen
data_Cr3Cu(PO4)4
_symmetry_space_group_name_H-M   'P 1'
_cell_length_a   4.78674511
_cell_length_b   5.80609983
_cell_length_c   9.90410143
_cell_angle_alpha   90.00000000
_cell_angle_beta   90.90288848
_cell_angle_gamma   90.00000000
_symmetry_Int_Tables_number   1
_chemical_formula_structural   Cr3Cu(PO4)4
_chemical_formula_sum   'Cr3 Cu1 P4 O16'
_cell_volume   275.22377962
_cell_formula_units_Z   1
loop_
 _symmetry_equiv_pos_site_id
 _symmetry_equiv_pos_as_xyz
  1  'x, y, z'
loop_
 _atom_site_type_symbol
 _atom_site_label
 _atom_site_symmetry_multiplicity
 _atom_site_fract_x
 _atom_site_fract_y
 _atom_site_fract_z
 _atom_site_occupancy
  Cr  Cr0  1  0.471670  0.000000  0.228266  1
  Cr  Cr1  1  0.533402  0.500000  0.775764  1
  Cr  Cr2  1  0.968889  0.500000  0.269953  1
  Cu  Cu3  1  0.073324  0.000000  0.717661  1
  P  P4  1  0.090363  0.500000  0.595460  1
  P  P5  1  0.406949  0.500000  0.092396  1
  P  P6  1  0.574209  0.000000  0.905472  1
  P  P7  1  0.920817  0.000000  0.405982  1
  O  O8  1  0.161743  0.500000  0.446514  1
  O  O9  1  0.252003  0.299244  0.672284  1
  O  O10  1  0.252003  0.700756  0.672284  1
  O  O11  1  0.234795  0.000000  0.386317  1
  O  O12  1  0.255450  0.000000  0.890325  1
  O  O13  1  0.261464  0.294710  0.171530  1
  O  O14  1  0.261464  0.705290  0.171530  1
  O  O15  1  0.318400  0.500000  0.944737  1
  O  O16  1  0.661991  0.000000  0.054124  1
  O  O17  1  0.708807  0.788839  0.831684  1
  O  O18  1  0.708807  0.211161  0.831684  1
  O  O19  1  0.722900  0.500000  0.109958  1
  O  O20  1  0.778268  0.500000  0.617776  1
  O  O21  1  0.766900  0.795461  0.327126  1
  O  O22  1  0.766900  0.204539  0.327126  1
  O  O23  1  0.848480  0.000000  0.554045  1
