# generated using pymatgen
data_NaLuO2
_symmetry_space_group_name_H-M   'P 1'
_cell_length_a   5.88324871
_cell_length_b   5.88324871
_cell_length_c   5.88324871
_cell_angle_alpha   32.90924973
_cell_angle_beta   32.90924973
_cell_angle_gamma   32.90924973
_symmetry_Int_Tables_number   1
_chemical_formula_structural   NaLuO2
_chemical_formula_sum   'Na1 Lu1 O2'
_cell_volume   53.48490033
_cell_formula_units_Z   1
loop_
 _symmetry_equiv_pos_site_id
 _symmetry_equiv_pos_as_xyz
  1  'x, y, z'
loop_
 _atom_site_type_symbol
 _atom_site_label
 _atom_site_symmetry_multiplicity
 _atom_site_fract_x
 _atom_site_fract_y
 _atom_site_fract_z
 _atom_site_occupancy
  Na  Na0  1  0.000000  0.000000  0.000000  1
  Lu  Lu1  1  0.500000  0.500000  0.500000  1
  O  O2  1  0.235502  0.235502  0.235502  1
  O  O3  1  0.764498  0.764498  0.764498  1
