# generated using pymatgen
data_Ag2Hg5
_symmetry_space_group_name_H-M   'P 1'
_cell_length_a   10.26305833
_cell_length_b   10.26305833
_cell_length_c   3.09041858
_cell_angle_alpha   90.00000000
_cell_angle_beta   90.00000000
_cell_angle_gamma   90.00000000
_symmetry_Int_Tables_number   1
_chemical_formula_structural   Ag2Hg5
_chemical_formula_sum   'Ag4 Hg10'
_cell_volume   325.51492101
_cell_formula_units_Z   2
loop_
 _symmetry_equiv_pos_site_id
 _symmetry_equiv_pos_as_xyz
  1  'x, y, z'
loop_
 _atom_site_type_symbol
 _atom_site_label
 _atom_site_symmetry_multiplicity
 _atom_site_fract_x
 _atom_site_fract_y
 _atom_site_fract_z
 _atom_site_occupancy
  Ag  Ag0  1  0.680868  0.180868  0.500000  1
  Ag  Ag1  1  0.180868  0.319132  0.500000  1
  Ag  Ag2  1  0.819132  0.680868  0.500000  1
  Ag  Ag3  1  0.319132  0.819132  0.500000  1
  Hg  Hg4  1  0.500000  0.000000  0.000000  1
  Hg  Hg5  1  0.201301  0.062914  0.000000  1
  Hg  Hg6  1  0.937086  0.201301  0.000000  1
  Hg  Hg7  1  0.437086  0.298699  0.000000  1
  Hg  Hg8  1  0.701301  0.437086  0.000000  1
  Hg  Hg9  1  0.000000  0.500000  0.000000  1
  Hg  Hg10  1  0.298699  0.562914  0.000000  1
  Hg  Hg11  1  0.562914  0.701301  0.000000  1
  Hg  Hg12  1  0.062914  0.798699  0.000000  1
  Hg  Hg13  1  0.798699  0.937086  0.000000  1
