# generated using pymatgen
data_LiFeSiO4
_symmetry_space_group_name_H-M   'P 1'
_cell_length_a   5.13706808
_cell_length_b   10.27359200
_cell_length_c   13.45671286
_cell_angle_alpha   90.00000000
_cell_angle_beta   90.00000000
_cell_angle_gamma   90.00000000
_symmetry_Int_Tables_number   1
_chemical_formula_structural   LiFeSiO4
_chemical_formula_sum   'Li8 Fe8 Si8 O32'
_cell_volume   710.19338243
_cell_formula_units_Z   8
loop_
 _symmetry_equiv_pos_site_id
 _symmetry_equiv_pos_as_xyz
  1  'x, y, z'
loop_
 _atom_site_type_symbol
 _atom_site_label
 _atom_site_symmetry_multiplicity
 _atom_site_fract_x
 _atom_site_fract_y
 _atom_site_fract_z
 _atom_site_occupancy
  Li  Li0  1  0.909044  0.036160  0.496499  1
  Li  Li1  1  0.560284  0.215733  0.250666  1
  Li  Li2  1  0.560284  0.284267  0.750666  1
  Li  Li3  1  0.909044  0.463840  0.996499  1
  Li  Li4  1  0.090956  0.536160  0.496499  1
  Li  Li5  1  0.439716  0.715733  0.250666  1
  Li  Li6  1  0.439716  0.784267  0.750666  1
  Li  Li7  1  0.090956  0.963840  0.996499  1
  Fe  Fe8  1  0.069771  0.040477  0.246637  1
  Fe  Fe9  1  0.554855  0.213897  0.000063  1
  Fe  Fe10  1  0.554855  0.286103  0.500063  1
  Fe  Fe11  1  0.069771  0.459523  0.746637  1
  Fe  Fe12  1  0.930229  0.540477  0.246637  1
  Fe  Fe13  1  0.445145  0.713897  0.000063  1
  Fe  Fe14  1  0.445145  0.786103  0.500063  1
  Fe  Fe15  1  0.930229  0.959523  0.746637  1
  Si  Si16  1  0.425628  0.034530  0.624608  1
  Si  Si17  1  0.055638  0.212897  0.871968  1
  Si  Si18  1  0.055638  0.287103  0.371968  1
  Si  Si19  1  0.425628  0.465470  0.124608  1
  Si  Si20  1  0.574372  0.534530  0.624608  1
  Si  Si21  1  0.944362  0.712897  0.871968  1
  Si  Si22  1  0.944362  0.787103  0.371968  1
  Si  Si23  1  0.574372  0.965470  0.124608  1
  O  O24  1  0.890719  0.991381  0.128972  1
  O  O25  1  0.541761  0.962829  0.524317  1
  O  O26  1  0.434474  0.033206  0.222005  1
  O  O27  1  0.005870  0.055229  0.864347  1
  O  O28  1  0.489991  0.190810  0.619589  1
  O  O29  1  0.901451  0.232554  0.470967  1
  O  O30  1  0.943166  0.288218  0.772990  1
  O  O31  1  0.367491  0.248362  0.880768  1
  O  O32  1  0.367491  0.251638  0.380768  1
  O  O33  1  0.943166  0.211782  0.272990  1
  O  O34  1  0.901451  0.267446  0.970967  1
  O  O35  1  0.489991  0.309190  0.119589  1
  O  O36  1  0.005870  0.444771  0.364347  1
  O  O37  1  0.434474  0.466794  0.722005  1
  O  O38  1  0.541761  0.537171  0.024317  1
  O  O39  1  0.890719  0.508619  0.628972  1
  O  O40  1  0.109281  0.491381  0.128972  1
  O  O41  1  0.458239  0.462829  0.524317  1
  O  O42  1  0.565526  0.533206  0.222005  1
  O  O43  1  0.994130  0.555229  0.864347  1
  O  O44  1  0.510009  0.690810  0.619589  1
  O  O45  1  0.098549  0.732554  0.470967  1
  O  O46  1  0.056834  0.788218  0.772990  1
  O  O47  1  0.632509  0.748362  0.880768  1
  O  O48  1  0.632509  0.751638  0.380768  1
  O  O49  1  0.056834  0.711782  0.272990  1
  O  O50  1  0.098549  0.767446  0.970967  1
  O  O51  1  0.510009  0.809190  0.119589  1
  O  O52  1  0.994130  0.944771  0.364347  1
  O  O53  1  0.565526  0.966794  0.722005  1
  O  O54  1  0.458239  0.037171  0.024317  1
  O  O55  1  0.109281  0.008619  0.628972  1
