# generated using pymatgen
data_Ti4SnO10
_symmetry_space_group_name_H-M   'P 1'
_cell_length_a   4.69893246
_cell_length_b   5.58382805
_cell_length_c   12.98147446
_cell_angle_alpha   101.61849183
_cell_angle_beta   90.01391126
_cell_angle_gamma   90.02667511
_symmetry_Int_Tables_number   1
_chemical_formula_structural   Ti4SnO10
_chemical_formula_sum   'Ti8 Sn2 O20'
_cell_volume   333.62930975
_cell_formula_units_Z   2
loop_
 _symmetry_equiv_pos_site_id
 _symmetry_equiv_pos_as_xyz
  1  'x, y, z'
loop_
 _atom_site_type_symbol
 _atom_site_label
 _atom_site_symmetry_multiplicity
 _atom_site_fract_x
 _atom_site_fract_y
 _atom_site_fract_z
 _atom_site_occupancy
  Ti  Ti0  1  0.501685  0.090308  0.903387  1
  Ti  Ti1  1  0.500000  0.500000  0.500000  1
  Ti  Ti2  1  0.498315  0.909692  0.096613  1
  Ti  Ti3  1  0.995239  0.799257  0.700123  1
  Ti  Ti4  1  0.000000  0.000000  0.500000  1
  Ti  Ti5  1  0.004761  0.200743  0.299877  1
  Ti  Ti6  1  0.982422  0.403002  0.098282  1
  Ti  Ti7  1  0.017578  0.596998  0.901718  1
  Sn  Sn8  1  0.498569  0.699898  0.298608  1
  Sn  Sn9  1  0.501431  0.300102  0.701392  1
  O  O10  1  0.817502  0.546959  0.763170  1
  O  O11  1  0.802044  0.749789  0.563048  1
  O  O12  1  0.818113  0.943997  0.360654  1
  O  O13  1  0.801657  0.147862  0.160233  1
  O  O14  1  0.806233  0.344343  0.961087  1
  O  O15  1  0.698894  0.033429  0.766319  1
  O  O16  1  0.699842  0.245113  0.555205  1
  O  O17  1  0.698737  0.644925  0.153281  1
  O  O18  1  0.694236  0.846018  0.961798  1
  O  O19  1  0.699762  0.434754  0.364494  1
  O  O20  1  0.301263  0.355075  0.846719  1
  O  O21  1  0.301106  0.966571  0.233681  1
  O  O22  1  0.300238  0.565246  0.635506  1
  O  O23  1  0.300158  0.754887  0.444795  1
  O  O24  1  0.305764  0.153982  0.038202  1
  O  O25  1  0.197956  0.250211  0.436952  1
  O  O26  1  0.198343  0.852138  0.839767  1
  O  O27  1  0.193767  0.655657  0.038913  1
  O  O28  1  0.181887  0.056003  0.639346  1
  O  O29  1  0.182498  0.453041  0.236830  1
