# generated using pymatgen
data_Li6Sn3P8O29
_symmetry_space_group_name_H-M   'P 1'
_cell_length_a   9.88732508
_cell_length_b   9.88784141
_cell_length_c   14.05507932
_cell_angle_alpha   89.40832250
_cell_angle_beta   89.56631606
_cell_angle_gamma   60.37391767
_symmetry_Int_Tables_number   1
_chemical_formula_structural   Li6Sn3P8O29
_chemical_formula_sum   'Li12 Sn6 P16 O58'
_cell_volume   1194.38238106
_cell_formula_units_Z   2
loop_
 _symmetry_equiv_pos_site_id
 _symmetry_equiv_pos_as_xyz
  1  'x, y, z'
loop_
 _atom_site_type_symbol
 _atom_site_label
 _atom_site_symmetry_multiplicity
 _atom_site_fract_x
 _atom_site_fract_y
 _atom_site_fract_z
 _atom_site_occupancy
  Li  Li0  1  0.016109  0.038087  0.505628  1
  Li  Li1  1  0.003226  0.003031  0.004295  1
  Li  Li2  1  0.089314  0.681097  0.058242  1
  Li  Li3  1  0.328810  0.326117  0.887982  1
  Li  Li4  1  0.232209  0.666110  0.556904  1
  Li  Li5  1  0.662144  0.105106  0.557261  1
  Li  Li6  1  0.339668  0.768055  0.946055  1
  Li  Li7  1  0.676375  0.230318  0.058489  1
  Li  Li8  1  0.330813  0.904064  0.440534  1
  Li  Li9  1  0.770115  0.334549  0.443983  1
  Li  Li10  1  0.896288  0.335756  0.942426  1
  Li  Li11  1  0.898042  0.771854  0.444056  1
  Sn  Sn12  1  0.000318  0.432511  0.745798  1
  Sn  Sn13  1  0.997950  0.561902  0.249593  1
  Sn  Sn14  1  0.434462  0.001684  0.244873  1
  Sn  Sn15  1  0.566999  0.994306  0.751877  1
  Sn  Sn16  1  0.437601  0.566016  0.748716  1
  Sn  Sn17  1  0.564897  0.436023  0.251723  1
  P  P18  1  0.082227  0.216158  0.339231  1
  P  P19  1  0.217031  0.083206  0.840972  1
  P  P20  1  0.089427  0.687056  0.847336  1
  P  P21  1  0.331839  0.337705  0.124310  1
  P  P22  1  0.337188  0.332516  0.624443  1
  P  P23  1  0.222978  0.689114  0.343947  1
  P  P24  1  0.308194  0.777681  0.156425  1
  P  P25  1  0.690295  0.082273  0.346764  1
  P  P26  1  0.305757  0.920059  0.650511  1
  P  P27  1  0.684962  0.221740  0.844268  1
  P  P28  1  0.776241  0.308350  0.655683  1
  P  P29  1  0.670727  0.661441  0.876908  1
  P  P30  1  0.664574  0.669328  0.378194  1
  P  P31  1  0.915930  0.306419  0.150846  1
  P  P32  1  0.782508  0.919069  0.157604  1
  P  P33  1  0.918286  0.775932  0.658257  1
  O  O34  1  0.013001  0.198660  0.239178  1
  O  O35  1  0.987796  0.221070  0.060275  1
  O  O36  1  0.075191  0.250036  0.844948  1
  O  O37  1  0.200782  0.017167  0.739651  1
  O  O38  1  0.218155  0.994608  0.560828  1
  O  O39  1  0.250055  0.076226  0.342259  1
  O  O40  1  0.082650  0.371439  0.337850  1
  O  O41  1  0.205447  0.312684  0.673535  1
  O  O42  1  0.108934  0.521269  0.836013  1
  O  O43  1  0.006859  0.780346  0.571155  1
  O  O44  1  0.002938  0.787283  0.753105  1
  O  O45  1  0.077047  0.668672  0.346328  1
  O  O46  1  0.312229  0.204665  0.168909  1
  O  O47  1  0.366541  0.099548  0.838049  1
  O  O48  1  0.191899  0.496244  0.161360  1
  O  O49  1  0.334465  0.340626  0.017302  1
  O  O50  1  0.339786  0.336597  0.518852  1
  O  O51  1  0.318845  0.491763  0.663937  1
  O  O52  1  0.531612  0.092769  0.334881  1
  O  O53  1  0.496124  0.193057  0.665136  1
  O  O54  1  0.254948  0.668809  0.845213  1
  O  O55  1  0.204198  0.790848  0.249607  1
  O  O56  1  0.217488  0.780618  0.069046  1
  O  O57  1  0.222222  0.779277  0.430467  1
  O  O58  1  0.370548  0.529732  0.335754  1
  O  O59  1  0.489540  0.321495  0.161431  1
  O  O60  1  0.324280  0.754396  0.657613  1
  O  O61  1  0.519334  0.366862  0.834799  1
  O  O62  1  0.667540  0.076277  0.846790  1
  O  O63  1  0.208535  0.984511  0.919229  1
  O  O64  1  0.800923  0.011355  0.078408  1
  O  O65  1  0.799797  0.990519  0.258126  1
  O  O66  1  0.327480  0.922031  0.156131  1
  O  O67  1  0.466230  0.628150  0.164949  1
  O  O68  1  0.671680  0.247954  0.346544  1
  O  O69  1  0.512297  0.678226  0.837072  1
  O  O70  1  0.627182  0.467495  0.661058  1
  O  O71  1  0.781093  0.216146  0.568723  1
  O  O72  1  0.771769  0.228971  0.930215  1
  O  O73  1  0.784812  0.209765  0.750347  1
  O  O74  1  0.749413  0.326844  0.159092  1
  O  O75  1  0.508732  0.806090  0.335641  1
  O  O76  1  0.465450  0.909831  0.659862  1
  O  O77  1  0.684354  0.509861  0.339622  1
  O  O78  1  0.667814  0.656872  0.982482  1
  O  O79  1  0.663905  0.670845  0.484414  1
  O  O80  1  0.809604  0.503631  0.836354  1
  O  O81  1  0.629812  0.914040  0.160830  1
  O  O82  1  0.687666  0.795356  0.828733  1
  O  O83  1  0.922198  0.324743  0.656200  1
  O  O84  1  0.987234  0.200282  0.417967  1
  O  O85  1  0.904496  0.466742  0.160754  1
  O  O86  1  0.804503  0.686807  0.336495  1
  O  O87  1  0.904851  0.627908  0.663655  1
  O  O88  1  0.754799  0.922716  0.657809  1
  O  O89  1  0.774595  0.998291  0.436826  1
  O  O90  1  0.923261  0.750860  0.157139  1
  O  O91  1  0.006124  0.773283  0.934646  1
