# generated using pymatgen
data_Mn2Fe3P6WO24
_symmetry_space_group_name_H-M   'P 1'
_cell_length_a   8.68598981
_cell_length_b   8.68598981
_cell_length_c   8.68598981
_cell_angle_alpha   60.04384076
_cell_angle_beta   60.04384076
_cell_angle_gamma   60.04384076
_symmetry_Int_Tables_number   1
_chemical_formula_structural   Mn2Fe3P6WO24
_chemical_formula_sum   'Mn2 Fe3 P6 W1 O24'
_cell_volume   463.84651114
_cell_formula_units_Z   1
loop_
 _symmetry_equiv_pos_site_id
 _symmetry_equiv_pos_as_xyz
  1  'x, y, z'
loop_
 _atom_site_type_symbol
 _atom_site_label
 _atom_site_symmetry_multiplicity
 _atom_site_fract_x
 _atom_site_fract_y
 _atom_site_fract_z
 _atom_site_occupancy
  Mn  Mn0  1  0.995469  0.995469  0.995469  1
  Mn  Mn1  1  0.499414  0.499414  0.499414  1
  Fe  Fe2  1  0.644721  0.644721  0.644721  1
  Fe  Fe3  1  0.853787  0.853787  0.853787  1
  Fe  Fe4  1  0.355331  0.355331  0.355331  1
  P  P5  1  0.955624  0.253299  0.547194  1
  P  P6  1  0.547194  0.955624  0.253299  1
  P  P7  1  0.253299  0.547194  0.955624  1
  P  P8  1  0.745390  0.462250  0.042943  1
  P  P9  1  0.462250  0.042943  0.745390  1
  P  P10  1  0.042943  0.745390  0.462250  1
  W  W11  1  0.143678  0.143678  0.143678  1
  O  O12  1  0.502430  0.112557  0.315083  1
  O  O13  1  0.315083  0.502430  0.112557  1
  O  O14  1  0.112557  0.315083  0.502430  1
  O  O15  1  0.941105  0.087050  0.735355  1
  O  O16  1  0.999109  0.184885  0.387211  1
  O  O17  1  0.763799  0.413499  0.553715  1
  O  O18  1  0.735355  0.941105  0.087050  1
  O  O19  1  0.553715  0.763799  0.413499  1
  O  O20  1  0.813105  0.612717  0.004283  1
  O  O21  1  0.413499  0.553715  0.763799  1
  O  O22  1  0.912750  0.262484  0.065039  1
  O  O23  1  0.612717  0.004283  0.813105  1
  O  O24  1  0.387211  0.999109  0.184885  1
  O  O25  1  0.087050  0.735355  0.941105  1
  O  O26  1  0.588359  0.438392  0.237698  1
  O  O27  1  0.184885  0.387211  0.999109  1
  O  O28  1  0.438392  0.237698  0.588359  1
  O  O29  1  0.262484  0.065039  0.912750  1
  O  O30  1  0.237698  0.588359  0.438392  1
  O  O31  1  0.004283  0.813105  0.612717  1
  O  O32  1  0.065039  0.912750  0.262484  1
  O  O33  1  0.883350  0.696255  0.490658  1
  O  O34  1  0.696255  0.490658  0.883350  1
  O  O35  1  0.490658  0.883350  0.696255  1
