# generated using pymatgen
data_Li3V5O10
_symmetry_space_group_name_H-M   'P 1'
_cell_length_a   7.94438172
_cell_length_b   7.94438172
_cell_length_c   10.05100547
_cell_angle_alpha   86.60288775
_cell_angle_beta   93.39711225
_cell_angle_gamma   37.37385336
_symmetry_Int_Tables_number   1
_chemical_formula_structural   Li3V5O10
_chemical_formula_sum   'Li6 V10 O20'
_cell_volume   378.41676817
_cell_formula_units_Z   2
loop_
 _symmetry_equiv_pos_site_id
 _symmetry_equiv_pos_as_xyz
  1  'x, y, z'
loop_
 _atom_site_type_symbol
 _atom_site_label
 _atom_site_symmetry_multiplicity
 _atom_site_fract_x
 _atom_site_fract_y
 _atom_site_fract_z
 _atom_site_occupancy
  Li  Li0  1  0.352993  0.352993  0.250000  1
  Li  Li1  1  0.448658  0.448658  0.750000  1
  Li  Li2  1  0.848871  0.848871  0.750000  1
  Li  Li3  1  0.151129  0.151129  0.250000  1
  Li  Li4  1  0.551342  0.551342  0.250000  1
  Li  Li5  1  0.647007  0.647007  0.750000  1
  V  V6  1  0.601468  0.096800  0.007422  1
  V  V7  1  0.715120  0.190100  0.501849  1
  V  V8  1  0.809900  0.284880  0.001849  1
  V  V9  1  0.190100  0.715120  0.998151  1
  V  V10  1  0.096800  0.601468  0.492578  1
  V  V11  1  0.903200  0.398532  0.507422  1
  V  V12  1  0.398532  0.903200  0.992578  1
  V  V13  1  0.284880  0.809900  0.498151  1
  V  V14  1  0.500000  1.000000  0.500000  1
  V  V15  1  0.000000  0.500000  0.000000  1
  O  O16  1  0.224199  0.481015  0.894093  1
  O  O17  1  0.481015  0.224199  0.605907  1
  O  O18  1  0.655270  0.441969  0.608607  1
  O  O19  1  0.719853  0.982675  0.395607  1
  O  O20  1  0.558031  0.344730  0.108607  1
  O  O21  1  0.817744  0.072333  0.889547  1
  O  O22  1  0.072333  0.817744  0.610453  1
  O  O23  1  0.017325  0.280147  0.895607  1
  O  O24  1  0.982675  0.719853  0.104393  1
  O  O25  1  0.927667  0.182256  0.389547  1
  O  O26  1  0.182256  0.927667  0.110453  1
  O  O27  1  0.280147  0.017325  0.604393  1
  O  O28  1  0.344730  0.558031  0.391393  1
  O  O29  1  0.441969  0.655270  0.891393  1
  O  O30  1  0.151285  0.348161  0.391710  1
  O  O31  1  0.348161  0.151285  0.108290  1
  O  O32  1  0.518985  0.775801  0.394093  1
  O  O33  1  0.651839  0.848715  0.891710  1
  O  O34  1  0.775801  0.518985  0.105907  1
  O  O35  1  0.848715  0.651839  0.608290  1
