# generated using pymatgen
data_LiVF5
_symmetry_space_group_name_H-M   'P 1'
_cell_length_a   5.77766124
_cell_length_b   7.71136520
_cell_length_c   17.28556681
_cell_angle_alpha   90.00000000
_cell_angle_beta   90.00000000
_cell_angle_gamma   90.00000000
_symmetry_Int_Tables_number   1
_chemical_formula_structural   LiVF5
_chemical_formula_sum   'Li8 V8 F40'
_cell_volume   770.13519447
_cell_formula_units_Z   8
loop_
 _symmetry_equiv_pos_site_id
 _symmetry_equiv_pos_as_xyz
  1  'x, y, z'
loop_
 _atom_site_type_symbol
 _atom_site_label
 _atom_site_symmetry_multiplicity
 _atom_site_fract_x
 _atom_site_fract_y
 _atom_site_fract_z
 _atom_site_occupancy
  Li  Li0  1  0.734895  0.381409  0.354076  1
  Li  Li1  1  0.734895  0.881409  0.145924  1
  Li  Li2  1  0.540710  0.264742  0.969376  1
  Li  Li3  1  0.540710  0.764742  0.530624  1
  Li  Li4  1  0.234895  0.618591  0.645924  1
  Li  Li5  1  0.234895  0.118591  0.854076  1
  Li  Li6  1  0.040710  0.235258  0.469376  1
  Li  Li7  1  0.040710  0.735258  0.030624  1
  V  V8  1  0.744162  0.438685  0.144081  1
  V  V9  1  0.747509  0.390848  0.625579  1
  V  V10  1  0.744162  0.938685  0.355919  1
  V  V11  1  0.747509  0.890848  0.874421  1
  V  V12  1  0.247509  0.109152  0.125579  1
  V  V13  1  0.244162  0.061315  0.644081  1
  V  V14  1  0.247509  0.609152  0.374421  1
  V  V15  1  0.244162  0.561315  0.855919  1
  F  F16  1  0.998258  0.736050  0.836373  1
  F  F17  1  0.998258  0.236050  0.663627  1
  F  F18  1  0.982497  0.535982  0.587961  1
  F  F19  1  0.982497  0.035982  0.912039  1
  F  F20  1  0.968226  0.107075  0.378323  1
  F  F21  1  0.968226  0.607075  0.121677  1
  F  F22  1  0.762765  0.263479  0.534722  1
  F  F23  1  0.748495  0.990464  0.782957  1
  F  F24  1  0.746459  0.359527  0.043406  1
  F  F25  1  0.753838  0.464330  0.249370  1
  F  F26  1  0.746459  0.859527  0.456594  1
  F  F27  1  0.753838  0.964330  0.250630  1
  F  F28  1  0.748495  0.490464  0.717043  1
  F  F29  1  0.762765  0.763479  0.965278  1
  F  F30  1  0.531542  0.109947  0.368607  1
  F  F31  1  0.531542  0.609947  0.131393  1
  F  F32  1  0.514790  0.545892  0.587663  1
  F  F33  1  0.514790  0.045892  0.912337  1
  F  F34  1  0.494308  0.737828  0.839800  1
  F  F35  1  0.494308  0.237828  0.660200  1
  F  F36  1  0.498258  0.263950  0.163627  1
  F  F37  1  0.498258  0.763950  0.336373  1
  F  F38  1  0.482497  0.464018  0.412039  1
  F  F39  1  0.482497  0.964018  0.087961  1
  F  F40  1  0.468226  0.892925  0.621677  1
  F  F41  1  0.468226  0.392925  0.878323  1
  F  F42  1  0.246459  0.140473  0.543406  1
  F  F43  1  0.262765  0.236521  0.034722  1
  F  F44  1  0.253838  0.035670  0.749370  1
  F  F45  1  0.248495  0.509536  0.282957  1
  F  F46  1  0.262765  0.736521  0.465278  1
  F  F47  1  0.253838  0.535670  0.750630  1
  F  F48  1  0.248495  0.009536  0.217043  1
  F  F49  1  0.246459  0.640473  0.956594  1
  F  F50  1  0.031542  0.890053  0.631393  1
  F  F51  1  0.031542  0.390053  0.868607  1
  F  F52  1  0.014790  0.454108  0.412337  1
  F  F53  1  0.014790  0.954108  0.087663  1
  F  F54  1  0.994308  0.262172  0.160200  1
  F  F55  1  0.994308  0.762172  0.339800  1
