# generated using pymatgen
data_KLiMnO2
_symmetry_space_group_name_H-M   'P 1'
_cell_length_a   6.44999093
_cell_length_b   6.44999093
_cell_length_c   6.99993449
_cell_angle_alpha   90.00000000
_cell_angle_beta   90.00000000
_cell_angle_gamma   91.69871564
_symmetry_Int_Tables_number   1
_chemical_formula_structural   KLiMnO2
_chemical_formula_sum   'K4 Li4 Mn4 O8'
_cell_volume   291.08597437
_cell_formula_units_Z   4
loop_
 _symmetry_equiv_pos_site_id
 _symmetry_equiv_pos_as_xyz
  1  'x, y, z'
loop_
 _atom_site_type_symbol
 _atom_site_label
 _atom_site_symmetry_multiplicity
 _atom_site_fract_x
 _atom_site_fract_y
 _atom_site_fract_z
 _atom_site_occupancy
  K  K0  1  0.500000  0.000000  1.000000  1
  K  K1  1  0.000000  0.000000  0.250000  1
  K  K2  1  0.000000  0.000000  0.750000  1
  K  K3  1  0.000000  0.500000  0.500000  1
  Li  Li4  1  0.359725  0.640275  0.250000  1
  Li  Li5  1  0.640275  0.359725  0.750000  1
  Li  Li6  1  0.359725  0.640275  0.750000  1
  Li  Li7  1  0.640275  0.359725  0.250000  1
  Mn  Mn8  1  0.171022  0.377869  1.000000  1
  Mn  Mn9  1  0.377869  0.171022  0.500000  1
  Mn  Mn10  1  0.828978  0.622131  0.000000  1
  Mn  Mn11  1  0.622131  0.828978  0.500000  1
  O  O12  1  0.323529  0.323529  0.250000  1
  O  O13  1  0.323529  0.323529  0.750000  1
  O  O14  1  0.702248  0.159462  0.500000  1
  O  O15  1  0.159462  0.702248  1.000000  1
  O  O16  1  0.840538  0.297752  0.000000  1
  O  O17  1  0.297752  0.840538  0.500000  1
  O  O18  1  0.676471  0.676471  0.750000  1
  O  O19  1  0.676471  0.676471  0.250000  1
