# generated using pymatgen
data_La4Bi2O9
_symmetry_space_group_name_H-M   'P 1'
_cell_length_a   5.84895706
_cell_length_b   5.85465823
_cell_length_c   9.23622492
_cell_angle_alpha   107.93200213
_cell_angle_beta   93.52215944
_cell_angle_gamma   91.30188864
_symmetry_Int_Tables_number   1
_chemical_formula_structural   La4Bi2O9
_chemical_formula_sum   'La4 Bi2 O9'
_cell_volume   300.06062374
_cell_formula_units_Z   1
loop_
 _symmetry_equiv_pos_site_id
 _symmetry_equiv_pos_as_xyz
  1  'x, y, z'
loop_
 _atom_site_type_symbol
 _atom_site_label
 _atom_site_symmetry_multiplicity
 _atom_site_fract_x
 _atom_site_fract_y
 _atom_site_fract_z
 _atom_site_occupancy
  La  La0  1  0.479866  0.510131  0.001440  1
  La  La1  1  0.015531  0.652399  0.294945  1
  La  La2  1  0.505320  0.826014  0.638182  1
  La  La3  1  0.457530  0.149111  0.283016  1
  Bi  Bi4  1  0.927874  0.996487  0.017087  1
  Bi  Bi5  1  0.075889  0.243197  0.607407  1
  O  O6  1  0.740078  0.852264  0.167705  1
  O  O7  1  0.233379  0.338126  0.147000  1
  O  O8  1  0.802980  0.932638  0.519565  1
  O  O9  1  0.728569  0.334462  0.152469  1
  O  O10  1  0.273829  0.482851  0.491227  1
  O  O11  1  0.218854  0.815826  0.112329  1
  O  O12  1  0.267892  0.978778  0.453805  1
  O  O13  1  0.682719  0.710896  0.837554  1
  O  O14  1  0.318687  0.184156  0.780936  1
