# generated using pymatgen
data_Mn2OF2
_symmetry_space_group_name_H-M   'P 1'
_cell_length_a   5.49509835
_cell_length_b   5.49509835
_cell_length_c   5.93262045
_cell_angle_alpha   61.55127550
_cell_angle_beta   118.44872450
_cell_angle_gamma   115.53046049
_symmetry_Int_Tables_number   1
_chemical_formula_structural   Mn2OF2
_chemical_formula_sum   'Mn4 O2 F4'
_cell_volume   133.57750342
_cell_formula_units_Z   2
loop_
 _symmetry_equiv_pos_site_id
 _symmetry_equiv_pos_as_xyz
  1  'x, y, z'
loop_
 _atom_site_type_symbol
 _atom_site_label
 _atom_site_symmetry_multiplicity
 _atom_site_fract_x
 _atom_site_fract_y
 _atom_site_fract_z
 _atom_site_occupancy
  Mn  Mn0  1  0.070295  0.307644  0.416524  1
  Mn  Mn1  1  0.692356  0.929705  0.916524  1
  Mn  Mn2  1  0.359284  0.162928  0.059390  1
  Mn  Mn3  1  0.837072  0.640716  0.559390  1
  O  O4  1  0.724848  0.019104  0.242953  1
  O  O5  1  0.980896  0.275152  0.742953  1
  F  F6  1  0.595516  0.574643  0.794868  1
  F  F7  1  0.425357  0.404484  0.294868  1
  F  F8  1  0.063029  0.748654  0.236263  1
  F  F9  1  0.251346  0.936971  0.736263  1
