# generated using pymatgen
data_Li3Fe2(PO5)2
_symmetry_space_group_name_H-M   'P 1'
_cell_length_a   6.44122124
_cell_length_b   6.44122124
_cell_length_c   8.69118408
_cell_angle_alpha   90.00000000
_cell_angle_beta   90.00000000
_cell_angle_gamma   90.70848319
_symmetry_Int_Tables_number   1
_chemical_formula_structural   Li3Fe2(PO5)2
_chemical_formula_sum   'Li6 Fe4 P4 O20'
_cell_volume   360.56384627
_cell_formula_units_Z   2
loop_
 _symmetry_equiv_pos_site_id
 _symmetry_equiv_pos_as_xyz
  1  'x, y, z'
loop_
 _atom_site_type_symbol
 _atom_site_label
 _atom_site_symmetry_multiplicity
 _atom_site_fract_x
 _atom_site_fract_y
 _atom_site_fract_z
 _atom_site_occupancy
  Li  Li0  1  0.000000  0.000000  0.000000  1
  Li  Li1  1  0.500000  0.000000  0.000000  1
  Li  Li2  1  0.500000  0.000000  0.500000  1
  Li  Li3  1  0.500000  0.500000  0.500000  1
  Li  Li4  1  0.000000  0.500000  1.000000  1
  Li  Li5  1  0.000000  0.500000  0.500000  1
  Fe  Fe6  1  0.742612  0.742612  0.797493  1
  Fe  Fe7  1  0.757388  0.757388  0.297493  1
  Fe  Fe8  1  0.242612  0.242612  0.702507  1
  Fe  Fe9  1  0.257388  0.257388  0.202507  1
  P  P10  1  0.252721  0.752721  0.750000  1
  P  P11  1  0.247279  0.747279  0.250000  1
  P  P12  1  0.752721  0.252721  0.750000  1
  P  P13  1  0.747279  0.247279  0.250000  1
  O  O14  1  0.444558  0.758863  0.857270  1
  O  O15  1  0.054867  0.752727  0.851979  1
  O  O16  1  0.773925  0.773925  0.095674  1
  O  O17  1  0.445133  0.747273  0.351979  1
  O  O18  1  0.055442  0.741137  0.357270  1
  O  O19  1  0.726075  0.726075  0.595674  1
  O  O20  1  0.258863  0.944558  0.642730  1
  O  O21  1  0.247273  0.945133  0.148021  1
  O  O22  1  0.752727  0.054867  0.851979  1
  O  O23  1  0.741137  0.055442  0.357270  1
  O  O24  1  0.555442  0.241137  0.142730  1
  O  O25  1  0.554867  0.252727  0.648021  1
  O  O26  1  0.273925  0.273925  0.404326  1
  O  O27  1  0.226075  0.226075  0.904326  1
  O  O28  1  0.945133  0.247273  0.148021  1
  O  O29  1  0.944558  0.258863  0.642730  1
  O  O30  1  0.758863  0.444558  0.857270  1
  O  O31  1  0.747273  0.445133  0.351979  1
  O  O32  1  0.241137  0.555442  0.142730  1
  O  O33  1  0.252727  0.554867  0.648021  1
