# generated using pymatgen
data_Li4Ti2Fe3O10
_symmetry_space_group_name_H-M   'P 1'
_cell_length_a   6.68051140
_cell_length_b   7.93492206
_cell_length_c   7.95775893
_cell_angle_alpha   95.87133998
_cell_angle_beta   114.24667257
_cell_angle_gamma   90.31119354
_symmetry_Int_Tables_number   1
_chemical_formula_structural   Li4Ti2Fe3O10
_chemical_formula_sum   'Li8 Ti4 Fe6 O20'
_cell_volume   382.08227135
_cell_formula_units_Z   2
loop_
 _symmetry_equiv_pos_site_id
 _symmetry_equiv_pos_as_xyz
  1  'x, y, z'
loop_
 _atom_site_type_symbol
 _atom_site_label
 _atom_site_symmetry_multiplicity
 _atom_site_fract_x
 _atom_site_fract_y
 _atom_site_fract_z
 _atom_site_occupancy
  Li  Li0  1  0.403863  0.905430  0.595453  1
  Li  Li1  1  0.310287  0.796176  0.208879  1
  Li  Li2  1  0.758869  0.745465  0.509364  1
  Li  Li3  1  0.241131  0.254535  0.490636  1
  Li  Li4  1  0.689713  0.203824  0.791121  1
  Li  Li5  1  0.596137  0.094570  0.404547  1
  Li  Li6  1  0.912999  0.414689  0.596593  1
  Li  Li7  1  0.087001  0.585311  0.403407  1
  Ti  Ti8  1  0.042648  0.042240  0.691323  1
  Ti  Ti9  1  0.957352  0.957760  0.308677  1
  Ti  Ti10  1  0.523377  0.560587  0.687825  1
  Ti  Ti11  1  0.476623  0.439413  0.312175  1
  Fe  Fe12  1  0.859591  0.843597  0.893186  1
  Fe  Fe13  1  0.140409  0.156403  0.106814  1
  Fe  Fe14  1  0.500000  0.000000  0.000000  1
  Fe  Fe15  1  0.000000  0.500000  0.000000  1
  Fe  Fe16  1  0.347437  0.354346  0.891877  1
  Fe  Fe17  1  0.652563  0.645654  0.108123  1
  O  O18  1  0.842045  0.057121  0.060181  1
  O  O19  1  0.247782  0.026311  0.334124  1
  O  O20  1  0.752218  0.973689  0.665876  1
  O  O21  1  0.638918  0.877464  0.239184  1
  O  O22  1  0.157955  0.942879  0.939819  1
  O  O23  1  0.065316  0.849376  0.532800  1
  O  O24  1  0.150874  0.382477  0.241770  1
  O  O25  1  0.547354  0.767620  0.851930  1
  O  O26  1  0.569988  0.343499  0.537925  1
  O  O27  1  0.452646  0.232380  0.148070  1
  O  O28  1  0.038651  0.265749  0.851148  1
  O  O29  1  0.934684  0.150624  0.467200  1
  O  O30  1  0.961349  0.734251  0.148852  1
  O  O31  1  0.361082  0.122536  0.760816  1
  O  O32  1  0.430012  0.656501  0.462075  1
  O  O33  1  0.350296  0.562431  0.071546  1
  O  O34  1  0.849126  0.617523  0.758230  1
  O  O35  1  0.752805  0.534861  0.341899  1
  O  O36  1  0.247195  0.465139  0.658101  1
  O  O37  1  0.649704  0.437569  0.928454  1
