# generated using pymatgen
data_Zr2O
_symmetry_space_group_name_H-M   'P 1'
_cell_length_a   5.68272999
_cell_length_b   5.68272999
_cell_length_c   10.52538925
_cell_angle_alpha   90.00000000
_cell_angle_beta   90.00000000
_cell_angle_gamma   120.00000000
_symmetry_Int_Tables_number   1
_chemical_formula_structural   Zr2O
_chemical_formula_sum   'Zr12 O6'
_cell_volume   294.36274290
_cell_formula_units_Z   6
loop_
 _symmetry_equiv_pos_site_id
 _symmetry_equiv_pos_as_xyz
  1  'x, y, z'
loop_
 _atom_site_type_symbol
 _atom_site_label
 _atom_site_symmetry_multiplicity
 _atom_site_fract_x
 _atom_site_fract_y
 _atom_site_fract_z
 _atom_site_occupancy
  Zr  Zr0  1  0.333857  0.325231  0.871199  1
  Zr  Zr1  1  0.333104  0.333545  0.373785  1
  Zr  Zr2  1  0.333104  0.999559  0.626215  1
  Zr  Zr3  1  0.333857  0.008625  0.128801  1
  Zr  Zr4  1  0.666455  0.999559  0.373785  1
  Zr  Zr5  1  0.674769  0.008625  0.871199  1
  Zr  Zr6  1  0.666455  0.666896  0.626215  1
  Zr  Zr7  1  0.674769  0.666143  0.128801  1
  Zr  Zr8  1  0.000441  0.333545  0.626215  1
  Zr  Zr9  1  0.991375  0.325231  0.128801  1
  Zr  Zr10  1  0.991375  0.666143  0.871199  1
  Zr  Zr11  1  0.000441  0.666896  0.373785  1
  O  O12  1  0.666667  0.333333  0.742801  1
  O  O13  1  0.666667  0.333333  0.257199  1
  O  O14  1  0.666667  0.333333  0.000000  1
  O  O15  1  0.333333  0.666667  0.500000  1
  O  O16  1  0.000000  0.000000  0.500000  1
  O  O17  1  0.000000  0.000000  0.000000  1
