# generated using pymatgen
data_Ba4Tm6O13
_symmetry_space_group_name_H-M   'P 1'
_cell_length_a   12.66426987
_cell_length_b   12.66426987
_cell_length_c   12.66426987
_cell_angle_alpha   152.28931587
_cell_angle_beta   121.72011396
_cell_angle_gamma   65.72747733
_symmetry_Int_Tables_number   1
_chemical_formula_structural   Ba4Tm6O13
_chemical_formula_sum   'Ba8 Tm12 O26'
_cell_volume   795.78147157
_cell_formula_units_Z   2
loop_
 _symmetry_equiv_pos_site_id
 _symmetry_equiv_pos_as_xyz
  1  'x, y, z'
loop_
 _atom_site_type_symbol
 _atom_site_label
 _atom_site_symmetry_multiplicity
 _atom_site_fract_x
 _atom_site_fract_y
 _atom_site_fract_z
 _atom_site_occupancy
  Ba  Ba0  1  0.292718  0.158320  0.132980  1
  Ba  Ba1  1  0.453836  0.334001  0.119999  1
  Ba  Ba2  1  0.214002  0.834001  0.380165  1
  Ba  Ba3  1  0.025340  0.658320  0.365601  1
  Ba  Ba4  1  0.974660  0.340262  0.632980  1
  Ba  Ba5  1  0.785998  0.166163  0.619999  1
  Ba  Ba6  1  0.546164  0.666163  0.880165  1
  Ba  Ba7  1  0.707282  0.840262  0.865601  1
  Tm  Tm8  1  0.836356  0.389726  0.299002  1
  Tm  Tm9  1  0.368168  0.744900  0.624481  1
  Tm  Tm10  1  0.554611  0.939423  0.593940  1
  Tm  Tm11  1  0.345483  0.439423  0.884812  1
  Tm  Tm12  1  0.120419  0.244900  0.876732  1
  Tm  Tm13  1  0.909276  0.962646  0.799002  1
  Tm  Tm14  1  0.090724  0.889726  0.053370  1
  Tm  Tm15  1  0.879581  0.756314  0.124481  1
  Tm  Tm16  1  0.654517  0.539329  0.093940  1
  Tm  Tm17  1  0.445389  0.039329  0.384812  1
  Tm  Tm18  1  0.631832  0.256314  0.376732  1
  Tm  Tm19  1  0.163644  0.462646  0.553370  1
  O  O20  1  0.000000  0.689559  0.689559  1
  O  O21  1  0.000000  0.189559  0.189559  1
  O  O22  1  0.735777  0.351376  0.353694  1
  O  O23  1  0.743066  0.089984  0.893623  1
  O  O24  1  0.503626  0.503879  0.498185  1
  O  O25  1  0.473255  0.877606  0.646079  1
  O  O26  1  0.516025  0.585305  0.201777  1
  O  O27  1  0.242566  0.485818  0.247736  1
  O  O28  1  0.238082  0.985818  0.743252  1
  O  O29  1  0.383528  0.085305  0.569279  1
  O  O30  1  0.002318  0.117917  0.853694  1
  O  O31  1  0.231527  0.377606  0.904351  1
  O  O32  1  0.803639  0.650557  0.393623  1
  O  O33  1  0.005693  0.003879  0.500253  1
  O  O34  1  0.994307  0.494560  0.998185  1
  O  O35  1  0.196361  0.589984  0.846918  1
  O  O36  1  0.768473  0.672824  0.146079  1
  O  O37  1  0.997682  0.851376  0.115599  1
  O  O38  1  0.616472  0.185752  0.701777  1
  O  O39  1  0.761918  0.505170  0.747736  1
  O  O40  1  0.757434  0.005170  0.243252  1
  O  O41  1  0.483975  0.685752  0.069279  1
  O  O42  1  0.526745  0.172824  0.404351  1
  O  O43  1  0.496374  0.994560  0.000253  1
  O  O44  1  0.256934  0.150557  0.346918  1
  O  O45  1  0.264223  0.617917  0.615599  1
