# generated using pymatgen
data_Mn2Fe3Co(PO4)6
_symmetry_space_group_name_H-M   'P 1'
_cell_length_a   8.53015608
_cell_length_b   8.53015608
_cell_length_c   8.53015608
_cell_angle_alpha   60.55475076
_cell_angle_beta   60.55475076
_cell_angle_gamma   60.55475076
_symmetry_Int_Tables_number   1
_chemical_formula_structural   Mn2Fe3Co(PO4)6
_chemical_formula_sum   'Mn2 Fe3 Co1 P6 O24'
_cell_volume   444.39078273
_cell_formula_units_Z   1
loop_
 _symmetry_equiv_pos_site_id
 _symmetry_equiv_pos_as_xyz
  1  'x, y, z'
loop_
 _atom_site_type_symbol
 _atom_site_label
 _atom_site_symmetry_multiplicity
 _atom_site_fract_x
 _atom_site_fract_y
 _atom_site_fract_z
 _atom_site_occupancy
  Mn  Mn0  1  0.999849  0.999849  0.999849  1
  Mn  Mn1  1  0.500255  0.500255  0.500255  1
  Fe  Fe2  1  0.646188  0.646188  0.646188  1
  Fe  Fe3  1  0.856058  0.856058  0.856058  1
  Fe  Fe4  1  0.355202  0.355202  0.355202  1
  Co  Co5  1  0.140815  0.140815  0.140815  1
  P  P6  1  0.958345  0.249432  0.536642  1
  P  P7  1  0.536642  0.958345  0.249432  1
  P  P8  1  0.249432  0.536642  0.958345  1
  P  P9  1  0.754424  0.454364  0.047218  1
  P  P10  1  0.454364  0.047218  0.754424  1
  P  P11  1  0.047218  0.754424  0.454364  1
  O  O12  1  0.500073  0.109631  0.320704  1
  O  O13  1  0.320704  0.500073  0.109631  1
  O  O14  1  0.109631  0.320704  0.500073  1
  O  O15  1  0.943913  0.089502  0.735673  1
  O  O16  1  0.994881  0.185448  0.379106  1
  O  O17  1  0.758435  0.410266  0.555002  1
  O  O18  1  0.735673  0.943913  0.089502  1
  O  O19  1  0.555002  0.758435  0.410266  1
  O  O20  1  0.818544  0.611373  0.007468  1
  O  O21  1  0.410266  0.555002  0.758435  1
  O  O22  1  0.917542  0.255223  0.062432  1
  O  O23  1  0.611373  0.007468  0.818544  1
  O  O24  1  0.379106  0.994881  0.185448  1
  O  O25  1  0.089502  0.735673  0.943913  1
  O  O26  1  0.593119  0.437260  0.245324  1
  O  O27  1  0.185448  0.379106  0.994881  1
  O  O28  1  0.437260  0.245324  0.593119  1
  O  O29  1  0.255223  0.062432  0.917542  1
  O  O30  1  0.245324  0.593119  0.437260  1
  O  O31  1  0.007468  0.818544  0.611373  1
  O  O32  1  0.062432  0.917542  0.255223  1
  O  O33  1  0.890708  0.690347  0.489236  1
  O  O34  1  0.690347  0.489236  0.890708  1
  O  O35  1  0.489236  0.890708  0.690347  1
