# generated using pymatgen
data_Ca4Bi6O13
_symmetry_space_group_name_H-M   'P 1'
_cell_length_a   9.44623487
_cell_length_b   9.44623487
_cell_length_c   9.30454748
_cell_angle_alpha   78.15041381
_cell_angle_beta   101.84958619
_cell_angle_gamma   79.00935631
_symmetry_Int_Tables_number   1
_chemical_formula_structural   Ca4Bi6O13
_chemical_formula_sum   'Ca8 Bi12 O26'
_cell_volume   771.39969141
_cell_formula_units_Z   2
loop_
 _symmetry_equiv_pos_site_id
 _symmetry_equiv_pos_as_xyz
  1  'x, y, z'
loop_
 _atom_site_type_symbol
 _atom_site_label
 _atom_site_symmetry_multiplicity
 _atom_site_fract_x
 _atom_site_fract_y
 _atom_site_fract_z
 _atom_site_occupancy
  Ca  Ca0  1  0.451061  0.301161  0.429729  1
  Ca  Ca1  1  0.197730  0.048616  0.429556  1
  Ca  Ca2  1  0.983731  0.263430  0.570191  1
  Ca  Ca3  1  0.736570  0.016269  0.570191  1
  Ca  Ca4  1  0.483092  0.763740  0.570459  1
  Ca  Ca5  1  0.236260  0.516908  0.570459  1
  Ca  Ca6  1  0.698839  0.548939  0.429729  1
  Ca  Ca7  1  0.951384  0.802270  0.429556  1
  Bi  Bi8  1  0.053418  0.446350  0.226686  1
  Bi  Bi9  1  0.139097  0.132530  0.999028  1
  Bi  Bi10  1  0.368027  0.360314  0.000857  1
  Bi  Bi11  1  0.688713  0.311287  0.777964  1
  Bi  Bi12  1  0.186628  0.813372  0.777112  1
  Bi  Bi13  1  0.440052  0.059636  0.773345  1
  Bi  Bi14  1  0.798217  0.201783  0.222860  1
  Bi  Bi15  1  0.299952  0.700048  0.221869  1
  Bi  Bi16  1  0.553650  0.946582  0.226686  1
  Bi  Bi17  1  0.639686  0.631973  0.000857  1
  Bi  Bi18  1  0.867470  0.860903  0.999028  1
  Bi  Bi19  1  0.940364  0.559948  0.773345  1
  O  O20  1  0.056124  0.943876  0.983778  1
  O  O21  1  0.182064  0.318543  0.442418  1
  O  O22  1  0.446173  0.309347  0.698356  1
  O  O23  1  0.191443  0.055097  0.695517  1
  O  O24  1  0.062712  0.199284  0.178766  1
  O  O25  1  0.297887  0.434989  0.179852  1
  O  O26  1  0.564124  0.435876  0.016251  1
  O  O27  1  0.460245  0.039389  0.557505  1
  O  O28  1  0.715920  0.284080  0.564042  1
  O  O29  1  0.215115  0.784885  0.562501  1
  O  O30  1  0.597380  0.156336  0.304842  1
  O  O31  1  0.341816  0.902628  0.301569  1
  O  O32  1  0.097372  0.658184  0.301569  1
  O  O33  1  0.843664  0.402620  0.304842  1
  O  O34  1  0.974740  0.292107  0.820138  1
  O  O35  1  0.473285  0.788644  0.821291  1
  O  O36  1  0.211356  0.526715  0.821291  1
  O  O37  1  0.707893  0.025260  0.820138  1
  O  O38  1  0.681457  0.817936  0.442418  1
  O  O39  1  0.434350  0.565650  0.435924  1
  O  O40  1  0.933626  0.066374  0.437492  1
  O  O41  1  0.944903  0.808557  0.695517  1
  O  O42  1  0.690653  0.553827  0.698356  1
  O  O43  1  0.565011  0.702113  0.179852  1
  O  O44  1  0.800716  0.937288  0.178766  1
  O  O45  1  0.960611  0.539755  0.557505  1
