# generated using pymatgen
data_Cr2OF2
_symmetry_space_group_name_H-M   'P 1'
_cell_length_a   7.31590625
_cell_length_b   6.48957437
_cell_length_c   6.01933103
_cell_angle_alpha   71.47311695
_cell_angle_beta   57.25416204
_cell_angle_gamma   51.27272102
_symmetry_Int_Tables_number   1
_chemical_formula_structural   Cr2OF2
_chemical_formula_sum   'Cr4 O2 F4'
_cell_volume   187.42270418
_cell_formula_units_Z   2
loop_
 _symmetry_equiv_pos_site_id
 _symmetry_equiv_pos_as_xyz
  1  'x, y, z'
loop_
 _atom_site_type_symbol
 _atom_site_label
 _atom_site_symmetry_multiplicity
 _atom_site_fract_x
 _atom_site_fract_y
 _atom_site_fract_z
 _atom_site_occupancy
  Cr  Cr0  1  0.125000  0.125000  0.125000  1
  Cr  Cr1  1  0.125000  0.125000  0.625000  1
  Cr  Cr2  1  0.625000  0.125000  0.125000  1
  Cr  Cr3  1  0.125000  0.625000  0.125000  1
  O  O4  1  0.250000  0.250000  0.250000  1
  O  O5  1  0.000000  0.000000  0.000000  1
  F  F6  1  0.248338  0.248338  0.751662  1
  F  F7  1  0.498338  0.498338  0.001662  1
  F  F8  1  0.751662  0.751662  0.248338  1
  F  F9  1  0.001662  0.001662  0.498338  1
