# generated using pymatgen
data_Li7Cr3(SiO6)2
_symmetry_space_group_name_H-M   'P 1'
_cell_length_a   4.96225361
_cell_length_b   4.96225361
_cell_length_c   9.77025377
_cell_angle_alpha   85.14801284
_cell_angle_beta   94.85198716
_cell_angle_gamma   60.00197804
_symmetry_Int_Tables_number   1
_chemical_formula_structural   Li7Cr3(SiO6)2
_chemical_formula_sum   'Li7 Cr3 Si2 O12'
_cell_volume   205.35193561
_cell_formula_units_Z   1
loop_
 _symmetry_equiv_pos_site_id
 _symmetry_equiv_pos_as_xyz
  1  'x, y, z'
loop_
 _atom_site_type_symbol
 _atom_site_label
 _atom_site_symmetry_multiplicity
 _atom_site_fract_x
 _atom_site_fract_y
 _atom_site_fract_z
 _atom_site_occupancy
  Li  Li0  1  0.410215  0.918171  0.245476  1
  Li  Li1  1  0.246592  0.753408  0.754563  1
  Li  Li2  1  0.589785  0.081829  0.754524  1
  Li  Li3  1  0.753408  0.246592  0.245437  1
  Li  Li4  1  0.918171  0.410215  0.754524  1
  Li  Li5  1  0.081829  0.589785  0.245476  1
  Li  Li6  1  0.000000  0.000000  0.000000  1
  Cr  Cr7  1  0.166816  0.166816  0.500000  1
  Cr  Cr8  1  0.500000  0.500000  0.500000  1
  Cr  Cr9  1  0.833184  0.833184  0.500000  1
  Si  Si10  1  0.333328  0.333328  0.000000  1
  Si  Si11  1  0.666672  0.666672  0.000000  1
  O  O12  1  0.339522  0.034437  0.896528  1
  O  O13  1  0.205496  0.461142  0.616600  1
  O  O14  1  0.127153  0.872847  0.381211  1
  O  O15  1  0.408396  0.591604  0.103465  1
  O  O16  1  0.660478  0.965563  0.103472  1
  O  O17  1  0.461142  0.205496  0.383400  1
  O  O18  1  0.538858  0.794504  0.616600  1
  O  O19  1  0.591604  0.408396  0.896535  1
  O  O20  1  0.034437  0.339522  0.103472  1
  O  O21  1  0.794504  0.538858  0.383400  1
  O  O22  1  0.965563  0.660478  0.896528  1
  O  O23  1  0.872847  0.127153  0.618789  1
