# generated using pymatgen
data_Ba3Y2Cl12
_symmetry_space_group_name_H-M   'P 1'
_cell_length_a   9.14687119
_cell_length_b   9.14687119
_cell_length_c   15.04505347
_cell_angle_alpha   79.41514776
_cell_angle_beta   100.58485224
_cell_angle_gamma   69.54817727
_symmetry_Int_Tables_number   1
_chemical_formula_structural   Ba3Y2Cl12
_chemical_formula_sum   'Ba6 Y4 Cl24'
_cell_volume   1116.56014244
_cell_formula_units_Z   2
loop_
 _symmetry_equiv_pos_site_id
 _symmetry_equiv_pos_as_xyz
  1  'x, y, z'
loop_
 _atom_site_type_symbol
 _atom_site_label
 _atom_site_symmetry_multiplicity
 _atom_site_fract_x
 _atom_site_fract_y
 _atom_site_fract_z
 _atom_site_occupancy
  Ba  Ba0  1  0.551622  0.214201  0.072356  1
  Ba  Ba1  1  0.130392  0.130392  0.250000  1
  Ba  Ba2  1  0.785799  0.448378  0.572356  1
  Ba  Ba3  1  0.214201  0.551622  0.427644  1
  Ba  Ba4  1  0.869608  0.869608  0.750000  1
  Ba  Ba5  1  0.448378  0.785799  0.927644  1
  Y  Y6  1  0.665447  0.062274  0.406621  1
  Y  Y7  1  0.937726  0.334553  0.906621  1
  Y  Y8  1  0.062274  0.665447  0.093379  1
  Y  Y9  1  0.334553  0.937726  0.593379  1
  Cl  Cl10  1  0.161864  0.362525  0.072470  1
  Cl  Cl11  1  0.497527  0.012320  0.254001  1
  Cl  Cl12  1  0.779075  0.177221  0.272098  1
  Cl  Cl13  1  0.637475  0.838136  0.572470  1
  Cl  Cl14  1  0.987680  0.502473  0.754001  1
  Cl  Cl15  1  0.147659  0.921555  0.441464  1
  Cl  Cl16  1  0.399271  0.562440  0.098647  1
  Cl  Cl17  1  0.740262  0.857510  0.067474  1
  Cl  Cl18  1  0.822779  0.220925  0.772098  1
  Cl  Cl19  1  0.857510  0.740262  0.432526  1
  Cl  Cl20  1  0.562440  0.399271  0.401353  1
  Cl  Cl21  1  0.921555  0.147659  0.058536  1
  Cl  Cl22  1  0.078445  0.852341  0.941464  1
  Cl  Cl23  1  0.437560  0.600729  0.598647  1
  Cl  Cl24  1  0.142490  0.259738  0.567474  1
  Cl  Cl25  1  0.177221  0.779075  0.227902  1
  Cl  Cl26  1  0.259738  0.142490  0.932526  1
  Cl  Cl27  1  0.600729  0.437560  0.901353  1
  Cl  Cl28  1  0.852341  0.078445  0.558536  1
  Cl  Cl29  1  0.012320  0.497527  0.245999  1
  Cl  Cl30  1  0.362525  0.161864  0.427530  1
  Cl  Cl31  1  0.220925  0.822779  0.727902  1
  Cl  Cl32  1  0.502473  0.987680  0.745999  1
  Cl  Cl33  1  0.838136  0.637475  0.927530  1
