# generated using pymatgen
data_LiV(PO3)3
_symmetry_space_group_name_H-M   'P 1'
_cell_length_a   6.37141512
_cell_length_b   6.37141512
_cell_length_c   6.37141512
_cell_angle_alpha   107.95785815
_cell_angle_beta   107.95785815
_cell_angle_gamma   107.95785815
_symmetry_Int_Tables_number   1
_chemical_formula_structural   LiV(PO3)3
_chemical_formula_sum   'Li1 V1 P3 O9'
_cell_volume   209.52081248
_cell_formula_units_Z   1
loop_
 _symmetry_equiv_pos_site_id
 _symmetry_equiv_pos_as_xyz
  1  'x, y, z'
loop_
 _atom_site_type_symbol
 _atom_site_label
 _atom_site_symmetry_multiplicity
 _atom_site_fract_x
 _atom_site_fract_y
 _atom_site_fract_z
 _atom_site_occupancy
  Li  Li0  1  0.389913  0.389913  0.389913  1
  V  V1  1  0.997431  0.997431  0.997431  1
  P  P2  1  0.485476  0.911624  0.036052  1
  P  P3  1  0.036052  0.485476  0.911624  1
  P  P4  1  0.911624  0.036052  0.485476  1
  O  O5  1  0.639814  0.867323  0.260643  1
  O  O6  1  0.136853  0.393159  0.092997  1
  O  O7  1  0.955148  0.892362  0.627197  1
  O  O8  1  0.627197  0.955148  0.892362  1
  O  O9  1  0.393159  0.092997  0.136853  1
  O  O10  1  0.260643  0.639814  0.867323  1
  O  O11  1  0.092997  0.136853  0.393159  1
  O  O12  1  0.892362  0.627197  0.955148  1
  O  O13  1  0.867323  0.260643  0.639814  1
