# generated using pymatgen
data_CrH12(ClO2)3
_symmetry_space_group_name_H-M   'P 1'
_cell_length_a   8.05277701
_cell_length_b   8.05277701
_cell_length_c   8.05277701
_cell_angle_alpha   97.92861754
_cell_angle_beta   97.92861754
_cell_angle_gamma   97.92861754
_symmetry_Int_Tables_number   1
_chemical_formula_structural   CrH12(ClO2)3
_chemical_formula_sum   'Cr2 H24 Cl6 O12'
_cell_volume   505.66374430
_cell_formula_units_Z   2
loop_
 _symmetry_equiv_pos_site_id
 _symmetry_equiv_pos_as_xyz
  1  'x, y, z'
loop_
 _atom_site_type_symbol
 _atom_site_label
 _atom_site_symmetry_multiplicity
 _atom_site_fract_x
 _atom_site_fract_y
 _atom_site_fract_z
 _atom_site_occupancy
  Cr  Cr0  1  0.500000  0.500000  0.500000  1
  Cr  Cr1  1  0.000000  0.000000  0.000000  1
  H  H2  1  0.541334  0.278955  0.237131  1
  H  H3  1  0.237131  0.541334  0.278955  1
  H  H4  1  0.278955  0.237131  0.541334  1
  H  H5  1  0.778955  0.041334  0.737131  1
  H  H6  1  0.737131  0.778955  0.041334  1
  H  H7  1  0.041334  0.737131  0.778955  1
  H  H8  1  0.458666  0.721045  0.762869  1
  H  H9  1  0.762869  0.458666  0.721045  1
  H  H10  1  0.721045  0.762869  0.458666  1
  H  H11  1  0.221045  0.958666  0.262869  1
  H  H12  1  0.262869  0.221045  0.958666  1
  H  H13  1  0.958666  0.262869  0.221045  1
  H  H14  1  0.613904  0.204422  0.408346  1
  H  H15  1  0.408346  0.613904  0.204422  1
  H  H16  1  0.204422  0.408346  0.613904  1
  H  H17  1  0.704422  0.113904  0.908346  1
  H  H18  1  0.908346  0.704422  0.113904  1
  H  H19  1  0.113904  0.908346  0.704422  1
  H  H20  1  0.386096  0.795578  0.591654  1
  H  H21  1  0.591654  0.386096  0.795578  1
  H  H22  1  0.795578  0.591654  0.386096  1
  H  H23  1  0.295578  0.886096  0.091654  1
  H  H24  1  0.091654  0.295578  0.886096  1
  H  H25  1  0.886096  0.091654  0.295578  1
  Cl  Cl26  1  0.250000  0.977931  0.522069  1
  Cl  Cl27  1  0.522069  0.250000  0.977931  1
  Cl  Cl28  1  0.977931  0.522069  0.250000  1
  Cl  Cl29  1  0.477931  0.750000  0.022069  1
  Cl  Cl30  1  0.022069  0.477931  0.750000  1
  Cl  Cl31  1  0.750000  0.022069  0.477931  1
  O  O32  1  0.550397  0.291291  0.363867  1
  O  O33  1  0.363867  0.550397  0.291291  1
  O  O34  1  0.291291  0.363867  0.550397  1
  O  O35  1  0.791291  0.050397  0.863867  1
  O  O36  1  0.863867  0.791291  0.050397  1
  O  O37  1  0.050397  0.863867  0.791291  1
  O  O38  1  0.449603  0.708709  0.636133  1
  O  O39  1  0.636133  0.449603  0.708709  1
  O  O40  1  0.708709  0.636133  0.449603  1
  O  O41  1  0.208709  0.949603  0.136133  1
  O  O42  1  0.136133  0.208709  0.949603  1
  O  O43  1  0.949603  0.136133  0.208709  1
