# generated using pymatgen
data_Bi2TeO2
_symmetry_space_group_name_H-M   'P 1'
_cell_length_a   7.05118831
_cell_length_b   7.05089440
_cell_length_c   4.02394772
_cell_angle_alpha   73.42458587
_cell_angle_beta   73.41656412
_cell_angle_gamma   33.15885002
_symmetry_Int_Tables_number   1
_chemical_formula_structural   Bi2TeO2
_chemical_formula_sum   'Bi2 Te1 O2'
_cell_volume   104.46275021
_cell_formula_units_Z   1
loop_
 _symmetry_equiv_pos_site_id
 _symmetry_equiv_pos_as_xyz
  1  'x, y, z'
loop_
 _atom_site_type_symbol
 _atom_site_label
 _atom_site_symmetry_multiplicity
 _atom_site_fract_x
 _atom_site_fract_y
 _atom_site_fract_z
 _atom_site_occupancy
  Bi  Bi0  1  0.652924  0.655330  0.344670  1
  Bi  Bi1  1  0.344670  0.347076  0.652924  1
  Te  Te2  1  0.991712  0.008288  0.991712  1
  O  O3  1  0.247425  0.252575  0.247425  1
  O  O4  1  0.747425  0.752575  0.747425  1
