# generated using pymatgen
data_Mn3Cu2Ni(PO4)6
_symmetry_space_group_name_H-M   'P 1'
_cell_length_a   8.50962191
_cell_length_b   8.50962191
_cell_length_c   8.50962191
_cell_angle_alpha   60.15069534
_cell_angle_beta   60.15069534
_cell_angle_gamma   60.15069534
_symmetry_Int_Tables_number   1
_chemical_formula_structural   Mn3Cu2Ni(PO4)6
_chemical_formula_sum   'Mn3 Cu2 Ni1 P6 O24'
_cell_volume   437.21563436
_cell_formula_units_Z   1
loop_
 _symmetry_equiv_pos_site_id
 _symmetry_equiv_pos_as_xyz
  1  'x, y, z'
loop_
 _atom_site_type_symbol
 _atom_site_label
 _atom_site_symmetry_multiplicity
 _atom_site_fract_x
 _atom_site_fract_y
 _atom_site_fract_z
 _atom_site_occupancy
  Mn  Mn0  1  0.858066  0.858066  0.858066  1
  Mn  Mn1  1  0.642159  0.642159  0.642159  1
  Mn  Mn2  1  0.357808  0.357808  0.357808  1
  Cu  Cu3  1  0.002332  0.002332  0.002332  1
  Cu  Cu4  1  0.500815  0.500815  0.500815  1
  Ni  Ni5  1  0.141930  0.141930  0.141930  1
  P  P6  1  0.960054  0.248926  0.541262  1
  P  P7  1  0.541262  0.960054  0.248926  1
  P  P8  1  0.248926  0.541262  0.960054  1
  P  P9  1  0.749366  0.459383  0.037548  1
  P  P10  1  0.459383  0.037548  0.749366  1
  P  P11  1  0.037548  0.749366  0.459383  1
  O  O12  1  0.876287  0.688886  0.497387  1
  O  O13  1  0.688886  0.497387  0.876287  1
  O  O14  1  0.945178  0.083064  0.742450  1
  O  O15  1  0.497387  0.876287  0.688886  1
  O  O16  1  0.984380  0.192959  0.387369  1
  O  O17  1  0.760337  0.418219  0.562062  1
  O  O18  1  0.742450  0.945178  0.083064  1
  O  O19  1  0.562062  0.760337  0.418219  1
  O  O20  1  0.804680  0.621206  0.008043  1
  O  O21  1  0.418219  0.562062  0.760337  1
  O  O22  1  0.909965  0.262856  0.053772  1
  O  O23  1  0.621206  0.008043  0.804680  1
  O  O24  1  0.387369  0.984380  0.192959  1
  O  O25  1  0.083064  0.742450  0.945178  1
  O  O26  1  0.578551  0.450359  0.235416  1
  O  O27  1  0.192959  0.387369  0.984380  1
  O  O28  1  0.450359  0.235416  0.578551  1
  O  O29  1  0.262856  0.053772  0.909965  1
  O  O30  1  0.235416  0.578551  0.450359  1
  O  O31  1  0.008043  0.804680  0.621206  1
  O  O32  1  0.510652  0.122100  0.304172  1
  O  O33  1  0.053772  0.909965  0.262856  1
  O  O34  1  0.304172  0.510652  0.122100  1
  O  O35  1  0.122100  0.304172  0.510652  1
