# generated using pymatgen
data_LiFe2(PO4)2
_symmetry_space_group_name_H-M   'P 1'
_cell_length_a   5.17461420
_cell_length_b   5.17461420
_cell_length_c   6.95067201
_cell_angle_alpha   88.92564908
_cell_angle_beta   91.07435092
_cell_angle_gamma   83.83542011
_symmetry_Int_Tables_number   1
_chemical_formula_structural   LiFe2(PO4)2
_chemical_formula_sum   'Li1 Fe2 P2 O8'
_cell_volume   184.96648887
_cell_formula_units_Z   1
loop_
 _symmetry_equiv_pos_site_id
 _symmetry_equiv_pos_as_xyz
  1  'x, y, z'
loop_
 _atom_site_type_symbol
 _atom_site_label
 _atom_site_symmetry_multiplicity
 _atom_site_fract_x
 _atom_site_fract_y
 _atom_site_fract_z
 _atom_site_occupancy
  Li  Li0  1  0.501046  0.501046  0.000000  1
  Fe  Fe1  1  0.992970  0.992970  0.000000  1
  Fe  Fe2  1  0.516333  0.516333  0.500000  1
  P  P3  1  0.005774  0.491552  0.247280  1
  P  P4  1  0.491552  0.005774  0.752720  1
  O  O5  1  0.706688  0.561275  0.244747  1
  O  O6  1  0.565974  0.132115  0.565487  1
  O  O7  1  0.116448  0.638715  0.069143  1
  O  O8  1  0.075289  0.195821  0.208661  1
  O  O9  1  0.195821  0.075289  0.791339  1
  O  O10  1  0.638715  0.116448  0.930857  1
  O  O11  1  0.132115  0.565974  0.434513  1
  O  O12  1  0.561275  0.706688  0.755253  1
