# generated using pymatgen
data_K2FePCO7
_symmetry_space_group_name_H-M   'P 1'
_cell_length_a   5.58082418
_cell_length_b   6.83733480
_cell_length_c   9.67066077
_cell_angle_alpha   90.00000000
_cell_angle_beta   91.36531996
_cell_angle_gamma   90.00000000
_symmetry_Int_Tables_number   1
_chemical_formula_structural   K2FePCO7
_chemical_formula_sum   'K4 Fe2 P2 C2 O14'
_cell_volume   368.90795476
_cell_formula_units_Z   2
loop_
 _symmetry_equiv_pos_site_id
 _symmetry_equiv_pos_as_xyz
  1  'x, y, z'
loop_
 _atom_site_type_symbol
 _atom_site_label
 _atom_site_symmetry_multiplicity
 _atom_site_fract_x
 _atom_site_fract_y
 _atom_site_fract_z
 _atom_site_occupancy
  K  K0  1  0.244782  0.479089  0.242574  1
  K  K1  1  0.244782  0.020911  0.242574  1
  K  K2  1  0.755218  0.520911  0.757426  1
  K  K3  1  0.755218  0.979089  0.757426  1
  Fe  Fe4  1  0.769413  0.750000  0.359407  1
  Fe  Fe5  1  0.230587  0.250000  0.640593  1
  P  P6  1  0.718659  0.250000  0.432718  1
  P  P7  1  0.281341  0.750000  0.567282  1
  C  C8  1  0.730644  0.750000  0.098589  1
  C  C9  1  0.269356  0.250000  0.901411  1
  O  O10  1  0.291688  0.250000  0.029881  1
  O  O11  1  0.938052  0.750000  0.167396  1
  O  O12  1  0.547683  0.750000  0.183898  1
  O  O13  1  0.755544  0.063101  0.345093  1
  O  O14  1  0.755544  0.436899  0.345093  1
  O  O15  1  0.104306  0.750000  0.439542  1
  O  O16  1  0.453449  0.250000  0.485095  1
  O  O17  1  0.546551  0.750000  0.514905  1
  O  O18  1  0.895694  0.250000  0.560458  1
  O  O19  1  0.244456  0.563101  0.654907  1
  O  O20  1  0.244456  0.936899  0.654907  1
  O  O21  1  0.452317  0.250000  0.816102  1
  O  O22  1  0.061948  0.250000  0.832604  1
  O  O23  1  0.708312  0.750000  0.970119  1
