# generated using pymatgen
data_LiVF6
_symmetry_space_group_name_H-M   'P 1'
_cell_length_a   5.04433942
_cell_length_b   8.63715530
_cell_length_c   5.16673393
_cell_angle_alpha   90.00000000
_cell_angle_beta   110.36490340
_cell_angle_gamma   90.00000000
_symmetry_Int_Tables_number   1
_chemical_formula_structural   LiVF6
_chemical_formula_sum   'Li2 V2 F12'
_cell_volume   211.03779511
_cell_formula_units_Z   2
loop_
 _symmetry_equiv_pos_site_id
 _symmetry_equiv_pos_as_xyz
  1  'x, y, z'
loop_
 _atom_site_type_symbol
 _atom_site_label
 _atom_site_symmetry_multiplicity
 _atom_site_fract_x
 _atom_site_fract_y
 _atom_site_fract_z
 _atom_site_occupancy
  Li  Li0  1  0.895467  0.321586  0.956957  1
  Li  Li1  1  0.104533  0.821586  0.043043  1
  V  V2  1  0.756338  0.003475  0.491992  1
  V  V3  1  0.243662  0.503475  0.508008  1
  F  F4  1  0.719757  0.855668  0.731502  1
  F  F5  1  0.617462  0.478869  0.711826  1
  F  F6  1  0.675342  0.154919  0.698708  1
  F  F7  1  0.195770  0.650288  0.736150  1
  F  F8  1  0.120181  0.010706  0.717242  1
  F  F9  1  0.153916  0.356910  0.715382  1
  F  F10  1  0.324658  0.654919  0.301292  1
  F  F11  1  0.382538  0.978869  0.288174  1
  F  F12  1  0.280243  0.355668  0.268498  1
  F  F13  1  0.846084  0.856910  0.284618  1
  F  F14  1  0.879819  0.510706  0.282758  1
  F  F15  1  0.804230  0.150288  0.263850  1
