# generated using pymatgen
data_Li2VP2HO8
_symmetry_space_group_name_H-M   'P 1'
_cell_length_a   4.86160925
_cell_length_b   8.17014293
_cell_length_c   7.62529154
_cell_angle_alpha   90.00000000
_cell_angle_beta   104.11155311
_cell_angle_gamma   90.00000000
_symmetry_Int_Tables_number   1
_chemical_formula_structural   Li2VP2HO8
_chemical_formula_sum   'Li4 V2 P4 H2 O16'
_cell_volume   293.73694887
_cell_formula_units_Z   2
loop_
 _symmetry_equiv_pos_site_id
 _symmetry_equiv_pos_as_xyz
  1  'x, y, z'
loop_
 _atom_site_type_symbol
 _atom_site_label
 _atom_site_symmetry_multiplicity
 _atom_site_fract_x
 _atom_site_fract_y
 _atom_site_fract_z
 _atom_site_occupancy
  Li  Li0  1  0.365730  0.633808  0.905316  1
  Li  Li1  1  0.634270  0.133808  0.094684  1
  Li  Li2  1  0.854333  0.864249  0.410042  1
  Li  Li3  1  0.145667  0.364249  0.589958  1
  V  V4  1  0.750125  0.500591  0.254139  1
  V  V5  1  0.249875  0.000591  0.745861  1
  P  P6  1  0.382174  0.651770  0.518455  1
  P  P7  1  0.617826  0.151770  0.481545  1
  P  P8  1  0.879552  0.844832  0.011403  1
  P  P9  1  0.120448  0.344832  0.988597  1
  H  H10  1  0.787561  0.487860  0.763653  1
  H  H11  1  0.212439  0.987860  0.236347  1
  O  O12  1  0.365585  0.456296  0.089370  1
  O  O13  1  0.263158  0.818861  0.558426  1
  O  O14  1  0.400557  0.173923  0.599328  1
  O  O15  1  0.509766  0.560117  0.697429  1
  O  O16  1  0.634415  0.956296  0.910630  1
  O  O17  1  0.765638  0.680999  0.060656  1
  O  O18  1  0.490234  0.060117  0.302571  1
  O  O19  1  0.599443  0.673923  0.400672  1
  O  O20  1  0.895492  0.325247  0.098054  1
  O  O21  1  0.004633  0.938662  0.196728  1
  O  O22  1  0.736842  0.318861  0.441574  1
  O  O23  1  0.866145  0.042884  0.589422  1
  O  O24  1  0.995367  0.438662  0.803272  1
  O  O25  1  0.104508  0.825247  0.901946  1
  O  O26  1  0.234362  0.180999  0.939344  1
  O  O27  1  0.133855  0.542884  0.410578  1
