# generated using pymatgen
data_LiV2P4(HO8)2
_symmetry_space_group_name_H-M   'P 1'
_cell_length_a   7.75770001
_cell_length_b   7.89122695
_cell_length_c   9.75632687
_cell_angle_alpha   90.00000000
_cell_angle_beta   113.21659502
_cell_angle_gamma   90.00000000
_symmetry_Int_Tables_number   1
_chemical_formula_structural   LiV2P4(HO8)2
_chemical_formula_sum   'Li2 V4 P8 H4 O32'
_cell_volume   548.89514258
_cell_formula_units_Z   2
loop_
 _symmetry_equiv_pos_site_id
 _symmetry_equiv_pos_as_xyz
  1  'x, y, z'
loop_
 _atom_site_type_symbol
 _atom_site_label
 _atom_site_symmetry_multiplicity
 _atom_site_fract_x
 _atom_site_fract_y
 _atom_site_fract_z
 _atom_site_occupancy
  Li  Li0  1  0.401088  0.130774  0.273854  1
  Li  Li1  1  0.598912  0.630774  0.726146  1
  V  V2  1  0.245271  0.504937  0.247262  1
  V  V3  1  0.762591  0.993113  0.251232  1
  V  V4  1  0.237409  0.493113  0.748768  1
  V  V5  1  0.754729  0.004937  0.752738  1
  P  P6  1  0.017366  0.154913  0.069103  1
  P  P7  1  0.516290  0.349628  0.071668  1
  P  P8  1  0.977232  0.641050  0.429896  1
  P  P9  1  0.022768  0.141050  0.570104  1
  P  P10  1  0.487874  0.843908  0.431246  1
  P  P11  1  0.512126  0.343908  0.568754  1
  P  P12  1  0.982634  0.654913  0.930897  1
  P  P13  1  0.483710  0.849628  0.928332  1
  H  H14  1  0.740588  0.488472  0.012405  1
  H  H15  1  0.735510  0.493248  0.510812  1
  H  H16  1  0.264490  0.993248  0.489188  1
  H  H17  1  0.259412  0.988472  0.987595  1
  O  O18  1  0.195801  0.056845  0.095344  1
  O  O19  1  0.114128  0.671907  0.096414  1
  O  O20  1  0.063056  0.329763  0.142013  1
  O  O21  1  0.898190  0.055837  0.145622  1
  O  O22  1  0.698547  0.444532  0.096345  1
  O  O23  1  0.611211  0.837025  0.098773  1
  O  O24  1  0.565195  0.172243  0.146591  1
  O  O25  1  0.400715  0.442988  0.145529  1
  O  O26  1  0.094825  0.558172  0.352729  1
  O  O27  1  0.925466  0.825923  0.360428  1
  O  O28  1  0.888545  0.159464  0.401144  1
  O  O29  1  0.799945  0.548439  0.408906  1
  O  O30  1  0.596704  0.947281  0.354166  1
  O  O31  1  0.433174  0.669748  0.360739  1
  O  O32  1  0.200055  0.048439  0.591094  1
  O  O33  1  0.111455  0.659464  0.598856  1
  O  O34  1  0.389347  0.324665  0.400482  1
  O  O35  1  0.309959  0.952391  0.402431  1
  O  O36  1  0.074534  0.325923  0.639572  1
  O  O37  1  0.905175  0.058172  0.647271  1
  O  O38  1  0.690041  0.452391  0.597569  1
  O  O39  1  0.610653  0.824665  0.599518  1
  O  O40  1  0.566826  0.169748  0.639261  1
  O  O41  1  0.403296  0.447281  0.645834  1
  O  O42  1  0.101810  0.555837  0.854378  1
  O  O43  1  0.936944  0.829763  0.857987  1
  O  O44  1  0.885872  0.171907  0.903586  1
  O  O45  1  0.804199  0.556845  0.904656  1
  O  O46  1  0.599285  0.942988  0.854471  1
  O  O47  1  0.434805  0.672243  0.853409  1
  O  O48  1  0.388789  0.337025  0.901227  1
  O  O49  1  0.301453  0.944532  0.903655  1
