# generated using pymatgen
data_LiFeSiO4
_symmetry_space_group_name_H-M   'P 1'
_cell_length_a   7.49943064
_cell_length_b   7.49943064
_cell_length_c   9.62240698
_cell_angle_alpha   90.00000000
_cell_angle_beta   90.00000000
_cell_angle_gamma   120.00000000
_symmetry_Int_Tables_number   1
_chemical_formula_structural   LiFeSiO4
_chemical_formula_sum   'Li6 Fe6 Si6 O24'
_cell_volume   468.67408417
_cell_formula_units_Z   6
loop_
 _symmetry_equiv_pos_site_id
 _symmetry_equiv_pos_as_xyz
  1  'x, y, z'
loop_
 _atom_site_type_symbol
 _atom_site_label
 _atom_site_symmetry_multiplicity
 _atom_site_fract_x
 _atom_site_fract_y
 _atom_site_fract_z
 _atom_site_occupancy
  Li  Li0  1  0.204780  0.947290  0.252136  1
  Li  Li1  1  0.052710  0.257490  0.252136  1
  Li  Li2  1  0.257490  0.052710  0.752136  1
  Li  Li3  1  0.742510  0.795220  0.252136  1
  Li  Li4  1  0.795220  0.742510  0.752136  1
  Li  Li5  1  0.947290  0.204780  0.752136  1
  Fe  Fe6  1  0.059445  0.601157  0.472254  1
  Fe  Fe7  1  0.541712  0.940555  0.472254  1
  Fe  Fe8  1  0.398843  0.458288  0.472254  1
  Fe  Fe9  1  0.458288  0.398843  0.972254  1
  Fe  Fe10  1  0.601157  0.059445  0.972254  1
  Fe  Fe11  1  0.940555  0.541712  0.972254  1
  Si  Si12  1  0.333333  0.666667  0.169358  1
  Si  Si13  1  0.000000  0.000000  0.006398  1
  Si  Si14  1  0.000000  0.000000  0.506398  1
  Si  Si15  1  0.333333  0.666667  0.777021  1
  Si  Si16  1  0.666667  0.333333  0.669358  1
  Si  Si17  1  0.666667  0.333333  0.277021  1
  O  O18  1  0.109540  0.871585  0.442029  1
  O  O19  1  0.137916  0.688739  0.116974  1
  O  O20  1  0.405713  0.900645  0.829427  1
  O  O21  1  0.099355  0.505069  0.829427  1
  O  O22  1  0.311261  0.449177  0.116974  1
  O  O23  1  0.333333  0.666667  0.345459  1
  O  O24  1  0.000000  0.000000  0.173491  1
  O  O25  1  0.000000  0.000000  0.673491  1
  O  O26  1  0.333333  0.666667  0.599502  1
  O  O27  1  0.128415  0.237955  0.442029  1
  O  O28  1  0.550823  0.862084  0.116974  1
  O  O29  1  0.237955  0.128415  0.942029  1
  O  O30  1  0.494931  0.594287  0.829427  1
  O  O31  1  0.762045  0.890460  0.442029  1
  O  O32  1  0.449177  0.311261  0.616974  1
  O  O33  1  0.505069  0.099355  0.329427  1
  O  O34  1  0.594287  0.494931  0.329427  1
  O  O35  1  0.862084  0.550823  0.616974  1
  O  O36  1  0.666667  0.333333  0.845459  1
  O  O37  1  0.666667  0.333333  0.099502  1
  O  O38  1  0.890460  0.762045  0.942029  1
  O  O39  1  0.688739  0.137916  0.616974  1
  O  O40  1  0.900645  0.405713  0.329427  1
  O  O41  1  0.871585  0.109540  0.942029  1
