# generated using pymatgen
data_Li3Mn4(BO3)4
_symmetry_space_group_name_H-M   'P 1'
_cell_length_a   5.28089492
_cell_length_b   9.10928306
_cell_length_c   11.57246836
_cell_angle_alpha   111.75292747
_cell_angle_beta   102.00622322
_cell_angle_gamma   90.30953433
_symmetry_Int_Tables_number   1
_chemical_formula_structural   Li3Mn4(BO3)4
_chemical_formula_sum   'Li6 Mn8 B8 O24'
_cell_volume   503.65360857
_cell_formula_units_Z   2
loop_
 _symmetry_equiv_pos_site_id
 _symmetry_equiv_pos_as_xyz
  1  'x, y, z'
loop_
 _atom_site_type_symbol
 _atom_site_label
 _atom_site_symmetry_multiplicity
 _atom_site_fract_x
 _atom_site_fract_y
 _atom_site_fract_z
 _atom_site_occupancy
  Li  Li0  1  0.965839  0.958000  0.088837  1
  Li  Li1  1  0.734693  0.737251  0.334888  1
  Li  Li2  1  0.520989  0.494728  0.828674  1
  Li  Li3  1  0.228537  0.249292  0.338896  1
  Li  Li4  1  0.211764  0.230397  0.598241  1
  Li  Li5  1  0.020726  0.986321  0.830442  1
  Mn  Mn6  1  0.981372  0.637305  0.117765  1
  Mn  Mn7  1  0.762967  0.421851  0.375186  1
  Mn  Mn8  1  0.717384  0.047696  0.619554  1
  Mn  Mn9  1  0.453669  0.155719  0.106956  1
  Mn  Mn10  1  0.531066  0.848525  0.866945  1
  Mn  Mn11  1  0.255630  0.930239  0.364558  1
  Mn  Mn12  1  0.232845  0.575817  0.616512  1
  Mn  Mn13  1  0.024907  0.343570  0.869580  1
  B  B14  1  0.957434  0.309787  0.133978  1
  B  B15  1  0.769702  0.107434  0.391966  1
  B  B16  1  0.728700  0.385071  0.615080  1
  B  B17  1  0.489795  0.833638  0.132662  1
  B  B18  1  0.511524  0.178229  0.854517  1
  B  B19  1  0.266914  0.593280  0.369347  1
  B  B20  1  0.244479  0.910334  0.628878  1
  B  B21  1  0.033412  0.687414  0.875227  1
  O  O22  1  0.996005  0.919112  0.646119  1
  O  O23  1  0.738828  0.347322  0.190132  1
  O  O24  1  0.882556  0.280242  0.654074  1
  O  O25  1  0.842006  0.475427  0.559758  1
  O  O26  1  0.645471  0.728954  0.162561  1
  O  O27  1  0.576664  0.930741  0.076299  1
  O  O28  1  0.934178  0.832904  0.894234  1
  O  O29  1  0.906925  0.575624  0.905667  1
  O  O30  1  0.672417  0.989269  0.430162  1
  O  O31  1  0.595224  0.202654  0.352753  1
  O  O32  1  0.743938  0.131940  0.809830  1
  O  O33  1  0.525284  0.593491  0.370482  1
  O  O34  1  0.481461  0.403438  0.633961  1
  O  O35  1  0.241536  0.849828  0.162056  1
  O  O36  1  0.399276  0.804143  0.660403  1
  O  O37  1  0.338025  0.018281  0.582938  1
  O  O38  1  0.092958  0.185765  0.147671  1
  O  O39  1  0.403136  0.309998  0.848412  1
  O  O40  1  0.401523  0.081740  0.903985  1
  O  O41  1  0.019591  0.394027  0.065763  1
  O  O42  1  0.152402  0.480030  0.404496  1
  O  O43  1  0.111520  0.700810  0.336175  1
  O  O44  1  0.258270  0.652072  0.827781  1
  O  O45  1  0.029113  0.122944  0.394944  1
