# generated using pymatgen
data_Na5CoO4
_symmetry_space_group_name_H-M   'P 1'
_cell_length_a   5.92145515
_cell_length_b   6.07293639
_cell_length_c   7.67072122
_cell_angle_alpha   90.00000000
_cell_angle_beta   90.00000000
_cell_angle_gamma   90.00000000
_symmetry_Int_Tables_number   1
_chemical_formula_structural   Na5CoO4
_chemical_formula_sum   'Na10 Co2 O8'
_cell_volume   275.84389446
_cell_formula_units_Z   2
loop_
 _symmetry_equiv_pos_site_id
 _symmetry_equiv_pos_as_xyz
  1  'x, y, z'
loop_
 _atom_site_type_symbol
 _atom_site_label
 _atom_site_symmetry_multiplicity
 _atom_site_fract_x
 _atom_site_fract_y
 _atom_site_fract_z
 _atom_site_occupancy
  Na  Na0  1  0.932414  0.568299  0.316400  1
  Na  Na1  1  0.932414  0.568299  0.683600  1
  Na  Na2  1  0.748656  0.111410  0.699168  1
  Na  Na3  1  0.748656  0.111410  0.300832  1
  Na  Na4  1  0.746170  0.825318  0.000000  1
  Na  Na5  1  0.432414  0.431701  0.816400  1
  Na  Na6  1  0.432414  0.431701  0.183600  1
  Na  Na7  1  0.248656  0.888590  0.800832  1
  Na  Na8  1  0.248656  0.888590  0.199168  1
  Na  Na9  1  0.246170  0.174682  0.500000  1
  Co  Co10  1  0.995028  0.325910  0.000000  1
  Co  Co11  1  0.495028  0.674090  0.500000  1
  O  O12  1  0.689064  0.240983  0.000000  1
  O  O13  1  0.596862  0.371500  0.500000  1
  O  O14  1  0.601389  0.767362  0.279060  1
  O  O15  1  0.601389  0.767362  0.720940  1
  O  O16  1  0.189064  0.759017  0.500000  1
  O  O17  1  0.096862  0.628500  0.000000  1
  O  O18  1  0.101389  0.232638  0.779060  1
  O  O19  1  0.101389  0.232638  0.220940  1
