# generated using pymatgen
data_LiMnF4
_symmetry_space_group_name_H-M   'P 1'
_cell_length_a   5.44152412
_cell_length_b   5.44152412
_cell_length_c   7.69717097
_cell_angle_alpha   90.00000000
_cell_angle_beta   90.00000000
_cell_angle_gamma   138.19991810
_symmetry_Int_Tables_number   1
_chemical_formula_structural   LiMnF4
_chemical_formula_sum   'Li2 Mn2 F8'
_cell_volume   151.91276035
_cell_formula_units_Z   2
loop_
 _symmetry_equiv_pos_site_id
 _symmetry_equiv_pos_as_xyz
  1  'x, y, z'
loop_
 _atom_site_type_symbol
 _atom_site_label
 _atom_site_symmetry_multiplicity
 _atom_site_fract_x
 _atom_site_fract_y
 _atom_site_fract_z
 _atom_site_occupancy
  Li  Li0  1  0.730749  0.269251  0.750000  1
  Li  Li1  1  0.269251  0.730749  0.250000  1
  Mn  Mn2  1  0.000000  0.000000  0.000000  1
  Mn  Mn3  1  0.000000  0.000000  0.500000  1
  F  F4  1  0.500000  0.500000  0.000000  1
  F  F5  1  0.169340  0.830660  0.915075  1
  F  F6  1  0.918526  0.081474  0.750000  1
  F  F7  1  0.169340  0.830660  0.584925  1
  F  F8  1  0.500000  0.500000  0.500000  1
  F  F9  1  0.830660  0.169340  0.415075  1
  F  F10  1  0.081474  0.918526  0.250000  1
  F  F11  1  0.830660  0.169340  0.084925  1
