# generated using pymatgen
data_Li3V2(OF)4
_symmetry_space_group_name_H-M   'P 1'
_cell_length_a   4.98778324
_cell_length_b   7.34560063
_cell_length_c   7.75682777
_cell_angle_alpha   101.71229093
_cell_angle_beta   90.10823205
_cell_angle_gamma   90.11610427
_symmetry_Int_Tables_number   1
_chemical_formula_structural   Li3V2(OF)4
_chemical_formula_sum   'Li6 V4 O8 F8'
_cell_volume   278.27818385
_cell_formula_units_Z   2
loop_
 _symmetry_equiv_pos_site_id
 _symmetry_equiv_pos_as_xyz
  1  'x, y, z'
loop_
 _atom_site_type_symbol
 _atom_site_label
 _atom_site_symmetry_multiplicity
 _atom_site_fract_x
 _atom_site_fract_y
 _atom_site_fract_z
 _atom_site_occupancy
  Li  Li0  1  0.738107  0.968585  0.087479  1
  Li  Li1  1  0.757045  0.639985  0.371693  1
  Li  Li2  1  0.766377  0.176327  0.397253  1
  Li  Li3  1  0.253914  0.859139  0.634886  1
  Li  Li4  1  0.267330  0.322467  0.605179  1
  Li  Li5  1  0.234472  0.532244  0.909411  1
  V  V6  1  0.234087  0.831730  0.174782  1
  V  V7  1  0.260944  0.326756  0.167038  1
  V  V8  1  0.726102  0.671947  0.838090  1
  V  V9  1  0.767390  0.177549  0.843871  1
  O  O10  1  0.934536  0.700925  0.030886  1
  O  O11  1  0.558578  0.191865  0.031199  1
  O  O12  1  0.369725  0.551812  0.174441  1
  O  O13  1  0.102767  0.050563  0.187554  1
  O  O14  1  0.875067  0.952136  0.825837  1
  O  O15  1  0.603299  0.449850  0.811756  1
  O  O16  1  0.446481  0.790785  0.953840  1
  O  O17  1  0.048487  0.303221  0.953149  1
  F  F18  1  0.574664  0.910506  0.295136  1
  F  F19  1  0.942130  0.395259  0.313018  1
  F  F20  1  0.084277  0.797671  0.398815  1
  F  F21  1  0.435103  0.297571  0.387133  1
  F  F22  1  0.590254  0.702467  0.607350  1
  F  F23  1  0.931867  0.201947  0.614632  1
  F  F24  1  0.065060  0.590841  0.701778  1
  F  F25  1  0.453926  0.105855  0.683800  1
