# generated using pymatgen
data_Li6MnFe5(BO3)6
_symmetry_space_group_name_H-M   'P 1'
_cell_length_a   8.82946363
_cell_length_b   8.82946363
_cell_length_c   8.24687822
_cell_angle_alpha   62.22618028
_cell_angle_beta   117.77381972
_cell_angle_gamma   138.38347091
_symmetry_Int_Tables_number   1
_chemical_formula_structural   Li6MnFe5(BO3)6
_chemical_formula_sum   'Li6 Mn1 Fe5 B6 O18'
_cell_volume   370.15513508
_cell_formula_units_Z   1
loop_
 _symmetry_equiv_pos_site_id
 _symmetry_equiv_pos_as_xyz
  1  'x, y, z'
loop_
 _atom_site_type_symbol
 _atom_site_label
 _atom_site_symmetry_multiplicity
 _atom_site_fract_x
 _atom_site_fract_y
 _atom_site_fract_z
 _atom_site_occupancy
  Li  Li0  1  0.242709  0.258891  0.698050  1
  Li  Li1  1  0.741109  0.757291  0.698050  1
  Li  Li2  1  0.401770  0.099791  0.284850  1
  Li  Li3  1  0.900209  0.598230  0.284850  1
  Li  Li4  1  0.107096  0.392929  0.015881  1
  Li  Li5  1  0.607071  0.892904  0.015881  1
  Mn  Mn6  1  0.006373  0.993627  0.372580  1
  Fe  Fe7  1  0.179613  0.820387  0.992082  1
  Fe  Fe8  1  0.680121  0.319879  0.992632  1
  Fe  Fe9  1  0.503810  0.496190  0.367475  1
  Fe  Fe10  1  0.816399  0.183601  0.640513  1
  Fe  Fe11  1  0.316126  0.683874  0.640139  1
  B  B12  1  0.580821  0.915325  0.333378  1
  B  B13  1  0.084675  0.419179  0.333378  1
  B  B14  1  0.419082  0.084018  0.667808  1
  B  B15  1  0.915982  0.580918  0.667808  1
  B  B16  1  0.999017  0.000983  0.997536  1
  B  B17  1  0.499920  0.500080  0.999866  1
  O  O18  1  0.457399  0.542601  0.805732  1
  O  O19  1  0.958008  0.041992  0.803189  1
  O  O20  1  0.039943  0.460585  0.441737  1
  O  O21  1  0.539415  0.960057  0.441737  1
  O  O22  1  0.096276  0.903724  0.108907  1
  O  O23  1  0.597001  0.402999  0.108990  1
  O  O24  1  0.675871  0.816347  0.419362  1
  O  O25  1  0.183653  0.324129  0.419362  1
  O  O26  1  0.029048  0.471536  0.138891  1
  O  O27  1  0.528464  0.970952  0.138891  1
  O  O28  1  0.377915  0.123246  0.781846  1
  O  O29  1  0.876754  0.622085  0.781846  1
  O  O30  1  0.445346  0.554654  0.085607  1
  O  O31  1  0.943063  0.056937  0.079483  1
  O  O32  1  0.513949  0.985306  0.747002  1
  O  O33  1  0.014694  0.486051  0.747002  1
  O  O34  1  0.364134  0.142817  0.473828  1
  O  O35  1  0.857183  0.635866  0.473828  1
