# generated using pymatgen
data_Li6V5O12
_symmetry_space_group_name_H-M   'P 1'
_cell_length_a   5.18552582
_cell_length_b   8.80550677
_cell_length_c   9.92596808
_cell_angle_alpha   98.40716575
_cell_angle_beta   95.63040613
_cell_angle_gamma   90.16071948
_symmetry_Int_Tables_number   1
_chemical_formula_structural   Li6V5O12
_chemical_formula_sum   'Li12 V10 O24'
_cell_volume   446.13020761
_cell_formula_units_Z   2
loop_
 _symmetry_equiv_pos_site_id
 _symmetry_equiv_pos_as_xyz
  1  'x, y, z'
loop_
 _atom_site_type_symbol
 _atom_site_label
 _atom_site_symmetry_multiplicity
 _atom_site_fract_x
 _atom_site_fract_y
 _atom_site_fract_z
 _atom_site_occupancy
  Li  Li0  1  0.018988  0.824998  0.514311  1
  Li  Li1  1  0.247608  0.748828  0.980327  1
  Li  Li2  1  0.226909  0.404306  0.986618  1
  Li  Li3  1  0.375150  0.869275  0.743618  1
  Li  Li4  1  0.269920  0.079931  0.990406  1
  Li  Li5  1  0.507792  0.340553  0.513070  1
  Li  Li6  1  0.509429  0.985883  0.520842  1
  Li  Li7  1  0.740914  0.561139  0.981519  1
  Li  Li8  1  0.742434  0.917190  0.986126  1
  Li  Li9  1  0.878215  0.371199  0.755979  1
  Li  Li10  1  0.981273  0.500942  0.508639  1
  Li  Li11  1  0.007595  0.174121  0.520287  1
  V  V12  1  0.117572  0.292117  0.247329  1
  V  V13  1  0.124103  0.625266  0.249304  1
  V  V14  1  0.126440  0.953764  0.253125  1
  V  V15  1  0.624776  0.125564  0.251046  1
  V  V16  1  0.619590  0.457477  0.247432  1
  V  V17  1  0.624424  0.790335  0.251908  1
  V  V18  1  0.356006  0.540845  0.739802  1
  V  V19  1  0.402587  0.204939  0.762049  1
  V  V20  1  0.850971  0.700902  0.739017  1
  V  V21  1  0.896855  0.044062  0.760500  1
  O  O22  1  0.039318  0.897751  0.865567  1
  O  O23  1  0.093829  0.214279  0.865291  1
  O  O24  1  0.058756  0.573183  0.859481  1
  O  O25  1  0.193492  0.037288  0.641088  1
  O  O26  1  0.159177  0.676404  0.634871  1
  O  O27  1  0.213128  0.359258  0.635289  1
  O  O28  1  0.303796  0.141142  0.361187  1
  O  O29  1  0.295474  0.460969  0.357517  1
  O  O30  1  0.305975  0.821096  0.364324  1
  O  O31  1  0.529941  0.389349  0.858190  1
  O  O32  1  0.432315  0.607064  0.137002  1
  O  O33  1  0.429895  0.939293  0.138257  1
  O  O34  1  0.422775  0.270041  0.142225  1
  O  O35  1  0.555169  0.706000  0.858327  1
  O  O36  1  0.576154  0.061993  0.863668  1
  O  O37  1  0.676143  0.524987  0.637065  1
  O  O38  1  0.697734  0.169936  0.641877  1
  O  O39  1  0.723031  0.853563  0.642155  1
  O  O40  1  0.818279  0.975902  0.361632  1
  O  O41  1  0.812843  0.311143  0.362930  1
  O  O42  1  0.819789  0.641944  0.357121  1
  O  O43  1  0.939701  0.438567  0.137504  1
  O  O44  1  0.938353  0.781233  0.136562  1
  O  O45  1  0.955080  0.104503  0.146059  1
