# generated using pymatgen
data_Li4V5(Fe2O9)2
_symmetry_space_group_name_H-M   'P 1'
_cell_length_a   2.96343483
_cell_length_b   9.06238638
_cell_length_c   25.79740453
_cell_angle_alpha   90.00000000
_cell_angle_beta   90.00000000
_cell_angle_gamma   90.00000000
_symmetry_Int_Tables_number   1
_chemical_formula_structural   Li4V5(Fe2O9)2
_chemical_formula_sum   'Li8 V10 Fe8 O36'
_cell_volume   692.80971579
_cell_formula_units_Z   2
loop_
 _symmetry_equiv_pos_site_id
 _symmetry_equiv_pos_as_xyz
  1  'x, y, z'
loop_
 _atom_site_type_symbol
 _atom_site_label
 _atom_site_symmetry_multiplicity
 _atom_site_fract_x
 _atom_site_fract_y
 _atom_site_fract_z
 _atom_site_occupancy
  Li  Li0  1  0.000000  0.195020  0.980948  1
  Li  Li1  1  0.000000  0.201325  0.177680  1
  Li  Li2  1  0.000000  0.298675  0.677680  1
  Li  Li3  1  0.000000  0.304980  0.480948  1
  Li  Li4  1  0.000000  0.695020  0.519052  1
  Li  Li5  1  0.000000  0.701325  0.322320  1
  Li  Li6  1  0.000000  0.798675  0.822320  1
  Li  Li7  1  0.000000  0.804980  0.019052  1
  V  V8  1  0.000000  0.000000  0.500000  1
  V  V9  1  0.000000  0.994721  0.102059  1
  V  V10  1  0.500000  0.148225  0.808493  1
  V  V11  1  0.500000  0.351775  0.308493  1
  V  V12  1  0.000000  0.505279  0.602059  1
  V  V13  1  0.000000  0.500000  0.000000  1
  V  V14  1  0.000000  0.494721  0.397941  1
  V  V15  1  0.500000  0.648225  0.691507  1
  V  V16  1  0.500000  0.851775  0.191507  1
  V  V17  1  0.000000  0.005279  0.897941  1
  Fe  Fe18  1  0.000000  0.004040  0.305049  1
  Fe  Fe19  1  0.500000  0.150108  0.586118  1
  Fe  Fe20  1  0.500000  0.349892  0.086118  1
  Fe  Fe21  1  0.000000  0.495960  0.805049  1
  Fe  Fe22  1  0.000000  0.504040  0.194951  1
  Fe  Fe23  1  0.500000  0.650108  0.913882  1
  Fe  Fe24  1  0.500000  0.849892  0.413882  1
  Fe  Fe25  1  0.000000  0.995960  0.694951  1
  O  O26  1  0.000000  0.994792  0.426442  1
  O  O27  1  0.000000  0.005208  0.573558  1
  O  O28  1  0.500000  0.064031  0.941150  1
  O  O29  1  0.500000  0.044127  0.158211  1
  O  O30  1  0.500000  0.122462  0.664990  1
  O  O31  1  0.000000  0.093920  0.761868  1
  O  O32  1  0.500000  0.150138  0.503914  1
  O  O33  1  0.500000  0.148285  0.292742  1
  O  O34  1  0.000000  0.182646  0.858541  1
  O  O35  1  0.000000  0.198559  0.087751  1
  O  O36  1  0.000000  0.301441  0.587751  1
  O  O37  1  0.000000  0.317354  0.358541  1
  O  O38  1  0.500000  0.351715  0.792742  1
  O  O39  1  0.500000  0.349862  0.003914  1
  O  O40  1  0.000000  0.406080  0.261868  1
  O  O41  1  0.500000  0.377538  0.164990  1
  O  O42  1  0.500000  0.455873  0.658211  1
  O  O43  1  0.500000  0.435969  0.441150  1
  O  O44  1  0.000000  0.494792  0.073558  1
  O  O45  1  0.000000  0.505208  0.926442  1
  O  O46  1  0.500000  0.564031  0.558850  1
  O  O47  1  0.500000  0.544127  0.341789  1
  O  O48  1  0.500000  0.622462  0.835010  1
  O  O49  1  0.000000  0.593920  0.738132  1
  O  O50  1  0.500000  0.650138  0.996086  1
  O  O51  1  0.500000  0.648285  0.207258  1
  O  O52  1  0.000000  0.682646  0.641459  1
  O  O53  1  0.000000  0.698559  0.412249  1
  O  O54  1  0.000000  0.801441  0.912249  1
  O  O55  1  0.000000  0.817354  0.141459  1
  O  O56  1  0.500000  0.851715  0.707258  1
  O  O57  1  0.500000  0.849862  0.496086  1
  O  O58  1  0.000000  0.906080  0.238132  1
  O  O59  1  0.500000  0.877538  0.335010  1
  O  O60  1  0.500000  0.955873  0.841789  1
  O  O61  1  0.500000  0.935969  0.058850  1
