# generated using pymatgen
data_V2Fe3Te(PO4)6
_symmetry_space_group_name_H-M   'P 1'
_cell_length_a   8.60597532
_cell_length_b   8.60597532
_cell_length_c   8.60597532
_cell_angle_alpha   61.06134542
_cell_angle_beta   61.06134542
_cell_angle_gamma   61.06134542
_symmetry_Int_Tables_number   1
_chemical_formula_structural   V2Fe3Te(PO4)6
_chemical_formula_sum   'V2 Fe3 Te1 P6 O24'
_cell_volume   461.46784633
_cell_formula_units_Z   1
loop_
 _symmetry_equiv_pos_site_id
 _symmetry_equiv_pos_as_xyz
  1  'x, y, z'
loop_
 _atom_site_type_symbol
 _atom_site_label
 _atom_site_symmetry_multiplicity
 _atom_site_fract_x
 _atom_site_fract_y
 _atom_site_fract_z
 _atom_site_occupancy
  V  V0  1  0.997823  0.997823  0.997823  1
  V  V1  1  0.501307  0.501307  0.501307  1
  Fe  Fe2  1  0.646934  0.646934  0.646934  1
  Fe  Fe3  1  0.853328  0.853328  0.853328  1
  Fe  Fe4  1  0.354910  0.354910  0.354910  1
  Te  Te5  1  0.147835  0.147835  0.147835  1
  P  P6  1  0.947425  0.252599  0.557282  1
  P  P7  1  0.557282  0.947425  0.252599  1
  P  P8  1  0.252599  0.557282  0.947425  1
  P  P9  1  0.742186  0.460009  0.046112  1
  P  P10  1  0.460009  0.046112  0.742186  1
  P  P11  1  0.046112  0.742186  0.460009  1
  O  O12  1  0.500455  0.110038  0.315996  1
  O  O13  1  0.315996  0.500455  0.110038  1
  O  O14  1  0.110038  0.315996  0.500455  1
  O  O15  1  0.934134  0.093594  0.751305  1
  O  O16  1  0.975729  0.179787  0.408893  1
  O  O17  1  0.751691  0.409056  0.571096  1
  O  O18  1  0.751305  0.934134  0.093594  1
  O  O19  1  0.571096  0.751691  0.409056  1
  O  O20  1  0.821038  0.607170  0.002791  1
  O  O21  1  0.409056  0.571096  0.751691  1
  O  O22  1  0.898007  0.257720  0.056648  1
  O  O23  1  0.607170  0.002791  0.821038  1
  O  O24  1  0.408893  0.975729  0.179787  1
  O  O25  1  0.093594  0.751305  0.934134  1
  O  O26  1  0.591230  0.439682  0.246756  1
  O  O27  1  0.179787  0.408893  0.975729  1
  O  O28  1  0.439682  0.246756  0.591230  1
  O  O29  1  0.257720  0.056648  0.898007  1
  O  O30  1  0.246756  0.591230  0.439682  1
  O  O31  1  0.002791  0.821038  0.607170  1
  O  O32  1  0.056648  0.898007  0.257720  1
  O  O33  1  0.895585  0.668093  0.505756  1
  O  O34  1  0.668093  0.505756  0.895585  1
  O  O35  1  0.505756  0.895585  0.668093  1
