# generated using pymatgen
data_GeSe
_symmetry_space_group_name_H-M   'P 1'
_cell_length_a   3.87795360
_cell_length_b   4.54986861
_cell_length_c   11.14222119
_cell_angle_alpha   90.00000000
_cell_angle_beta   90.00000000
_cell_angle_gamma   90.00000000
_symmetry_Int_Tables_number   1
_chemical_formula_structural   GeSe
_chemical_formula_sum   'Ge4 Se4'
_cell_volume   196.59534910
_cell_formula_units_Z   4
loop_
 _symmetry_equiv_pos_site_id
 _symmetry_equiv_pos_as_xyz
  1  'x, y, z'
loop_
 _atom_site_type_symbol
 _atom_site_label
 _atom_site_symmetry_multiplicity
 _atom_site_fract_x
 _atom_site_fract_y
 _atom_site_fract_z
 _atom_site_occupancy
  Ge  Ge0  1  0.250000  0.117327  0.125010  1
  Ge  Ge1  1  0.750000  0.882673  0.874990  1
  Ge  Ge2  1  0.750000  0.617327  0.374990  1
  Ge  Ge3  1  0.250000  0.382673  0.625010  1
  Se  Se4  1  0.250000  0.504330  0.852164  1
  Se  Se5  1  0.750000  0.495670  0.147836  1
  Se  Se6  1  0.750000  0.004330  0.647836  1
  Se  Se7  1  0.250000  0.995670  0.352164  1
