# generated using pymatgen
data_RbNa3Li12Ti4O16
_symmetry_space_group_name_H-M   'P 1'
_cell_length_a   8.69982680
_cell_length_b   8.69982680
_cell_length_c   8.69982680
_cell_angle_alpha   98.26248488
_cell_angle_beta   98.26248488
_cell_angle_gamma   135.44550406
_symmetry_Int_Tables_number   1
_chemical_formula_structural   RbNa3Li12Ti4O16
_chemical_formula_sum   'Rb1 Na3 Li12 Ti4 O16'
_cell_volume   427.48850531
_cell_formula_units_Z   1
loop_
 _symmetry_equiv_pos_site_id
 _symmetry_equiv_pos_as_xyz
  1  'x, y, z'
loop_
 _atom_site_type_symbol
 _atom_site_label
 _atom_site_symmetry_multiplicity
 _atom_site_fract_x
 _atom_site_fract_y
 _atom_site_fract_z
 _atom_site_occupancy
  Rb  Rb0  1  0.000000  0.000000  0.000000  1
  Na  Na1  1  0.500000  0.500000  0.000000  1
  Na  Na2  1  0.750000  0.250000  0.500000  1
  Na  Na3  1  0.250000  0.750000  0.500000  1
  Li  Li4  1  0.081368  0.278852  0.360220  1
  Li  Li5  1  0.850373  0.523196  0.867205  1
  Li  Li6  1  0.344009  0.016832  0.867205  1
  Li  Li7  1  0.721148  0.081368  0.802517  1
  Li  Li8  1  0.983168  0.850373  0.327177  1
  Li  Li9  1  0.476804  0.344009  0.327177  1
  Li  Li10  1  0.523196  0.655991  0.672823  1
  Li  Li11  1  0.016832  0.149627  0.672823  1
  Li  Li12  1  0.278852  0.918632  0.197483  1
  Li  Li13  1  0.149627  0.476804  0.132795  1
  Li  Li14  1  0.655991  0.983168  0.132795  1
  Li  Li15  1  0.918632  0.721148  0.639780  1
  Ti  Ti16  1  0.419469  0.222664  0.642133  1
  Ti  Ti17  1  0.222664  0.580531  0.803194  1
  Ti  Ti18  1  0.777336  0.419469  0.196806  1
  Ti  Ti19  1  0.580531  0.777336  0.357867  1
  O  O20  1  0.322624  0.093379  0.416003  1
  O  O21  1  0.646020  0.543932  0.725606  1
  O  O22  1  0.181674  0.079586  0.725606  1
  O  O23  1  0.571511  0.167401  0.738912  1
  O  O24  1  0.093379  0.677376  0.770754  1
  O  O25  1  0.167401  0.428489  0.595890  1
  O  O26  1  0.920414  0.646020  0.102089  1
  O  O27  1  0.456068  0.181674  0.102089  1
  O  O28  1  0.079586  0.353980  0.897911  1
  O  O29  1  0.543932  0.818326  0.897911  1
  O  O30  1  0.832599  0.571511  0.404110  1
  O  O31  1  0.906621  0.322624  0.229246  1
  O  O32  1  0.428489  0.832599  0.261088  1
  O  O33  1  0.818325  0.920414  0.274394  1
  O  O34  1  0.353980  0.456068  0.274394  1
  O  O35  1  0.677376  0.906621  0.583997  1
