# generated using pymatgen
data_Tb2WO6
_symmetry_space_group_name_H-M   'P 1'
_cell_length_a   5.30600100
_cell_length_b   9.18415536
_cell_length_c   10.03980950
_cell_angle_alpha   90.00000000
_cell_angle_beta   90.00000000
_cell_angle_gamma   90.00000000
_symmetry_Int_Tables_number   1
_chemical_formula_structural   Tb2WO6
_chemical_formula_sum   'Tb8 W4 O24'
_cell_volume   489.25133746
_cell_formula_units_Z   4
loop_
 _symmetry_equiv_pos_site_id
 _symmetry_equiv_pos_as_xyz
  1  'x, y, z'
loop_
 _atom_site_type_symbol
 _atom_site_label
 _atom_site_symmetry_multiplicity
 _atom_site_fract_x
 _atom_site_fract_y
 _atom_site_fract_z
 _atom_site_occupancy
  Tb  Tb0  1  0.020020  0.396743  0.034778  1
  Tb  Tb1  1  0.037603  0.280860  0.628727  1
  Tb  Tb2  1  0.462397  0.719140  0.128727  1
  Tb  Tb3  1  0.479980  0.603257  0.534778  1
  Tb  Tb4  1  0.520020  0.103257  0.965222  1
  Tb  Tb5  1  0.537603  0.219140  0.371273  1
  Tb  Tb6  1  0.962397  0.780860  0.871273  1
  Tb  Tb7  1  0.979980  0.896743  0.465222  1
  W  W8  1  0.039542  0.004502  0.152126  1
  W  W9  1  0.460458  0.995498  0.652126  1
  W  W10  1  0.539542  0.495498  0.847874  1
  W  W11  1  0.960458  0.504502  0.347874  1
  O  O12  1  0.084405  0.656301  0.469637  1
  O  O13  1  0.174990  0.547596  0.202627  1
  O  O14  1  0.181835  0.861822  0.680920  1
  O  O15  1  0.192305  0.859964  0.264162  1
  O  O16  1  0.230560  0.385931  0.432760  1
  O  O17  1  0.251269  0.089758  0.506846  1
  O  O18  1  0.248731  0.910242  0.006846  1
  O  O19  1  0.269440  0.614069  0.932760  1
  O  O20  1  0.307695  0.140036  0.764162  1
  O  O21  1  0.318165  0.138178  0.180920  1
  O  O22  1  0.325010  0.452404  0.702627  1
  O  O23  1  0.415595  0.343699  0.969637  1
  O  O24  1  0.584405  0.843699  0.530363  1
  O  O25  1  0.674990  0.952404  0.797373  1
  O  O26  1  0.681835  0.638178  0.319080  1
  O  O27  1  0.692305  0.640036  0.735838  1
  O  O28  1  0.730560  0.114069  0.567240  1
  O  O29  1  0.751269  0.410243  0.493154  1
  O  O30  1  0.748731  0.589758  0.993154  1
  O  O31  1  0.769440  0.885931  0.067240  1
  O  O32  1  0.807695  0.359964  0.235838  1
  O  O33  1  0.818165  0.361822  0.819080  1
  O  O34  1  0.825010  0.047596  0.297373  1
  O  O35  1  0.915595  0.156301  0.030363  1
