# generated using pymatgen
data_Ga10Si2O19
_symmetry_space_group_name_H-M   'P 1'
_cell_length_a   15.88607418
_cell_length_b   15.88607418
_cell_length_c   7.93695653
_cell_angle_alpha   90.00000000
_cell_angle_beta   90.00000000
_cell_angle_gamma   157.55601382
_symmetry_Int_Tables_number   1
_chemical_formula_structural   Ga10Si2O19
_chemical_formula_sum   'Ga20 Si4 O38'
_cell_volume   764.71638379
_cell_formula_units_Z   2
loop_
 _symmetry_equiv_pos_site_id
 _symmetry_equiv_pos_as_xyz
  1  'x, y, z'
loop_
 _atom_site_type_symbol
 _atom_site_label
 _atom_site_symmetry_multiplicity
 _atom_site_fract_x
 _atom_site_fract_y
 _atom_site_fract_z
 _atom_site_occupancy
  Ga  Ga0  1  0.469823  0.530177  0.344735  1
  Ga  Ga1  1  0.396649  0.603351  0.665883  1
  Ga  Ga2  1  0.355774  0.644226  0.201299  1
  Ga  Ga3  1  0.283089  0.716911  0.818739  1
  Ga  Ga4  1  0.437043  0.054112  0.004493  1
  Ga  Ga5  1  0.945888  0.562957  0.004493  1
  Ga  Ga6  1  0.103109  0.896891  0.164577  1
  Ga  Ga7  1  0.804245  0.683169  0.497090  1
  Ga  Ga8  1  0.316831  0.195755  0.497090  1
  Ga  Ga9  1  0.023292  0.976708  0.819962  1
  Ga  Ga10  1  0.976708  0.023292  0.319962  1
  Ga  Ga11  1  0.195755  0.316831  0.997090  1
  Ga  Ga12  1  0.683169  0.804245  0.997090  1
  Ga  Ga13  1  0.896891  0.103109  0.664577  1
  Ga  Ga14  1  0.054112  0.437043  0.504493  1
  Ga  Ga15  1  0.562957  0.945888  0.504493  1
  Ga  Ga16  1  0.716911  0.283089  0.318739  1
  Ga  Ga17  1  0.644226  0.355774  0.701299  1
  Ga  Ga18  1  0.603351  0.396649  0.165883  1
  Ga  Ga19  1  0.530177  0.469823  0.844735  1
  Si  Si20  1  0.258813  0.741187  0.178596  1
  Si  Si21  1  0.119949  0.880051  0.786070  1
  Si  Si22  1  0.880051  0.119949  0.286070  1
  Si  Si23  1  0.741187  0.258813  0.678596  1
  O  O24  1  0.474015  0.525985  0.918509  1
  O  O25  1  0.417149  0.582851  0.452659  1
  O  O26  1  0.402335  0.597665  0.070552  1
  O  O27  1  0.332322  0.667678  0.642825  1
  O  O28  1  0.304658  0.695342  0.055762  1
  O  O29  1  0.285491  0.714509  0.370192  1
  O  O30  1  0.231640  0.768360  0.953217  1
  O  O31  1  0.993625  0.528271  0.200097  1
  O  O32  1  0.471729  0.006375  0.200097  1
  O  O33  1  0.372301  0.070076  0.807260  1
  O  O34  1  0.929924  0.627699  0.807260  1
  O  O35  1  0.159891  0.840109  0.097662  1
  O  O36  1  0.098624  0.901376  0.600894  1
  O  O37  1  0.847360  0.658106  0.283715  1
  O  O38  1  0.341894  0.152640  0.283715  1
  O  O39  1  0.081065  0.918935  0.935201  1
  O  O40  1  0.773275  0.716732  0.708573  1
  O  O41  1  0.283268  0.226725  0.708573  1
  O  O42  1  0.028398  0.971602  0.425207  1
  O  O43  1  0.971602  0.028398  0.925207  1
  O  O44  1  0.226725  0.283268  0.208573  1
  O  O45  1  0.716732  0.773275  0.208573  1
  O  O46  1  0.918935  0.081065  0.435201  1
  O  O47  1  0.152640  0.341894  0.783715  1
  O  O48  1  0.658106  0.847360  0.783715  1
  O  O49  1  0.901376  0.098624  0.100894  1
  O  O50  1  0.840109  0.159891  0.597662  1
  O  O51  1  0.070076  0.372301  0.307260  1
  O  O52  1  0.627699  0.929924  0.307260  1
  O  O53  1  0.006375  0.471729  0.700097  1
  O  O54  1  0.528271  0.993625  0.700097  1
  O  O55  1  0.768360  0.231640  0.453217  1
  O  O56  1  0.714509  0.285491  0.870192  1
  O  O57  1  0.695342  0.304658  0.555762  1
  O  O58  1  0.667678  0.332322  0.142825  1
  O  O59  1  0.597665  0.402335  0.570552  1
  O  O60  1  0.582851  0.417149  0.952659  1
  O  O61  1  0.525985  0.474015  0.418509  1
