# generated using pymatgen
data_VO2F
_symmetry_space_group_name_H-M   'P 1'
_cell_length_a   5.17387683
_cell_length_b   5.17387683
_cell_length_c   13.00701203
_cell_angle_alpha   90.00000000
_cell_angle_beta   90.00000000
_cell_angle_gamma   120.00000000
_symmetry_Int_Tables_number   1
_chemical_formula_structural   VO2F
_chemical_formula_sum   'V6 O12 F6'
_cell_volume   301.53681547
_cell_formula_units_Z   6
loop_
 _symmetry_equiv_pos_site_id
 _symmetry_equiv_pos_as_xyz
  1  'x, y, z'
loop_
 _atom_site_type_symbol
 _atom_site_label
 _atom_site_symmetry_multiplicity
 _atom_site_fract_x
 _atom_site_fract_y
 _atom_site_fract_z
 _atom_site_occupancy
  V  V0  1  0.623270  0.692710  0.502216  1
  V  V1  1  0.718363  0.680765  0.002458  1
  V  V2  1  0.069440  0.376730  0.168883  1
  V  V3  1  0.319235  0.037598  0.335791  1
  V  V4  1  0.962402  0.281637  0.669125  1
  V  V5  1  0.307290  0.930560  0.835549  1
  O  O6  1  0.252943  0.667420  0.247117  1
  O  O7  1  0.332580  0.585523  0.580450  1
  O  O8  1  0.327153  0.419127  0.081526  1
  O  O9  1  0.421607  0.327705  0.416543  1
  O  O10  1  0.091974  0.672847  0.748192  1
  O  O11  1  0.672295  0.093903  0.749876  1
  O  O12  1  0.906097  0.578393  0.083209  1
  O  O13  1  0.580873  0.908026  0.414859  1
  O  O14  1  0.083254  0.078892  0.250777  1
  O  O15  1  0.414477  0.747057  0.913784  1
  O  O16  1  0.921108  0.004362  0.584111  1
  O  O17  1  0.995638  0.916746  0.917444  1
  F  F18  1  0.657640  0.244508  0.249955  1
  F  F19  1  0.586868  0.342360  0.916622  1
  F  F20  1  0.256729  0.264550  0.749408  1
  F  F21  1  0.755492  0.413132  0.583288  1
  F  F22  1  0.735450  0.992179  0.082741  1
  F  F23  1  0.007821  0.743271  0.416075  1
