# generated using pymatgen
data_MnFeCo(PO4)3
_symmetry_space_group_name_H-M   'P 1'
_cell_length_a   9.85508182
_cell_length_b   6.00656167
_cell_length_c   14.65443421
_cell_angle_alpha   90.00000000
_cell_angle_beta   90.29825927
_cell_angle_gamma   90.00000000
_symmetry_Int_Tables_number   1
_chemical_formula_structural   MnFeCo(PO4)3
_chemical_formula_sum   'Mn4 Fe4 Co4 P12 O48'
_cell_volume   867.45977560
_cell_formula_units_Z   4
loop_
 _symmetry_equiv_pos_site_id
 _symmetry_equiv_pos_as_xyz
  1  'x, y, z'
loop_
 _atom_site_type_symbol
 _atom_site_label
 _atom_site_symmetry_multiplicity
 _atom_site_fract_x
 _atom_site_fract_y
 _atom_site_fract_z
 _atom_site_occupancy
  Mn  Mn0  1  0.215905  0.000000  0.187734  1
  Mn  Mn1  1  0.213288  0.000000  0.519586  1
  Mn  Mn2  1  0.283033  0.500000  0.353954  1
  Mn  Mn3  1  0.283552  0.500000  0.686756  1
  Fe  Fe4  1  0.225495  0.000000  0.846062  1
  Fe  Fe5  1  0.276915  0.500000  0.014898  1
  Fe  Fe6  1  0.729117  0.000000  0.655893  1
  Fe  Fe7  1  0.726849  0.000000  0.991121  1
  Co  Co8  1  0.726444  0.000000  0.322927  1
  Co  Co9  1  0.771845  0.500000  0.823480  1
  Co  Co10  1  0.774120  0.500000  0.485860  1
  Co  Co11  1  0.772821  0.500000  0.159375  1
  P  P12  1  0.098477  0.500000  0.527250  1
  P  P13  1  0.097383  0.500000  0.194685  1
  P  P14  1  0.099239  0.500000  0.859656  1
  P  P15  1  0.400303  0.000000  0.029421  1
  P  P16  1  0.401111  0.000000  0.692671  1
  P  P17  1  0.400688  0.000000  0.360490  1
  P  P18  1  0.601684  0.500000  0.972385  1
  P  P19  1  0.601529  0.500000  0.637582  1
  P  P20  1  0.598098  0.500000  0.303961  1
  P  P21  1  0.900430  0.000000  0.470320  1
  P  P22  1  0.900861  0.000000  0.139621  1
  P  P23  1  0.901285  0.000000  0.805094  1
  O  O24  1  0.053293  0.000000  0.117573  1
  O  O25  1  0.053007  0.000000  0.446313  1
  O  O26  1  0.053351  0.000000  0.783534  1
  O  O27  1  0.119946  0.500000  0.755583  1
  O  O28  1  0.118691  0.500000  0.423318  1
  O  O29  1  0.117692  0.500000  0.091548  1
  O  O30  1  0.170987  0.299700  0.575551  1
  O  O31  1  0.170987  0.700300  0.575551  1
  O  O32  1  0.167953  0.298912  0.243406  1
  O  O33  1  0.167953  0.701088  0.243406  1
  O  O34  1  0.171686  0.300325  0.908441  1
  O  O35  1  0.171686  0.699675  0.908441  1
  O  O36  1  0.327313  0.801986  0.742935  1
  O  O37  1  0.327313  0.198014  0.742935  1
  O  O38  1  0.328446  0.795670  0.074856  1
  O  O39  1  0.328446  0.204330  0.074856  1
  O  O40  1  0.329856  0.799457  0.408880  1
  O  O41  1  0.329856  0.200543  0.408880  1
  O  O42  1  0.379094  0.000000  0.925341  1
  O  O43  1  0.378910  0.000000  0.589160  1
  O  O44  1  0.381035  0.000000  0.256335  1
  O  O45  1  0.450174  0.500000  0.951045  1
  O  O46  1  0.447887  0.500000  0.616826  1
  O  O47  1  0.445179  0.500000  0.282456  1
  O  O48  1  0.552853  0.000000  0.050616  1
  O  O49  1  0.552204  0.000000  0.713519  1
  O  O50  1  0.555312  0.000000  0.379197  1
  O  O51  1  0.623567  0.500000  0.742349  1
  O  O52  1  0.627105  0.500000  0.076318  1
  O  O53  1  0.621145  0.500000  0.408890  1
  O  O54  1  0.672728  0.297881  0.590289  1
  O  O55  1  0.672728  0.702119  0.590289  1
  O  O56  1  0.674670  0.298743  0.924204  1
  O  O57  1  0.674670  0.701257  0.924204  1
  O  O58  1  0.669834  0.298954  0.256350  1
  O  O59  1  0.669834  0.701046  0.256350  1
  O  O60  1  0.827668  0.798791  0.421875  1
  O  O61  1  0.827668  0.201209  0.421875  1
  O  O62  1  0.829688  0.799977  0.090430  1
  O  O63  1  0.829688  0.200023  0.090430  1
  O  O64  1  0.827966  0.800873  0.755018  1
  O  O65  1  0.827966  0.199127  0.755018  1
  O  O66  1  0.876776  0.000000  0.243716  1
  O  O67  1  0.879972  0.000000  0.908096  1
  O  O68  1  0.882192  0.000000  0.573745  1
  O  O69  1  0.944532  0.500000  0.547329  1
  O  O70  1  0.942883  0.500000  0.215295  1
  O  O71  1  0.945125  0.500000  0.877394  1
