# generated using pymatgen
data_Li2Mn(SiO3)2
_symmetry_space_group_name_H-M   'P 1'
_cell_length_a   7.20112367
_cell_length_b   10.14167949
_cell_length_c   10.27872644
_cell_angle_alpha   90.00000000
_cell_angle_beta   90.00000000
_cell_angle_gamma   90.00000000
_symmetry_Int_Tables_number   1
_chemical_formula_structural   Li2Mn(SiO3)2
_chemical_formula_sum   'Li12 Mn6 Si12 O36'
_cell_volume   750.67068901
_cell_formula_units_Z   6
loop_
 _symmetry_equiv_pos_site_id
 _symmetry_equiv_pos_as_xyz
  1  'x, y, z'
loop_
 _atom_site_type_symbol
 _atom_site_label
 _atom_site_symmetry_multiplicity
 _atom_site_fract_x
 _atom_site_fract_y
 _atom_site_fract_z
 _atom_site_occupancy
  Li  Li0  1  0.502076  0.504470  0.000000  1
  Li  Li1  1  0.274505  0.260015  0.000000  1
  Li  Li2  1  0.707040  0.549010  0.789691  1
  Li  Li3  1  0.250517  0.491781  0.772961  1
  Li  Li4  1  0.749483  0.991781  0.727039  1
  Li  Li5  1  0.292960  0.049010  0.710309  1
  Li  Li6  1  0.725495  0.760015  0.500000  1
  Li  Li7  1  0.497924  0.004470  0.500000  1
  Li  Li8  1  0.292960  0.049010  0.289691  1
  Li  Li9  1  0.749483  0.991781  0.272961  1
  Li  Li10  1  0.250517  0.491781  0.227039  1
  Li  Li11  1  0.707040  0.549010  0.210309  1
  Mn  Mn12  1  0.017310  0.995106  0.000000  1
  Mn  Mn13  1  0.750311  0.758087  0.000000  1
  Mn  Mn14  1  0.264449  0.744369  0.000000  1
  Mn  Mn15  1  0.982690  0.495106  0.500000  1
  Mn  Mn16  1  0.735551  0.244369  0.500000  1
  Mn  Mn17  1  0.249689  0.258087  0.500000  1
  Si  Si18  1  0.006931  0.465625  0.000000  1
  Si  Si19  1  0.491511  0.040026  0.000000  1
  Si  Si20  1  0.978342  0.245761  0.773388  1
  Si  Si21  1  0.531062  0.254992  0.776894  1
  Si  Si22  1  0.468938  0.754992  0.723106  1
  Si  Si23  1  0.021658  0.745761  0.726612  1
  Si  Si24  1  0.508489  0.540026  0.500000  1
  Si  Si25  1  0.993069  0.965625  0.500000  1
  Si  Si26  1  0.021658  0.745761  0.273388  1
  Si  Si27  1  0.468938  0.754992  0.276894  1
  Si  Si28  1  0.531062  0.254992  0.223106  1
  Si  Si29  1  0.978342  0.245761  0.226612  1
  O  O30  1  0.699993  0.981377  0.000000  1
  O  O31  1  0.804850  0.533216  0.000000  1
  O  O32  1  0.317493  0.938298  0.000000  1
  O  O33  1  0.197472  0.552308  0.000000  1
  O  O34  1  0.442900  0.143979  0.878670  1
  O  O35  1  0.044810  0.366364  0.873340  1
  O  O36  1  0.978945  0.801207  0.871326  1
  O  O37  1  0.538140  0.704080  0.865132  1
  O  O38  1  0.480339  0.402075  0.824775  1
  O  O39  1  0.069906  0.108176  0.820966  1
  O  O40  1  0.753560  0.220129  0.782092  1
  O  O41  1  0.246440  0.720129  0.717908  1
  O  O42  1  0.930094  0.608176  0.679034  1
  O  O43  1  0.519661  0.902075  0.675225  1
  O  O44  1  0.461860  0.204080  0.634868  1
  O  O45  1  0.021055  0.301207  0.628674  1
  O  O46  1  0.955190  0.866364  0.626660  1
  O  O47  1  0.557100  0.643979  0.621330  1
  O  O48  1  0.300007  0.481377  0.500000  1
  O  O49  1  0.682507  0.438298  0.500000  1
  O  O50  1  0.195150  0.033216  0.500000  1
  O  O51  1  0.802528  0.052308  0.500000  1
  O  O52  1  0.557100  0.643979  0.378670  1
  O  O53  1  0.955190  0.866364  0.373340  1
  O  O54  1  0.021055  0.301207  0.371326  1
  O  O55  1  0.461860  0.204080  0.365132  1
  O  O56  1  0.519661  0.902075  0.324775  1
  O  O57  1  0.930094  0.608176  0.320966  1
  O  O58  1  0.246440  0.720129  0.282092  1
  O  O59  1  0.753560  0.220129  0.217908  1
  O  O60  1  0.069906  0.108176  0.179034  1
  O  O61  1  0.480339  0.402075  0.175225  1
  O  O62  1  0.538140  0.704080  0.134868  1
  O  O63  1  0.978945  0.801207  0.128674  1
  O  O64  1  0.044810  0.366364  0.126660  1
  O  O65  1  0.442900  0.143979  0.121330  1
