# generated using pymatgen
data_V3(O2F)2
_symmetry_space_group_name_H-M   'P 1'
_cell_length_a   4.64558755
_cell_length_b   5.58626008
_cell_length_c   7.75028052
_cell_angle_alpha   86.36328084
_cell_angle_beta   88.71008139
_cell_angle_gamma   88.75122336
_symmetry_Int_Tables_number   1
_chemical_formula_structural   V3(O2F)2
_chemical_formula_sum   'V6 O8 F4'
_cell_volume   200.63339980
_cell_formula_units_Z   2
loop_
 _symmetry_equiv_pos_site_id
 _symmetry_equiv_pos_as_xyz
  1  'x, y, z'
loop_
 _atom_site_type_symbol
 _atom_site_label
 _atom_site_symmetry_multiplicity
 _atom_site_fract_x
 _atom_site_fract_y
 _atom_site_fract_z
 _atom_site_occupancy
  V  V0  1  0.509461  0.832351  0.656530  1
  V  V1  1  0.475288  0.509287  0.988361  1
  V  V2  1  0.505692  0.181558  0.352692  1
  V  V3  1  0.005350  0.337832  0.670743  1
  V  V4  1  0.968084  0.645408  0.318454  1
  V  V5  1  0.017539  0.988658  0.999656  1
  O  O6  1  0.807264  0.371598  0.436371  1
  O  O7  1  0.796387  0.697591  0.098232  1
  O  O8  1  0.690059  0.537163  0.770276  1
  O  O9  1  0.713664  0.862310  0.428702  1
  O  O10  1  0.305293  0.132223  0.576031  1
  O  O11  1  0.291845  0.473750  0.233235  1
  O  O12  1  0.305804  0.795803  0.892996  1
  O  O13  1  0.203208  0.298363  0.911518  1
  F  F14  1  0.805107  0.035726  0.771660  1
  F  F15  1  0.697378  0.200263  0.103057  1
  F  F16  1  0.207605  0.963384  0.235512  1
  F  F17  1  0.194971  0.636734  0.555973  1
