# generated using pymatgen
data_Li6SbS2
_symmetry_space_group_name_H-M   'P 1'
_cell_length_a   6.00821416
_cell_length_b   6.18685988
_cell_length_c   18.03654067
_cell_angle_alpha   90.00000000
_cell_angle_beta   100.54084923
_cell_angle_gamma   90.00000000
_symmetry_Int_Tables_number   1
_chemical_formula_structural   Li6SbS2
_chemical_formula_sum   'Li24 Sb4 S8'
_cell_volume   659.13982405
_cell_formula_units_Z   4
loop_
 _symmetry_equiv_pos_site_id
 _symmetry_equiv_pos_as_xyz
  1  'x, y, z'
loop_
 _atom_site_type_symbol
 _atom_site_label
 _atom_site_symmetry_multiplicity
 _atom_site_fract_x
 _atom_site_fract_y
 _atom_site_fract_z
 _atom_site_occupancy
  Li  Li0  1  0.037480  0.255992  0.822013  1
  Li  Li1  1  0.039976  0.760443  0.835836  1
  Li  Li2  1  0.088491  0.168362  0.971241  1
  Li  Li3  1  0.037480  0.244008  0.322013  1
  Li  Li4  1  0.039976  0.739557  0.335836  1
  Li  Li5  1  0.088491  0.331638  0.471241  1
  Li  Li6  1  0.462905  0.741852  0.498404  1
  Li  Li7  1  0.474324  0.282816  0.669812  1
  Li  Li8  1  0.478034  0.736707  0.673050  1
  Li  Li9  1  0.521966  0.236707  0.826950  1
  Li  Li10  1  0.462905  0.758148  0.998404  1
  Li  Li11  1  0.525676  0.782816  0.830188  1
  Li  Li12  1  0.474324  0.217184  0.169812  1
  Li  Li13  1  0.537095  0.241852  0.001596  1
  Li  Li14  1  0.478034  0.763293  0.173050  1
  Li  Li15  1  0.521966  0.263293  0.326950  1
  Li  Li16  1  0.525676  0.717184  0.330188  1
  Li  Li17  1  0.537095  0.258148  0.501596  1
  Li  Li18  1  0.911509  0.668362  0.528759  1
  Li  Li19  1  0.960024  0.260443  0.664164  1
  Li  Li20  1  0.962520  0.755992  0.677987  1
  Li  Li21  1  0.911509  0.831638  0.028759  1
  Li  Li22  1  0.960024  0.239557  0.164164  1
  Li  Li23  1  0.962520  0.744008  0.177987  1
  Sb  Sb24  1  0.182289  0.005495  0.567696  1
  Sb  Sb25  1  0.182289  0.494505  0.067696  1
  Sb  Sb26  1  0.817711  0.505495  0.932304  1
  Sb  Sb27  1  0.817711  0.994505  0.432304  1
  S  S28  1  0.260666  0.509643  0.752316  1
  S  S29  1  0.313011  0.012192  0.899007  1
  S  S30  1  0.260666  0.990357  0.252316  1
  S  S31  1  0.313011  0.487808  0.399007  1
  S  S32  1  0.686989  0.512192  0.600993  1
  S  S33  1  0.739334  0.009643  0.747684  1
  S  S34  1  0.686989  0.987808  0.100993  1
  S  S35  1  0.739334  0.490357  0.247684  1
