# generated using pymatgen
data_Bi3IO4
_symmetry_space_group_name_H-M   'P 1'
_cell_length_a   5.86185449
_cell_length_b   5.90371238
_cell_length_c   19.99506190
_cell_angle_alpha   90.00000000
_cell_angle_beta   90.00000000
_cell_angle_gamma   90.00000000
_symmetry_Int_Tables_number   1
_chemical_formula_structural   Bi3IO4
_chemical_formula_sum   'Bi12 I4 O16'
_cell_volume   691.96316709
_cell_formula_units_Z   4
loop_
 _symmetry_equiv_pos_site_id
 _symmetry_equiv_pos_as_xyz
  1  'x, y, z'
loop_
 _atom_site_type_symbol
 _atom_site_label
 _atom_site_symmetry_multiplicity
 _atom_site_fract_x
 _atom_site_fract_y
 _atom_site_fract_z
 _atom_site_occupancy
  Bi  Bi0  1  0.201853  0.201642  0.864285  1
  Bi  Bi1  1  0.201853  0.298358  0.635715  1
  Bi  Bi2  1  0.250000  0.698159  0.000000  1
  Bi  Bi3  1  0.250000  0.801841  0.500000  1
  Bi  Bi4  1  0.298147  0.298358  0.364285  1
  Bi  Bi5  1  0.298147  0.201642  0.135715  1
  Bi  Bi6  1  0.701853  0.701642  0.635715  1
  Bi  Bi7  1  0.701853  0.798358  0.864285  1
  Bi  Bi8  1  0.750000  0.301841  0.000000  1
  Bi  Bi9  1  0.750000  0.198159  0.500000  1
  Bi  Bi10  1  0.798147  0.798358  0.135715  1
  Bi  Bi11  1  0.798147  0.701642  0.364285  1
  I  I12  1  0.224354  0.750000  0.750000  1
  I  I13  1  0.275646  0.750000  0.250000  1
  I  I14  1  0.724354  0.250000  0.750000  1
  I  I15  1  0.775646  0.250000  0.250000  1
  O  O16  1  0.014195  0.457412  0.414377  1
  O  O17  1  0.014195  0.042588  0.085623  1
  O  O18  1  0.073876  0.430697  0.938567  1
  O  O19  1  0.073876  0.069303  0.561433  1
  O  O20  1  0.426124  0.069303  0.438567  1
  O  O21  1  0.426124  0.430697  0.061433  1
  O  O22  1  0.485805  0.457412  0.585623  1
  O  O23  1  0.485805  0.042588  0.914377  1
  O  O24  1  0.514195  0.957412  0.085623  1
  O  O25  1  0.514195  0.542588  0.414377  1
  O  O26  1  0.573876  0.569303  0.938567  1
  O  O27  1  0.573876  0.930697  0.561433  1
  O  O28  1  0.926124  0.569303  0.061433  1
  O  O29  1  0.926124  0.930697  0.438567  1
  O  O30  1  0.985805  0.957412  0.914377  1
  O  O31  1  0.985805  0.542588  0.585623  1
