# generated using pymatgen
data_LiMn3(OF3)2
_symmetry_space_group_name_H-M   'P 1'
_cell_length_a   5.61662408
_cell_length_b   4.76770088
_cell_length_c   10.31321821
_cell_angle_alpha   90.00000000
_cell_angle_beta   95.24061077
_cell_angle_gamma   90.00000000
_symmetry_Int_Tables_number   1
_chemical_formula_structural   LiMn3(OF3)2
_chemical_formula_sum   'Li2 Mn6 O4 F12'
_cell_volume   275.01689184
_cell_formula_units_Z   2
loop_
 _symmetry_equiv_pos_site_id
 _symmetry_equiv_pos_as_xyz
  1  'x, y, z'
loop_
 _atom_site_type_symbol
 _atom_site_label
 _atom_site_symmetry_multiplicity
 _atom_site_fract_x
 _atom_site_fract_y
 _atom_site_fract_z
 _atom_site_occupancy
  Li  Li0  1  0.000000  0.000000  0.500000  1
  Li  Li1  1  0.000000  0.500000  0.000000  1
  Mn  Mn2  1  0.500000  0.500000  0.500000  1
  Mn  Mn3  1  0.265467  0.981615  0.251041  1
  Mn  Mn4  1  0.734533  0.481615  0.248959  1
  Mn  Mn5  1  0.500000  0.000000  0.000000  1
  Mn  Mn6  1  0.265467  0.518385  0.751041  1
  Mn  Mn7  1  0.734533  0.018385  0.748959  1
  O  O8  1  0.494311  0.674325  0.329061  1
  O  O9  1  0.505689  0.174325  0.170939  1
  O  O10  1  0.494311  0.825675  0.829061  1
  O  O11  1  0.505689  0.325675  0.670939  1
  F  F12  1  0.284676  0.191019  0.420470  1
  F  F13  1  0.783155  0.296776  0.423935  1
  F  F14  1  0.996095  0.793674  0.319390  1
  F  F15  1  0.003905  0.293674  0.180610  1
  F  F16  1  0.216845  0.796776  0.076065  1
  F  F17  1  0.715324  0.691019  0.079530  1
  F  F18  1  0.284676  0.308981  0.920470  1
  F  F19  1  0.783155  0.203224  0.923935  1
  F  F20  1  0.996095  0.706326  0.819390  1
  F  F21  1  0.003905  0.206326  0.680610  1
  F  F22  1  0.216845  0.703224  0.576065  1
  F  F23  1  0.715324  0.808981  0.579530  1
