# generated using pymatgen
data_Li2CrO4
_symmetry_space_group_name_H-M   'P 1'
_cell_length_a   5.19349172
_cell_length_b   5.28603083
_cell_length_c   7.77281686
_cell_angle_alpha   82.78585607
_cell_angle_beta   109.18561076
_cell_angle_gamma   114.05439262
_symmetry_Int_Tables_number   1
_chemical_formula_structural   Li2CrO4
_chemical_formula_sum   'Li4 Cr2 O8'
_cell_volume   184.02488209
_cell_formula_units_Z   2
loop_
 _symmetry_equiv_pos_site_id
 _symmetry_equiv_pos_as_xyz
  1  'x, y, z'
loop_
 _atom_site_type_symbol
 _atom_site_label
 _atom_site_symmetry_multiplicity
 _atom_site_fract_x
 _atom_site_fract_y
 _atom_site_fract_z
 _atom_site_occupancy
  Li  Li0  1  0.768825  0.283683  0.178231  1
  Li  Li1  1  0.980421  0.741335  0.466448  1
  Li  Li2  1  0.059098  0.276697  0.564518  1
  Li  Li3  1  0.199443  0.237369  0.978725  1
  Cr  Cr4  1  0.405897  0.717644  0.248295  1
  Cr  Cr5  1  0.596247  0.277251  0.747992  1
  O  O6  1  0.258730  0.875022  0.072454  1
  O  O7  1  0.502016  0.487389  0.184629  1
  O  O8  1  0.715472  0.960805  0.377722  1
  O  O9  1  0.147571  0.543816  0.355526  1
  O  O10  1  0.824369  0.458039  0.627858  1
  O  O11  1  0.321691  0.019486  0.617000  1
  O  O12  1  0.425049  0.450598  0.796542  1
  O  O13  1  0.793073  0.180067  0.944360  1
