# generated using pymatgen
data_Li9Fe3(OF7)2
_symmetry_space_group_name_H-M   'P 1'
_cell_length_a   5.93126608
_cell_length_b   5.99153534
_cell_length_c   10.30861602
_cell_angle_alpha   90.79282627
_cell_angle_beta   106.13013125
_cell_angle_gamma   119.53694101
_symmetry_Int_Tables_number   1
_chemical_formula_structural   Li9Fe3(OF7)2
_chemical_formula_sum   'Li9 Fe3 O2 F14'
_cell_volume   301.15853266
_cell_formula_units_Z   1
loop_
 _symmetry_equiv_pos_site_id
 _symmetry_equiv_pos_as_xyz
  1  'x, y, z'
loop_
 _atom_site_type_symbol
 _atom_site_label
 _atom_site_symmetry_multiplicity
 _atom_site_fract_x
 _atom_site_fract_y
 _atom_site_fract_z
 _atom_site_occupancy
  Li  Li0  1  0.971361  0.230920  0.741356  1
  Li  Li1  1  0.000000  0.500000  0.000000  1
  Li  Li2  1  0.636592  0.588550  0.692895  1
  Li  Li3  1  0.363408  0.411450  0.307105  1
  Li  Li4  1  0.378910  0.921719  0.808212  1
  Li  Li5  1  0.621090  0.078281  0.191788  1
  Li  Li6  1  0.500000  0.000000  0.500000  1
  Li  Li7  1  0.028639  0.769080  0.258644  1
  Li  Li8  1  0.000000  0.000000  0.500000  1
  Fe  Fe9  1  0.500000  0.500000  0.000000  1
  Fe  Fe10  1  0.000000  0.000000  0.000000  1
  Fe  Fe11  1  0.000000  0.500000  0.500000  1
  O  O12  1  0.247116  0.350234  0.100889  1
  O  O13  1  0.752884  0.649766  0.899111  1
  F  F14  1  0.245038  0.128876  0.872776  1
  F  F15  1  0.755994  0.398801  0.121815  1
  F  F16  1  0.229725  0.869303  0.120791  1
  F  F17  1  0.770275  0.130697  0.879209  1
  F  F18  1  0.244006  0.601199  0.878185  1
  F  F19  1  0.754962  0.871124  0.127224  1
  F  F20  1  0.767323  0.380121  0.617442  1
  F  F21  1  0.768535  0.147607  0.388768  1
  F  F22  1  0.222946  0.377804  0.617000  1
  F  F23  1  0.755618  0.901032  0.616537  1
  F  F24  1  0.244382  0.098968  0.383463  1
  F  F25  1  0.777054  0.622196  0.383000  1
  F  F26  1  0.231465  0.852393  0.611232  1
  F  F27  1  0.232677  0.619879  0.382558  1
