# generated using pymatgen
data_LiVF6
_symmetry_space_group_name_H-M   'P 1'
_cell_length_a   4.84811708
_cell_length_b   4.84811708
_cell_length_c   8.84417165
_cell_angle_alpha   90.00000000
_cell_angle_beta   90.00000000
_cell_angle_gamma   90.00000000
_symmetry_Int_Tables_number   1
_chemical_formula_structural   LiVF6
_chemical_formula_sum   'Li2 V2 F12'
_cell_volume   207.87552618
_cell_formula_units_Z   2
loop_
 _symmetry_equiv_pos_site_id
 _symmetry_equiv_pos_as_xyz
  1  'x, y, z'
loop_
 _atom_site_type_symbol
 _atom_site_label
 _atom_site_symmetry_multiplicity
 _atom_site_fract_x
 _atom_site_fract_y
 _atom_site_fract_z
 _atom_site_occupancy
  Li  Li0  1  0.000000  0.000000  0.347958  1
  Li  Li1  1  0.500000  0.500000  0.847958  1
  V  V2  1  0.000000  0.000000  0.996309  1
  V  V3  1  0.500000  0.500000  0.496309  1
  F  F4  1  0.177069  0.822931  0.148911  1
  F  F5  1  0.196699  0.803301  0.858543  1
  F  F6  1  0.234766  0.765234  0.487977  1
  F  F7  1  0.265234  0.265234  0.987977  1
  F  F8  1  0.303301  0.303301  0.358543  1
  F  F9  1  0.322931  0.322931  0.648911  1
  F  F10  1  0.696699  0.696699  0.358543  1
  F  F11  1  0.677069  0.677069  0.648911  1
  F  F12  1  0.734766  0.734766  0.987977  1
  F  F13  1  0.765234  0.234766  0.487977  1
  F  F14  1  0.822931  0.177069  0.148911  1
  F  F15  1  0.803301  0.196699  0.858543  1
