# generated using pymatgen
data_Ag2O
_symmetry_space_group_name_H-M   'P 1'
_cell_length_a   6.78034299
_cell_length_b   6.78034299
_cell_length_c   6.78034299
_cell_angle_alpha   123.38706697
_cell_angle_beta   123.04920086
_cell_angle_gamma   84.51119298
_symmetry_Int_Tables_number   1
_chemical_formula_structural   Ag2O
_chemical_formula_sum   'Ag8 O4'
_cell_volume   208.64387051
_cell_formula_units_Z   4
loop_
 _symmetry_equiv_pos_site_id
 _symmetry_equiv_pos_as_xyz
  1  'x, y, z'
loop_
 _atom_site_type_symbol
 _atom_site_label
 _atom_site_symmetry_multiplicity
 _atom_site_fract_x
 _atom_site_fract_y
 _atom_site_fract_z
 _atom_site_occupancy
  Ag  Ag0  1  0.000000  0.500000  0.000000  1
  Ag  Ag1  1  1.000000  1.000000  0.500000  1
  Ag  Ag2  1  0.000000  0.500000  0.500000  1
  Ag  Ag3  1  0.500000  0.250000  0.750000  1
  Ag  Ag4  1  0.000000  0.000000  0.000000  1
  Ag  Ag5  1  0.500000  1.000000  0.000000  1
  Ag  Ag6  1  0.500000  0.750000  0.250000  1
  Ag  Ag7  1  0.500000  0.500000  0.500000  1
  O  O8  1  0.166188  0.887892  0.278296  1
  O  O9  1  0.609596  0.387892  0.221704  1
  O  O10  1  0.390404  0.612108  0.778296  1
  O  O11  1  0.833812  0.112108  0.721704  1
