# generated using pymatgen
data_LiVSnO4
_symmetry_space_group_name_H-M   'P 1'
_cell_length_a   6.11633401
_cell_length_b   6.11633401
_cell_length_c   8.67141376
_cell_angle_alpha   90.00000000
_cell_angle_beta   90.00000000
_cell_angle_gamma   90.00000000
_symmetry_Int_Tables_number   1
_chemical_formula_structural   LiVSnO4
_chemical_formula_sum   'Li4 V4 Sn4 O16'
_cell_volume   324.39361484
_cell_formula_units_Z   4
loop_
 _symmetry_equiv_pos_site_id
 _symmetry_equiv_pos_as_xyz
  1  'x, y, z'
loop_
 _atom_site_type_symbol
 _atom_site_label
 _atom_site_symmetry_multiplicity
 _atom_site_fract_x
 _atom_site_fract_y
 _atom_site_fract_z
 _atom_site_occupancy
  Li  Li0  1  0.269205  0.500000  0.750000  1
  Li  Li1  1  0.730795  0.500000  0.250000  1
  Li  Li2  1  0.500000  0.269205  0.500000  1
  Li  Li3  1  0.500000  0.730795  0.000000  1
  V  V4  1  0.000000  0.260237  0.500000  1
  V  V5  1  0.260237  0.000000  0.750000  1
  V  V6  1  0.739763  0.000000  0.250000  1
  V  V7  1  0.000000  0.739763  0.000000  1
  Sn  Sn8  1  0.247011  0.247011  0.125000  1
  Sn  Sn9  1  0.752989  0.247011  0.875000  1
  Sn  Sn10  1  0.247011  0.752989  0.375000  1
  Sn  Sn11  1  0.752989  0.752989  0.625000  1
  O  O12  1  0.238901  0.482226  0.498165  1
  O  O13  1  0.761099  0.482226  0.501835  1
  O  O14  1  0.482226  0.238901  0.751835  1
  O  O15  1  0.517774  0.238901  0.248165  1
  O  O16  1  0.018933  0.237535  0.738368  1
  O  O17  1  0.981067  0.237535  0.261632  1
  O  O18  1  0.237535  0.018933  0.511632  1
  O  O19  1  0.762465  0.018933  0.488368  1
  O  O20  1  0.237535  0.981067  0.988368  1
  O  O21  1  0.762465  0.981067  0.011632  1
  O  O22  1  0.981067  0.762465  0.238368  1
  O  O23  1  0.018933  0.762465  0.761632  1
  O  O24  1  0.482226  0.761099  0.748165  1
  O  O25  1  0.517774  0.761099  0.251835  1
  O  O26  1  0.238901  0.517774  0.001835  1
  O  O27  1  0.761099  0.517774  0.998165  1
