# generated using pymatgen
data_Li4Mn5Co3O16
_symmetry_space_group_name_H-M   'P 1'
_cell_length_a   5.73908097
_cell_length_b   5.73908097
_cell_length_c   9.40871030
_cell_angle_alpha   89.16280417
_cell_angle_beta   90.83719583
_cell_angle_gamma   120.10594910
_symmetry_Int_Tables_number   1
_chemical_formula_structural   Li4Mn5Co3O16
_chemical_formula_sum   'Li4 Mn5 Co3 O16'
_cell_volume   268.05198560
_cell_formula_units_Z   1
loop_
 _symmetry_equiv_pos_site_id
 _symmetry_equiv_pos_as_xyz
  1  'x, y, z'
loop_
 _atom_site_type_symbol
 _atom_site_label
 _atom_site_symmetry_multiplicity
 _atom_site_fract_x
 _atom_site_fract_y
 _atom_site_fract_z
 _atom_site_occupancy
  Li  Li0  1  0.333042  0.666958  0.901729  1
  Li  Li1  1  0.993511  0.006489  0.999379  1
  Li  Li2  1  0.992850  0.007150  0.492816  1
  Li  Li3  1  0.668322  0.331678  0.391573  1
  Mn  Mn4  1  0.337655  0.662345  0.483959  1
  Mn  Mn5  1  0.172097  0.827903  0.213971  1
  Mn  Mn6  1  0.668646  0.331354  0.990924  1
  Mn  Mn7  1  0.830650  0.667801  0.715436  1
  Mn  Mn8  1  0.332199  0.169350  0.715436  1
  Co  Co9  1  0.660172  0.825511  0.211901  1
  Co  Co10  1  0.174489  0.339828  0.211901  1
  Co  Co11  1  0.827878  0.172122  0.715953  1
  O  O12  1  0.676090  0.841591  0.603988  1
  O  O13  1  0.489492  0.510508  0.325211  1
  O  O14  1  0.333012  0.666988  0.108460  1
  O  O15  1  0.002927  0.997073  0.305491  1
  O  O16  1  0.997136  0.002864  0.812570  1
  O  O17  1  0.158409  0.323910  0.603988  1
  O  O18  1  0.484667  0.956989  0.337372  1
  O  O19  1  0.043011  0.515333  0.337372  1
  O  O20  1  0.834151  0.165849  0.098033  1
  O  O21  1  0.155012  0.844988  0.608384  1
  O  O22  1  0.959591  0.481672  0.840436  1
  O  O23  1  0.518328  0.040409  0.840436  1
  O  O24  1  0.662447  0.337553  0.609183  1
  O  O25  1  0.838169  0.672559  0.096299  1
  O  O26  1  0.517991  0.482009  0.840215  1
  O  O27  1  0.327441  0.161831  0.096299  1
