# generated using pymatgen
data_Li2FeF4
_symmetry_space_group_name_H-M   'P 1'
_cell_length_a   9.65245558
_cell_length_b   9.65245558
_cell_length_c   9.65245558
_cell_angle_alpha   100.84400754
_cell_angle_beta   100.84400754
_cell_angle_gamma   128.58892626
_symmetry_Int_Tables_number   1
_chemical_formula_structural   Li2FeF4
_chemical_formula_sum   'Li16 Fe8 F32'
_cell_volume   633.37731088
_cell_formula_units_Z   8
loop_
 _symmetry_equiv_pos_site_id
 _symmetry_equiv_pos_as_xyz
  1  'x, y, z'
loop_
 _atom_site_type_symbol
 _atom_site_label
 _atom_site_symmetry_multiplicity
 _atom_site_fract_x
 _atom_site_fract_y
 _atom_site_fract_z
 _atom_site_occupancy
  Li  Li0  1  0.625000  0.234790  0.109790  1
  Li  Li1  1  0.131363  0.868637  0.000000  1
  Li  Li2  1  0.118637  0.618637  0.237274  1
  Li  Li3  1  0.765210  0.375000  0.890210  1
  Li  Li4  1  0.484790  0.875000  0.109790  1
  Li  Li5  1  0.868637  0.131363  0.000000  1
  Li  Li6  1  0.381363  0.881363  0.762726  1
  Li  Li7  1  0.125000  0.515210  0.890210  1
  Li  Li8  1  0.125000  0.234790  0.609790  1
  Li  Li9  1  0.381363  0.618637  0.500000  1
  Li  Li10  1  0.868637  0.868637  0.737274  1
  Li  Li11  1  0.484790  0.375000  0.609790  1
  Li  Li12  1  0.765210  0.875000  0.390210  1
  Li  Li13  1  0.118637  0.881363  0.500000  1
  Li  Li14  1  0.131363  0.131363  0.262726  1
  Li  Li15  1  0.625000  0.515210  0.390210  1
  Fe  Fe16  1  0.351679  0.484142  0.132463  1
  Fe  Fe17  1  0.898321  0.530784  0.632463  1
  Fe  Fe18  1  0.734142  0.101679  0.632463  1
  Fe  Fe19  1  0.780784  0.648321  0.132463  1
  Fe  Fe20  1  0.469216  0.101679  0.367537  1
  Fe  Fe21  1  0.515858  0.648321  0.867537  1
  Fe  Fe22  1  0.351679  0.219216  0.867537  1
  Fe  Fe23  1  0.898321  0.265858  0.367537  1
  F  F24  1  0.392803  0.008061  0.130801  1
  F  F25  1  0.857197  0.487999  0.115258  1
  F  F26  1  0.737999  0.122741  0.130801  1
  F  F27  1  0.512001  0.142803  0.884742  1
  F  F28  1  0.258061  0.627259  0.115258  1
  F  F29  1  0.991939  0.607197  0.869199  1
  F  F30  1  0.131311  0.759019  0.627708  1
  F  F31  1  0.118689  0.246398  0.127708  1
  F  F32  1  0.372741  0.741939  0.884742  1
  F  F33  1  0.877259  0.262001  0.869199  1
  F  F34  1  0.644416  0.266898  0.622482  1
  F  F35  1  0.605584  0.728066  0.122482  1
  F  F36  1  0.516898  0.394416  0.122482  1
  F  F37  1  0.240981  0.868689  0.372292  1
  F  F38  1  0.733102  0.355584  0.377518  1
  F  F39  1  0.978066  0.355584  0.622482  1
  F  F40  1  0.496398  0.868689  0.627708  1
  F  F41  1  0.271934  0.394416  0.877518  1
  F  F42  1  0.753602  0.881311  0.872292  1
  F  F43  1  0.009019  0.881311  0.127708  1
  F  F44  1  0.644416  0.021934  0.377518  1
  F  F45  1  0.605584  0.483102  0.877518  1
  F  F46  1  0.877259  0.008061  0.615258  1
  F  F47  1  0.372741  0.487999  0.630801  1
  F  F48  1  0.131311  0.503602  0.372292  1
  F  F49  1  0.118689  0.990981  0.872292  1
  F  F50  1  0.991939  0.122741  0.384742  1
  F  F51  1  0.258061  0.142803  0.630801  1
  F  F52  1  0.512001  0.627259  0.369199  1
  F  F53  1  0.737999  0.607197  0.615258  1
  F  F54  1  0.392803  0.262001  0.384742  1
  F  F55  1  0.857197  0.741939  0.369199  1
