# generated using pymatgen
data_NbNO
_symmetry_space_group_name_H-M   'P 1'
_cell_length_a   5.94651871
_cell_length_b   5.94651871
_cell_length_c   5.94651871
_cell_angle_alpha   141.00799481
_cell_angle_beta   141.00799481
_cell_angle_gamma   56.32595238
_symmetry_Int_Tables_number   1
_chemical_formula_structural   NbNO
_chemical_formula_sum   'Nb2 N2 O2'
_cell_volume   82.59306001
_cell_formula_units_Z   2
loop_
 _symmetry_equiv_pos_site_id
 _symmetry_equiv_pos_as_xyz
  1  'x, y, z'
loop_
 _atom_site_type_symbol
 _atom_site_label
 _atom_site_symmetry_multiplicity
 _atom_site_fract_x
 _atom_site_fract_y
 _atom_site_fract_z
 _atom_site_occupancy
  Nb  Nb0  1  0.984193  0.984193  0.000000  1
  Nb  Nb1  1  0.734193  0.234193  0.500000  1
  N  N2  1  0.548159  0.048159  0.500000  1
  N  N3  1  0.798159  0.798159  0.000000  1
  O  O4  1  0.217840  0.217840  0.000000  1
  O  O5  1  0.967840  0.467840  0.500000  1
