# generated using pymatgen
data_Er(Bi3O5)4
_symmetry_space_group_name_H-M   'P 1'
_cell_length_a   8.95124134
_cell_length_b   8.95124134
_cell_length_c   8.95124134
_cell_angle_alpha   109.47122063
_cell_angle_beta   109.47122063
_cell_angle_gamma   109.47122063
_symmetry_Int_Tables_number   1
_chemical_formula_structural   Er(Bi3O5)4
_chemical_formula_sum   'Er1 Bi12 O20'
_cell_volume   552.11291866
_cell_formula_units_Z   1
loop_
 _symmetry_equiv_pos_site_id
 _symmetry_equiv_pos_as_xyz
  1  'x, y, z'
loop_
 _atom_site_type_symbol
 _atom_site_label
 _atom_site_symmetry_multiplicity
 _atom_site_fract_x
 _atom_site_fract_y
 _atom_site_fract_z
 _atom_site_occupancy
  Er  Er0  1  1.000000  1.000000  0.000000  1
  Bi  Bi1  1  0.168882  0.858369  0.674456  1
  Bi  Bi2  1  0.141631  0.310513  0.816088  1
  Bi  Bi3  1  0.183912  0.494426  0.325544  1
  Bi  Bi4  1  0.310513  0.816087  0.141631  1
  Bi  Bi5  1  0.505574  0.689487  0.831118  1
  Bi  Bi6  1  0.325544  0.183912  0.494426  1
  Bi  Bi7  1  0.689487  0.831118  0.505574  1
  Bi  Bi8  1  0.494426  0.325544  0.183912  1
  Bi  Bi9  1  0.674456  0.168882  0.858369  1
  Bi  Bi10  1  0.831118  0.505574  0.689487  1
  Bi  Bi11  1  0.858369  0.674456  0.168882  1
  Bi  Bi12  1  0.816087  0.141631  0.310513  1
  O  O13  1  0.115307  0.756219  0.378607  1
  O  O14  1  0.263301  0.640912  0.884693  1
  O  O15  1  1.000000  1.000000  0.643047  1
  O  O16  1  1.000000  0.643047  1.000000  1
  O  O17  1  0.243781  0.359088  0.622389  1
  O  O18  1  0.377611  0.736699  0.621393  1
  O  O19  1  0.000000  1.000000  0.240151  1
  O  O20  1  1.000000  0.240151  0.000000  1
  O  O21  1  0.359088  0.622389  0.243781  1
  O  O22  1  0.378607  0.115307  0.756219  1
  O  O23  1  0.356953  0.356953  0.356953  1
  O  O24  1  0.240151  1.000000  0.000000  1
  O  O25  1  0.621393  0.377611  0.736699  1
  O  O26  1  0.640912  0.884693  0.263301  1
  O  O27  1  0.759849  0.759849  0.759849  1
  O  O28  1  0.736699  0.621393  0.377611  1
  O  O29  1  0.622389  0.243781  0.359088  1
  O  O30  1  0.884693  0.263301  0.640912  1
  O  O31  1  0.756219  0.378607  0.115307  1
  O  O32  1  0.643047  1.000000  0.000000  1
