# generated using pymatgen
data_Dy11Y5O24
_symmetry_space_group_name_H-M   'P 1'
_cell_length_a   9.25718849
_cell_length_b   9.25722615
_cell_length_c   9.25669213
_cell_angle_alpha   109.45989598
_cell_angle_beta   109.47400247
_cell_angle_gamma   109.47827679
_symmetry_Int_Tables_number   1
_chemical_formula_structural   Dy11Y5O24
_chemical_formula_sum   'Dy11 Y5 O24'
_cell_volume   610.66336710
_cell_formula_units_Z   1
loop_
 _symmetry_equiv_pos_site_id
 _symmetry_equiv_pos_as_xyz
  1  'x, y, z'
loop_
 _atom_site_type_symbol
 _atom_site_label
 _atom_site_symmetry_multiplicity
 _atom_site_fract_x
 _atom_site_fract_y
 _atom_site_fract_z
 _atom_site_occupancy
  Dy  Dy0  1  0.749866  0.032315  0.782534  1
  Dy  Dy1  1  0.499927  0.999738  0.999954  1
  Dy  Dy2  1  0.500205  0.500255  0.500181  1
  Dy  Dy3  1  0.750094  0.532981  0.282929  1
  Dy  Dy4  1  0.999954  0.999828  0.499884  1
  Dy  Dy5  1  0.250186  0.467552  0.717410  1
  Dy  Dy6  1  0.282683  0.750046  0.532732  1
  Dy  Dy7  1  0.782666  0.750044  0.032751  1
  Dy  Dy8  1  0.032717  0.782728  0.749970  1
  Dy  Dy9  1  0.467485  0.717414  0.250116  1
  Dy  Dy10  1  0.249948  0.967162  0.217219  1
  Y  Y11  1  0.000058  0.500184  0.000140  1
  Y  Y12  1  0.532466  0.282481  0.749957  1
  Y  Y13  1  0.967458  0.217373  0.250068  1
  Y  Y14  1  0.717281  0.249955  0.467236  1
  Y  Y15  1  0.217562  0.249957  0.967488  1
  O  O16  1  0.969258  0.239401  0.511293  1
  O  O17  1  0.771418  0.260126  0.729459  1
  O  O18  1  0.988986  0.728868  0.957976  1
  O  O19  1  0.489046  0.030614  0.760637  1
  O  O20  1  0.770655  0.531874  0.542413  1
  O  O21  1  0.270164  0.228230  0.738687  1
  O  O22  1  0.728098  0.957585  0.988818  1
  O  O23  1  0.531156  0.542369  0.770493  1
  O  O24  1  0.738677  0.270575  0.227936  1
  O  O25  1  0.457365  0.229470  0.468060  1
  O  O26  1  0.957658  0.988706  0.728100  1
  O  O27  1  0.239924  0.511328  0.969010  1
  O  O28  1  0.042162  0.010336  0.271640  1
  O  O29  1  0.760783  0.489632  0.031778  1
  O  O30  1  0.541976  0.770474  0.531077  1
  O  O31  1  0.260510  0.729473  0.771456  1
  O  O32  1  0.469296  0.458385  0.230021  1
  O  O33  1  0.271657  0.041650  0.010876  1
  O  O34  1  0.229954  0.469356  0.458385  1
  O  O35  1  0.729565  0.771656  0.260690  1
  O  O36  1  0.010522  0.271240  0.041871  1
  O  O37  1  0.510523  0.968150  0.238740  1
  O  O38  1  0.031182  0.760699  0.489125  1
  O  O39  1  0.228913  0.739793  0.270892  1
