# generated using pymatgen
data_V2O3
_symmetry_space_group_name_H-M   'P 1'
_cell_length_a   3.76900094
_cell_length_b   12.04214684
_cell_length_c   5.48758765
_cell_angle_alpha   90.00000000
_cell_angle_beta   107.87924594
_cell_angle_gamma   90.00000000
_symmetry_Int_Tables_number   1
_chemical_formula_structural   V2O3
_chemical_formula_sum   'V8 O12'
_cell_volume   237.03599083
_cell_formula_units_Z   4
loop_
 _symmetry_equiv_pos_site_id
 _symmetry_equiv_pos_as_xyz
  1  'x, y, z'
loop_
 _atom_site_type_symbol
 _atom_site_label
 _atom_site_symmetry_multiplicity
 _atom_site_fract_x
 _atom_site_fract_y
 _atom_site_fract_z
 _atom_site_occupancy
  V  V0  1  0.612373  0.158604  0.171779  1
  V  V1  1  0.840824  0.449303  0.210767  1
  V  V2  1  0.159176  0.949303  0.289233  1
  V  V3  1  0.387627  0.658604  0.328221  1
  V  V4  1  0.612373  0.341396  0.671779  1
  V  V5  1  0.840824  0.050697  0.710767  1
  V  V6  1  0.159176  0.550697  0.789233  1
  V  V7  1  0.387627  0.841396  0.828221  1
  O  O8  1  0.071186  0.107418  0.086962  1
  O  O9  1  0.678800  0.305699  0.040229  1
  O  O10  1  0.675244  0.994799  0.321598  1
  O  O11  1  0.324756  0.494799  0.178402  1
  O  O12  1  0.928814  0.607418  0.413038  1
  O  O13  1  0.321200  0.805699  0.459771  1
  O  O14  1  0.678800  0.194301  0.540229  1
  O  O15  1  0.071186  0.392582  0.586962  1
  O  O16  1  0.675244  0.505201  0.821598  1
  O  O17  1  0.324756  0.005201  0.678402  1
  O  O18  1  0.321200  0.694301  0.959771  1
  O  O19  1  0.928814  0.892582  0.913038  1
