# generated using pymatgen
data_Li2V3CrO8
_symmetry_space_group_name_H-M   'P 1'
_cell_length_a   5.90930260
_cell_length_b   5.90930260
_cell_length_c   9.62214555
_cell_angle_alpha   89.67341527
_cell_angle_beta   90.32658473
_cell_angle_gamma   59.71014766
_symmetry_Int_Tables_number   1
_chemical_formula_structural   Li2V3CrO8
_chemical_formula_sum   'Li4 V6 Cr2 O16'
_cell_volume   290.11531443
_cell_formula_units_Z   2
loop_
 _symmetry_equiv_pos_site_id
 _symmetry_equiv_pos_as_xyz
  1  'x, y, z'
loop_
 _atom_site_type_symbol
 _atom_site_label
 _atom_site_symmetry_multiplicity
 _atom_site_fract_x
 _atom_site_fract_y
 _atom_site_fract_z
 _atom_site_occupancy
  Li  Li0  1  0.665972  0.668102  0.105047  1
  Li  Li1  1  0.997168  0.000369  0.003717  1
  Li  Li2  1  0.999631  0.002832  0.503717  1
  Li  Li3  1  0.331898  0.334028  0.605047  1
  V  V4  1  0.340136  0.830357  0.791205  1
  V  V5  1  0.823846  0.341907  0.784977  1
  V  V6  1  0.825617  0.834170  0.785576  1
  V  V7  1  0.165830  0.174383  0.285576  1
  V  V8  1  0.169643  0.659864  0.291205  1
  V  V9  1  0.658093  0.176154  0.284977  1
  Cr  Cr10  1  0.669307  0.668006  0.514576  1
  Cr  Cr11  1  0.331994  0.330693  0.014576  1
  O  O12  1  0.326616  0.844113  0.396033  1
  O  O13  1  0.528031  0.512365  0.660860  1
  O  O14  1  0.689222  0.653717  0.900441  1
  O  O15  1  0.989066  0.006491  0.688523  1
  O  O16  1  0.993509  0.010934  0.188523  1
  O  O17  1  0.834802  0.331776  0.395381  1
  O  O18  1  0.529763  0.960382  0.662737  1
  O  O19  1  0.961623  0.519169  0.660731  1
  O  O20  1  0.157231  0.167777  0.896275  1
  O  O21  1  0.832223  0.842769  0.396275  1
  O  O22  1  0.039618  0.470237  0.162737  1
  O  O23  1  0.480831  0.038377  0.160731  1
  O  O24  1  0.346283  0.310778  0.400441  1
  O  O25  1  0.155887  0.673384  0.896033  1
  O  O26  1  0.487635  0.471969  0.160860  1
  O  O27  1  0.668224  0.165198  0.895381  1
