# generated using pymatgen
data_NaSb5O13
_symmetry_space_group_name_H-M   'P 1'
_cell_length_a   5.62216593
_cell_length_b   5.62216593
_cell_length_c   16.78283261
_cell_angle_alpha   90.00000000
_cell_angle_beta   90.00000000
_cell_angle_gamma   107.09087839
_symmetry_Int_Tables_number   1
_chemical_formula_structural   NaSb5O13
_chemical_formula_sum   'Na2 Sb10 O26'
_cell_volume   507.05806841
_cell_formula_units_Z   2
loop_
 _symmetry_equiv_pos_site_id
 _symmetry_equiv_pos_as_xyz
  1  'x, y, z'
loop_
 _atom_site_type_symbol
 _atom_site_label
 _atom_site_symmetry_multiplicity
 _atom_site_fract_x
 _atom_site_fract_y
 _atom_site_fract_z
 _atom_site_occupancy
  Na  Na0  1  0.898417  0.150897  0.750000  1
  Na  Na1  1  0.150897  0.898417  0.250000  1
  Sb  Sb2  1  0.385626  0.614665  0.079644  1
  Sb  Sb3  1  0.614665  0.385626  0.920356  1
  Sb  Sb4  1  0.000228  0.000228  0.000000  1
  Sb  Sb5  1  0.385626  0.614665  0.420356  1
  Sb  Sb6  1  0.614665  0.385626  0.579644  1
  Sb  Sb7  1  0.000228  0.000228  0.500000  1
  Sb  Sb8  1  0.769112  0.232581  0.360982  1
  Sb  Sb9  1  0.769112  0.232581  0.139018  1
  Sb  Sb10  1  0.232581  0.769112  0.860982  1
  Sb  Sb11  1  0.232581  0.769112  0.639018  1
  O  O12  1  0.530312  0.068823  0.863624  1
  O  O13  1  0.068823  0.530312  0.363624  1
  O  O14  1  0.068823  0.530312  0.136376  1
  O  O15  1  0.530312  0.068823  0.636376  1
  O  O16  1  0.311049  0.311049  0.000000  1
  O  O17  1  0.311049  0.311049  0.500000  1
  O  O18  1  0.013738  0.986609  0.615107  1
  O  O19  1  0.171137  0.828614  0.750000  1
  O  O20  1  0.225678  0.774411  0.989656  1
  O  O21  1  0.225678  0.774411  0.510344  1
  O  O22  1  0.445709  0.552710  0.653990  1
  O  O23  1  0.552710  0.445709  0.153990  1
  O  O24  1  0.774411  0.225678  0.489656  1
  O  O25  1  0.986609  0.013738  0.384893  1
  O  O26  1  0.552710  0.445709  0.346010  1
  O  O27  1  0.986609  0.013738  0.115107  1
  O  O28  1  0.828614  0.171137  0.250000  1
  O  O29  1  0.774411  0.225678  0.010344  1
  O  O30  1  0.013738  0.986609  0.884893  1
  O  O31  1  0.445709  0.552710  0.846010  1
  O  O32  1  0.689160  0.689160  0.500000  1
  O  O33  1  0.689160  0.689160  0.000000  1
  O  O34  1  0.470506  0.932074  0.363506  1
  O  O35  1  0.932074  0.470506  0.636494  1
  O  O36  1  0.932074  0.470506  0.863506  1
  O  O37  1  0.470506  0.932074  0.136494  1
