# generated using pymatgen
data_LiNiSnO4
_symmetry_space_group_name_H-M   'P 1'
_cell_length_a   6.12738539
_cell_length_b   6.12738539
_cell_length_c   6.12738539
_cell_angle_alpha   123.25826577
_cell_angle_beta   119.12025577
_cell_angle_gamma   87.99090570
_symmetry_Int_Tables_number   1
_chemical_formula_structural   LiNiSnO4
_chemical_formula_sum   'Li2 Ni2 Sn2 O8'
_cell_volume   159.36849353
_cell_formula_units_Z   2
loop_
 _symmetry_equiv_pos_site_id
 _symmetry_equiv_pos_as_xyz
  1  'x, y, z'
loop_
 _atom_site_type_symbol
 _atom_site_label
 _atom_site_symmetry_multiplicity
 _atom_site_fract_x
 _atom_site_fract_y
 _atom_site_fract_z
 _atom_site_occupancy
  Li  Li0  1  0.876167  0.626167  0.750000  1
  Li  Li1  1  0.123833  0.373833  0.250000  1
  Ni  Ni2  1  0.500000  0.000000  0.500000  1
  Ni  Ni3  1  0.500000  0.500000  0.000000  1
  Sn  Sn4  1  0.000000  0.000000  0.500000  1
  Sn  Sn5  1  0.500000  0.000000  0.000000  1
  O  O6  1  0.744693  0.230317  0.485624  1
  O  O7  1  0.718751  0.760145  0.458606  1
  O  O8  1  0.301539  0.760145  0.041394  1
  O  O9  1  0.744693  0.759070  0.014376  1
  O  O10  1  0.255307  0.240930  0.985624  1
  O  O11  1  0.281249  0.239855  0.541394  1
  O  O12  1  0.698461  0.239855  0.958606  1
  O  O13  1  0.255307  0.769683  0.514376  1
