# generated using pymatgen
data_Li5Mn2(PO4)3
_symmetry_space_group_name_H-M   'P 1'
_cell_length_a   8.50263578
_cell_length_b   8.53468449
_cell_length_c   9.38520728
_cell_angle_alpha   90.33971034
_cell_angle_beta   115.62634830
_cell_angle_gamma   119.44491427
_symmetry_Int_Tables_number   1
_chemical_formula_structural   Li5Mn2(PO4)3
_chemical_formula_sum   'Li10 Mn4 P6 O24'
_cell_volume   513.61521864
_cell_formula_units_Z   2
loop_
 _symmetry_equiv_pos_site_id
 _symmetry_equiv_pos_as_xyz
  1  'x, y, z'
loop_
 _atom_site_type_symbol
 _atom_site_label
 _atom_site_symmetry_multiplicity
 _atom_site_fract_x
 _atom_site_fract_y
 _atom_site_fract_z
 _atom_site_occupancy
  Li  Li0  1  0.314085  0.511836  0.391995  1
  Li  Li1  1  0.374557  0.054937  0.107193  1
  Li  Li2  1  0.093645  0.217670  0.602093  1
  Li  Li3  1  0.664833  0.196943  0.405057  1
  Li  Li4  1  0.021418  0.304926  0.104250  1
  Li  Li5  1  0.327020  0.777225  0.591414  1
  Li  Li6  1  0.823807  0.753266  0.211362  1
  Li  Li7  1  0.216745  0.271988  0.909175  1
  Li  Li8  1  0.609767  0.929911  0.894161  1
  Li  Li9  1  0.924819  0.646640  0.850287  1
  Mn  Mn10  1  0.726428  0.854598  0.570075  1
  Mn  Mn11  1  0.307811  0.644866  0.973580  1
  Mn  Mn12  1  0.679104  0.346791  0.022301  1
  Mn  Mn13  1  0.303424  0.142214  0.445797  1
  P  P14  1  0.815878  0.246962  0.757756  1
  P  P15  1  0.784637  0.054538  0.245633  1
  P  P16  1  0.497648  0.442044  0.252158  1
  P  P17  1  0.483158  0.537131  0.745917  1
  P  P18  1  0.200223  0.953783  0.751989  1
  P  P19  1  0.182930  0.733571  0.241047  1
  O  O20  1  0.291599  0.421769  0.115918  1
  O  O21  1  0.588331  0.589272  0.407989  1
  O  O22  1  0.371738  0.765789  0.404918  1
  O  O23  1  0.240909  0.793467  0.104329  1
  O  O24  1  0.919258  0.143579  0.740249  1
  O  O25  1  0.648007  0.856603  0.118629  1
  O  O26  1  0.433918  0.245307  0.284912  1
  O  O27  1  0.803108  0.041562  0.417403  1
  O  O28  1  0.977753  0.460514  0.812537  1
  O  O29  1  0.675951  0.162224  0.186534  1
  O  O30  1  0.003009  0.157064  0.261440  1
  O  O31  1  0.650395  0.496390  0.187797  1
  O  O32  1  0.335772  0.484341  0.818503  1
  O  O33  1  0.981027  0.831022  0.733085  1
  O  O34  1  0.305439  0.841236  0.779631  1
  O  O35  1  0.016772  0.520054  0.181354  1
  O  O36  1  0.179848  0.023914  0.597541  1
  O  O37  1  0.561985  0.739935  0.725511  1
  O  O38  1  0.335542  0.128516  0.905235  1
  O  O39  1  0.107301  0.852195  0.279045  1
  O  O40  1  0.758032  0.190854  0.895577  1
  O  O41  1  0.618128  0.186570  0.591978  1
  O  O42  1  0.342442  0.396230  0.570481  1
  O  O43  1  0.669701  0.522954  0.857464  1
