# generated using pymatgen
data_Li3Co4(BO3)4
_symmetry_space_group_name_H-M   'P 1'
_cell_length_a   5.21697104
_cell_length_b   8.92680313
_cell_length_c   11.25478913
_cell_angle_alpha   90.00000000
_cell_angle_beta   115.89544494
_cell_angle_gamma   90.00000000
_symmetry_Int_Tables_number   1
_chemical_formula_structural   Li3Co4(BO3)4
_chemical_formula_sum   'Li6 Co8 B8 O24'
_cell_volume   471.51723535
_cell_formula_units_Z   2
loop_
 _symmetry_equiv_pos_site_id
 _symmetry_equiv_pos_as_xyz
  1  'x, y, z'
loop_
 _atom_site_type_symbol
 _atom_site_label
 _atom_site_symmetry_multiplicity
 _atom_site_fract_x
 _atom_site_fract_y
 _atom_site_fract_z
 _atom_site_occupancy
  Li  Li0  1  0.989145  0.254572  0.151131  1
  Li  Li1  1  0.560607  0.245441  0.410427  1
  Li  Li2  1  0.560607  0.754559  0.910427  1
  Li  Li3  1  0.073045  0.753104  0.406916  1
  Li  Li4  1  0.989145  0.745428  0.651131  1
  Li  Li5  1  0.073045  0.246896  0.906916  1
  Co  Co6  1  0.542188  0.413032  0.867555  1
  Co  Co7  1  0.968651  0.406529  0.628116  1
  Co  Co8  1  0.968651  0.593471  0.128116  1
  Co  Co9  1  0.542188  0.586968  0.367555  1
  Co  Co10  1  0.477702  0.923494  0.640957  1
  Co  Co11  1  0.047607  0.916382  0.887740  1
  Co  Co12  1  0.047607  0.083618  0.387740  1
  Co  Co13  1  0.477702  0.076506  0.140957  1
  B  B14  1  0.042935  0.419572  0.372967  1
  B  B15  1  0.456691  0.582750  0.625553  1
  B  B16  1  0.456691  0.417250  0.125553  1
  B  B17  1  0.042935  0.580428  0.872967  1
  B  B18  1  0.965778  0.919439  0.125098  1
  B  B19  1  0.546466  0.083438  0.879798  1
  B  B20  1  0.546466  0.916562  0.379798  1
  B  B21  1  0.965778  0.080561  0.625098  1
  O  O22  1  0.157130  0.289216  0.352855  1
  O  O23  1  0.355511  0.457369  0.667163  1
  O  O24  1  0.694579  0.430325  0.099321  1
  O  O25  1  0.319836  0.282690  0.111150  1
  O  O26  1  0.837260  0.418820  0.423329  1
  O  O27  1  0.837260  0.581180  0.923329  1
  O  O28  1  0.123769  0.557653  0.340270  1
  O  O29  1  0.123769  0.442347  0.840270  1
  O  O30  1  0.319836  0.717310  0.611150  1
  O  O31  1  0.355511  0.542631  0.167163  1
  O  O32  1  0.694579  0.569675  0.599321  1
  O  O33  1  0.828480  0.781792  0.118019  1
  O  O34  1  0.157130  0.710784  0.852855  1
  O  O35  1  0.311011  0.916167  0.405526  1
  O  O36  1  0.630976  0.945191  0.844927  1
  O  O37  1  0.698853  0.788844  0.390513  1
  O  O38  1  0.872358  0.047009  0.162200  1
  O  O39  1  0.872358  0.952991  0.662200  1
  O  O40  1  0.181883  0.922377  0.086867  1
  O  O41  1  0.181883  0.077623  0.586867  1
  O  O42  1  0.698853  0.211156  0.890513  1
  O  O43  1  0.311011  0.083833  0.905526  1
  O  O44  1  0.630976  0.054809  0.344927  1
  O  O45  1  0.828480  0.218208  0.618019  1
