# generated using pymatgen
data_Li2TiNi3O8
_symmetry_space_group_name_H-M   'P 1'
_cell_length_a   7.98478583
_cell_length_b   8.16497206
_cell_length_c   8.42009193
_cell_angle_alpha   90.00000000
_cell_angle_beta   90.00000000
_cell_angle_gamma   90.00000000
_symmetry_Int_Tables_number   1
_chemical_formula_structural   Li2TiNi3O8
_chemical_formula_sum   'Li8 Ti4 Ni12 O32'
_cell_volume   548.95255199
_cell_formula_units_Z   4
loop_
 _symmetry_equiv_pos_site_id
 _symmetry_equiv_pos_as_xyz
  1  'x, y, z'
loop_
 _atom_site_type_symbol
 _atom_site_label
 _atom_site_symmetry_multiplicity
 _atom_site_fract_x
 _atom_site_fract_y
 _atom_site_fract_z
 _atom_site_occupancy
  Li  Li0  1  0.493867  0.494655  0.504350  1
  Li  Li1  1  0.757958  0.757206  0.750247  1
  Li  Li2  1  0.742042  0.242794  0.250247  1
  Li  Li3  1  0.006133  0.505345  0.004350  1
  Li  Li4  1  0.993867  0.005345  0.495650  1
  Li  Li5  1  0.257958  0.742794  0.249753  1
  Li  Li6  1  0.242042  0.257206  0.749753  1
  Li  Li7  1  0.506133  0.994655  0.995650  1
  Ti  Ti8  1  0.635625  0.384249  0.875255  1
  Ti  Ti9  1  0.864375  0.615751  0.375255  1
  Ti  Ti10  1  0.135625  0.115751  0.124745  1
  Ti  Ti11  1  0.364375  0.884249  0.624745  1
  Ni  Ni12  1  0.624894  0.629000  0.121245  1
  Ni  Ni13  1  0.624539  0.878116  0.375742  1
  Ni  Ni14  1  0.626653  0.124472  0.627759  1
  Ni  Ni15  1  0.873347  0.875528  0.127759  1
  Ni  Ni16  1  0.875461  0.121884  0.875742  1
  Ni  Ni17  1  0.875106  0.371000  0.621245  1
  Ni  Ni18  1  0.124894  0.871000  0.878755  1
  Ni  Ni19  1  0.124539  0.621884  0.624258  1
  Ni  Ni20  1  0.126653  0.375528  0.372241  1
  Ni  Ni21  1  0.373347  0.624472  0.872241  1
  Ni  Ni22  1  0.375461  0.378116  0.124258  1
  Ni  Ni23  1  0.375106  0.129000  0.378755  1
  O  O24  1  0.609071  0.614938  0.869475  1
  O  O25  1  0.610504  0.389606  0.110622  1
  O  O26  1  0.610547  0.119559  0.403715  1
  O  O27  1  0.632144  0.634006  0.372588  1
  O  O28  1  0.618978  0.895584  0.617548  1
  O  O29  1  0.639851  0.859733  0.135234  1
  O  O30  1  0.641227  0.132510  0.853692  1
  O  O31  1  0.637921  0.356596  0.637220  1
  O  O32  1  0.862079  0.643404  0.137220  1
  O  O33  1  0.858773  0.867490  0.353692  1
  O  O34  1  0.860149  0.140267  0.635234  1
  O  O35  1  0.881022  0.104416  0.117548  1
  O  O36  1  0.867856  0.365994  0.872588  1
  O  O37  1  0.889453  0.880441  0.903715  1
  O  O38  1  0.889496  0.610394  0.610622  1
  O  O39  1  0.890929  0.385062  0.369475  1
  O  O40  1  0.109071  0.885062  0.130525  1
  O  O41  1  0.110504  0.110394  0.889378  1
  O  O42  1  0.110547  0.380441  0.596285  1
  O  O43  1  0.132144  0.865994  0.627412  1
  O  O44  1  0.118978  0.604416  0.382452  1
  O  O45  1  0.139851  0.640267  0.864766  1
  O  O46  1  0.141227  0.367490  0.146308  1
  O  O47  1  0.137921  0.143404  0.362780  1
  O  O48  1  0.362079  0.856596  0.862780  1
  O  O49  1  0.358773  0.632510  0.646308  1
  O  O50  1  0.360149  0.359733  0.364766  1
  O  O51  1  0.381022  0.395584  0.882452  1
  O  O52  1  0.367856  0.134006  0.127412  1
  O  O53  1  0.389453  0.619559  0.096285  1
  O  O54  1  0.389496  0.889606  0.389378  1
  O  O55  1  0.390929  0.114938  0.630525  1
