# generated using pymatgen
data_Li4CrO4
_symmetry_space_group_name_H-M   'P 1'
_cell_length_a   5.43612468
_cell_length_b   5.43612468
_cell_length_c   6.16168766
_cell_angle_alpha   90.00000000
_cell_angle_beta   90.00000000
_cell_angle_gamma   93.62140846
_symmetry_Int_Tables_number   1
_chemical_formula_structural   Li4CrO4
_chemical_formula_sum   'Li8 Cr2 O8'
_cell_volume   181.72322257
_cell_formula_units_Z   2
loop_
 _symmetry_equiv_pos_site_id
 _symmetry_equiv_pos_as_xyz
  1  'x, y, z'
loop_
 _atom_site_type_symbol
 _atom_site_label
 _atom_site_symmetry_multiplicity
 _atom_site_fract_x
 _atom_site_fract_y
 _atom_site_fract_z
 _atom_site_occupancy
  Li  Li0  1  0.838957  0.161043  0.500000  1
  Li  Li1  1  0.838957  0.161043  1.000000  1
  Li  Li2  1  0.421204  0.125603  0.750000  1
  Li  Li3  1  0.874397  0.578796  0.250000  1
  Li  Li4  1  0.578796  0.874397  0.250000  1
  Li  Li5  1  0.125603  0.421204  0.750000  1
  Li  Li6  1  0.161043  0.838957  0.000000  1
  Li  Li7  1  0.161043  0.838957  0.500000  1
  Cr  Cr8  1  0.339212  0.339211  0.250000  1
  Cr  Cr9  1  0.660789  0.660788  0.750000  1
  O  O10  1  0.659378  0.265721  0.250000  1
  O  O11  1  0.734279  0.340622  0.750000  1
  O  O12  1  0.203184  0.203184  0.495017  1
  O  O13  1  0.796816  0.796816  0.504983  1
  O  O14  1  0.796816  0.796816  0.995017  1
  O  O15  1  0.203184  0.203184  0.004983  1
  O  O16  1  0.340622  0.734279  0.750000  1
  O  O17  1  0.265721  0.659378  0.250000  1
