# generated using pymatgen
data_LiCu4(PO4)3
_symmetry_space_group_name_H-M   'P 1'
_cell_length_a   8.93328842
_cell_length_b   6.40294541
_cell_length_c   14.89811207
_cell_angle_alpha   90.00000000
_cell_angle_beta   90.10738585
_cell_angle_gamma   90.00000000
_symmetry_Int_Tables_number   1
_chemical_formula_structural   LiCu4(PO4)3
_chemical_formula_sum   'Li4 Cu16 P12 O48'
_cell_volume   852.16095087
_cell_formula_units_Z   4
loop_
 _symmetry_equiv_pos_site_id
 _symmetry_equiv_pos_as_xyz
  1  'x, y, z'
loop_
 _atom_site_type_symbol
 _atom_site_label
 _atom_site_symmetry_multiplicity
 _atom_site_fract_x
 _atom_site_fract_y
 _atom_site_fract_z
 _atom_site_occupancy
  Li  Li0  1  0.160581  0.000000  0.516394  1
  Li  Li1  1  0.338960  0.500000  0.679390  1
  Li  Li2  1  0.333380  0.500000  0.012883  1
  Li  Li3  1  0.643395  0.000000  0.983952  1
  Cu  Cu4  1  0.017975  0.750925  0.336086  1
  Cu  Cu5  1  0.008167  0.242043  0.997798  1
  Cu  Cu6  1  0.003326  0.243822  0.668662  1
  Cu  Cu7  1  0.017975  0.249075  0.336086  1
  Cu  Cu8  1  0.008167  0.757957  0.997798  1
  Cu  Cu9  1  0.003326  0.756178  0.668662  1
  Cu  Cu10  1  0.491311  0.243552  0.835670  1
  Cu  Cu11  1  0.481031  0.244735  0.170446  1
  Cu  Cu12  1  0.491311  0.756448  0.835670  1
  Cu  Cu13  1  0.481031  0.755265  0.170446  1
  Cu  Cu14  1  0.490150  0.244921  0.506784  1
  Cu  Cu15  1  0.490150  0.755079  0.506784  1
  Cu  Cu16  1  0.640610  0.000000  0.318188  1
  Cu  Cu17  1  0.862878  0.500000  0.145869  1
  Cu  Cu18  1  0.850940  0.500000  0.814552  1
  Cu  Cu19  1  0.859383  0.500000  0.482828  1
  P  P20  1  0.180011  0.500000  0.847492  1
  P  P21  1  0.177640  0.500000  0.514435  1
  P  P22  1  0.179494  0.500000  0.183590  1
  P  P23  1  0.319157  0.000000  0.681851  1
  P  P24  1  0.326807  0.000000  0.352180  1
  P  P25  1  0.317070  0.000000  0.012884  1
  P  P26  1  0.683504  0.500000  0.646160  1
  P  P27  1  0.684622  0.500000  0.317705  1
  P  P28  1  0.685267  0.500000  0.982558  1
  P  P29  1  0.812784  0.000000  0.824841  1
  P  P30  1  0.812045  0.000000  0.153040  1
  P  P31  1  0.818849  0.000000  0.489525  1
  O  O32  1  0.121929  0.299895  0.891741  1
  O  O33  1  0.120569  0.298813  0.226840  1
  O  O34  1  0.117723  0.298376  0.559239  1
  O  O35  1  0.120569  0.701187  0.226840  1
  O  O36  1  0.117723  0.701624  0.559239  1
  O  O37  1  0.121929  0.700105  0.891741  1
  O  O38  1  0.139941  0.500000  0.746135  1
  O  O39  1  0.126035  0.500000  0.415857  1
  O  O40  1  0.130767  0.500000  0.082717  1
  O  O41  1  0.141897  0.000000  0.025840  1
  O  O42  1  0.142025  0.000000  0.693392  1
  O  O43  1  0.149194  0.000000  0.367242  1
  O  O44  1  0.358285  0.500000  0.863240  1
  O  O45  1  0.352226  0.500000  0.534084  1
  O  O46  1  0.356648  0.500000  0.190596  1
  O  O47  1  0.371960  0.000000  0.915474  1
  O  O48  1  0.355920  0.000000  0.580357  1
  O  O49  1  0.377702  0.000000  0.253486  1
  O  O50  1  0.379309  0.202083  0.725174  1
  O  O51  1  0.382469  0.200354  0.398162  1
  O  O52  1  0.376483  0.201960  0.058280  1
  O  O53  1  0.382469  0.799646  0.398162  1
  O  O54  1  0.376483  0.798040  0.058280  1
  O  O55  1  0.379309  0.797917  0.725174  1
  O  O56  1  0.616029  0.301692  0.942266  1
  O  O57  1  0.619382  0.300687  0.605483  1
  O  O58  1  0.616029  0.698308  0.942266  1
  O  O59  1  0.619382  0.699313  0.605483  1
  O  O60  1  0.613765  0.301469  0.275711  1
  O  O61  1  0.613765  0.698531  0.275711  1
  O  O62  1  0.659720  0.500000  0.750048  1
  O  O63  1  0.665226  0.500000  0.085907  1
  O  O64  1  0.663443  0.500000  0.420289  1
  O  O65  1  0.638432  0.000000  0.809993  1
  O  O66  1  0.639326  0.000000  0.130430  1
  O  O67  1  0.645239  0.000000  0.465736  1
  O  O68  1  0.857517  0.500000  0.293002  1
  O  O69  1  0.861426  0.500000  0.960636  1
  O  O70  1  0.862067  0.500000  0.628852  1
  O  O71  1  0.862448  0.000000  0.587567  1
  O  O72  1  0.850409  0.000000  0.925529  1
  O  O73  1  0.836845  0.000000  0.255967  1
  O  O74  1  0.879153  0.801382  0.778418  1
  O  O75  1  0.883879  0.803118  0.109726  1
  O  O76  1  0.879153  0.198618  0.778418  1
  O  O77  1  0.883879  0.196882  0.109726  1
  O  O78  1  0.884673  0.802233  0.440714  1
  O  O79  1  0.884673  0.197767  0.440714  1
