# generated using pymatgen
data_Ti3MnCo2(PO4)6
_symmetry_space_group_name_H-M   'P 1'
_cell_length_a   8.56731978
_cell_length_b   8.56731978
_cell_length_c   8.56731978
_cell_angle_alpha   60.83831180
_cell_angle_beta   60.83831180
_cell_angle_gamma   60.83831180
_symmetry_Int_Tables_number   1
_chemical_formula_structural   Ti3MnCo2(PO4)6
_chemical_formula_sum   'Ti3 Mn1 Co2 P6 O24'
_cell_volume   453.05711760
_cell_formula_units_Z   1
loop_
 _symmetry_equiv_pos_site_id
 _symmetry_equiv_pos_as_xyz
  1  'x, y, z'
loop_
 _atom_site_type_symbol
 _atom_site_label
 _atom_site_symmetry_multiplicity
 _atom_site_fract_x
 _atom_site_fract_y
 _atom_site_fract_z
 _atom_site_occupancy
  Ti  Ti0  1  0.856327  0.856327  0.856327  1
  Ti  Ti1  1  0.645932  0.645932  0.645932  1
  Ti  Ti2  1  0.352857  0.352857  0.352857  1
  Mn  Mn3  1  0.144610  0.144610  0.144610  1
  Co  Co4  1  0.003750  0.003750  0.003750  1
  Co  Co5  1  0.500863  0.500863  0.500863  1
  P  P6  1  0.950462  0.247367  0.550087  1
  P  P7  1  0.550087  0.950462  0.247367  1
  P  P8  1  0.744568  0.458261  0.045447  1
  P  P9  1  0.458261  0.045447  0.744568  1
  P  P10  1  0.045447  0.744568  0.458261  1
  P  P11  1  0.247367  0.550087  0.950462  1
  O  O12  1  0.889241  0.664220  0.520709  1
  O  O13  1  0.664220  0.520709  0.889241  1
  O  O14  1  0.940497  0.088960  0.747851  1
  O  O15  1  0.520709  0.889241  0.664220  1
  O  O16  1  0.977493  0.184011  0.401996  1
  O  O17  1  0.756818  0.412154  0.573063  1
  O  O18  1  0.747851  0.940497  0.088960  1
  O  O19  1  0.573063  0.756818  0.412154  1
  O  O20  1  0.813196  0.619647  0.997700  1
  O  O21  1  0.412154  0.573063  0.756818  1
  O  O22  1  0.897384  0.265997  0.048090  1
  O  O23  1  0.619647  0.997700  0.813196  1
  O  O24  1  0.401996  0.977493  0.184011  1
  O  O25  1  0.088960  0.747851  0.940497  1
  O  O26  1  0.583382  0.449274  0.240758  1
  O  O27  1  0.184011  0.401996  0.977493  1
  O  O28  1  0.449274  0.240758  0.583382  1
  O  O29  1  0.265997  0.048090  0.897384  1
  O  O30  1  0.240758  0.583382  0.449274  1
  O  O31  1  0.997700  0.813196  0.619647  1
  O  O32  1  0.496840  0.118975  0.311211  1
  O  O33  1  0.048090  0.897384  0.265997  1
  O  O34  1  0.311211  0.496840  0.118975  1
  O  O35  1  0.118975  0.311211  0.496840  1
