# generated using pymatgen
data_La7(FeO8)2
_symmetry_space_group_name_H-M   'P 1'
_cell_length_a   7.60757567
_cell_length_b   7.60757567
_cell_length_c   6.95286018
_cell_angle_alpha   74.24737606
_cell_angle_beta   105.75262394
_cell_angle_gamma   89.37379635
_symmetry_Int_Tables_number   1
_chemical_formula_structural   La7(FeO8)2
_chemical_formula_sum   'La7 Fe2 O16'
_cell_volume   371.18086275
_cell_formula_units_Z   1
loop_
 _symmetry_equiv_pos_site_id
 _symmetry_equiv_pos_as_xyz
  1  'x, y, z'
loop_
 _atom_site_type_symbol
 _atom_site_label
 _atom_site_symmetry_multiplicity
 _atom_site_fract_x
 _atom_site_fract_y
 _atom_site_fract_z
 _atom_site_occupancy
  La  La0  1  0.804379  0.195621  0.224606  1
  La  La1  1  0.821332  0.681366  0.278077  1
  La  La2  1  0.681728  0.817868  0.731694  1
  La  La3  1  0.322842  0.677158  0.278328  1
  La  La4  1  0.318634  0.178668  0.278077  1
  La  La5  1  0.182132  0.318272  0.731694  1
  La  La6  1  0.180085  0.819915  0.725238  1
  Fe  Fe7  1  0.998285  0.001715  0.993890  1
  Fe  Fe8  1  0.498275  0.501725  0.992288  1
  O  O9  1  0.935710  0.064290  0.694268  1
  O  O10  1  0.010091  0.236718  0.012184  1
  O  O11  1  0.007139  0.755106  0.009548  1
  O  O12  1  0.941773  0.632210  0.619929  1
  O  O13  1  0.587037  0.895099  0.378779  1
  O  O14  1  0.741194  0.505810  0.004014  1
  O  O15  1  0.763282  0.989909  0.012184  1
  O  O16  1  0.573407  0.426593  0.296180  1
  O  O17  1  0.405808  0.594192  0.680694  1
  O  O18  1  0.495811  0.742524  0.002788  1
  O  O19  1  0.494190  0.258806  0.004014  1
  O  O20  1  0.367790  0.058227  0.619929  1
  O  O21  1  0.104901  0.412963  0.378779  1
  O  O22  1  0.244894  0.992861  0.009548  1
  O  O23  1  0.080804  0.919196  0.316483  1
  O  O24  1  0.257476  0.504189  0.002788  1
