# generated using pymatgen
data_Sm3MoO7
_symmetry_space_group_name_H-M   'P 1'
_cell_length_a   7.59390474
_cell_length_b   7.63931384
_cell_length_c   10.72597985
_cell_angle_alpha   90.00000000
_cell_angle_beta   90.00000000
_cell_angle_gamma   90.00000000
_symmetry_Int_Tables_number   1
_chemical_formula_structural   Sm3MoO7
_chemical_formula_sum   'Sm12 Mo4 O28'
_cell_volume   622.23791990
_cell_formula_units_Z   4
loop_
 _symmetry_equiv_pos_site_id
 _symmetry_equiv_pos_as_xyz
  1  'x, y, z'
loop_
 _atom_site_type_symbol
 _atom_site_label
 _atom_site_symmetry_multiplicity
 _atom_site_fract_x
 _atom_site_fract_y
 _atom_site_fract_z
 _atom_site_occupancy
  Sm  Sm0  1  0.237997  0.714236  0.007517  1
  Sm  Sm1  1  0.996353  0.550124  0.734468  1
  Sm  Sm2  1  0.004083  0.529908  0.284412  1
  Sm  Sm3  1  0.495917  0.470092  0.784412  1
  Sm  Sm4  1  0.503647  0.449876  0.234468  1
  Sm  Sm5  1  0.262003  0.285764  0.507517  1
  Sm  Sm6  1  0.762003  0.214236  0.492483  1
  Sm  Sm7  1  0.003647  0.050124  0.765532  1
  Sm  Sm8  1  0.995917  0.029908  0.215588  1
  Sm  Sm9  1  0.504083  0.970092  0.715588  1
  Sm  Sm10  1  0.496353  0.949876  0.265532  1
  Sm  Sm11  1  0.737997  0.785764  0.992483  1
  Mo  Mo12  1  0.750051  0.747239  0.501248  1
  Mo  Mo13  1  0.749949  0.252761  0.001248  1
  Mo  Mo14  1  0.249949  0.247239  0.998752  1
  Mo  Mo15  1  0.250051  0.752761  0.498752  1
  O  O16  1  0.481922  0.754429  0.867570  1
  O  O17  1  0.504225  0.711389  0.134567  1
  O  O18  1  0.997203  0.658458  0.507504  1
  O  O19  1  0.699095  0.630973  0.652312  1
  O  O20  1  0.288134  0.577653  0.630813  1
  O  O21  1  0.717927  0.544244  0.384006  1
  O  O22  1  0.287810  0.531554  0.381524  1
  O  O23  1  0.212190  0.468446  0.881524  1
  O  O24  1  0.782073  0.455756  0.884006  1
  O  O25  1  0.211866  0.422347  0.130813  1
  O  O26  1  0.800905  0.369027  0.152312  1
  O  O27  1  0.502797  0.341542  0.007504  1
  O  O28  1  0.995775  0.288611  0.634567  1
  O  O29  1  0.018078  0.245571  0.367570  1
  O  O30  1  0.518078  0.254429  0.632430  1
  O  O31  1  0.495775  0.211389  0.365433  1
  O  O32  1  0.002797  0.158458  0.992496  1
  O  O33  1  0.300905  0.130973  0.847688  1
  O  O34  1  0.711866  0.077653  0.869187  1
  O  O35  1  0.282073  0.044244  0.115994  1
  O  O36  1  0.712190  0.031554  0.118476  1
  O  O37  1  0.787810  0.968446  0.618476  1
  O  O38  1  0.217927  0.955756  0.615994  1
  O  O39  1  0.788134  0.922347  0.369187  1
  O  O40  1  0.199095  0.869027  0.347688  1
  O  O41  1  0.497203  0.841542  0.492496  1
  O  O42  1  0.004225  0.788611  0.865433  1
  O  O43  1  0.981922  0.745571  0.132430  1
