# generated using pymatgen
data_Li4CrFe(WO6)2
_symmetry_space_group_name_H-M   'P 1'
_cell_length_a   5.10489860
_cell_length_b   5.40782340
_cell_length_c   7.50704303
_cell_angle_alpha   85.90475087
_cell_angle_beta   89.94589089
_cell_angle_gamma   89.95914924
_symmetry_Int_Tables_number   1
_chemical_formula_structural   Li4CrFe(WO6)2
_chemical_formula_sum   'Li4 Cr1 Fe1 W2 O12'
_cell_volume   206.71307275
_cell_formula_units_Z   1
loop_
 _symmetry_equiv_pos_site_id
 _symmetry_equiv_pos_as_xyz
  1  'x, y, z'
loop_
 _atom_site_type_symbol
 _atom_site_label
 _atom_site_symmetry_multiplicity
 _atom_site_fract_x
 _atom_site_fract_y
 _atom_site_fract_z
 _atom_site_occupancy
  Li  Li0  1  0.997147  0.437231  0.706062  1
  Li  Li1  1  0.492593  0.915108  0.214630  1
  Li  Li2  1  0.000666  0.454643  0.227783  1
  Li  Li3  1  0.512649  0.925530  0.708819  1
  Cr  Cr4  1  0.004970  0.980267  0.981211  1
  Fe  Fe5  1  0.502116  0.496744  0.501746  1
  W  W6  1  0.989809  0.003451  0.477754  1
  W  W7  1  0.504743  0.479793  0.002297  1
  O  O8  1  0.706824  0.198113  0.574686  1
  O  O9  1  0.875873  0.014812  0.244933  1
  O  O10  1  0.697900  0.819593  0.948518  1
  O  O11  1  0.810054  0.713832  0.573025  1
  O  O12  1  0.192679  0.708406  0.066649  1
  O  O13  1  0.614860  0.524497  0.244551  1
  O  O14  1  0.377459  0.525593  0.765273  1
  O  O15  1  0.812350  0.311542  0.945976  1
  O  O16  1  0.177707  0.314923  0.456610  1
  O  O17  1  0.303108  0.196879  0.068517  1
  O  O18  1  0.118920  0.007672  0.768788  1
  O  O19  1  0.307573  0.828971  0.450975  1
