# generated using pymatgen
data_H2S
_symmetry_space_group_name_H-M   'P 1'
_cell_length_a   13.65548067
_cell_length_b   13.65548067
_cell_length_c   4.28044892
_cell_angle_alpha   90.00000000
_cell_angle_beta   90.00000000
_cell_angle_gamma   90.00000000
_symmetry_Int_Tables_number   1
_chemical_formula_structural   H2S
_chemical_formula_sum   'H32 S16'
_cell_volume   798.18452305
_cell_formula_units_Z   16
loop_
 _symmetry_equiv_pos_site_id
 _symmetry_equiv_pos_as_xyz
  1  'x, y, z'
loop_
 _atom_site_type_symbol
 _atom_site_label
 _atom_site_symmetry_multiplicity
 _atom_site_fract_x
 _atom_site_fract_y
 _atom_site_fract_z
 _atom_site_occupancy
  H  H0  1  0.810374  0.131496  0.647837  1
  H  H1  1  0.189626  0.868504  0.647837  1
  H  H2  1  0.868504  0.810374  0.147837  1
  H  H3  1  0.131496  0.189626  0.147837  1
  H  H4  1  0.893843  0.060380  0.347238  1
  H  H5  1  0.106157  0.939620  0.347238  1
  H  H6  1  0.939620  0.893843  0.847238  1
  H  H7  1  0.060380  0.106157  0.847238  1
  H  H8  1  0.310748  0.128741  0.646841  1
  H  H9  1  0.689252  0.871259  0.646841  1
  H  H10  1  0.871259  0.310748  0.146841  1
  H  H11  1  0.128741  0.689252  0.146841  1
  H  H12  1  0.394976  0.057182  0.349940  1
  H  H13  1  0.605024  0.942818  0.349940  1
  H  H14  1  0.942818  0.394976  0.849940  1
  H  H15  1  0.057182  0.605024  0.849940  1
  H  H16  1  0.812871  0.631643  0.641380  1
  H  H17  1  0.187129  0.368357  0.641380  1
  H  H18  1  0.368357  0.812871  0.141380  1
  H  H19  1  0.631643  0.187129  0.141380  1
  H  H20  1  0.895065  0.560392  0.343232  1
  H  H21  1  0.104935  0.439608  0.343232  1
  H  H22  1  0.439608  0.895065  0.843232  1
  H  H23  1  0.560392  0.104935  0.843232  1
  H  H24  1  0.312743  0.628980  0.358936  1
  H  H25  1  0.687257  0.371020  0.358936  1
  H  H26  1  0.371020  0.312743  0.858936  1
  H  H27  1  0.628980  0.687257  0.858936  1
  H  H28  1  0.395832  0.557627  0.654103  1
  H  H29  1  0.604168  0.442373  0.654103  1
  H  H30  1  0.442373  0.395832  0.154103  1
  H  H31  1  0.557627  0.604168  0.154103  1
  S  S32  1  0.897925  0.146427  0.506289  1
  S  S33  1  0.102075  0.853573  0.506289  1
  S  S34  1  0.853573  0.897925  0.006289  1
  S  S35  1  0.146427  0.102075  0.006289  1
  S  S36  1  0.397811  0.144432  0.503018  1
  S  S37  1  0.602189  0.855568  0.503018  1
  S  S38  1  0.855568  0.397811  0.003018  1
  S  S39  1  0.144432  0.602189  0.003018  1
  S  S40  1  0.901813  0.645237  0.508691  1
  S  S41  1  0.098187  0.354763  0.508691  1
  S  S42  1  0.354763  0.901813  0.008691  1
  S  S43  1  0.645237  0.098187  0.008691  1
  S  S44  1  0.401519  0.643322  0.492495  1
  S  S45  1  0.598481  0.356678  0.492495  1
  S  S46  1  0.356678  0.401519  0.992495  1
  S  S47  1  0.643322  0.598481  0.992495  1
