# generated using pymatgen
data_LiSn(PO3)4
_symmetry_space_group_name_H-M   'P 1'
_cell_length_a   5.40980239
_cell_length_b   14.21062354
_cell_length_c   7.39928380
_cell_angle_alpha   90.00000000
_cell_angle_beta   95.23022697
_cell_angle_gamma   90.00000000
_symmetry_Int_Tables_number   1
_chemical_formula_structural   LiSn(PO3)4
_chemical_formula_sum   'Li2 Sn2 P8 O24'
_cell_volume   566.46389918
_cell_formula_units_Z   2
loop_
 _symmetry_equiv_pos_site_id
 _symmetry_equiv_pos_as_xyz
  1  'x, y, z'
loop_
 _atom_site_type_symbol
 _atom_site_label
 _atom_site_symmetry_multiplicity
 _atom_site_fract_x
 _atom_site_fract_y
 _atom_site_fract_z
 _atom_site_occupancy
  Li  Li0  1  0.644062  0.006923  0.098851  1
  Li  Li1  1  0.355938  0.506923  0.901149  1
  Sn  Sn2  1  0.516749  0.237167  0.508076  1
  Sn  Sn3  1  0.483251  0.737167  0.491924  1
  P  P4  1  0.037225  0.096259  0.555994  1
  P  P5  1  0.000872  0.382610  0.449043  1
  P  P6  1  0.126701  0.671663  0.095362  1
  P  P7  1  0.218283  0.316499  0.108964  1
  P  P8  1  0.781717  0.816499  0.891036  1
  P  P9  1  0.873299  0.171663  0.904638  1
  P  P10  1  0.999128  0.882610  0.550957  1
  P  P11  1  0.962775  0.596259  0.444006  1
  O  O12  1  0.036801  0.263193  0.959390  1
  O  O13  1  0.052548  0.119699  0.768665  1
  O  O14  1  0.986613  0.856170  0.760031  1
  O  O15  1  0.153207  0.607106  0.940278  1
  O  O16  1  0.077554  0.492178  0.458450  1
  O  O17  1  0.149596  0.658190  0.551431  1
  O  O18  1  0.197809  0.333269  0.572120  1
  O  O19  1  0.298677  0.096633  0.500233  1
  O  O20  1  0.265704  0.872679  0.508139  1
  O  O21  1  0.386521  0.246255  0.213251  1
  O  O22  1  0.361707  0.705771  0.201764  1
  O  O23  1  0.333753  0.396886  0.020325  1
  O  O24  1  0.666247  0.896886  0.979675  1
  O  O25  1  0.638293  0.205771  0.798236  1
  O  O26  1  0.613479  0.746255  0.786749  1
  O  O27  1  0.734296  0.372679  0.491861  1
  O  O28  1  0.701323  0.596633  0.499767  1
  O  O29  1  0.802191  0.833269  0.427880  1
  O  O30  1  0.850404  0.158190  0.448569  1
  O  O31  1  0.922446  0.992178  0.541550  1
  O  O32  1  0.846793  0.107106  0.059722  1
  O  O33  1  0.013387  0.356170  0.239969  1
  O  O34  1  0.947452  0.619699  0.231335  1
  O  O35  1  0.963199  0.763193  0.040610  1
