# generated using pymatgen
data_LiCrBO3
_symmetry_space_group_name_H-M   'P 1'
_cell_length_a   8.21840498
_cell_length_b   8.21840498
_cell_length_c   3.17296029
_cell_angle_alpha   90.00000000
_cell_angle_beta   90.00000000
_cell_angle_gamma   120.00000000
_symmetry_Int_Tables_number   1
_chemical_formula_structural   LiCrBO3
_chemical_formula_sum   'Li3 Cr3 B3 O9'
_cell_volume   185.59674053
_cell_formula_units_Z   3
loop_
 _symmetry_equiv_pos_site_id
 _symmetry_equiv_pos_as_xyz
  1  'x, y, z'
loop_
 _atom_site_type_symbol
 _atom_site_label
 _atom_site_symmetry_multiplicity
 _atom_site_fract_x
 _atom_site_fract_y
 _atom_site_fract_z
 _atom_site_occupancy
  Li  Li0  1  0.289331  0.018155  0.500000  1
  Li  Li1  1  0.981845  0.271176  0.500000  1
  Li  Li2  1  0.728824  0.710669  0.500000  1
  Cr  Cr3  1  0.017402  0.623360  0.000000  1
  Cr  Cr4  1  0.605957  0.982598  0.000000  1
  Cr  Cr5  1  0.376640  0.394043  0.000000  1
  B  B6  1  0.333333  0.666667  0.500000  1
  B  B7  1  0.000000  0.000000  0.000000  1
  B  B8  1  0.666667  0.333333  0.500000  1
  O  O9  1  0.215829  0.743529  0.500000  1
  O  O10  1  0.256471  0.472301  0.500000  1
  O  O11  1  0.527699  0.784171  0.500000  1
  O  O12  1  0.195332  0.082177  0.000000  1
  O  O13  1  0.556505  0.417081  0.500000  1
  O  O14  1  0.886845  0.804668  0.000000  1
  O  O15  1  0.582919  0.139424  0.500000  1
  O  O16  1  0.860576  0.443495  0.500000  1
  O  O17  1  0.917823  0.113155  0.000000  1
