# generated using pymatgen
data_VCrO3
_symmetry_space_group_name_H-M   'P 1'
_cell_length_a   5.49646555
_cell_length_b   5.49646555
_cell_length_c   8.83802919
_cell_angle_alpha   74.52920653
_cell_angle_beta   105.47079347
_cell_angle_gamma   124.33046318
_symmetry_Int_Tables_number   1
_chemical_formula_structural   VCrO3
_chemical_formula_sum   'V4 Cr4 O12'
_cell_volume   210.22311418
_cell_formula_units_Z   4
loop_
 _symmetry_equiv_pos_site_id
 _symmetry_equiv_pos_as_xyz
  1  'x, y, z'
loop_
 _atom_site_type_symbol
 _atom_site_label
 _atom_site_symmetry_multiplicity
 _atom_site_fract_x
 _atom_site_fract_y
 _atom_site_fract_z
 _atom_site_occupancy
  V  V0  1  0.778341  0.973226  0.300108  1
  V  V1  1  0.973226  0.778341  0.699892  1
  V  V2  1  0.021406  0.717556  0.050144  1
  V  V3  1  0.717556  0.021406  0.949856  1
  Cr  Cr4  1  0.270347  0.474956  0.800451  1
  Cr  Cr5  1  0.474956  0.270347  0.199549  1
  Cr  Cr6  1  0.526103  0.228352  0.549572  1
  Cr  Cr7  1  0.228352  0.526103  0.450428  1
  O  O8  1  0.523951  0.526885  0.651317  1
  O  O9  1  0.028664  0.022655  0.152151  1
  O  O10  1  0.564887  0.564887  0.000000  1
  O  O11  1  0.929850  0.427921  0.249826  1
  O  O12  1  0.475993  0.974893  0.402198  1
  O  O13  1  0.972837  0.474307  0.900799  1
  O  O14  1  0.022655  0.028664  0.847849  1
  O  O15  1  0.526885  0.523951  0.348683  1
  O  O16  1  0.077576  0.077576  0.500000  1
  O  O17  1  0.427921  0.929850  0.750174  1
  O  O18  1  0.974893  0.475993  0.597802  1
  O  O19  1  0.474307  0.972837  0.099201  1
