# generated using pymatgen
data_Fe6O7F5
_symmetry_space_group_name_H-M   'P 1'
_cell_length_a   5.67210097
_cell_length_b   5.67210097
_cell_length_c   7.67712389
_cell_angle_alpha   68.84161463
_cell_angle_beta   111.15838537
_cell_angle_gamma   110.20895169
_symmetry_Int_Tables_number   1
_chemical_formula_structural   Fe6O7F5
_chemical_formula_sum   'Fe6 O7 F5'
_cell_volume   208.13744386
_cell_formula_units_Z   1
loop_
 _symmetry_equiv_pos_site_id
 _symmetry_equiv_pos_as_xyz
  1  'x, y, z'
loop_
 _atom_site_type_symbol
 _atom_site_label
 _atom_site_symmetry_multiplicity
 _atom_site_fract_x
 _atom_site_fract_y
 _atom_site_fract_z
 _atom_site_occupancy
  Fe  Fe0  1  0.699128  0.319146  0.146000  1
  Fe  Fe1  1  0.343138  0.668455  0.323536  1
  Fe  Fe2  1  0.668455  0.343138  0.676464  1
  Fe  Fe3  1  0.319146  0.699128  0.854000  1
  Fe  Fe4  1  0.002767  0.002767  0.500000  1
  Fe  Fe5  1  0.972212  0.972212  0.000000  1
  O  O6  1  0.654129  0.966685  0.337095  1
  O  O7  1  0.966685  0.654129  0.662905  1
  O  O8  1  0.222277  0.771542  0.045118  1
  O  O9  1  0.771542  0.222277  0.954882  1
  O  O10  1  0.352196  0.044195  0.659962  1
  O  O11  1  0.044195  0.352196  0.340038  1
  O  O12  1  0.677171  0.677171  0.000000  1
  F  F13  1  0.896048  0.108321  0.702640  1
  F  F14  1  0.573371  0.434172  0.378468  1
  F  F15  1  0.434172  0.573371  0.621532  1
  F  F16  1  0.108321  0.896048  0.297360  1
  F  F17  1  0.295046  0.295046  0.000000  1
