# generated using pymatgen
data_Ti3Mn3(SbO8)2
_symmetry_space_group_name_H-M   'P 1'
_cell_length_a   5.95421103
_cell_length_b   5.98725479
_cell_length_c   9.35798686
_cell_angle_alpha   90.29127223
_cell_angle_beta   90.92041029
_cell_angle_gamma   119.26123883
_symmetry_Int_Tables_number   1
_chemical_formula_structural   Ti3Mn3(SbO8)2
_chemical_formula_sum   'Ti3 Mn3 Sb2 O16'
_cell_volume   290.96873579
_cell_formula_units_Z   1
loop_
 _symmetry_equiv_pos_site_id
 _symmetry_equiv_pos_as_xyz
  1  'x, y, z'
loop_
 _atom_site_type_symbol
 _atom_site_label
 _atom_site_symmetry_multiplicity
 _atom_site_fract_x
 _atom_site_fract_y
 _atom_site_fract_z
 _atom_site_occupancy
  Ti  Ti0  1  0.837085  0.662044  0.213798  1
  Ti  Ti1  1  0.336071  0.168297  0.210886  1
  Ti  Ti2  1  0.172548  0.848453  0.710085  1
  Mn  Mn3  1  0.831680  0.166992  0.205055  1
  Mn  Mn4  1  0.663735  0.833558  0.707402  1
  Mn  Mn5  1  0.167628  0.345059  0.712335  1
  Sb  Sb6  1  0.670528  0.337833  0.489839  1
  Sb  Sb7  1  0.334543  0.657610  0.986899  1
  O  O8  1  0.837100  0.662813  0.604259  1
  O  O9  1  0.521358  0.480340  0.338871  1
  O  O10  1  0.665272  0.329875  0.106316  1
  O  O11  1  0.000598  0.003521  0.300149  1
  O  O12  1  0.000415  0.007823  0.802530  1
  O  O13  1  0.340630  0.170776  0.604862  1
  O  O14  1  0.955187  0.493334  0.342917  1
  O  O15  1  0.511356  0.049415  0.344103  1
  O  O16  1  0.172954  0.821454  0.105897  1
  O  O17  1  0.844219  0.184963  0.599019  1
  O  O18  1  0.464783  0.948609  0.842674  1
  O  O19  1  0.040600  0.517823  0.835469  1
  O  O20  1  0.330466  0.660274  0.609716  1
  O  O21  1  0.659164  0.812932  0.099740  1
  O  O22  1  0.458356  0.495309  0.840919  1
  O  O23  1  0.183924  0.341093  0.101980  1
