# generated using pymatgen
data_Mn7O12
_symmetry_space_group_name_H-M   'P 1'
_cell_length_a   6.38806002
_cell_length_b   6.38806002
_cell_length_c   6.38806002
_cell_angle_alpha   109.47122063
_cell_angle_beta   109.47122063
_cell_angle_gamma   109.47122063
_symmetry_Int_Tables_number   1
_chemical_formula_structural   Mn7O12
_chemical_formula_sum   'Mn7 O12'
_cell_volume   200.67121149
_cell_formula_units_Z   1
loop_
 _symmetry_equiv_pos_site_id
 _symmetry_equiv_pos_as_xyz
  1  'x, y, z'
loop_
 _atom_site_type_symbol
 _atom_site_label
 _atom_site_symmetry_multiplicity
 _atom_site_fract_x
 _atom_site_fract_y
 _atom_site_fract_z
 _atom_site_occupancy
  Mn  Mn0  1  0.000000  0.500000  0.500000  1
  Mn  Mn1  1  1.000000  0.500000  0.000000  1
  Mn  Mn2  1  1.000000  1.000000  0.500000  1
  Mn  Mn3  1  0.500000  0.500000  0.500000  1
  Mn  Mn4  1  0.500000  0.000000  0.500000  1
  Mn  Mn5  1  0.500000  0.500000  0.000000  1
  Mn  Mn6  1  0.500000  0.000000  0.000000  1
  O  O7  1  0.189791  0.872353  0.682562  1
  O  O8  1  0.127647  0.317438  0.810209  1
  O  O9  1  0.189791  0.507229  0.317438  1
  O  O10  1  0.317438  0.810209  0.127647  1
  O  O11  1  0.492771  0.682562  0.810209  1
  O  O12  1  0.317438  0.189791  0.507229  1
  O  O13  1  0.682562  0.810209  0.492771  1
  O  O14  1  0.507229  0.317438  0.189791  1
  O  O15  1  0.682562  0.189791  0.872353  1
  O  O16  1  0.810209  0.492771  0.682562  1
  O  O17  1  0.872353  0.682562  0.189791  1
  O  O18  1  0.810209  0.127647  0.317438  1
