# generated using pymatgen
data_LiV4OF11
_symmetry_space_group_name_H-M   'P 1'
_cell_length_a   5.48826424
_cell_length_b   9.27606641
_cell_length_c   9.28587535
_cell_angle_alpha   68.79398386
_cell_angle_beta   87.42428665
_cell_angle_gamma   86.44090954
_symmetry_Int_Tables_number   1
_chemical_formula_structural   LiV4OF11
_chemical_formula_sum   'Li2 V8 O2 F22'
_cell_volume   439.74967891
_cell_formula_units_Z   2
loop_
 _symmetry_equiv_pos_site_id
 _symmetry_equiv_pos_as_xyz
  1  'x, y, z'
loop_
 _atom_site_type_symbol
 _atom_site_label
 _atom_site_symmetry_multiplicity
 _atom_site_fract_x
 _atom_site_fract_y
 _atom_site_fract_z
 _atom_site_occupancy
  Li  Li0  1  0.449787  0.866426  0.872735  1
  Li  Li1  1  0.036151  0.884608  0.391222  1
  V  V2  1  0.494638  0.498443  0.000854  1
  V  V3  1  0.501965  0.249960  0.753489  1
  V  V4  1  0.985498  0.755384  0.739007  1
  V  V5  1  0.523076  0.995128  0.501862  1
  V  V6  1  0.993756  0.499358  0.501255  1
  V  V7  1  0.001844  0.252076  0.252488  1
  V  V8  1  0.490594  0.755724  0.237915  1
  V  V9  1  0.018780  0.993914  0.004542  1
  O  O10  1  0.810524  0.875588  0.565938  1
  O  O11  1  0.305822  0.874568  0.067915  1
  F  F12  1  0.017485  0.924514  0.819890  1
  F  F13  1  0.200304  0.631288  0.923379  1
  F  F14  1  0.675098  0.691764  0.877305  1
  F  F15  1  0.996174  0.568031  0.678849  1
  F  F16  1  0.201736  0.181499  0.874562  1
  F  F17  1  0.305422  0.825361  0.618896  1
  F  F18  1  0.502466  0.431383  0.824258  1
  F  F19  1  0.703001  0.123185  0.926437  1
  F  F20  1  0.299002  0.374782  0.575599  1
  F  F21  1  0.498491  0.058181  0.694817  1
  F  F22  1  0.184032  0.689686  0.378674  1
  F  F23  1  0.490386  0.927457  0.319819  1
  F  F24  1  0.795162  0.319002  0.624847  1
  F  F25  1  0.697540  0.626341  0.423722  1
  F  F26  1  0.198456  0.118870  0.427153  1
  F  F27  1  0.497117  0.567410  0.176476  1
  F  F28  1  0.699561  0.182849  0.374450  1
  F  F29  1  0.804013  0.822311  0.122751  1
  F  F30  1  0.297550  0.318082  0.126189  1
  F  F31  1  0.005702  0.431226  0.323742  1
  F  F32  1  0.801599  0.375223  0.073822  1
  F  F33  1  0.996857  0.060452  0.195834  1
