# generated using pymatgen
data_LiFePO5
_symmetry_space_group_name_H-M   'P 1'
_cell_length_a   6.14759078
_cell_length_b   7.59764893
_cell_length_c   7.85272011
_cell_angle_alpha   90.00000000
_cell_angle_beta   90.00000000
_cell_angle_gamma   90.00000000
_symmetry_Int_Tables_number   1
_chemical_formula_structural   LiFePO5
_chemical_formula_sum   'Li4 Fe4 P4 O20'
_cell_volume   366.77885544
_cell_formula_units_Z   4
loop_
 _symmetry_equiv_pos_site_id
 _symmetry_equiv_pos_as_xyz
  1  'x, y, z'
loop_
 _atom_site_type_symbol
 _atom_site_label
 _atom_site_symmetry_multiplicity
 _atom_site_fract_x
 _atom_site_fract_y
 _atom_site_fract_z
 _atom_site_occupancy
  Li  Li0  1  0.750000  0.856948  0.669451  1
  Li  Li1  1  0.250000  0.643052  0.169451  1
  Li  Li2  1  0.750000  0.356948  0.830549  1
  Li  Li3  1  0.250000  0.143052  0.330549  1
  Fe  Fe4  1  0.000000  0.000000  0.000000  1
  Fe  Fe5  1  0.500000  0.000000  0.000000  1
  Fe  Fe6  1  0.000000  0.500000  0.500000  1
  Fe  Fe7  1  0.500000  0.500000  0.500000  1
  P  P8  1  0.250000  0.868957  0.663858  1
  P  P9  1  0.750000  0.631043  0.163858  1
  P  P10  1  0.250000  0.368957  0.836142  1
  P  P11  1  0.750000  0.131043  0.336142  1
  O  O12  1  0.750000  0.982515  0.461874  1
  O  O13  1  0.250000  0.894645  0.094217  1
  O  O14  1  0.458111  0.875993  0.778195  1
  O  O15  1  0.041889  0.875993  0.778195  1
  O  O16  1  0.750000  0.816373  0.072808  1
  O  O17  1  0.250000  0.683627  0.572808  1
  O  O18  1  0.958111  0.624007  0.278195  1
  O  O19  1  0.541889  0.624007  0.278195  1
  O  O20  1  0.750000  0.605355  0.594217  1
  O  O21  1  0.250000  0.517485  0.961874  1
  O  O22  1  0.750000  0.482515  0.038126  1
  O  O23  1  0.250000  0.394645  0.405783  1
  O  O24  1  0.458111  0.375993  0.721805  1
  O  O25  1  0.041889  0.375993  0.721805  1
  O  O26  1  0.750000  0.316373  0.427192  1
  O  O27  1  0.250000  0.183627  0.927192  1
  O  O28  1  0.958111  0.124007  0.221805  1
  O  O29  1  0.541889  0.124007  0.221805  1
  O  O30  1  0.750000  0.105355  0.905783  1
  O  O31  1  0.250000  0.017485  0.538126  1
