# generated using pymatgen
data_Li2VO2F
_symmetry_space_group_name_H-M   'P 1'
_cell_length_a   5.23505904
_cell_length_b   5.23505904
_cell_length_c   5.23505904
_cell_angle_alpha   147.52101967
_cell_angle_beta   132.70128938
_cell_angle_gamma   58.54930048
_symmetry_Int_Tables_number   1
_chemical_formula_structural   Li2VO2F
_chemical_formula_sum   'Li2 V1 O2 F1'
_cell_volume   56.15609675
_cell_formula_units_Z   1
loop_
 _symmetry_equiv_pos_site_id
 _symmetry_equiv_pos_as_xyz
  1  'x, y, z'
loop_
 _atom_site_type_symbol
 _atom_site_label
 _atom_site_symmetry_multiplicity
 _atom_site_fract_x
 _atom_site_fract_y
 _atom_site_fract_z
 _atom_site_occupancy
  Li  Li0  1  0.690710  0.690710  0.000000  1
  Li  Li1  1  0.309290  0.309290  0.000000  1
  V  V2  1  0.000000  0.000000  0.000000  1
  O  O3  1  0.848912  0.348912  0.500000  1
  O  O4  1  0.151088  0.651088  0.500000  1
  F  F5  1  0.500000  1.000000  0.500000  1
