# generated using pymatgen
data_VF4
_symmetry_space_group_name_H-M   'P 1'
_cell_length_a   6.27461037
_cell_length_b   6.27461037
_cell_length_c   5.47520220
_cell_angle_alpha   86.62530860
_cell_angle_beta   93.37469140
_cell_angle_gamma   131.04948553
_symmetry_Int_Tables_number   1
_chemical_formula_structural   VF4
_chemical_formula_sum   'V2 F8'
_cell_volume   162.22468418
_cell_formula_units_Z   2
loop_
 _symmetry_equiv_pos_site_id
 _symmetry_equiv_pos_as_xyz
  1  'x, y, z'
loop_
 _atom_site_type_symbol
 _atom_site_label
 _atom_site_symmetry_multiplicity
 _atom_site_fract_x
 _atom_site_fract_y
 _atom_site_fract_z
 _atom_site_occupancy
  V  V0  1  0.000000  0.500000  0.000000  1
  V  V1  1  0.500000  1.000000  0.500000  1
  F  F2  1  0.955574  0.748098  0.999758  1
  F  F3  1  0.753623  0.334539  0.702806  1
  F  F4  1  0.665461  0.246377  0.202806  1
  F  F5  1  0.748098  0.955574  0.500242  1
  F  F6  1  0.251902  0.044426  0.499758  1
  F  F7  1  0.334539  0.753623  0.797193  1
  F  F8  1  0.246377  0.665461  0.297194  1
  F  F9  1  0.044426  0.251902  0.000242  1
