# generated using pymatgen
data_CoH6(SeO4)2
_symmetry_space_group_name_H-M   'P 1'
_cell_length_a   7.21605940
_cell_length_b   7.00526906
_cell_length_c   8.45501139
_cell_angle_alpha   90.00000000
_cell_angle_beta   118.53725038
_cell_angle_gamma   90.00000000
_symmetry_Int_Tables_number   1
_chemical_formula_structural   CoH6(SeO4)2
_chemical_formula_sum   'Co2 H12 Se4 O16'
_cell_volume   375.47774249
_cell_formula_units_Z   2
loop_
 _symmetry_equiv_pos_site_id
 _symmetry_equiv_pos_as_xyz
  1  'x, y, z'
loop_
 _atom_site_type_symbol
 _atom_site_label
 _atom_site_symmetry_multiplicity
 _atom_site_fract_x
 _atom_site_fract_y
 _atom_site_fract_z
 _atom_site_occupancy
  Co  Co0  1  0.500000  0.500000  0.500000  1
  Co  Co1  1  0.500000  0.000000  0.000000  1
  H  H2  1  0.994936  0.529465  0.735844  1
  H  H3  1  0.994936  0.970535  0.235844  1
  H  H4  1  0.005064  0.470535  0.264156  1
  H  H5  1  0.005064  0.029465  0.764156  1
  H  H6  1  0.610169  0.794571  0.385846  1
  H  H7  1  0.610169  0.705429  0.885846  1
  H  H8  1  0.389831  0.205429  0.614154  1
  H  H9  1  0.389831  0.294571  0.114154  1
  H  H10  1  0.713738  0.830663  0.597755  1
  H  H11  1  0.713738  0.669337  0.097755  1
  H  H12  1  0.286262  0.169337  0.402245  1
  H  H13  1  0.286262  0.330663  0.902245  1
  Se  Se14  1  0.176172  0.731447  0.622803  1
  Se  Se15  1  0.176172  0.768553  0.122803  1
  Se  Se16  1  0.823828  0.268553  0.377197  1
  Se  Se17  1  0.823828  0.231447  0.877197  1
  O  O18  1  0.423250  0.665191  0.665951  1
  O  O19  1  0.423250  0.834809  0.165951  1
  O  O20  1  0.576750  0.334809  0.334049  1
  O  O21  1  0.576750  0.165191  0.834049  1
  O  O22  1  0.222145  0.924424  0.759604  1
  O  O23  1  0.222145  0.575576  0.259604  1
  O  O24  1  0.777855  0.075576  0.240396  1
  O  O25  1  0.777855  0.424424  0.740396  1
  O  O26  1  0.144915  0.542677  0.758779  1
  O  O27  1  0.144915  0.957323  0.258779  1
  O  O28  1  0.855085  0.457323  0.241221  1
  O  O29  1  0.855085  0.042677  0.741221  1
  O  O30  1  0.693552  0.733023  0.505739  1
  O  O31  1  0.693552  0.766977  0.005739  1
  O  O32  1  0.306448  0.266977  0.494261  1
  O  O33  1  0.306448  0.233023  0.994261  1
