# generated using pymatgen
data_LiMnP2O7
_symmetry_space_group_name_H-M   'P 1'
_cell_length_a   6.97844327
_cell_length_b   8.19844715
_cell_length_c   9.22731203
_cell_angle_alpha   90.00000000
_cell_angle_beta   110.40781497
_cell_angle_gamma   90.00000000
_symmetry_Int_Tables_number   1
_chemical_formula_structural   LiMnP2O7
_chemical_formula_sum   'Li4 Mn4 P8 O28'
_cell_volume   494.78166560
_cell_formula_units_Z   4
loop_
 _symmetry_equiv_pos_site_id
 _symmetry_equiv_pos_as_xyz
  1  'x, y, z'
loop_
 _atom_site_type_symbol
 _atom_site_label
 _atom_site_symmetry_multiplicity
 _atom_site_fract_x
 _atom_site_fract_y
 _atom_site_fract_z
 _atom_site_occupancy
  Li  Li0  1  0.299452  0.942429  0.165997  1
  Li  Li1  1  0.700548  0.442429  0.334003  1
  Li  Li2  1  0.299452  0.557571  0.665997  1
  Li  Li3  1  0.700548  0.057571  0.834003  1
  Mn  Mn4  1  0.246345  0.569915  0.129996  1
  Mn  Mn5  1  0.753655  0.069915  0.370004  1
  Mn  Mn6  1  0.246345  0.930085  0.629996  1
  Mn  Mn7  1  0.753655  0.430085  0.870004  1
  P  P8  1  0.540256  0.737208  0.470766  1
  P  P9  1  0.459744  0.237208  0.029234  1
  P  P10  1  0.930511  0.738094  0.752761  1
  P  P11  1  0.069489  0.238094  0.747239  1
  P  P12  1  0.930511  0.761906  0.252761  1
  P  P13  1  0.069489  0.261906  0.247239  1
  P  P14  1  0.540256  0.762792  0.970766  1
  P  P15  1  0.459744  0.262792  0.529234  1
  O  O16  1  0.485366  0.599020  0.354417  1
  O  O17  1  0.574423  0.900751  0.401239  1
  O  O18  1  0.377169  0.743867  0.047874  1
  O  O19  1  0.622831  0.243867  0.452126  1
  O  O20  1  0.425577  0.400751  0.098761  1
  O  O21  1  0.747009  0.676987  0.600180  1
  O  O22  1  0.514634  0.099020  0.145583  1
  O  O23  1  0.882864  0.246360  0.801923  1
  O  O24  1  0.881023  0.891610  0.816861  1
  O  O25  1  0.960917  0.588527  0.864216  1
  O  O26  1  0.747009  0.823013  0.100180  1
  O  O27  1  0.039083  0.088527  0.635784  1
  O  O28  1  0.882864  0.253640  0.301923  1
  O  O29  1  0.881023  0.608390  0.316861  1
  O  O30  1  0.118977  0.391610  0.683139  1
  O  O31  1  0.117136  0.746360  0.698077  1
  O  O32  1  0.960917  0.911473  0.364216  1
  O  O33  1  0.252991  0.176987  0.899820  1
  O  O34  1  0.039083  0.411473  0.135784  1
  O  O35  1  0.118977  0.108390  0.183139  1
  O  O36  1  0.117136  0.753640  0.198077  1
  O  O37  1  0.485366  0.900980  0.854417  1
  O  O38  1  0.252991  0.323013  0.399820  1
  O  O39  1  0.574423  0.599249  0.901239  1
  O  O40  1  0.377169  0.756133  0.547874  1
  O  O41  1  0.622831  0.256133  0.952126  1
  O  O42  1  0.425577  0.099249  0.598761  1
  O  O43  1  0.514634  0.400980  0.645583  1
