# generated using pymatgen
data_LiMn2P2HO8
_symmetry_space_group_name_H-M   'P 1'
_cell_length_a   5.09596615
_cell_length_b   8.61244328
_cell_length_c   7.81385055
_cell_angle_alpha   90.00000000
_cell_angle_beta   104.43084448
_cell_angle_gamma   90.00000000
_symmetry_Int_Tables_number   1
_chemical_formula_structural   LiMn2P2HO8
_chemical_formula_sum   'Li2 Mn4 P4 H2 O16'
_cell_volume   332.11984605
_cell_formula_units_Z   2
loop_
 _symmetry_equiv_pos_site_id
 _symmetry_equiv_pos_as_xyz
  1  'x, y, z'
loop_
 _atom_site_type_symbol
 _atom_site_label
 _atom_site_symmetry_multiplicity
 _atom_site_fract_x
 _atom_site_fract_y
 _atom_site_fract_z
 _atom_site_occupancy
  Li  Li0  1  0.254705  0.001427  0.742641  1
  Li  Li1  1  0.745295  0.501427  0.257359  1
  Mn  Mn2  1  0.380239  0.656445  0.917746  1
  Mn  Mn3  1  0.619761  0.156445  0.082254  1
  Mn  Mn4  1  0.869858  0.842231  0.426983  1
  Mn  Mn5  1  0.130142  0.342231  0.573017  1
  P  P6  1  0.381284  0.641542  0.523509  1
  P  P7  1  0.618716  0.141542  0.476491  1
  P  P8  1  0.887841  0.855699  0.019713  1
  P  P9  1  0.112159  0.355699  0.980287  1
  H  H10  1  0.779593  0.486496  0.759887  1
  H  H11  1  0.220407  0.986496  0.240113  1
  O  O12  1  0.343938  0.462539  0.075275  1
  O  O13  1  0.269430  0.797707  0.576531  1
  O  O14  1  0.402113  0.166049  0.580000  1
  O  O15  1  0.504908  0.550509  0.702899  1
  O  O16  1  0.656062  0.962539  0.924725  1
  O  O17  1  0.773495  0.703304  0.075477  1
  O  O18  1  0.495092  0.050509  0.297101  1
  O  O19  1  0.597887  0.666049  0.420000  1
  O  O20  1  0.892591  0.332654  0.079941  1
  O  O21  1  0.019495  0.943468  0.206887  1
  O  O22  1  0.730570  0.297707  0.423469  1
  O  O23  1  0.857063  0.040930  0.580464  1
  O  O24  1  0.980505  0.443468  0.793113  1
  O  O25  1  0.107409  0.832654  0.920059  1
  O  O26  1  0.226505  0.203304  0.924523  1
  O  O27  1  0.142937  0.540930  0.419536  1
