# generated using pymatgen
data_NaAl3P2(HO3)4
_symmetry_space_group_name_H-M   'P 1'
_cell_length_a   7.17158346
_cell_length_b   10.25542490
_cell_length_c   12.57173984
_cell_angle_alpha   90.00000000
_cell_angle_beta   116.46665697
_cell_angle_gamma   90.00000000
_symmetry_Int_Tables_number   1
_chemical_formula_structural   NaAl3P2(HO3)4
_chemical_formula_sum   'Na4 Al12 P8 H16 O48'
_cell_volume   827.71571662
_cell_formula_units_Z   4
loop_
 _symmetry_equiv_pos_site_id
 _symmetry_equiv_pos_as_xyz
  1  'x, y, z'
loop_
 _atom_site_type_symbol
 _atom_site_label
 _atom_site_symmetry_multiplicity
 _atom_site_fract_x
 _atom_site_fract_y
 _atom_site_fract_z
 _atom_site_occupancy
  Na  Na0  1  0.265734  0.424247  0.804031  1
  Na  Na1  1  0.265734  0.075753  0.304031  1
  Na  Na2  1  0.734266  0.575753  0.195969  1
  Na  Na3  1  0.734266  0.924247  0.695969  1
  Al  Al4  1  0.483069  0.280272  0.543995  1
  Al  Al5  1  0.483069  0.219728  0.043995  1
  Al  Al6  1  0.516931  0.719728  0.456005  1
  Al  Al7  1  0.516931  0.780272  0.956005  1
  Al  Al8  1  0.753192  0.433865  0.762978  1
  Al  Al9  1  0.753192  0.066135  0.262978  1
  Al  Al10  1  0.246808  0.566135  0.237022  1
  Al  Al11  1  0.246808  0.933865  0.737022  1
  Al  Al12  1  0.028079  0.246965  0.958621  1
  Al  Al13  1  0.028079  0.253035  0.458621  1
  Al  Al14  1  0.971921  0.753035  0.041379  1
  Al  Al15  1  0.971921  0.746965  0.541379  1
  P  P16  1  0.945894  0.188490  0.680665  1
  P  P17  1  0.945894  0.311510  0.180665  1
  P  P18  1  0.054106  0.811510  0.319335  1
  P  P19  1  0.054106  0.688490  0.819335  1
  P  P20  1  0.560680  0.171337  0.811706  1
  P  P21  1  0.560680  0.328663  0.311706  1
  P  P22  1  0.439320  0.828663  0.188294  1
  P  P23  1  0.439320  0.671337  0.688294  1
  H  H24  1  0.699710  0.490361  0.565343  1
  H  H25  1  0.699710  0.009639  0.065343  1
  H  H26  1  0.300290  0.509639  0.434657  1
  H  H27  1  0.300290  0.990361  0.934657  1
  H  H28  1  0.779152  0.403357  0.967965  1
  H  H29  1  0.779152  0.096643  0.467965  1
  H  H30  1  0.220848  0.596643  0.032035  1
  H  H31  1  0.220848  0.903357  0.532035  1
  H  H32  1  0.314739  0.095675  0.573159  1
  H  H33  1  0.314739  0.404325  0.073159  1
  H  H34  1  0.685261  0.904325  0.426841  1
  H  H35  1  0.685261  0.595675  0.926841  1
  H  H36  1  0.216188  0.453387  0.548919  1
  H  H37  1  0.216188  0.046613  0.048919  1
  H  H38  1  0.783812  0.546613  0.451081  1
  H  H39  1  0.783812  0.953387  0.951081  1
  O  O40  1  0.652351  0.421677  0.603314  1
  O  O41  1  0.652351  0.078323  0.103314  1
  O  O42  1  0.347649  0.578323  0.396686  1
  O  O43  1  0.347649  0.921677  0.896686  1
  O  O44  1  0.856106  0.394233  0.920848  1
  O  O45  1  0.856106  0.105767  0.420848  1
  O  O46  1  0.143894  0.605767  0.079152  1
  O  O47  1  0.143894  0.894233  0.579152  1
  O  O48  1  0.281681  0.149739  0.502517  1
  O  O49  1  0.281681  0.350261  0.002517  1
  O  O50  1  0.718319  0.850261  0.497483  1
  O  O51  1  0.718319  0.649739  0.997483  1
  O  O52  1  0.227781  0.113986  0.996790  1
  O  O53  1  0.227781  0.386014  0.496790  1
  O  O54  1  0.772219  0.886014  0.003210  1
  O  O55  1  0.772219  0.613986  0.503210  1
  O  O56  1  0.049249  0.261298  0.613832  1
  O  O57  1  0.049249  0.238702  0.113832  1
  O  O58  1  0.950751  0.738702  0.386168  1
  O  O59  1  0.950751  0.761298  0.886168  1
  O  O60  1  0.970289  0.279535  0.787204  1
  O  O61  1  0.970289  0.220465  0.287204  1
  O  O62  1  0.029711  0.720465  0.212796  1
  O  O63  1  0.029711  0.779535  0.712796  1
  O  O64  1  0.544037  0.284437  0.723196  1
  O  O65  1  0.544037  0.215563  0.223196  1
  O  O66  1  0.455963  0.715563  0.276804  1
  O  O67  1  0.455963  0.784437  0.776804  1
  O  O68  1  0.455529  0.219064  0.887705  1
  O  O69  1  0.455529  0.280936  0.387705  1
  O  O70  1  0.544471  0.780936  0.112295  1
  O  O71  1  0.544471  0.719064  0.612295  1
  O  O72  1  0.711201  0.160207  0.597557  1
  O  O73  1  0.711201  0.339793  0.097557  1
  O  O74  1  0.288799  0.839793  0.402443  1
  O  O75  1  0.288799  0.660207  0.902443  1
  O  O76  1  0.789913  0.130614  0.890001  1
  O  O77  1  0.789913  0.369386  0.390001  1
  O  O78  1  0.210087  0.869386  0.109999  1
  O  O79  1  0.210087  0.630614  0.609999  1
  O  O80  1  0.044285  0.054103  0.726913  1
  O  O81  1  0.044285  0.445897  0.226913  1
  O  O82  1  0.955715  0.945897  0.273087  1
  O  O83  1  0.955715  0.554103  0.773087  1
  O  O84  1  0.445361  0.051557  0.733728  1
  O  O85  1  0.445361  0.448443  0.233728  1
  O  O86  1  0.554639  0.948443  0.266272  1
  O  O87  1  0.554639  0.551557  0.766272  1
