# generated using pymatgen
data_MnFeCo(PO4)3
_symmetry_space_group_name_H-M   'P 1'
_cell_length_a   9.83659644
_cell_length_b   5.98497977
_cell_length_c   14.59043747
_cell_angle_alpha   90.00000000
_cell_angle_beta   90.24749950
_cell_angle_gamma   90.00000000
_symmetry_Int_Tables_number   1
_chemical_formula_structural   MnFeCo(PO4)3
_chemical_formula_sum   'Mn4 Fe4 Co4 P12 O48'
_cell_volume   858.95775011
_cell_formula_units_Z   4
loop_
 _symmetry_equiv_pos_site_id
 _symmetry_equiv_pos_as_xyz
  1  'x, y, z'
loop_
 _atom_site_type_symbol
 _atom_site_label
 _atom_site_symmetry_multiplicity
 _atom_site_fract_x
 _atom_site_fract_y
 _atom_site_fract_z
 _atom_site_occupancy
  Mn  Mn0  1  0.215795  0.000000  0.519581  1
  Mn  Mn1  1  0.216608  0.000000  0.187189  1
  Mn  Mn2  1  0.284208  0.500000  0.353723  1
  Mn  Mn3  1  0.284757  0.500000  0.022189  1
  Fe  Fe4  1  0.221853  0.000000  0.847633  1
  Fe  Fe5  1  0.274076  0.500000  0.680706  1
  Fe  Fe6  1  0.726235  0.000000  0.989485  1
  Fe  Fe7  1  0.728671  0.000000  0.656151  1
  Co  Co8  1  0.729778  0.000000  0.323851  1
  Co  Co9  1  0.772782  0.500000  0.157461  1
  Co  Co10  1  0.770386  0.500000  0.489002  1
  Co  Co11  1  0.774900  0.500000  0.823684  1
  P  P12  1  0.098605  0.500000  0.194410  1
  P  P13  1  0.097916  0.500000  0.862262  1
  P  P14  1  0.096038  0.500000  0.526586  1
  P  P15  1  0.399578  0.000000  0.694031  1
  P  P16  1  0.401289  0.000000  0.028833  1
  P  P17  1  0.402294  0.000000  0.360583  1
  P  P18  1  0.600933  0.500000  0.638173  1
  P  P19  1  0.599970  0.500000  0.971961  1
  P  P20  1  0.600021  0.500000  0.303755  1
  P  P21  1  0.901665  0.000000  0.470314  1
  P  P22  1  0.901892  0.000000  0.803983  1
  P  P23  1  0.900773  0.000000  0.138920  1
  O  O24  1  0.054957  0.000000  0.446901  1
  O  O25  1  0.053195  0.000000  0.780630  1
  O  O26  1  0.053529  0.000000  0.117103  1
  O  O27  1  0.118207  0.500000  0.758311  1
  O  O28  1  0.118483  0.500000  0.422933  1
  O  O29  1  0.118502  0.500000  0.090186  1
  O  O30  1  0.169912  0.299279  0.243439  1
  O  O31  1  0.169912  0.700721  0.243439  1
  O  O32  1  0.167635  0.295369  0.908811  1
  O  O33  1  0.167635  0.704631  0.908811  1
  O  O34  1  0.170526  0.302296  0.577098  1
  O  O35  1  0.170526  0.697704  0.577098  1
  O  O36  1  0.325701  0.798923  0.741819  1
  O  O37  1  0.325701  0.201077  0.741819  1
  O  O38  1  0.328748  0.798737  0.076956  1
  O  O39  1  0.328748  0.201263  0.076956  1
  O  O40  1  0.330377  0.799493  0.409428  1
  O  O41  1  0.330377  0.200507  0.409428  1
  O  O42  1  0.379730  0.000000  0.925083  1
  O  O43  1  0.379083  0.000000  0.589260  1
  O  O44  1  0.381800  0.000000  0.256236  1
  O  O45  1  0.448500  0.500000  0.617610  1
  O  O46  1  0.447154  0.500000  0.949784  1
  O  O47  1  0.446475  0.500000  0.282294  1
  O  O48  1  0.551370  0.000000  0.713744  1
  O  O49  1  0.553468  0.000000  0.050626  1
  O  O50  1  0.556525  0.000000  0.379344  1
  O  O51  1  0.625156  0.500000  0.742571  1
  O  O52  1  0.622570  0.500000  0.408781  1
  O  O53  1  0.624006  0.500000  0.076508  1
  O  O54  1  0.673629  0.298172  0.589432  1
  O  O55  1  0.673629  0.701828  0.589432  1
  O  O56  1  0.671240  0.297484  0.923798  1
  O  O57  1  0.671240  0.702516  0.923798  1
  O  O58  1  0.670471  0.297831  0.255678  1
  O  O59  1  0.670471  0.702169  0.255678  1
  O  O60  1  0.830256  0.798391  0.420806  1
  O  O61  1  0.830256  0.201609  0.420806  1
  O  O62  1  0.828024  0.799994  0.754307  1
  O  O63  1  0.828024  0.200006  0.754307  1
  O  O64  1  0.830024  0.799187  0.089578  1
  O  O65  1  0.830024  0.200813  0.089578  1
  O  O66  1  0.878183  0.000000  0.243439  1
  O  O67  1  0.880692  0.000000  0.907566  1
  O  O68  1  0.883885  0.000000  0.574041  1
  O  O69  1  0.944221  0.500000  0.213248  1
  O  O70  1  0.943278  0.500000  0.545983  1
  O  O71  1  0.942603  0.500000  0.881556  1
