# generated using pymatgen
data_Li4Cr3Ni3(SnO8)2
_symmetry_space_group_name_H-M   'P 1'
_cell_length_a   5.90351391
_cell_length_b   5.90351391
_cell_length_c   9.64011893
_cell_angle_alpha   89.30504146
_cell_angle_beta   90.69495854
_cell_angle_gamma   119.89460889
_symmetry_Int_Tables_number   1
_chemical_formula_structural   Li4Cr3Ni3(SnO8)2
_chemical_formula_sum   'Li4 Cr3 Ni3 Sn2 O16'
_cell_volume   291.24052171
_cell_formula_units_Z   1
loop_
 _symmetry_equiv_pos_site_id
 _symmetry_equiv_pos_as_xyz
  1  'x, y, z'
loop_
 _atom_site_type_symbol
 _atom_site_label
 _atom_site_symmetry_multiplicity
 _atom_site_fract_x
 _atom_site_fract_y
 _atom_site_fract_z
 _atom_site_occupancy
  Li  Li0  1  0.333822  0.666178  0.109217  1
  Li  Li1  1  0.000901  0.999099  0.006015  1
  Li  Li2  1  0.002180  0.997820  0.504633  1
  Li  Li3  1  0.665502  0.334498  0.605167  1
  Cr  Cr4  1  0.165673  0.342298  0.783110  1
  Cr  Cr5  1  0.657702  0.834327  0.783110  1
  Cr  Cr6  1  0.829065  0.170935  0.281466  1
  Ni  Ni7  1  0.168865  0.831135  0.787482  1
  Ni  Ni8  1  0.339334  0.168768  0.286301  1
  Ni  Ni9  1  0.831232  0.660666  0.286301  1
  Sn  Sn10  1  0.333161  0.666839  0.504402  1
  Sn  Sn11  1  0.662678  0.337322  0.007834  1
  O  O12  1  0.152531  0.318877  0.400402  1
  O  O13  1  0.483321  0.516679  0.662148  1
  O  O14  1  0.349046  0.650954  0.893087  1
  O  O15  1  0.989738  0.010262  0.693103  1
  O  O16  1  0.993327  0.006673  0.194529  1
  O  O17  1  0.681123  0.847469  0.400402  1
  O  O18  1  0.033838  0.506121  0.663128  1
  O  O19  1  0.493879  0.966162  0.663128  1
  O  O20  1  0.837407  0.162593  0.899353  1
  O  O21  1  0.158248  0.841752  0.398790  1
  O  O22  1  0.524876  0.031861  0.160596  1
  O  O23  1  0.968139  0.475124  0.160596  1
  O  O24  1  0.676736  0.323264  0.391585  1
  O  O25  1  0.316006  0.167445  0.899925  1
  O  O26  1  0.517475  0.482525  0.166426  1
  O  O27  1  0.832555  0.683994  0.899925  1
