# generated using pymatgen
data_Li2VFe(P2O7)2
_symmetry_space_group_name_H-M   'P 1'
_cell_length_a   7.15309823
_cell_length_b   8.25640981
_cell_length_c   9.76682984
_cell_angle_alpha   90.00000000
_cell_angle_beta   111.36877785
_cell_angle_gamma   90.00000000
_symmetry_Int_Tables_number   1
_chemical_formula_structural   Li2VFe(P2O7)2
_chemical_formula_sum   'Li4 V2 Fe2 P8 O28'
_cell_volume   537.16467003
_cell_formula_units_Z   2
loop_
 _symmetry_equiv_pos_site_id
 _symmetry_equiv_pos_as_xyz
  1  'x, y, z'
loop_
 _atom_site_type_symbol
 _atom_site_label
 _atom_site_symmetry_multiplicity
 _atom_site_fract_x
 _atom_site_fract_y
 _atom_site_fract_z
 _atom_site_occupancy
  Li  Li0  1  0.676334  0.637114  0.499994  1
  Li  Li1  1  0.323666  0.137114  0.500006  1
  Li  Li2  1  0.675068  0.637292  0.999420  1
  Li  Li3  1  0.324932  0.137292  0.000580  1
  V  V4  1  0.728271  0.999694  0.506078  1
  V  V5  1  0.271729  0.499694  0.493922  1
  Fe  Fe6  1  0.732671  0.000934  0.007957  1
  Fe  Fe7  1  0.267329  0.500934  0.992043  1
  P  P8  1  0.913319  0.216490  0.313179  1
  P  P9  1  0.521559  0.319494  0.310427  1
  P  P10  1  0.478441  0.819494  0.689573  1
  P  P11  1  0.914693  0.216066  0.813589  1
  P  P12  1  0.086681  0.716490  0.686821  1
  P  P13  1  0.522651  0.319886  0.811399  1
  P  P14  1  0.477349  0.819886  0.188601  1
  P  P15  1  0.085307  0.716066  0.186411  1
  O  O16  1  0.753021  0.347384  0.329446  1
  O  O17  1  0.916947  0.066879  0.407246  1
  O  O18  1  0.604792  0.821900  0.353720  1
  O  O19  1  0.506350  0.156373  0.380144  1
  O  O20  1  0.482012  0.461543  0.397690  1
  O  O21  1  0.147316  0.676678  0.348680  1
  O  O22  1  0.114231  0.303951  0.373785  1
  O  O23  1  0.885769  0.803951  0.626215  1
  O  O24  1  0.852684  0.176678  0.651320  1
  O  O25  1  0.517988  0.961543  0.602310  1
  O  O26  1  0.493650  0.656373  0.619856  1
  O  O27  1  0.395208  0.321900  0.646280  1
  O  O28  1  0.083053  0.566879  0.592754  1
  O  O29  1  0.246979  0.847384  0.670554  1
  O  O30  1  0.753352  0.346328  0.828405  1
  O  O31  1  0.916650  0.066832  0.907815  1
  O  O32  1  0.606100  0.821669  0.854013  1
  O  O33  1  0.507820  0.154835  0.879541  1
  O  O34  1  0.482561  0.462278  0.897550  1
  O  O35  1  0.146961  0.674740  0.848881  1
  O  O36  1  0.115893  0.306060  0.873331  1
  O  O37  1  0.884107  0.806060  0.126669  1
  O  O38  1  0.853039  0.174740  0.151119  1
  O  O39  1  0.517439  0.962278  0.102450  1
  O  O40  1  0.492180  0.654835  0.120459  1
  O  O41  1  0.393900  0.321669  0.145987  1
  O  O42  1  0.083350  0.566832  0.092185  1
  O  O43  1  0.246648  0.846328  0.171595  1
