# generated using pymatgen
data_Zr2N2O
_symmetry_space_group_name_H-M   'P 1'
_cell_length_a   8.86812712
_cell_length_b   8.86758843
_cell_length_c   8.87402031
_cell_angle_alpha   109.27734252
_cell_angle_beta   109.43892939
_cell_angle_gamma   109.54039512
_symmetry_Int_Tables_number   1
_chemical_formula_structural   Zr2N2O
_chemical_formula_sum   'Zr16 N16 O8'
_cell_volume   538.23611106
_cell_formula_units_Z   8
loop_
 _symmetry_equiv_pos_site_id
 _symmetry_equiv_pos_as_xyz
  1  'x, y, z'
loop_
 _atom_site_type_symbol
 _atom_site_label
 _atom_site_symmetry_multiplicity
 _atom_site_fract_x
 _atom_site_fract_y
 _atom_site_fract_z
 _atom_site_occupancy
  Zr  Zr0  1  0.967611  0.750175  0.714181  1
  Zr  Zr1  1  0.500362  0.500463  0.498173  1
  Zr  Zr2  1  0.779149  0.527990  0.247517  1
  Zr  Zr3  1  0.718263  0.969493  0.749353  1
  Zr  Zr4  1  0.250352  0.210782  0.961293  1
  Zr  Zr5  1  0.252267  0.704340  0.465227  1
  Zr  Zr6  1  0.986187  0.000626  0.499080  1
  Zr  Zr7  1  0.541549  0.251652  0.784449  1
  Zr  Zr8  1  0.470183  0.747564  0.213588  1
  Zr  Zr9  1  0.002993  0.489504  0.993683  1
  Zr  Zr10  1  0.742212  0.789422  0.035001  1
  Zr  Zr11  1  0.748464  0.288999  0.536579  1
  Zr  Zr12  1  0.210337  0.467744  0.751853  1
  Zr  Zr13  1  0.292866  0.034676  0.250957  1
  Zr  Zr14  1  0.502623  0.002864  0.011440  1
  Zr  Zr15  1  0.030761  0.255595  0.290122  1
  N  N16  1  0.729889  0.495186  0.456878  1
  N  N17  1  0.533542  0.274154  0.038883  1
  N  N18  1  0.962847  0.006603  0.733476  1
  N  N19  1  0.509975  0.740803  0.468190  1
  N  N20  1  0.989699  0.460506  0.230775  1
  N  N21  1  0.228235  0.956965  0.970263  1
  N  N22  1  0.484210  0.263191  0.535098  1
  N  N23  1  0.013813  0.547685  0.776316  1
  N  N24  1  0.732484  0.761980  0.270682  1
  N  N25  1  0.467368  0.726797  0.951646  1
  N  N26  1  0.770423  0.229290  0.766701  1
  N  N27  1  0.237320  0.462374  0.013411  1
  N  N28  1  0.953939  0.223779  0.486934  1
  N  N29  1  0.544452  0.032320  0.272643  1
  N  N30  1  0.274369  0.511342  0.544931  1
  N  N31  1  0.774572  0.042307  0.030747  1
  O  O32  1  0.448051  0.966343  0.723267  1
  O  O33  1  0.055298  0.780621  0.518437  1
  O  O34  1  0.039919  0.990887  0.265405  1
  O  O35  1  0.262805  0.271314  0.228348  1
  O  O36  1  0.223174  0.773879  0.236089  1
  O  O37  1  0.761118  0.537003  0.981671  1
  O  O38  1  0.737755  0.721285  0.772094  1
  O  O39  1  0.268567  0.231495  0.724617  1
