# generated using pymatgen
data_NClO3
_symmetry_space_group_name_H-M   'P 1'
_cell_length_a   4.10723915
_cell_length_b   6.99650445
_cell_length_c   11.95156208
_cell_angle_alpha   90.00000000
_cell_angle_beta   90.00000000
_cell_angle_gamma   90.00000000
_symmetry_Int_Tables_number   1
_chemical_formula_structural   NClO3
_chemical_formula_sum   'N4 Cl4 O12'
_cell_volume   343.44387646
_cell_formula_units_Z   4
loop_
 _symmetry_equiv_pos_site_id
 _symmetry_equiv_pos_as_xyz
  1  'x, y, z'
loop_
 _atom_site_type_symbol
 _atom_site_label
 _atom_site_symmetry_multiplicity
 _atom_site_fract_x
 _atom_site_fract_y
 _atom_site_fract_z
 _atom_site_occupancy
  N  N0  1  0.164773  0.988725  0.535644  1
  N  N1  1  0.335227  0.011275  0.035644  1
  N  N2  1  0.664773  0.511275  0.464356  1
  N  N3  1  0.835227  0.488725  0.964356  1
  Cl  Cl4  1  0.216925  0.956367  0.758167  1
  Cl  Cl5  1  0.283075  0.043633  0.258167  1
  Cl  Cl6  1  0.716925  0.543633  0.241833  1
  Cl  Cl7  1  0.783075  0.456367  0.741833  1
  O  O8  1  0.022111  0.928727  0.453616  1
  O  O9  1  0.032065  0.885859  0.639783  1
  O  O10  1  0.124683  0.894338  0.048634  1
  O  O11  1  0.375317  0.105662  0.548634  1
  O  O12  1  0.467935  0.114141  0.139783  1
  O  O13  1  0.477889  0.071273  0.953616  1
  O  O14  1  0.522111  0.571273  0.546384  1
  O  O15  1  0.532065  0.614141  0.360217  1
  O  O16  1  0.624683  0.605662  0.951366  1
  O  O17  1  0.875317  0.394338  0.451366  1
  O  O18  1  0.967935  0.385859  0.860217  1
  O  O19  1  0.977889  0.428727  0.046384  1
