# generated using pymatgen
data_Li2MnCo3O8
_symmetry_space_group_name_H-M   'P 1'
_cell_length_a   5.65596227
_cell_length_b   5.65596227
_cell_length_c   5.82807662
_cell_angle_alpha   62.36814025
_cell_angle_beta   117.63185975
_cell_angle_gamma   119.55694275
_symmetry_Int_Tables_number   1
_chemical_formula_structural   Li2MnCo3O8
_chemical_formula_sum   'Li2 Mn1 Co3 O8'
_cell_volume   136.83695241
_cell_formula_units_Z   1
loop_
 _symmetry_equiv_pos_site_id
 _symmetry_equiv_pos_as_xyz
  1  'x, y, z'
loop_
 _atom_site_type_symbol
 _atom_site_label
 _atom_site_symmetry_multiplicity
 _atom_site_fract_x
 _atom_site_fract_y
 _atom_site_fract_z
 _atom_site_occupancy
  Li  Li0  1  0.500000  0.000000  0.500000  1
  Li  Li1  1  0.000000  0.500000  0.500000  1
  Mn  Mn2  1  0.000000  0.000000  0.000000  1
  Co  Co3  1  0.500000  0.500000  0.000000  1
  Co  Co4  1  0.500000  0.000000  0.000000  1
  Co  Co5  1  0.000000  0.500000  0.000000  1
  O  O6  1  0.270328  0.238727  0.797759  1
  O  O7  1  0.761273  0.729672  0.797759  1
  O  O8  1  0.270057  0.729943  0.795412  1
  O  O9  1  0.767662  0.232338  0.790073  1
  O  O10  1  0.232338  0.767662  0.209927  1
  O  O11  1  0.729943  0.270057  0.204588  1
  O  O12  1  0.238727  0.270328  0.202241  1
  O  O13  1  0.729672  0.761273  0.202241  1
