# generated using pymatgen
data_Li8Mn7V(PO4)12
_symmetry_space_group_name_H-M   'P 1'
_cell_length_a   8.54867800
_cell_length_b   8.82444723
_cell_length_c   12.06812562
_cell_angle_alpha   90.32846406
_cell_angle_beta   90.19678755
_cell_angle_gamma   90.55371876
_symmetry_Int_Tables_number   1
_chemical_formula_structural   Li8Mn7V(PO4)12
_chemical_formula_sum   'Li8 Mn7 V1 P12 O48'
_cell_volume   910.32449438
_cell_formula_units_Z   1
loop_
 _symmetry_equiv_pos_site_id
 _symmetry_equiv_pos_as_xyz
  1  'x, y, z'
loop_
 _atom_site_type_symbol
 _atom_site_label
 _atom_site_symmetry_multiplicity
 _atom_site_fract_x
 _atom_site_fract_y
 _atom_site_fract_z
 _atom_site_occupancy
  Li  Li0  1  0.215869  0.722626  0.181795  1
  Li  Li1  1  0.219318  0.778207  0.818044  1
  Li  Li2  1  0.280663  0.224483  0.318245  1
  Li  Li3  1  0.281498  0.277158  0.681297  1
  Li  Li4  1  0.716444  0.727313  0.316212  1
  Li  Li5  1  0.715209  0.781329  0.680618  1
  Li  Li6  1  0.781613  0.223230  0.182639  1
  Li  Li7  1  0.784415  0.279329  0.822362  1
  Mn  Mn8  1  0.250399  0.963467  0.615014  1
  Mn  Mn9  1  0.250564  0.537535  0.387412  1
  Mn  Mn10  1  0.251336  0.036754  0.113038  1
  Mn  Mn11  1  0.253027  0.462282  0.887529  1
  Mn  Mn12  1  0.749167  0.537825  0.112508  1
  Mn  Mn13  1  0.750060  0.964504  0.886428  1
  Mn  Mn14  1  0.748153  0.035507  0.386095  1
  V  V15  1  0.755690  0.462471  0.611979  1
  P  P16  1  0.035407  0.247244  0.497136  1
  P  P17  1  0.104880  0.395743  0.144253  1
  P  P18  1  0.106927  0.105615  0.854118  1
  P  P19  1  0.396757  0.602406  0.650492  1
  P  P20  1  0.393343  0.897508  0.353087  1
  P  P21  1  0.466324  0.749504  0.000717  1
  P  P22  1  0.534032  0.251673  0.001033  1
  P  P23  1  0.602684  0.397067  0.353844  1
  P  P24  1  0.605490  0.107008  0.646966  1
  P  P25  1  0.898338  0.605810  0.849397  1
  P  P26  1  0.894242  0.896426  0.145128  1
  P  P27  1  0.967661  0.745805  0.499129  1
  O  O28  1  0.061665  0.637358  0.426858  1
  O  O29  1  0.059635  0.850050  0.577269  1
  O  O30  1  0.077048  0.898252  0.155536  1
  O  O31  1  0.079652  0.601371  0.838073  1
  O  O32  1  0.133712  0.170599  0.585264  1
  O  O33  1  0.138204  0.335169  0.416589  1
  O  O34  1  0.153331  0.436033  0.025590  1
  O  O35  1  0.156496  0.061775  0.971490  1
  O  O36  1  0.156783  0.233134  0.177717  1
  O  O37  1  0.160343  0.268595  0.821835  1
  O  O38  1  0.178205  0.514742  0.222731  1
  O  O39  1  0.178157  0.986462  0.774194  1
  O  O40  1  0.321777  0.018676  0.273566  1
  O  O41  1  0.327186  0.479855  0.729841  1
  O  O42  1  0.350952  0.761874  0.685178  1
  O  O43  1  0.340841  0.737526  0.319355  1
  O  O44  1  0.346448  0.558538  0.534004  1
  O  O45  1  0.343324  0.941104  0.470456  1
  O  O46  1  0.357544  0.837511  0.082331  1
  O  O47  1  0.354917  0.659555  0.919979  1
  O  O48  1  0.424718  0.108498  0.658388  1
  O  O49  1  0.421507  0.398838  0.348111  1
  O  O50  1  0.438723  0.143054  0.075067  1
  O  O51  1  0.439178  0.357884  0.925473  1
  O  O52  1  0.560250  0.642888  0.074347  1
  O  O53  1  0.558617  0.855865  0.925535  1
  O  O54  1  0.580991  0.591858  0.657849  1
  O  O55  1  0.575023  0.900881  0.342982  1
  O  O56  1  0.639469  0.339065  0.084508  1
  O  O57  1  0.639994  0.168319  0.919105  1
  O  O58  1  0.654518  0.062264  0.531137  1
  O  O59  1  0.654638  0.431309  0.478858  1
  O  O60  1  0.655667  0.239307  0.320863  1
  O  O61  1  0.664259  0.272139  0.676896  1
  O  O62  1  0.675246  0.521678  0.284002  1
  O  O63  1  0.677708  0.990241  0.727730  1
  O  O64  1  0.824219  0.015402  0.224915  1
  O  O65  1  0.829455  0.483149  0.764490  1
  O  O66  1  0.842667  0.734550  0.177985  1
  O  O67  1  0.844250  0.763045  0.814462  1
  O  O68  1  0.844728  0.557878  0.962581  1
  O  O69  1  0.846279  0.937099  0.027209  1
  O  O70  1  0.854499  0.649449  0.579427  1
  O  O71  1  0.853822  0.827647  0.423541  1
  O  O72  1  0.925875  0.104461  0.843490  1
  O  O73  1  0.923189  0.398910  0.154439  1
  O  O74  1  0.936299  0.138847  0.427066  1
  O  O75  1  0.928480  0.361468  0.565174  1
