# generated using pymatgen
data_Li4MnF7
_symmetry_space_group_name_H-M   'P 1'
_cell_length_a   5.70130647
_cell_length_b   7.04174340
_cell_length_c   7.49359580
_cell_angle_alpha   62.70095640
_cell_angle_beta   69.53204096
_cell_angle_gamma   76.39095987
_symmetry_Int_Tables_number   1
_chemical_formula_structural   Li4MnF7
_chemical_formula_sum   'Li8 Mn2 F14'
_cell_volume   249.44570360
_cell_formula_units_Z   2
loop_
 _symmetry_equiv_pos_site_id
 _symmetry_equiv_pos_as_xyz
  1  'x, y, z'
loop_
 _atom_site_type_symbol
 _atom_site_label
 _atom_site_symmetry_multiplicity
 _atom_site_fract_x
 _atom_site_fract_y
 _atom_site_fract_z
 _atom_site_occupancy
  Li  Li0  1  0.167887  0.544570  0.307366  1
  Li  Li1  1  0.533808  0.275670  0.624298  1
  Li  Li2  1  0.154044  0.531056  0.813342  1
  Li  Li3  1  0.516490  0.289361  0.148289  1
  Li  Li4  1  0.483510  0.710639  0.851711  1
  Li  Li5  1  0.845956  0.468944  0.186658  1
  Li  Li6  1  0.466192  0.724330  0.375702  1
  Li  Li7  1  0.832113  0.455430  0.692634  1
  Mn  Mn8  1  0.000000  0.000000  0.000000  1
  Mn  Mn9  1  0.000000  0.000000  0.500000  1
  F  F10  1  0.182715  0.241845  0.807153  1
  F  F11  1  0.900444  0.115795  0.245563  1
  F  F12  1  0.339908  0.025176  0.347224  1
  F  F13  1  0.224980  0.477736  0.066026  1
  F  F14  1  0.492266  0.433046  0.345903  1
  F  F15  1  0.291820  0.837989  0.070886  1
  F  F16  1  0.077344  0.675803  0.518011  1
  F  F17  1  0.922656  0.324197  0.481989  1
  F  F18  1  0.708180  0.162011  0.929114  1
  F  F19  1  0.507734  0.566954  0.654097  1
  F  F20  1  0.775020  0.522264  0.933974  1
  F  F21  1  0.660092  0.974824  0.652776  1
  F  F22  1  0.099556  0.884205  0.754437  1
  F  F23  1  0.817285  0.758155  0.192847  1
