# generated using pymatgen
data_Li2FePO4F
_symmetry_space_group_name_H-M   'P 1'
_cell_length_a   6.50756191
_cell_length_b   10.66171749
_cell_length_c   11.08516819
_cell_angle_alpha   90.00000000
_cell_angle_beta   90.00000000
_cell_angle_gamma   90.00000000
_symmetry_Int_Tables_number   1
_chemical_formula_structural   Li2FePO4F
_chemical_formula_sum   'Li16 Fe8 P8 O32 F8'
_cell_volume   769.10877415
_cell_formula_units_Z   8
loop_
 _symmetry_equiv_pos_site_id
 _symmetry_equiv_pos_as_xyz
  1  'x, y, z'
loop_
 _atom_site_type_symbol
 _atom_site_label
 _atom_site_symmetry_multiplicity
 _atom_site_fract_x
 _atom_site_fract_y
 _atom_site_fract_z
 _atom_site_occupancy
  Li  Li0  1  0.250000  0.973873  0.272094  1
  Li  Li1  1  0.750000  0.769794  0.083412  1
  Li  Li2  1  0.489968  0.759339  0.333678  1
  Li  Li3  1  0.010032  0.759339  0.333678  1
  Li  Li4  1  0.989968  0.740661  0.833678  1
  Li  Li5  1  0.510032  0.740661  0.833678  1
  Li  Li6  1  0.250000  0.730206  0.583412  1
  Li  Li7  1  0.750000  0.526127  0.772094  1
  Li  Li8  1  0.250000  0.473873  0.227906  1
  Li  Li9  1  0.750000  0.269794  0.416588  1
  Li  Li10  1  0.489968  0.259339  0.166322  1
  Li  Li11  1  0.010032  0.259339  0.166322  1
  Li  Li12  1  0.989968  0.240661  0.666322  1
  Li  Li13  1  0.510032  0.240661  0.666322  1
  Li  Li14  1  0.250000  0.230206  0.916588  1
  Li  Li15  1  0.750000  0.026127  0.727906  1
  Fe  Fe16  1  0.000000  0.000000  0.000000  1
  Fe  Fe17  1  0.500000  0.000000  0.000000  1
  Fe  Fe18  1  0.000000  0.000000  0.500000  1
  Fe  Fe19  1  0.500000  0.000000  0.500000  1
  Fe  Fe20  1  0.000000  0.500000  0.500000  1
  Fe  Fe21  1  0.500000  0.500000  0.500000  1
  Fe  Fe22  1  0.000000  0.500000  0.000000  1
  Fe  Fe23  1  0.500000  0.500000  0.000000  1
  P  P24  1  0.250000  0.978289  0.744720  1
  P  P25  1  0.250000  0.756248  0.079934  1
  P  P26  1  0.750000  0.743752  0.579934  1
  P  P27  1  0.750000  0.521711  0.244720  1
  P  P28  1  0.250000  0.478289  0.755280  1
  P  P29  1  0.250000  0.256248  0.420066  1
  P  P30  1  0.750000  0.243752  0.920066  1
  P  P31  1  0.750000  0.021711  0.255280  1
  O  O32  1  0.750000  0.970678  0.123429  1
  O  O33  1  0.943681  0.966684  0.319311  1
  O  O34  1  0.556319  0.966684  0.319311  1
  O  O35  1  0.750000  0.888392  0.557719  1
  O  O36  1  0.250000  0.832112  0.744404  1
  O  O37  1  0.446025  0.809502  0.016592  1
  O  O38  1  0.053975  0.809502  0.016592  1
  O  O39  1  0.250000  0.784252  0.216429  1
  O  O40  1  0.750000  0.715748  0.716429  1
  O  O41  1  0.946025  0.690498  0.516592  1
  O  O42  1  0.553975  0.690498  0.516592  1
  O  O43  1  0.750000  0.667888  0.244404  1
  O  O44  1  0.250000  0.611608  0.057719  1
  O  O45  1  0.443681  0.533316  0.819311  1
  O  O46  1  0.056319  0.533316  0.819311  1
  O  O47  1  0.250000  0.529322  0.623429  1
  O  O48  1  0.750000  0.470678  0.376571  1
  O  O49  1  0.943681  0.466684  0.180689  1
  O  O50  1  0.556319  0.466684  0.180689  1
  O  O51  1  0.750000  0.388392  0.942281  1
  O  O52  1  0.250000  0.332112  0.755596  1
  O  O53  1  0.446025  0.309502  0.483408  1
  O  O54  1  0.053975  0.309502  0.483408  1
  O  O55  1  0.250000  0.284252  0.283571  1
  O  O56  1  0.750000  0.215748  0.783571  1
  O  O57  1  0.946025  0.190498  0.983408  1
  O  O58  1  0.553975  0.190498  0.983408  1
  O  O59  1  0.750000  0.167888  0.255596  1
  O  O60  1  0.250000  0.111608  0.442281  1
  O  O61  1  0.443681  0.033316  0.680689  1
  O  O62  1  0.056319  0.033316  0.680689  1
  O  O63  1  0.250000  0.029322  0.876571  1
  F  F64  1  0.750000  0.946216  0.879197  1
  F  F65  1  0.250000  0.865628  0.467167  1
  F  F66  1  0.750000  0.634372  0.967167  1
  F  F67  1  0.250000  0.553784  0.379197  1
  F  F68  1  0.750000  0.446216  0.620803  1
  F  F69  1  0.250000  0.365628  0.032833  1
  F  F70  1  0.750000  0.134372  0.532833  1
  F  F71  1  0.250000  0.053784  0.120803  1
