# generated using pymatgen
data_Li2SnBO4
_symmetry_space_group_name_H-M   'P 1'
_cell_length_a   7.48739228
_cell_length_b   5.12016754
_cell_length_c   10.27098205
_cell_angle_alpha   90.00000000
_cell_angle_beta   98.34414999
_cell_angle_gamma   90.00000000
_symmetry_Int_Tables_number   1
_chemical_formula_structural   Li2SnBO4
_chemical_formula_sum   'Li8 Sn4 B4 O16'
_cell_volume   389.58739281
_cell_formula_units_Z   4
loop_
 _symmetry_equiv_pos_site_id
 _symmetry_equiv_pos_as_xyz
  1  'x, y, z'
loop_
 _atom_site_type_symbol
 _atom_site_label
 _atom_site_symmetry_multiplicity
 _atom_site_fract_x
 _atom_site_fract_y
 _atom_site_fract_z
 _atom_site_occupancy
  Li  Li0  1  0.092933  0.655667  0.795773  1
  Li  Li1  1  0.092933  0.844333  0.295773  1
  Li  Li2  1  0.194409  0.827281  0.576178  1
  Li  Li3  1  0.194409  0.672719  0.076178  1
  Li  Li4  1  0.805591  0.327281  0.923822  1
  Li  Li5  1  0.805591  0.172719  0.423822  1
  Li  Li6  1  0.907067  0.155667  0.704227  1
  Li  Li7  1  0.907067  0.344333  0.204227  1
  Sn  Sn8  1  0.496493  0.879613  0.877231  1
  Sn  Sn9  1  0.503507  0.379613  0.622769  1
  Sn  Sn10  1  0.496493  0.620387  0.377231  1
  Sn  Sn11  1  0.503507  0.120387  0.122769  1
  B  B12  1  0.163616  0.186040  0.937701  1
  B  B13  1  0.163616  0.313960  0.437701  1
  B  B14  1  0.836384  0.686040  0.562299  1
  B  B15  1  0.836384  0.813960  0.062299  1
  O  O16  1  0.034257  0.317586  0.858596  1
  O  O17  1  0.034257  0.182414  0.358596  1
  O  O18  1  0.199197  0.919424  0.921036  1
  O  O19  1  0.199197  0.580576  0.421036  1
  O  O20  1  0.272651  0.175607  0.540605  1
  O  O21  1  0.381189  0.654177  0.727920  1
  O  O22  1  0.272651  0.324393  0.040605  1
  O  O23  1  0.381189  0.845823  0.227920  1
  O  O24  1  0.618811  0.154177  0.772080  1
  O  O25  1  0.727349  0.675607  0.959395  1
  O  O26  1  0.618811  0.345823  0.272080  1
  O  O27  1  0.727349  0.824393  0.459395  1
  O  O28  1  0.800803  0.419424  0.578964  1
  O  O29  1  0.800803  0.080576  0.078964  1
  O  O30  1  0.965743  0.817586  0.641404  1
  O  O31  1  0.965743  0.682414  0.141404  1
