# generated using pymatgen
data_Zr2N2O
_symmetry_space_group_name_H-M   'P 1'
_cell_length_a   8.86383125
_cell_length_b   8.87594852
_cell_length_c   8.87635665
_cell_angle_alpha   109.36482699
_cell_angle_beta   109.40346454
_cell_angle_gamma   109.55554448
_symmetry_Int_Tables_number   1
_chemical_formula_structural   Zr2N2O
_chemical_formula_sum   'Zr16 N16 O8'
_cell_volume   538.18131085
_cell_formula_units_Z   8
loop_
 _symmetry_equiv_pos_site_id
 _symmetry_equiv_pos_as_xyz
  1  'x, y, z'
loop_
 _atom_site_type_symbol
 _atom_site_label
 _atom_site_symmetry_multiplicity
 _atom_site_fract_x
 _atom_site_fract_y
 _atom_site_fract_z
 _atom_site_occupancy
  Zr  Zr0  1  0.211929  0.248529  0.961874  1
  Zr  Zr1  1  0.997238  0.488378  0.991141  1
  Zr  Zr2  1  0.753979  0.968062  0.715435  1
  Zr  Zr3  1  0.242535  0.531166  0.780653  1
  Zr  Zr4  1  0.526492  0.779474  0.248442  1
  Zr  Zr5  1  0.030782  0.281590  0.252516  1
  Zr  Zr6  1  0.998462  0.988196  0.489519  1
  Zr  Zr7  1  0.497073  0.497888  0.498537  1
  Zr  Zr8  1  0.509204  0.017929  0.012770  1
  Zr  Zr9  1  0.713494  0.257805  0.465560  1
  Zr  Zr10  1  0.297678  0.754566  0.539112  1
  Zr  Zr11  1  0.470773  0.211457  0.753265  1
  Zr  Zr12  1  0.960959  0.713087  0.742734  1
  Zr  Zr13  1  0.258600  0.036790  0.297253  1
  Zr  Zr14  1  0.744471  0.464249  0.210208  1
  Zr  Zr15  1  0.785081  0.749079  0.042249  1
  N  N16  1  0.273946  0.532372  0.041659  1
  N  N17  1  0.492899  0.730468  0.457891  1
  N  N18  1  0.451203  0.982424  0.224024  1
  N  N19  1  0.259930  0.487203  0.533515  1
  N  N20  1  0.011086  0.964320  0.737440  1
  N  N21  1  0.463301  0.238036  0.012367  1
  N  N22  1  0.224023  0.950089  0.487401  1
  N  N23  1  0.968248  0.454267  0.727765  1
  N  N24  1  0.772623  0.230508  0.238290  1
  N  N25  1  0.991970  0.033542  0.259941  1
  N  N26  1  0.544619  0.009596  0.774693  1
  N  N27  1  0.740562  0.517253  0.469997  1
  N  N28  1  0.759194  0.731813  0.272566  1
  N  N29  1  0.954879  0.229182  0.969359  1
  N  N30  1  0.507212  0.273712  0.542752  1
  N  N31  1  0.730620  0.469169  0.956389  1
  O  O32  1  0.039649  0.772355  0.028350  1
  O  O33  1  0.236204  0.271868  0.726600  1
  O  O34  1  0.228265  0.770106  0.764895  1
  O  O35  1  0.776440  0.051348  0.517902  1
  O  O36  1  0.036796  0.549407  0.273015  1
  O  O37  1  0.277031  0.266169  0.228173  1
  O  O38  1  0.534231  0.759335  0.979986  1
  O  O39  1  0.726320  0.737208  0.773760  1
