# generated using pymatgen
data_LiFe2(BO3)2
_symmetry_space_group_name_H-M   'P 1'
_cell_length_a   5.28479602
_cell_length_b   9.07932033
_cell_length_c   11.35869887
_cell_angle_alpha   113.35446884
_cell_angle_beta   102.43510283
_cell_angle_gamma   90.16092348
_symmetry_Int_Tables_number   1
_chemical_formula_structural   LiFe2(BO3)2
_chemical_formula_sum   'Li4 Fe8 B8 O24'
_cell_volume   486.25683081
_cell_formula_units_Z   4
loop_
 _symmetry_equiv_pos_site_id
 _symmetry_equiv_pos_as_xyz
  1  'x, y, z'
loop_
 _atom_site_type_symbol
 _atom_site_label
 _atom_site_symmetry_multiplicity
 _atom_site_fract_x
 _atom_site_fract_y
 _atom_site_fract_z
 _atom_site_occupancy
  Li  Li0  1  0.171130  0.838182  0.658747  1
  Li  Li1  1  0.608671  0.950966  0.915128  1
  Li  Li2  1  0.934516  0.569172  0.166547  1
  Li  Li3  1  0.671427  0.343609  0.657996  1
  Fe  Fe4  1  0.406220  0.729936  0.131350  1
  Fe  Fe5  1  0.096754  0.768022  0.882936  1
  Fe  Fe6  1  0.840913  0.858695  0.376736  1
  Fe  Fe7  1  0.650215  0.655276  0.622047  1
  Fe  Fe8  1  0.349917  0.350667  0.368510  1
  Fe  Fe9  1  0.155246  0.155464  0.632744  1
  Fe  Fe10  1  0.903170  0.218117  0.134501  1
  Fe  Fe11  1  0.602315  0.284659  0.888040  1
  B  B12  1  0.641190  0.988881  0.628558  1
  B  B13  1  0.890116  0.888727  0.123189  1
  B  B14  1  0.154330  0.481084  0.627879  1
  B  B15  1  0.403654  0.402578  0.133124  1
  B  B16  1  0.850432  0.518190  0.376195  1
  B  B17  1  0.599546  0.610987  0.870371  1
  B  B18  1  0.354251  0.025434  0.385024  1
  B  B19  1  0.090811  0.095693  0.870296  1
  O  O20  1  0.113590  0.854018  0.074615  1
  O  O21  1  0.474365  0.883536  0.345086  1
  O  O22  1  0.214566  0.955987  0.860163  1
  O  O23  1  0.515854  0.863643  0.636294  1
  O  O24  1  0.882215  0.971788  0.589984  1
  O  O25  1  0.816301  0.787661  0.180982  1
  O  O26  1  0.268111  0.528265  0.129794  1
  O  O27  1  0.056546  0.633319  0.671257  1
  O  O28  1  0.717403  0.727032  0.839159  1
  O  O29  1  0.626758  0.519396  0.420692  1
  O  O30  1  0.940966  0.653177  0.364849  1
  O  O31  1  0.381290  0.652725  0.920856  1
  O  O32  1  0.643948  0.380598  0.096223  1
  O  O33  1  0.384185  0.462852  0.585420  1
  O  O34  1  0.303169  0.291675  0.173777  1
  O  O35  1  0.982430  0.381082  0.343926  1
  O  O36  1  0.698390  0.468753  0.851235  1
  O  O37  1  0.201375  0.197773  0.825323  1
  O  O38  1  0.129256  0.025484  0.433513  1
  O  O39  1  0.453485  0.160327  0.381478  1
  O  O40  1  0.023747  0.351166  0.631480  1
  O  O41  1  0.745966  0.005925  0.109073  1
  O  O42  1  0.539125  0.138291  0.658633  1
  O  O43  1  0.865884  0.123153  0.915150  1
