# generated using pymatgen
data_LiNiO2
_symmetry_space_group_name_H-M   'P 1'
_cell_length_a   5.80042889
_cell_length_b   5.80042889
_cell_length_c   5.87923221
_cell_angle_alpha   59.93129142
_cell_angle_beta   120.06870858
_cell_angle_gamma   119.41070316
_symmetry_Int_Tables_number   1
_chemical_formula_structural   LiNiO2
_chemical_formula_sum   'Li4 Ni4 O8'
_cell_volume   140.33527845
_cell_formula_units_Z   4
loop_
 _symmetry_equiv_pos_site_id
 _symmetry_equiv_pos_as_xyz
  1  'x, y, z'
loop_
 _atom_site_type_symbol
 _atom_site_label
 _atom_site_symmetry_multiplicity
 _atom_site_fract_x
 _atom_site_fract_y
 _atom_site_fract_z
 _atom_site_occupancy
  Li  Li0  1  0.500000  0.500000  0.500000  1
  Li  Li1  1  0.500000  0.500000  0.000000  1
  Li  Li2  1  0.500000  1.000000  0.500000  1
  Li  Li3  1  1.000000  0.500000  0.500000  1
  Ni  Ni4  1  0.000000  1.000000  0.500000  1
  Ni  Ni5  1  0.500000  0.000000  0.000000  1
  Ni  Ni6  1  0.000000  0.500000  0.000000  1
  Ni  Ni7  1  0.000000  0.000000  0.000000  1
  O  O8  1  0.765559  0.234441  0.757114  1
  O  O9  1  0.779375  0.755968  0.774960  1
  O  O10  1  0.750342  0.249658  0.212943  1
  O  O11  1  0.755968  0.779375  0.225040  1
  O  O12  1  0.244032  0.220625  0.774960  1
  O  O13  1  0.249658  0.750342  0.787057  1
  O  O14  1  0.220625  0.244032  0.225040  1
  O  O15  1  0.234441  0.765559  0.242886  1
