# generated using pymatgen
data_Li3V3(PO4)4
_symmetry_space_group_name_H-M   'P 1'
_cell_length_a   6.18860456
_cell_length_b   11.28740163
_cell_length_c   8.72359732
_cell_angle_alpha   90.00000000
_cell_angle_beta   100.84398626
_cell_angle_gamma   90.00000000
_symmetry_Int_Tables_number   1
_chemical_formula_structural   Li3V3(PO4)4
_chemical_formula_sum   'Li6 V6 P8 O32'
_cell_volume   598.49027077
_cell_formula_units_Z   2
loop_
 _symmetry_equiv_pos_site_id
 _symmetry_equiv_pos_as_xyz
  1  'x, y, z'
loop_
 _atom_site_type_symbol
 _atom_site_label
 _atom_site_symmetry_multiplicity
 _atom_site_fract_x
 _atom_site_fract_y
 _atom_site_fract_z
 _atom_site_occupancy
  Li  Li0  1  0.650259  0.610026  0.435197  1
  Li  Li1  1  0.161152  0.889227  0.428095  1
  Li  Li2  1  0.091171  0.193029  0.153275  1
  Li  Li3  1  0.908829  0.693029  0.846725  1
  Li  Li4  1  0.349741  0.110026  0.564803  1
  Li  Li5  1  0.838848  0.389227  0.571905  1
  V  V6  1  0.597523  0.909811  0.236796  1
  V  V7  1  0.079242  0.588824  0.225423  1
  V  V8  1  0.613548  0.310171  0.163361  1
  V  V9  1  0.386452  0.810171  0.836639  1
  V  V10  1  0.402477  0.409811  0.763204  1
  V  V11  1  0.920758  0.088824  0.774577  1
  P  P12  1  0.365003  0.367301  0.397549  1
  P  P13  1  0.868443  0.131132  0.414747  1
  P  P14  1  0.543044  0.591805  0.101321  1
  P  P15  1  0.065069  0.909541  0.088595  1
  P  P16  1  0.456956  0.091805  0.898679  1
  P  P17  1  0.934931  0.409541  0.911405  1
  P  P18  1  0.634997  0.867301  0.602451  1
  P  P19  1  0.131557  0.631132  0.585253  1
  O  O20  1  0.586660  0.430405  0.394554  1
  O  O21  1  0.649458  0.813632  0.440587  1
  O  O22  1  0.080952  0.062417  0.420222  1
  O  O23  1  0.152467  0.688432  0.427346  1
  O  O24  1  0.660217  0.053799  0.352082  1
  O  O25  1  0.363097  0.267093  0.273497  1
  O  O26  1  0.160987  0.446635  0.342983  1
  O  O27  1  0.371827  0.628437  0.199730  1
  O  O28  1  0.276207  0.910573  0.220576  1
  O  O29  1  0.864195  0.234266  0.294401  1
  O  O30  1  0.877910  0.866535  0.174753  1
  O  O31  1  0.763599  0.603529  0.218047  1
  O  O32  1  0.464117  0.180960  0.031432  1
  O  O33  1  0.510046  0.462089  0.034407  1
  O  O34  1  0.895036  0.316564  0.032107  1
  O  O35  1  0.489954  0.962089  0.965593  1
  O  O36  1  0.011452  0.033769  0.015239  1
  O  O37  1  0.535883  0.680960  0.968568  1
  O  O38  1  0.988548  0.533769  0.984761  1
  O  O39  1  0.104964  0.816564  0.967893  1
  O  O40  1  0.723793  0.410573  0.779424  1
  O  O41  1  0.628173  0.128437  0.800270  1
  O  O42  1  0.636903  0.767093  0.726503  1
  O  O43  1  0.236401  0.103529  0.781953  1
  O  O44  1  0.122090  0.366535  0.825247  1
  O  O45  1  0.339783  0.553799  0.647918  1
  O  O46  1  0.135805  0.734266  0.705599  1
  O  O47  1  0.839013  0.946635  0.657017  1
  O  O48  1  0.350542  0.313632  0.559413  1
  O  O49  1  0.413340  0.930405  0.605446  1
  O  O50  1  0.847533  0.188432  0.572654  1
  O  O51  1  0.919048  0.562417  0.579778  1
