# generated using pymatgen
data_Mn3Cu3(TeO8)2
_symmetry_space_group_name_H-M   'P 1'
_cell_length_a   5.95072175
_cell_length_b   5.95072175
_cell_length_c   9.22228280
_cell_angle_alpha   87.59034223
_cell_angle_beta   92.40965777
_cell_angle_gamma   121.13018311
_symmetry_Int_Tables_number   1
_chemical_formula_structural   Mn3Cu3(TeO8)2
_chemical_formula_sum   'Mn3 Cu3 Te2 O16'
_cell_volume   279.21723061
_cell_formula_units_Z   1
loop_
 _symmetry_equiv_pos_site_id
 _symmetry_equiv_pos_as_xyz
  1  'x, y, z'
loop_
 _atom_site_type_symbol
 _atom_site_label
 _atom_site_symmetry_multiplicity
 _atom_site_fract_x
 _atom_site_fract_y
 _atom_site_fract_z
 _atom_site_occupancy
  Mn  Mn0  1  0.831847  0.168153  0.787226  1
  Mn  Mn1  1  0.662899  0.834226  0.290435  1
  Mn  Mn2  1  0.165774  0.337101  0.290435  1
  Cu  Cu3  1  0.829776  0.664351  0.790986  1
  Cu  Cu4  1  0.335649  0.170224  0.790986  1
  Cu  Cu5  1  0.168173  0.831827  0.288564  1
  Te  Te6  1  0.666948  0.333052  0.514793  1
  Te  Te7  1  0.328694  0.671306  0.009606  1
  O  O8  1  0.830019  0.663055  0.404014  1
  O  O9  1  0.523805  0.476195  0.651741  1
  O  O10  1  0.672426  0.327574  0.883777  1
  O  O11  1  0.996285  0.003715  0.700823  1
  O  O12  1  0.992340  0.007660  0.196583  1
  O  O13  1  0.336945  0.169981  0.404014  1
  O  O14  1  0.972605  0.462223  0.650076  1
  O  O15  1  0.537777  0.027395  0.650076  1
  O  O16  1  0.162219  0.837781  0.907418  1
  O  O17  1  0.828279  0.171721  0.396269  1
  O  O18  1  0.492376  0.961164  0.154775  1
  O  O19  1  0.038836  0.507624  0.154775  1
  O  O20  1  0.340374  0.659626  0.390308  1
  O  O21  1  0.652369  0.836137  0.905936  1
  O  O22  1  0.478684  0.521316  0.164404  1
  O  O23  1  0.163863  0.347631  0.905936  1
