# generated using pymatgen
data_LiMnPO4
_symmetry_space_group_name_H-M   'P 1'
_cell_length_a   5.39980424
_cell_length_b   5.39980424
_cell_length_c   6.50345009
_cell_angle_alpha   90.00000000
_cell_angle_beta   90.00000000
_cell_angle_gamma   126.21860657
_symmetry_Int_Tables_number   1
_chemical_formula_structural   LiMnPO4
_chemical_formula_sum   'Li2 Mn2 P2 O8'
_cell_volume   152.98496821
_cell_formula_units_Z   2
loop_
 _symmetry_equiv_pos_site_id
 _symmetry_equiv_pos_as_xyz
  1  'x, y, z'
loop_
 _atom_site_type_symbol
 _atom_site_label
 _atom_site_symmetry_multiplicity
 _atom_site_fract_x
 _atom_site_fract_y
 _atom_site_fract_z
 _atom_site_occupancy
  Li  Li0  1  0.658124  0.316511  0.750000  1
  Li  Li1  1  0.316511  0.658124  0.250000  1
  Mn  Mn2  1  0.015387  0.015387  0.500000  1
  Mn  Mn3  1  0.015387  0.015387  1.000000  1
  P  P4  1  0.684165  0.308622  0.250000  1
  P  P5  1  0.308622  0.684165  0.750000  1
  O  O6  1  0.095322  0.799478  0.750000  1
  O  O7  1  0.497353  0.232738  0.445411  1
  O  O8  1  0.497353  0.232738  0.054589  1
  O  O9  1  0.952017  0.661454  0.250000  1
  O  O10  1  0.661454  0.952017  0.750000  1
  O  O11  1  0.232738  0.497353  0.945411  1
  O  O12  1  0.232738  0.497353  0.554589  1
  O  O13  1  0.799478  0.095322  0.250000  1
