# generated using pymatgen
data_Cu6OF11
_symmetry_space_group_name_H-M   'P 1'
_cell_length_a   3.27614083
_cell_length_b   6.43031124
_cell_length_c   10.39573413
_cell_angle_alpha   107.12494793
_cell_angle_beta   93.56757844
_cell_angle_gamma   94.23240776
_symmetry_Int_Tables_number   1
_chemical_formula_structural   Cu6OF11
_chemical_formula_sum   'Cu6 O1 F11'
_cell_volume   207.91109658
_cell_formula_units_Z   1
loop_
 _symmetry_equiv_pos_site_id
 _symmetry_equiv_pos_as_xyz
  1  'x, y, z'
loop_
 _atom_site_type_symbol
 _atom_site_label
 _atom_site_symmetry_multiplicity
 _atom_site_fract_x
 _atom_site_fract_y
 _atom_site_fract_z
 _atom_site_occupancy
  Cu  Cu0  1  0.498741  0.834104  0.666704  1
  Cu  Cu1  1  0.521138  0.470950  0.000212  1
  Cu  Cu2  1  0.500666  0.166322  0.333179  1
  Cu  Cu3  1  0.000312  0.333681  0.667325  1
  Cu  Cu4  1  0.999978  0.666389  0.333010  1
  Cu  Cu5  1  0.997849  0.013698  0.000224  1
  O  O6  1  0.025978  0.299934  0.999040  1
  F  F7  1  0.027102  0.632384  0.666582  1
  F  F8  1  0.024265  0.965717  0.333302  1
  F  F9  1  0.552832  0.934788  0.862956  1
  F  F10  1  0.468997  0.734934  0.469406  1
  F  F11  1  0.464836  0.400498  0.803014  1
  F  F12  1  0.537484  0.595576  0.196767  1
  F  F13  1  0.531253  0.264944  0.530713  1
  F  F14  1  0.443820  0.072299  0.136112  1
  F  F15  1  0.974686  0.033950  0.666289  1
  F  F16  1  0.955108  0.712240  0.000895  1
  F  F17  1  0.974956  0.367589  0.334272  1
