# generated using pymatgen
data_Al(CoO2)2
_symmetry_space_group_name_H-M   'P 1'
_cell_length_a   5.81297491
_cell_length_b   5.81297491
_cell_length_c   5.81297491
_cell_angle_alpha   119.59351393
_cell_angle_beta   118.82814248
_cell_angle_gamma   91.37365621
_symmetry_Int_Tables_number   1
_chemical_formula_structural   Al(CoO2)2
_chemical_formula_sum   'Al2 Co4 O8'
_cell_volume   140.49844542
_cell_formula_units_Z   2
loop_
 _symmetry_equiv_pos_site_id
 _symmetry_equiv_pos_as_xyz
  1  'x, y, z'
loop_
 _atom_site_type_symbol
 _atom_site_label
 _atom_site_symmetry_multiplicity
 _atom_site_fract_x
 _atom_site_fract_y
 _atom_site_fract_z
 _atom_site_occupancy
  Al  Al0  1  0.500000  0.500000  0.000000  1
  Al  Al1  1  0.500000  0.000000  0.500000  1
  Co  Co2  1  1.000000  0.500000  1.000000  1
  Co  Co3  1  0.878272  0.128272  0.250000  1
  Co  Co4  1  0.500000  0.500000  0.500000  1
  Co  Co5  1  0.121728  0.871728  0.750000  1
  O  O6  1  0.270175  0.738471  0.031704  1
  O  O7  1  0.706767  0.738471  0.468296  1
  O  O8  1  0.268232  0.752571  0.484339  1
  O  O9  1  0.268232  0.283893  0.015661  1
  O  O10  1  0.731768  0.716107  0.984339  1
  O  O11  1  0.731768  0.247429  0.515661  1
  O  O12  1  0.729825  0.261529  0.968296  1
  O  O13  1  0.293233  0.261529  0.531704  1
