# generated using pymatgen
data_LiVO2F
_symmetry_space_group_name_H-M   'P 1'
_cell_length_a   3.49858017
_cell_length_b   4.92786470
_cell_length_c   13.92146905
_cell_angle_alpha   90.00000000
_cell_angle_beta   90.00000000
_cell_angle_gamma   90.00000000
_symmetry_Int_Tables_number   1
_chemical_formula_structural   LiVO2F
_chemical_formula_sum   'Li4 V4 O8 F4'
_cell_volume   240.01350090
_cell_formula_units_Z   4
loop_
 _symmetry_equiv_pos_site_id
 _symmetry_equiv_pos_as_xyz
  1  'x, y, z'
loop_
 _atom_site_type_symbol
 _atom_site_label
 _atom_site_symmetry_multiplicity
 _atom_site_fract_x
 _atom_site_fract_y
 _atom_site_fract_z
 _atom_site_occupancy
  Li  Li0  1  0.750000  0.631841  0.174147  1
  Li  Li1  1  0.250000  0.131841  0.325853  1
  Li  Li2  1  0.750000  0.868159  0.674147  1
  Li  Li3  1  0.250000  0.368159  0.825853  1
  V  V4  1  0.250000  0.091534  0.083113  1
  V  V5  1  0.750000  0.591534  0.416887  1
  V  V6  1  0.250000  0.408466  0.583113  1
  V  V7  1  0.750000  0.908466  0.916887  1
  O  O8  1  0.750000  0.927442  0.061260  1
  O  O9  1  0.250000  0.419005  0.112781  1
  O  O10  1  0.750000  0.919005  0.387219  1
  O  O11  1  0.250000  0.427442  0.438740  1
  O  O12  1  0.750000  0.572558  0.561260  1
  O  O13  1  0.250000  0.080995  0.612781  1
  O  O14  1  0.750000  0.580995  0.887219  1
  O  O15  1  0.250000  0.072558  0.938740  1
  F  F16  1  0.250000  0.906199  0.208994  1
  F  F17  1  0.750000  0.406199  0.291006  1
  F  F18  1  0.250000  0.593801  0.708994  1
  F  F19  1  0.750000  0.093801  0.791006  1
