# generated using pymatgen
data_Li3Ni2(CO3)4
_symmetry_space_group_name_H-M   'P 1'
_cell_length_a   5.39431244
_cell_length_b   6.45543988
_cell_length_c   8.19818311
_cell_angle_alpha   86.51218990
_cell_angle_beta   100.84369722
_cell_angle_gamma   113.20854616
_symmetry_Int_Tables_number   1
_chemical_formula_structural   Li3Ni2(CO3)4
_chemical_formula_sum   'Li3 Ni2 C4 O12'
_cell_volume   257.66728325
_cell_formula_units_Z   1
loop_
 _symmetry_equiv_pos_site_id
 _symmetry_equiv_pos_as_xyz
  1  'x, y, z'
loop_
 _atom_site_type_symbol
 _atom_site_label
 _atom_site_symmetry_multiplicity
 _atom_site_fract_x
 _atom_site_fract_y
 _atom_site_fract_z
 _atom_site_occupancy
  Li  Li0  1  0.525811  0.050258  0.316974  1
  Li  Li1  1  0.129626  0.952468  0.661903  1
  Li  Li2  1  0.219559  0.455451  0.825165  1
  Ni  Ni3  1  0.953437  0.998630  0.011727  1
  Ni  Ni4  1  0.721008  0.496592  0.507655  1
  C  C5  1  0.323245  0.395262  0.209506  1
  C  C6  1  0.917146  0.893820  0.298235  1
  C  C7  1  0.692334  0.100648  0.700853  1
  C  C8  1  0.745789  0.605364  0.794238  1
  O  O9  1  0.210434  0.330273  0.057297  1
  O  O10  1  0.734221  0.947022  0.199869  1
  O  O11  1  0.556635  0.384937  0.271961  1
  O  O12  1  0.132147  0.917238  0.239763  1
  O  O13  1  0.204748  0.463373  0.299377  1
  O  O14  1  0.885855  0.824741  0.447142  1
  O  O15  1  0.661452  0.172142  0.548229  1
  O  O16  1  0.938611  0.107757  0.769493  1
  O  O17  1  0.961978  0.612121  0.737118  1
  O  O18  1  0.515579  0.522628  0.691479  1
  O  O19  1  0.499269  0.029880  0.781324  1
  O  O20  1  0.763166  0.676811  0.937651  1
