# generated using pymatgen
data_Li2Mn3CoO8
_symmetry_space_group_name_H-M   'P 1'
_cell_length_a   5.83729187
_cell_length_b   5.83729187
_cell_length_c   9.64964797
_cell_angle_alpha   90.00000000
_cell_angle_beta   90.00000000
_cell_angle_gamma   120.00000000
_symmetry_Int_Tables_number   1
_chemical_formula_structural   Li2Mn3CoO8
_chemical_formula_sum   'Li4 Mn6 Co2 O16'
_cell_volume   284.75077884
_cell_formula_units_Z   2
loop_
 _symmetry_equiv_pos_site_id
 _symmetry_equiv_pos_as_xyz
  1  'x, y, z'
loop_
 _atom_site_type_symbol
 _atom_site_label
 _atom_site_symmetry_multiplicity
 _atom_site_fract_x
 _atom_site_fract_y
 _atom_site_fract_z
 _atom_site_occupancy
  Li  Li0  1  0.333333  0.666667  0.886196  1
  Li  Li1  1  0.000000  0.000000  0.998136  1
  Li  Li2  1  0.000000  0.000000  0.498136  1
  Li  Li3  1  0.666667  0.333333  0.386196  1
  Mn  Mn4  1  0.168817  0.831183  0.215231  1
  Mn  Mn5  1  0.168817  0.337634  0.215231  1
  Mn  Mn6  1  0.662366  0.831183  0.215231  1
  Mn  Mn7  1  0.337634  0.168817  0.715231  1
  Mn  Mn8  1  0.831183  0.662366  0.715231  1
  Mn  Mn9  1  0.831183  0.168817  0.715231  1
  Co  Co10  1  0.333333  0.666667  0.493514  1
  Co  Co11  1  0.666667  0.333333  0.993514  1
  O  O12  1  0.158890  0.841110  0.606413  1
  O  O13  1  0.035196  0.517598  0.330217  1
  O  O14  1  0.333333  0.666667  0.108960  1
  O  O15  1  0.000000  0.000000  0.311511  1
  O  O16  1  0.000000  0.000000  0.811511  1
  O  O17  1  0.158890  0.317781  0.606413  1
  O  O18  1  0.482402  0.964804  0.330217  1
  O  O19  1  0.482402  0.517598  0.330217  1
  O  O20  1  0.317781  0.158890  0.106413  1
  O  O21  1  0.682219  0.841110  0.606413  1
  O  O22  1  0.517598  0.482402  0.830217  1
  O  O23  1  0.517598  0.035196  0.830217  1
  O  O24  1  0.666667  0.333333  0.608960  1
  O  O25  1  0.841110  0.682219  0.106413  1
  O  O26  1  0.964804  0.482402  0.830217  1
  O  O27  1  0.841110  0.158890  0.106413  1
