# generated using pymatgen
data_Li3Fe8(BO3)8
_symmetry_space_group_name_H-M   'P 1'
_cell_length_a   5.29401892
_cell_length_b   9.10230234
_cell_length_c   11.36652995
_cell_angle_alpha   113.11869719
_cell_angle_beta   103.38606049
_cell_angle_gamma   89.75782875
_symmetry_Int_Tables_number   1
_chemical_formula_structural   Li3Fe8(BO3)8
_chemical_formula_sum   'Li3 Fe8 B8 O24'
_cell_volume   487.75109054
_cell_formula_units_Z   1
loop_
 _symmetry_equiv_pos_site_id
 _symmetry_equiv_pos_as_xyz
  1  'x, y, z'
loop_
 _atom_site_type_symbol
 _atom_site_label
 _atom_site_symmetry_multiplicity
 _atom_site_fract_x
 _atom_site_fract_y
 _atom_site_fract_z
 _atom_site_occupancy
  Li  Li0  1  0.811900  0.174148  0.334121  1
  Li  Li1  1  0.074917  0.407731  0.840339  1
  Li  Li2  1  0.573273  0.906106  0.836677  1
  Fe  Fe3  1  0.600500  0.590284  0.874119  1
  Fe  Fe4  1  0.905489  0.888255  0.118943  1
  Fe  Fe5  1  0.161403  0.481908  0.622457  1
  Fe  Fe6  1  0.345264  0.020364  0.373515  1
  Fe  Fe7  1  0.656532  0.981598  0.621451  1
  Fe  Fe8  1  0.846453  0.527550  0.368911  1
  Fe  Fe9  1  0.099153  0.091803  0.875636  1
  Fe  Fe10  1  0.394914  0.395986  0.118657  1
  B  B11  1  0.360474  0.356140  0.370194  1
  B  B12  1  0.102056  0.765572  0.871171  1
  B  B13  1  0.848627  0.856903  0.371702  1
  B  B14  1  0.602934  0.263376  0.872114  1
  B  B15  1  0.152849  0.145591  0.628207  1
  B  B16  1  0.395860  0.728409  0.119144  1
  B  B17  1  0.655662  0.643173  0.622886  1
  B  B18  1  0.902841  0.234584  0.129259  1
  O  O19  1  0.872967  0.788002  0.917212  1
  O  O20  1  0.528650  0.542370  0.660884  1
  O  O21  1  0.817817  0.102344  0.143650  1
  O  O22  1  0.480913  0.225632  0.370397  1
  O  O23  1  0.122593  0.388130  0.412627  1
  O  O24  1  0.181797  0.608582  0.823009  1
  O  O25  1  0.737454  0.386847  0.867508  1
  O  O26  1  0.937857  0.962477  0.323188  1
  O  O27  1  0.274816  0.868869  0.162355  1
  O  O28  1  0.365103  0.094907  0.577985  1
  O  O29  1  0.068832  0.293446  0.641027  1
  O  O30  1  0.620276  0.731155  0.075872  1
  O  O31  1  0.373719  0.287315  0.918227  1
  O  O32  1  0.640002  0.899979  0.429325  1
  O  O33  1  0.685801  0.108256  0.830011  1
  O  O34  1  0.024224  0.050071  0.669762  1
  O  O35  1  0.290575  0.588928  0.113520  1
  O  O36  1  0.775015  0.375194  0.170235  1
  O  O37  1  0.864732  0.589353  0.565217  1
  O  O38  1  0.583645  0.793645  0.647522  1
  O  O39  1  0.956490  0.717588  0.362075  1
  O  O40  1  0.241243  0.889250  0.870420  1
  O  O41  1  0.461537  0.464317  0.327604  1
  O  O42  1  0.115889  0.234806  0.079069  1
