# generated using pymatgen
data_Co3(SeO3)4
_symmetry_space_group_name_H-M   'P 1'
_cell_length_a   7.66919737
_cell_length_b   9.19228638
_cell_length_c   8.02605009
_cell_angle_alpha   90.00000000
_cell_angle_beta   116.61178349
_cell_angle_gamma   90.00000000
_symmetry_Int_Tables_number   1
_chemical_formula_structural   Co3(SeO3)4
_chemical_formula_sum   'Co6 Se8 O24'
_cell_volume   505.87477875
_cell_formula_units_Z   2
loop_
 _symmetry_equiv_pos_site_id
 _symmetry_equiv_pos_as_xyz
  1  'x, y, z'
loop_
 _atom_site_type_symbol
 _atom_site_label
 _atom_site_symmetry_multiplicity
 _atom_site_fract_x
 _atom_site_fract_y
 _atom_site_fract_z
 _atom_site_occupancy
  Co  Co0  1  0.500000  0.500000  0.000000  1
  Co  Co1  1  0.181178  0.988499  0.719351  1
  Co  Co2  1  0.000000  0.000000  0.000000  1
  Co  Co3  1  0.681178  0.511501  0.719351  1
  Co  Co4  1  0.318822  0.488499  0.280649  1
  Co  Co5  1  0.818822  0.011501  0.280649  1
  Se  Se6  1  0.118350  0.317356  0.832643  1
  Se  Se7  1  0.618350  0.182644  0.832643  1
  Se  Se8  1  0.237858  0.667714  0.598507  1
  Se  Se9  1  0.262142  0.167714  0.401493  1
  Se  Se10  1  0.737858  0.832286  0.598507  1
  Se  Se11  1  0.762142  0.332286  0.401493  1
  Se  Se12  1  0.381650  0.817356  0.167357  1
  Se  Se13  1  0.881650  0.682644  0.167357  1
  O  O14  1  0.183746  0.873466  0.952636  1
  O  O15  1  0.061638  0.128993  0.840177  1
  O  O16  1  0.683746  0.626534  0.952636  1
  O  O17  1  0.275631  0.570486  0.794047  1
  O  O18  1  0.421969  0.115115  0.849789  1
  O  O19  1  0.561638  0.371007  0.840177  1
  O  O20  1  0.331748  0.838531  0.663817  1
  O  O21  1  0.775631  0.929514  0.794047  1
  O  O22  1  0.921969  0.384885  0.849789  1
  O  O23  1  0.084403  0.101096  0.464272  1
  O  O24  1  0.415597  0.601096  0.535728  1
  O  O25  1  0.831748  0.661469  0.663817  1
  O  O26  1  0.168252  0.338531  0.336183  1
  O  O27  1  0.584403  0.398904  0.464272  1
  O  O28  1  0.915597  0.898904  0.535728  1
  O  O29  1  0.078031  0.615115  0.150211  1
  O  O30  1  0.224369  0.070486  0.205953  1
  O  O31  1  0.668252  0.161469  0.336183  1
  O  O32  1  0.438362  0.628993  0.159823  1
  O  O33  1  0.578031  0.884885  0.150211  1
  O  O34  1  0.724369  0.429514  0.205953  1
  O  O35  1  0.316254  0.373466  0.047364  1
  O  O36  1  0.938362  0.871007  0.159823  1
  O  O37  1  0.816254  0.126534  0.047364  1
