# generated using pymatgen
data_Li8NbS6
_symmetry_space_group_name_H-M   'P 1'
_cell_length_a   7.28457651
_cell_length_b   7.28457651
_cell_length_c   7.28457651
_cell_angle_alpha   55.28792562
_cell_angle_beta   55.28792562
_cell_angle_gamma   55.28792562
_symmetry_Int_Tables_number   1
_chemical_formula_structural   Li8NbS6
_chemical_formula_sum   'Li8 Nb1 S6'
_cell_volume   243.40502053
_cell_formula_units_Z   1
loop_
 _symmetry_equiv_pos_site_id
 _symmetry_equiv_pos_as_xyz
  1  'x, y, z'
loop_
 _atom_site_type_symbol
 _atom_site_label
 _atom_site_symmetry_multiplicity
 _atom_site_fract_x
 _atom_site_fract_y
 _atom_site_fract_z
 _atom_site_occupancy
  Li  Li0  1  0.104183  0.480359  0.773915  1
  Li  Li1  1  0.519641  0.226085  0.895817  1
  Li  Li2  1  0.226085  0.895817  0.519641  1
  Li  Li3  1  0.340921  0.340921  0.340921  1
  Li  Li4  1  0.659079  0.659079  0.659079  1
  Li  Li5  1  0.773915  0.104183  0.480359  1
  Li  Li6  1  0.480359  0.773915  0.104183  1
  Li  Li7  1  0.895817  0.519641  0.226085  1
  Nb  Nb8  1  0.000000  0.000000  0.000000  1
  S  S9  1  0.238754  0.616259  0.911358  1
  S  S10  1  0.383741  0.088642  0.761246  1
  S  S11  1  0.088642  0.761246  0.383741  1
  S  S12  1  0.911358  0.238754  0.616259  1
  S  S13  1  0.616259  0.911358  0.238754  1
  S  S14  1  0.761246  0.383741  0.088642  1
