# generated using pymatgen
data_Li2VCrP2(O4F)2
_symmetry_space_group_name_H-M   'P 1'
_cell_length_a   5.22209072
_cell_length_b   7.34278546
_cell_length_c   14.98287337
_cell_angle_alpha   93.88279553
_cell_angle_beta   92.60359643
_cell_angle_gamma   108.58455483
_symmetry_Int_Tables_number   1
_chemical_formula_structural   Li2VCrP2(O4F)2
_chemical_formula_sum   'Li6 V3 Cr3 P6 O24 F6'
_cell_volume   541.93977138
_cell_formula_units_Z   3
loop_
 _symmetry_equiv_pos_site_id
 _symmetry_equiv_pos_as_xyz
  1  'x, y, z'
loop_
 _atom_site_type_symbol
 _atom_site_label
 _atom_site_symmetry_multiplicity
 _atom_site_fract_x
 _atom_site_fract_y
 _atom_site_fract_z
 _atom_site_occupancy
  Li  Li0  1  0.769087  0.849948  0.037968  1
  Li  Li1  1  0.564287  0.482711  0.294786  1
  Li  Li2  1  0.230913  0.150052  0.962032  1
  Li  Li3  1  0.435713  0.517289  0.705214  1
  Li  Li4  1  0.101630  0.182374  0.371540  1
  Li  Li5  1  0.898370  0.817626  0.628460  1
  V  V6  1  0.833458  0.333069  0.833225  1
  V  V7  1  0.500000  0.500000  0.500000  1
  V  V8  1  0.166542  0.666931  0.166775  1
  Cr  Cr9  1  0.833706  0.833506  0.833104  1
  Cr  Cr10  1  0.500000  0.000000  0.500000  1
  Cr  Cr11  1  0.166294  0.166494  0.166896  1
  P  P12  1  0.723032  0.283896  0.047591  1
  P  P13  1  0.609436  0.048966  0.286345  1
  P  P14  1  0.390564  0.951034  0.713655  1
  P  P15  1  0.276968  0.716104  0.952409  1
  P  P16  1  0.057800  0.619055  0.380251  1
  P  P17  1  0.942200  0.380945  0.619749  1
  O  O18  1  0.823503  0.179281  0.570929  1
  O  O19  1  0.694090  0.044028  0.386746  1
  O  O20  1  0.596393  0.834959  0.721787  1
  O  O21  1  0.490505  0.846200  0.237826  1
  O  O22  1  0.639936  0.291157  0.947370  1
  O  O23  1  0.785659  0.502624  0.417246  1
  O  O24  1  0.740467  0.500103  0.611953  1
  O  O25  1  0.451545  0.167453  0.084208  1
  O  O26  1  0.509495  0.153800  0.762174  1
  O  O27  1  0.403607  0.165041  0.278213  1
  O  O28  1  0.305910  0.955972  0.613254  1
  O  O29  1  0.548455  0.832547  0.915792  1
  O  O30  1  0.119120  0.834956  0.750543  1
  O  O31  1  0.360064  0.708843  0.052630  1
  O  O32  1  0.259533  0.499897  0.388047  1
  O  O33  1  0.157747  0.512896  0.904368  1
  O  O34  1  0.214341  0.497376  0.582754  1
  O  O35  1  0.929387  0.168295  0.055340  1
  O  O36  1  0.880880  0.165044  0.249457  1
  O  O37  1  0.028270  0.374733  0.719630  1
  O  O38  1  0.176497  0.820719  0.429071  1
  O  O39  1  0.070613  0.831705  0.944660  1
  O  O40  1  0.971730  0.625267  0.280370  1
  O  O41  1  0.842253  0.487104  0.095632  1
  F  F42  1  0.680370  0.550472  0.809572  1
  F  F43  1  0.652485  0.791534  0.523606  1
  F  F44  1  0.347515  0.208466  0.476394  1
  F  F45  1  0.319630  0.449528  0.190428  1
  F  F46  1  0.013108  0.883784  0.142832  1
  F  F47  1  0.986892  0.116216  0.857168  1
