# generated using pymatgen
data_BaSrI4
_symmetry_space_group_name_H-M   'P 1'
_cell_length_a   10.93873275
_cell_length_b   11.34103204
_cell_length_c   21.00811949
_cell_angle_alpha   90.00000000
_cell_angle_beta   114.32174622
_cell_angle_gamma   90.00000000
_symmetry_Int_Tables_number   1
_chemical_formula_structural   BaSrI4
_chemical_formula_sum   'Ba8 Sr8 I32'
_cell_volume   2374.88667577
_cell_formula_units_Z   8
loop_
 _symmetry_equiv_pos_site_id
 _symmetry_equiv_pos_as_xyz
  1  'x, y, z'
loop_
 _atom_site_type_symbol
 _atom_site_label
 _atom_site_symmetry_multiplicity
 _atom_site_fract_x
 _atom_site_fract_y
 _atom_site_fract_z
 _atom_site_occupancy
  Ba  Ba0  1  0.747101  0.973202  0.845530  1
  Ba  Ba1  1  0.189214  0.720991  0.863912  1
  Ba  Ba2  1  0.252899  0.473202  0.654470  1
  Ba  Ba3  1  0.810786  0.220991  0.636088  1
  Ba  Ba4  1  0.189214  0.779009  0.363912  1
  Ba  Ba5  1  0.747101  0.526798  0.345530  1
  Ba  Ba6  1  0.810786  0.279009  0.136088  1
  Ba  Ba7  1  0.252899  0.026798  0.154470  1
  Sr  Sr8  1  0.780643  0.449773  0.911916  1
  Sr  Sr9  1  0.340097  0.177961  0.917835  1
  Sr  Sr10  1  0.219357  0.949773  0.588084  1
  Sr  Sr11  1  0.659903  0.677961  0.582165  1
  Sr  Sr12  1  0.340097  0.322039  0.417835  1
  Sr  Sr13  1  0.780643  0.050227  0.411916  1
  Sr  Sr14  1  0.659903  0.822039  0.082165  1
  Sr  Sr15  1  0.219357  0.550227  0.088084  1
  I  I16  1  0.276682  0.450623  0.950466  1
  I  I17  1  0.649788  0.210859  0.942210  1
  I  I18  1  0.963182  0.688679  0.953607  1
  I  I19  1  0.495644  0.888967  0.908222  1
  I  I20  1  0.096427  0.999500  0.899219  1
  I  I21  1  0.487703  0.551258  0.812935  1
  I  I22  1  0.831575  0.266459  0.804277  1
  I  I23  1  0.178060  0.247524  0.752093  1
  I  I24  1  0.821940  0.747524  0.747907  1
  I  I25  1  0.168425  0.766459  0.695723  1
  I  I26  1  0.512297  0.051258  0.687065  1
  I  I27  1  0.903573  0.499500  0.600781  1
  I  I28  1  0.504356  0.388967  0.591778  1
  I  I29  1  0.350212  0.710859  0.557790  1
  I  I30  1  0.036818  0.188679  0.546393  1
  I  I31  1  0.723318  0.950623  0.549534  1
  I  I32  1  0.276682  0.049377  0.450466  1
  I  I33  1  0.963182  0.811321  0.453607  1
  I  I34  1  0.649788  0.289141  0.442210  1
  I  I35  1  0.495644  0.611033  0.408222  1
  I  I36  1  0.096427  0.500500  0.399219  1
  I  I37  1  0.487703  0.948742  0.312935  1
  I  I38  1  0.831575  0.233541  0.304277  1
  I  I39  1  0.178060  0.252476  0.252093  1
  I  I40  1  0.821940  0.752476  0.247907  1
  I  I41  1  0.168425  0.733541  0.195723  1
  I  I42  1  0.512297  0.448742  0.187065  1
  I  I43  1  0.903573  0.000500  0.100781  1
  I  I44  1  0.504356  0.111033  0.091778  1
  I  I45  1  0.036818  0.311321  0.046393  1
  I  I46  1  0.350212  0.789141  0.057790  1
  I  I47  1  0.723318  0.549377  0.049534  1
