# generated using pymatgen
data_Li10Ti3Co3(NiO8)2
_symmetry_space_group_name_H-M   'P 1'
_cell_length_a   5.98379738
_cell_length_b   5.98635123
_cell_length_c   9.89517381
_cell_angle_alpha   90.78206031
_cell_angle_beta   90.35065149
_cell_angle_gamma   119.56124634
_symmetry_Int_Tables_number   1
_chemical_formula_structural   Li10Ti3Co3(NiO8)2
_chemical_formula_sum   'Li10 Ti3 Co3 Ni2 O16'
_cell_volume   308.25377505
_cell_formula_units_Z   1
loop_
 _symmetry_equiv_pos_site_id
 _symmetry_equiv_pos_as_xyz
  1  'x, y, z'
loop_
 _atom_site_type_symbol
 _atom_site_label
 _atom_site_symmetry_multiplicity
 _atom_site_fract_x
 _atom_site_fract_y
 _atom_site_fract_z
 _atom_site_occupancy
  Li  Li0  1  0.635656  0.309908  0.217950  1
  Li  Li1  1  0.825116  0.216925  0.454972  1
  Li  Li2  1  0.791448  0.601675  0.444666  1
  Li  Li3  1  0.383325  0.208489  0.451606  1
  Li  Li4  1  0.328324  0.659449  0.718022  1
  Li  Li5  1  0.193772  0.822792  0.923894  1
  Li  Li6  1  0.590752  0.802474  0.936627  1
  Li  Li7  1  0.183503  0.362410  0.921996  1
  Li  Li8  1  0.986243  0.977567  0.522485  1
  Li  Li9  1  0.973297  0.980261  0.015927  1
  Ti  Ti10  1  0.815801  0.637603  0.714235  1
  Ti  Ti11  1  0.645525  0.823748  0.224782  1
  Ti  Ti12  1  0.141235  0.801052  0.208862  1
  Co  Co13  1  0.822543  0.153583  0.713595  1
  Co  Co14  1  0.328645  0.155919  0.711404  1
  Co  Co15  1  0.146942  0.317910  0.213016  1
  Ni  Ni16  1  0.656326  0.315108  0.964452  1
  Ni  Ni17  1  0.317164  0.646384  0.476514  1
  O  O18  1  0.820899  0.660597  0.105281  1
  O  O19  1  0.977557  0.491707  0.837301  1
  O  O20  1  0.797743  0.124282  0.102597  1
  O  O21  1  0.667325  0.340147  0.589091  1
  O  O22  1  0.511770  0.493117  0.836419  1
  O  O23  1  0.503357  0.009814  0.833964  1
  O  O24  1  0.659871  0.798392  0.595931  1
  O  O25  1  0.294623  0.122456  0.101510  1
  O  O26  1  0.475806  0.969053  0.331207  1
  O  O27  1  0.325459  0.673414  0.100098  1
  O  O28  1  0.132962  0.797863  0.597668  1
  O  O29  1  0.485717  0.505763  0.327220  1
  O  O30  1  0.002769  0.507529  0.328829  1
  O  O31  1  0.151222  0.308034  0.582672  1
  O  O32  1  0.967290  0.959005  0.328652  1
  O  O33  1  0.983289  0.967333  0.831527  1
