# generated using pymatgen
data_LiMnF4
_symmetry_space_group_name_H-M   'P 1'
_cell_length_a   5.07609414
_cell_length_b   5.32783184
_cell_length_c   6.33041327
_cell_angle_alpha   114.50359999
_cell_angle_beta   107.19315323
_cell_angle_gamma   89.85070113
_symmetry_Int_Tables_number   1
_chemical_formula_structural   LiMnF4
_chemical_formula_sum   'Li2 Mn2 F8'
_cell_volume   147.39787236
_cell_formula_units_Z   2
loop_
 _symmetry_equiv_pos_site_id
 _symmetry_equiv_pos_as_xyz
  1  'x, y, z'
loop_
 _atom_site_type_symbol
 _atom_site_label
 _atom_site_symmetry_multiplicity
 _atom_site_fract_x
 _atom_site_fract_y
 _atom_site_fract_z
 _atom_site_occupancy
  Li  Li0  1  0.742653  0.137033  0.993768  1
  Li  Li1  1  0.257347  0.862967  0.006232  1
  Mn  Mn2  1  0.000000  0.000000  0.500000  1
  Mn  Mn3  1  0.500000  0.500000  0.500000  1
  F  F4  1  0.496335  0.773481  0.801475  1
  F  F5  1  0.356749  0.212407  0.642606  1
  F  F6  1  0.998378  0.022512  0.802683  1
  F  F7  1  0.853086  0.424695  0.639100  1
  F  F8  1  0.146914  0.575305  0.360900  1
  F  F9  1  0.001622  0.977488  0.197317  1
  F  F10  1  0.643251  0.787593  0.357394  1
  F  F11  1  0.503665  0.226519  0.198525  1
