# generated using pymatgen
data_Li2AlFeO4
_symmetry_space_group_name_H-M   'P 1'
_cell_length_a   6.29633055
_cell_length_b   5.42030653
_cell_length_c   10.91610186
_cell_angle_alpha   90.00000000
_cell_angle_beta   91.29288249
_cell_angle_gamma   90.00000000
_symmetry_Int_Tables_number   1
_chemical_formula_structural   Li2AlFeO4
_chemical_formula_sum   'Li8 Al4 Fe4 O16'
_cell_volume   372.45033560
_cell_formula_units_Z   4
loop_
 _symmetry_equiv_pos_site_id
 _symmetry_equiv_pos_as_xyz
  1  'x, y, z'
loop_
 _atom_site_type_symbol
 _atom_site_label
 _atom_site_symmetry_multiplicity
 _atom_site_fract_x
 _atom_site_fract_y
 _atom_site_fract_z
 _atom_site_occupancy
  Li  Li0  1  0.011090  0.327080  0.674162  1
  Li  Li1  1  0.011090  0.172920  0.174162  1
  Li  Li2  1  0.245541  0.170264  0.919819  1
  Li  Li3  1  0.245541  0.329736  0.419819  1
  Li  Li4  1  0.754459  0.670264  0.580181  1
  Li  Li5  1  0.754459  0.829736  0.080181  1
  Li  Li6  1  0.988910  0.827080  0.825838  1
  Li  Li7  1  0.988910  0.672920  0.325838  1
  Al  Al8  1  0.503076  0.184207  0.667575  1
  Al  Al9  1  0.496924  0.684207  0.832425  1
  Al  Al10  1  0.503076  0.315793  0.167575  1
  Al  Al11  1  0.496924  0.815793  0.332425  1
  Fe  Fe12  1  0.235093  0.824246  0.579566  1
  Fe  Fe13  1  0.235093  0.675754  0.079566  1
  Fe  Fe14  1  0.764907  0.324246  0.920434  1
  Fe  Fe15  1  0.764907  0.175754  0.420434  1
  O  O16  1  0.025773  0.685638  0.664642  1
  O  O17  1  0.025773  0.814362  0.164642  1
  O  O18  1  0.256483  0.180779  0.583715  1
  O  O19  1  0.256483  0.319221  0.083715  1
  O  O20  1  0.289571  0.801584  0.920023  1
  O  O21  1  0.487580  0.346646  0.810522  1
  O  O22  1  0.289571  0.698416  0.420023  1
  O  O23  1  0.487580  0.153354  0.310522  1
  O  O24  1  0.512420  0.846646  0.689478  1
  O  O25  1  0.710429  0.301584  0.579977  1
  O  O26  1  0.512420  0.653354  0.189478  1
  O  O27  1  0.710429  0.198416  0.079977  1
  O  O28  1  0.743517  0.680779  0.916285  1
  O  O29  1  0.743517  0.819221  0.416285  1
  O  O30  1  0.974227  0.185638  0.835358  1
  O  O31  1  0.974227  0.314362  0.335358  1
