# generated using pymatgen
data_TiMn2Ni3(PO4)6
_symmetry_space_group_name_H-M   'P 1'
_cell_length_a   8.55608317
_cell_length_b   8.55608317
_cell_length_c   8.55608317
_cell_angle_alpha   60.85326640
_cell_angle_beta   60.85326640
_cell_angle_gamma   60.85326640
_symmetry_Int_Tables_number   1
_chemical_formula_structural   TiMn2Ni3(PO4)6
_chemical_formula_sum   'Ti1 Mn2 Ni3 P6 O24'
_cell_volume   451.42531221
_cell_formula_units_Z   1
loop_
 _symmetry_equiv_pos_site_id
 _symmetry_equiv_pos_as_xyz
  1  'x, y, z'
loop_
 _atom_site_type_symbol
 _atom_site_label
 _atom_site_symmetry_multiplicity
 _atom_site_fract_x
 _atom_site_fract_y
 _atom_site_fract_z
 _atom_site_occupancy
  Ti  Ti0  1  0.145586  0.145586  0.145586  1
  Mn  Mn1  1  0.999615  0.999615  0.999615  1
  Mn  Mn2  1  0.498907  0.498907  0.498907  1
  Ni  Ni3  1  0.856641  0.856641  0.856641  1
  Ni  Ni4  1  0.641308  0.641308  0.641308  1
  Ni  Ni5  1  0.356516  0.356516  0.356516  1
  P  P6  1  0.749046  0.456607  0.045020  1
  P  P7  1  0.456607  0.045020  0.749046  1
  P  P8  1  0.045020  0.749046  0.456607  1
  P  P9  1  0.953632  0.250444  0.545822  1
  P  P10  1  0.545822  0.953632  0.250444  1
  P  P11  1  0.250444  0.545822  0.953632  1
  O  O12  1  0.891629  0.686317  0.487873  1
  O  O13  1  0.686317  0.487873  0.891629  1
  O  O14  1  0.941821  0.089694  0.740904  1
  O  O15  1  0.487873  0.891629  0.686317  1
  O  O16  1  0.009957  0.178591  0.383723  1
  O  O17  1  0.755950  0.403124  0.553153  1
  O  O18  1  0.740904  0.941821  0.089694  1
  O  O19  1  0.553153  0.755950  0.403124  1
  O  O20  1  0.817474  0.608436  0.008498  1
  O  O21  1  0.403124  0.553153  0.755950  1
  O  O22  1  0.910170  0.255836  0.067377  1
  O  O23  1  0.608436  0.008498  0.817474  1
  O  O24  1  0.383723  0.009957  0.178591  1
  O  O25  1  0.089694  0.740904  0.941821  1
  O  O26  1  0.589245  0.442424  0.243397  1
  O  O27  1  0.178591  0.383723  0.009957  1
  O  O28  1  0.442424  0.243397  0.589245  1
  O  O29  1  0.255836  0.067377  0.910170  1
  O  O30  1  0.243397  0.589245  0.442424  1
  O  O31  1  0.008498  0.817474  0.608436  1
  O  O32  1  0.510506  0.103220  0.321536  1
  O  O33  1  0.067377  0.910170  0.255836  1
  O  O34  1  0.321536  0.510506  0.103220  1
  O  O35  1  0.103220  0.321536  0.510506  1
