# generated using pymatgen
data_BaYb2(MoO4)4
_symmetry_space_group_name_H-M   'P 1'
_cell_length_a   6.92296953
_cell_length_b   6.92296953
_cell_length_c   19.83515435
_cell_angle_alpha   89.37285829
_cell_angle_beta   90.62714171
_cell_angle_gamma   44.84000647
_symmetry_Int_Tables_number   1
_chemical_formula_structural   BaYb2(MoO4)4
_chemical_formula_sum   'Ba2 Yb4 Mo8 O32'
_cell_volume   670.05489603
_cell_formula_units_Z   2
loop_
 _symmetry_equiv_pos_site_id
 _symmetry_equiv_pos_as_xyz
  1  'x, y, z'
loop_
 _atom_site_type_symbol
 _atom_site_label
 _atom_site_symmetry_multiplicity
 _atom_site_fract_x
 _atom_site_fract_y
 _atom_site_fract_z
 _atom_site_occupancy
  Ba  Ba0  1  0.967015  0.967015  0.750000  1
  Ba  Ba1  1  0.032985  0.032985  0.250000  1
  Yb  Yb2  1  0.144151  0.152060  0.030441  1
  Yb  Yb3  1  0.855849  0.847940  0.969559  1
  Yb  Yb4  1  0.847940  0.855849  0.530441  1
  Yb  Yb5  1  0.152060  0.144151  0.469559  1
  Mo  Mo6  1  0.260777  0.256656  0.854241  1
  Mo  Mo7  1  0.743344  0.739223  0.354241  1
  Mo  Mo8  1  0.453893  0.428787  0.089357  1
  Mo  Mo9  1  0.571213  0.546107  0.589357  1
  Mo  Mo10  1  0.546107  0.571213  0.910643  1
  Mo  Mo11  1  0.739223  0.743344  0.145759  1
  Mo  Mo12  1  0.256656  0.260777  0.645759  1
  Mo  Mo13  1  0.428787  0.453893  0.410643  1
  O  O14  1  0.321548  0.775776  0.398184  1
  O  O15  1  0.911961  0.389602  0.366499  1
  O  O16  1  0.492002  0.169781  0.046088  1
  O  O17  1  0.830219  0.507998  0.546088  1
  O  O18  1  0.290594  0.541617  0.169159  1
  O  O19  1  0.511951  0.097431  0.710310  1
  O  O20  1  0.001568  0.269124  0.672676  1
  O  O21  1  0.768279  0.264926  0.964828  1
  O  O22  1  0.389602  0.911961  0.133501  1
  O  O23  1  0.488049  0.902569  0.289690  1
  O  O24  1  0.709406  0.458383  0.830841  1
  O  O25  1  0.097431  0.511951  0.789690  1
  O  O26  1  0.458383  0.709406  0.669159  1
  O  O27  1  0.541617  0.290594  0.330841  1
  O  O28  1  0.902569  0.488049  0.210310  1
  O  O29  1  0.269124  0.001568  0.827324  1
  O  O30  1  0.678452  0.224224  0.601816  1
  O  O31  1  0.735074  0.231721  0.464828  1
  O  O32  1  0.730876  0.998432  0.172676  1
  O  O33  1  0.507998  0.830219  0.953912  1
  O  O34  1  0.264926  0.768279  0.535172  1
  O  O35  1  0.775776  0.321548  0.101816  1
  O  O36  1  0.610398  0.088039  0.866499  1
  O  O37  1  0.169781  0.492002  0.453912  1
  O  O38  1  0.068948  0.407699  0.931978  1
  O  O39  1  0.231721  0.735074  0.035172  1
  O  O40  1  0.407699  0.068948  0.568022  1
  O  O41  1  0.088039  0.610398  0.633501  1
  O  O42  1  0.931052  0.592301  0.068022  1
  O  O43  1  0.224224  0.678452  0.898184  1
  O  O44  1  0.592301  0.931052  0.431978  1
  O  O45  1  0.998432  0.730876  0.327324  1
