# generated using pymatgen
data_Fe4O7F
_symmetry_space_group_name_H-M   'P 1'
_cell_length_a   7.32424361
_cell_length_b   7.32424361
_cell_length_c   6.43377439
_cell_angle_alpha   90.00000000
_cell_angle_beta   90.00000000
_cell_angle_gamma   131.57605025
_symmetry_Int_Tables_number   1
_chemical_formula_structural   Fe4O7F
_chemical_formula_sum   'Fe8 O14 F2'
_cell_volume   258.18847261
_cell_formula_units_Z   2
loop_
 _symmetry_equiv_pos_site_id
 _symmetry_equiv_pos_as_xyz
  1  'x, y, z'
loop_
 _atom_site_type_symbol
 _atom_site_label
 _atom_site_symmetry_multiplicity
 _atom_site_fract_x
 _atom_site_fract_y
 _atom_site_fract_z
 _atom_site_occupancy
  Fe  Fe0  1  0.490209  0.998674  0.000000  1
  Fe  Fe1  1  0.001326  0.509791  0.000000  1
  Fe  Fe2  1  0.747333  0.252667  0.500000  1
  Fe  Fe3  1  0.258332  0.741668  0.500000  1
  Fe  Fe4  1  0.006871  0.993129  1.000000  1
  Fe  Fe5  1  0.499624  0.500376  0.000000  1
  Fe  Fe6  1  0.250870  0.258691  0.500000  1
  Fe  Fe7  1  0.741309  0.749130  0.500000  1
  O  O8  1  0.151758  0.848242  1.000000  1
  O  O9  1  0.656979  0.343021  1.000000  1
  O  O10  1  0.503293  0.003301  0.692083  1
  O  O11  1  0.996699  0.496707  0.692083  1
  O  O12  1  0.503293  0.003301  0.307917  1
  O  O13  1  0.247404  0.246911  0.806327  1
  O  O14  1  0.753089  0.752596  0.806327  1
  O  O15  1  0.996699  0.496707  0.307917  1
  O  O16  1  0.342582  0.657418  0.000000  1
  O  O17  1  0.592708  0.407292  0.500000  1
  O  O18  1  0.402253  0.597747  0.500000  1
  O  O19  1  0.906593  0.093407  0.500000  1
  O  O20  1  0.247404  0.246911  0.193673  1
  O  O21  1  0.753089  0.752596  0.193673  1
  F  F22  1  0.849144  0.150856  1.000000  1
  F  F23  1  0.101139  0.898861  0.500000  1
