# generated using pymatgen
data_MnFeCo(PO4)3
_symmetry_space_group_name_H-M   'P 1'
_cell_length_a   9.87103435
_cell_length_b   5.97461267
_cell_length_c   14.61498747
_cell_angle_alpha   90.00000000
_cell_angle_beta   90.04988440
_cell_angle_gamma   90.00000000
_symmetry_Int_Tables_number   1
_chemical_formula_structural   MnFeCo(PO4)3
_chemical_formula_sum   'Mn4 Fe4 Co4 P12 O48'
_cell_volume   861.92742855
_cell_formula_units_Z   4
loop_
 _symmetry_equiv_pos_site_id
 _symmetry_equiv_pos_as_xyz
  1  'x, y, z'
loop_
 _atom_site_type_symbol
 _atom_site_label
 _atom_site_symmetry_multiplicity
 _atom_site_fract_x
 _atom_site_fract_y
 _atom_site_fract_z
 _atom_site_occupancy
  Mn  Mn0  1  0.216706  0.500000  0.812794  1
  Mn  Mn1  1  0.220740  0.500000  0.148053  1
  Mn  Mn2  1  0.282711  0.000000  0.313936  1
  Mn  Mn3  1  0.717427  0.500000  0.020051  1
  Fe  Fe4  1  0.223162  0.500000  0.487818  1
  Fe  Fe5  1  0.274492  0.000000  0.654956  1
  Fe  Fe6  1  0.277113  0.000000  0.987177  1
  Fe  Fe7  1  0.725540  0.500000  0.344834  1
  Co  Co8  1  0.732803  0.500000  0.674388  1
  Co  Co9  1  0.772761  0.000000  0.510860  1
  Co  Co10  1  0.775266  0.000000  0.178653  1
  Co  Co11  1  0.777473  0.000000  0.847306  1
  P  P12  1  0.097779  0.000000  0.139556  1
  P  P13  1  0.094378  0.000000  0.805289  1
  P  P14  1  0.096742  0.000000  0.472365  1
  P  P15  1  0.399971  0.500000  0.973485  1
  P  P16  1  0.403151  0.500000  0.640534  1
  P  P17  1  0.401655  0.500000  0.305648  1
  P  P18  1  0.597904  0.000000  0.028020  1
  P  P19  1  0.602342  0.000000  0.696860  1
  P  P20  1  0.597450  0.000000  0.359807  1
  P  P21  1  0.901983  0.500000  0.528917  1
  P  P22  1  0.902473  0.500000  0.192710  1
  P  P23  1  0.900336  0.500000  0.858979  1
  O  O24  1  0.054437  0.500000  0.215120  1
  O  O25  1  0.052792  0.500000  0.882796  1
  O  O26  1  0.052637  0.500000  0.553239  1
  O  O27  1  0.117330  0.000000  0.243344  1
  O  O28  1  0.118292  0.000000  0.576146  1
  O  O29  1  0.117257  0.000000  0.908331  1
  O  O30  1  0.167780  0.204478  0.425771  1
  O  O31  1  0.167780  0.795522  0.425771  1
  O  O32  1  0.171737  0.198413  0.089502  1
  O  O33  1  0.171737  0.801587  0.089502  1
  O  O34  1  0.172432  0.198135  0.756020  1
  O  O35  1  0.172432  0.801865  0.756020  1
  O  O36  1  0.329037  0.700548  0.592057  1
  O  O37  1  0.329037  0.299452  0.592057  1
  O  O38  1  0.328884  0.704273  0.927019  1
  O  O39  1  0.328884  0.295727  0.927019  1
  O  O40  1  0.328036  0.701218  0.257423  1
  O  O41  1  0.328036  0.298782  0.257423  1
  O  O42  1  0.381028  0.500000  0.409348  1
  O  O43  1  0.383494  0.500000  0.078670  1
  O  O44  1  0.381713  0.500000  0.744920  1
  O  O45  1  0.447816  0.000000  0.053502  1
  O  O46  1  0.449546  0.000000  0.715155  1
  O  O47  1  0.445846  0.000000  0.385101  1
  O  O48  1  0.552938  0.500000  0.952240  1
  O  O49  1  0.556166  0.500000  0.621232  1
  O  O50  1  0.553030  0.500000  0.282268  1
  O  O51  1  0.617049  0.000000  0.255149  1
  O  O52  1  0.616879  0.000000  0.924506  1
  O  O53  1  0.625217  0.000000  0.591487  1
  O  O54  1  0.673424  0.199057  0.078158  1
  O  O55  1  0.673424  0.800943  0.078158  1
  O  O56  1  0.670666  0.202754  0.407641  1
  O  O57  1  0.670666  0.797246  0.407641  1
  O  O58  1  0.673408  0.201271  0.745507  1
  O  O59  1  0.673408  0.798729  0.745507  1
  O  O60  1  0.829852  0.700967  0.241831  1
  O  O61  1  0.829852  0.299033  0.241831  1
  O  O62  1  0.827216  0.700867  0.577539  1
  O  O63  1  0.827216  0.299133  0.577539  1
  O  O64  1  0.829478  0.705749  0.905410  1
  O  O65  1  0.829478  0.294251  0.905410  1
  O  O66  1  0.881715  0.500000  0.754250  1
  O  O67  1  0.881442  0.500000  0.425224  1
  O  O68  1  0.884164  0.500000  0.087886  1
  O  O69  1  0.942026  0.000000  0.451881  1
  O  O70  1  0.945000  0.000000  0.118429  1
  O  O71  1  0.945386  0.000000  0.777928  1
