# generated using pymatgen
data_Ti5Nb(PO4)6
_symmetry_space_group_name_H-M   'P 1'
_cell_length_a   8.43920043
_cell_length_b   8.43920043
_cell_length_c   8.43920043
_cell_angle_alpha   63.42341190
_cell_angle_beta   63.42341190
_cell_angle_gamma   63.42341190
_symmetry_Int_Tables_number   1
_chemical_formula_structural   Ti5Nb(PO4)6
_chemical_formula_sum   'Ti5 Nb1 P6 O24'
_cell_volume   457.19343766
_cell_formula_units_Z   1
loop_
 _symmetry_equiv_pos_site_id
 _symmetry_equiv_pos_as_xyz
  1  'x, y, z'
loop_
 _atom_site_type_symbol
 _atom_site_label
 _atom_site_symmetry_multiplicity
 _atom_site_fract_x
 _atom_site_fract_y
 _atom_site_fract_z
 _atom_site_occupancy
  Ti  Ti0  1  0.006316  0.006316  0.006316  1
  Ti  Ti1  1  0.501860  0.501860  0.501860  1
  Ti  Ti2  1  0.859407  0.859407  0.859407  1
  Ti  Ti3  1  0.638227  0.638227  0.638227  1
  Ti  Ti4  1  0.359087  0.359087  0.359087  1
  Nb  Nb5  1  0.136607  0.136607  0.136607  1
  P  P6  1  0.957290  0.247407  0.546629  1
  P  P7  1  0.546629  0.957290  0.247407  1
  P  P8  1  0.740447  0.466914  0.041862  1
  P  P9  1  0.466914  0.041862  0.740447  1
  P  P10  1  0.041862  0.740447  0.466914  1
  P  P11  1  0.247407  0.546629  0.957290  1
  O  O12  1  0.887063  0.670046  0.505279  1
  O  O13  1  0.670046  0.505279  0.887063  1
  O  O14  1  0.943313  0.097387  0.743750  1
  O  O15  1  0.505279  0.887063  0.670046  1
  O  O16  1  0.992084  0.175112  0.393138  1
  O  O17  1  0.760296  0.400265  0.559841  1
  O  O18  1  0.743750  0.943313  0.097387  1
  O  O19  1  0.559841  0.760296  0.400265  1
  O  O20  1  0.817990  0.616510  0.004118  1
  O  O21  1  0.400265  0.559841  0.760296  1
  O  O22  1  0.892021  0.268614  0.056689  1
  O  O23  1  0.616510  0.004118  0.817990  1
  O  O24  1  0.393138  0.992084  0.175112  1
  O  O25  1  0.097387  0.743750  0.943313  1
  O  O26  1  0.591261  0.449339  0.239911  1
  O  O27  1  0.175112  0.393138  0.992084  1
  O  O28  1  0.449339  0.239911  0.591261  1
  O  O29  1  0.268614  0.056689  0.892021  1
  O  O30  1  0.239911  0.591261  0.449339  1
  O  O31  1  0.004118  0.817990  0.616510  1
  O  O32  1  0.499837  0.114739  0.319346  1
  O  O33  1  0.056689  0.892021  0.268614  1
  O  O34  1  0.319346  0.499837  0.114739  1
  O  O35  1  0.114739  0.319346  0.499837  1
