# generated using pymatgen
data_LiSn4P7O24
_symmetry_space_group_name_H-M   'P 1'
_cell_length_a   10.54328775
_cell_length_b   11.03431122
_cell_length_c   11.43265441
_cell_angle_alpha   109.05391966
_cell_angle_beta   111.89592268
_cell_angle_gamma   104.28250865
_symmetry_Int_Tables_number   1
_chemical_formula_structural   LiSn4P7O24
_chemical_formula_sum   'Li2 Sn8 P14 O48'
_cell_volume   1058.55978119
_cell_formula_units_Z   2
loop_
 _symmetry_equiv_pos_site_id
 _symmetry_equiv_pos_as_xyz
  1  'x, y, z'
loop_
 _atom_site_type_symbol
 _atom_site_label
 _atom_site_symmetry_multiplicity
 _atom_site_fract_x
 _atom_site_fract_y
 _atom_site_fract_z
 _atom_site_occupancy
  Li  Li0  1  0.598367  0.417292  0.718674  1
  Li  Li1  1  0.401633  0.582708  0.281326  1
  Sn  Sn2  1  0.502871  0.908829  0.753958  1
  Sn  Sn3  1  0.011125  0.370195  0.081524  1
  Sn  Sn4  1  0.505011  0.652476  0.902679  1
  Sn  Sn5  1  0.982580  0.803018  0.398997  1
  Sn  Sn6  1  0.017420  0.196982  0.601003  1
  Sn  Sn7  1  0.494989  0.347524  0.097321  1
  Sn  Sn8  1  0.988875  0.629805  0.918476  1
  Sn  Sn9  1  0.497129  0.091171  0.246042  1
  P  P10  1  0.784478  0.812885  0.782397  1
  P  P11  1  0.225765  0.621784  0.447561  1
  P  P12  1  0.206343  0.933742  0.263685  1
  P  P13  1  0.252743  0.040873  0.753295  1
  P  P14  1  0.261767  0.377613  0.507507  1
  P  P15  1  0.738985  0.159267  0.124915  1
  P  P16  1  0.756347  0.516886  0.041565  1
  P  P17  1  0.243653  0.483114  0.958435  1
  P  P18  1  0.261015  0.840733  0.875085  1
  P  P19  1  0.738233  0.622387  0.492493  1
  P  P20  1  0.747257  0.959127  0.246705  1
  P  P21  1  0.793657  0.066258  0.736315  1
  P  P22  1  0.774235  0.378216  0.552439  1
  P  P23  1  0.215522  0.187115  0.217603  1
  O  O24  1  0.868670  0.203401  0.872056  1
  O  O25  1  0.621304  0.997519  0.674719  1
  O  O26  1  0.646342  0.057783  0.965667  1
  O  O27  1  0.097163  0.202852  0.107459  1
  O  O28  1  0.387948  0.734461  0.558029  1
  O  O29  1  0.220745  0.562068  0.302851  1
  O  O30  1  0.685539  0.562733  0.927243  1
  O  O31  1  0.649512  0.811157  0.805307  1
  O  O32  1  0.200677  0.493224  0.489336  1
  O  O33  1  0.368620  0.010094  0.710550  1
  O  O34  1  0.285740  0.316219  0.371286  1
  O  O35  1  0.143503  0.046383  0.223261  1
  O  O36  1  0.170088  0.922463  0.376728  1
  O  O37  1  0.416306  0.441509  0.634342  1
  O  O38  1  0.901147  0.507983  0.029926  1
  O  O39  1  0.103325  0.669264  0.450708  1
  O  O40  1  0.869244  0.290741  0.167110  1
  O  O41  1  0.316676  0.183516  0.878113  1
  O  O42  1  0.186825  0.920453  0.792838  1
  O  O43  1  0.135567  0.262348  0.492059  1
  O  O44  1  0.113569  0.018316  0.619659  1
  O  O45  1  0.366724  0.803390  0.817146  1
  O  O46  1  0.355310  0.629085  0.000669  1
  O  O47  1  0.806991  0.621792  0.196076  1
  O  O48  1  0.193009  0.378208  0.803924  1
  O  O49  1  0.644690  0.370915  0.999331  1
  O  O50  1  0.633276  0.196610  0.182854  1
  O  O51  1  0.886431  0.981684  0.380341  1
  O  O52  1  0.864433  0.737652  0.507941  1
  O  O53  1  0.813175  0.079547  0.207162  1
  O  O54  1  0.683324  0.816484  0.121887  1
  O  O55  1  0.130756  0.709259  0.832890  1
  O  O56  1  0.896675  0.330736  0.549292  1
  O  O57  1  0.098853  0.492017  0.970074  1
  O  O58  1  0.583694  0.558491  0.365658  1
  O  O59  1  0.829912  0.077537  0.623272  1
  O  O60  1  0.856497  0.953617  0.776739  1
  O  O61  1  0.714260  0.683781  0.628714  1
  O  O62  1  0.631379  0.989906  0.289450  1
  O  O63  1  0.799323  0.506776  0.510664  1
  O  O64  1  0.350488  0.188843  0.194693  1
  O  O65  1  0.314461  0.437267  0.072757  1
  O  O66  1  0.779255  0.437932  0.697149  1
  O  O67  1  0.612052  0.265539  0.441971  1
  O  O68  1  0.902837  0.797148  0.892541  1
  O  O69  1  0.353658  0.942217  0.034333  1
  O  O70  1  0.378696  0.002481  0.325281  1
  O  O71  1  0.131330  0.796599  0.127944  1
