# generated using pymatgen
data_FeNi(PO4)2
_symmetry_space_group_name_H-M   'P 1'
_cell_length_a   8.43349202
_cell_length_b   8.43349202
_cell_length_c   8.43349202
_cell_angle_alpha   61.73696704
_cell_angle_beta   61.73696704
_cell_angle_gamma   61.73696704
_symmetry_Int_Tables_number   1
_chemical_formula_structural   FeNi(PO4)2
_chemical_formula_sum   'Fe3 Ni3 P6 O24'
_cell_volume   440.64780523
_cell_formula_units_Z   3
loop_
 _symmetry_equiv_pos_site_id
 _symmetry_equiv_pos_as_xyz
  1  'x, y, z'
loop_
 _atom_site_type_symbol
 _atom_site_label
 _atom_site_symmetry_multiplicity
 _atom_site_fract_x
 _atom_site_fract_y
 _atom_site_fract_z
 _atom_site_occupancy
  Fe  Fe0  1  0.998524  0.998524  0.998524  1
  Fe  Fe1  1  0.145212  0.145212  0.145212  1
  Fe  Fe2  1  0.499632  0.499632  0.499632  1
  Ni  Ni3  1  0.641848  0.641848  0.641848  1
  Ni  Ni4  1  0.856837  0.856837  0.856837  1
  Ni  Ni5  1  0.357288  0.357288  0.357288  1
  P  P6  1  0.951216  0.251112  0.548142  1
  P  P7  1  0.548142  0.951216  0.251112  1
  P  P8  1  0.251112  0.548142  0.951216  1
  P  P9  1  0.749358  0.451818  0.048875  1
  P  P10  1  0.451818  0.048875  0.749358  1
  P  P11  1  0.048875  0.749358  0.451818  1
  O  O12  1  0.503422  0.098377  0.335354  1
  O  O13  1  0.335354  0.503422  0.098377  1
  O  O14  1  0.098377  0.335354  0.503422  1
  O  O15  1  0.941893  0.096929  0.749244  1
  O  O16  1  0.002977  0.171154  0.394619  1
  O  O17  1  0.747539  0.399131  0.560930  1
  O  O18  1  0.749244  0.941893  0.096929  1
  O  O19  1  0.560930  0.747539  0.399131  1
  O  O20  1  0.826642  0.603391  0.003118  1
  O  O21  1  0.399131  0.560930  0.747539  1
  O  O22  1  0.904846  0.248357  0.061501  1
  O  O23  1  0.603391  0.003118  0.826642  1
  O  O24  1  0.394619  0.002977  0.171154  1
  O  O25  1  0.096929  0.749244  0.941893  1
  O  O26  1  0.599579  0.435418  0.252747  1
  O  O27  1  0.171154  0.394619  0.002977  1
  O  O28  1  0.435418  0.252747  0.599579  1
  O  O29  1  0.248357  0.061501  0.904846  1
  O  O30  1  0.252747  0.599579  0.435418  1
  O  O31  1  0.003118  0.826642  0.603391  1
  O  O32  1  0.061501  0.904846  0.248357  1
  O  O33  1  0.898945  0.670629  0.493383  1
  O  O34  1  0.670629  0.493383  0.898945  1
  O  O35  1  0.493383  0.898945  0.670629  1
