# generated using pymatgen
data_Li3V2P4(HO8)2
_symmetry_space_group_name_H-M   'P 1'
_cell_length_a   7.55483800
_cell_length_b   8.08138800
_cell_length_c   9.74926861
_cell_angle_alpha   90.00000000
_cell_angle_beta   104.72194634
_cell_angle_gamma   90.00000000
_symmetry_Int_Tables_number   1
_chemical_formula_structural   Li3V2P4(HO8)2
_chemical_formula_sum   'Li6 V4 P8 H4 O32'
_cell_volume   575.68668498
_cell_formula_units_Z   2
loop_
 _symmetry_equiv_pos_site_id
 _symmetry_equiv_pos_as_xyz
  1  'x, y, z'
loop_
 _atom_site_type_symbol
 _atom_site_label
 _atom_site_symmetry_multiplicity
 _atom_site_fract_x
 _atom_site_fract_y
 _atom_site_fract_z
 _atom_site_occupancy
  Li  Li0  1  0.903742  0.370517  0.177533  1
  Li  Li1  1  0.402539  0.136438  0.425041  1
  Li  Li2  1  0.597461  0.636438  0.574959  1
  Li  Li3  1  0.096258  0.870517  0.822467  1
  Li  Li4  1  0.402507  0.131378  0.925066  1
  Li  Li5  1  0.597493  0.631378  0.074934  1
  V  V6  1  0.251001  0.504628  0.374346  1
  V  V7  1  0.748999  0.004628  0.625654  1
  V  V8  1  0.241957  0.496969  0.872652  1
  V  V9  1  0.758043  0.996969  0.127348  1
  P  P10  1  0.516983  0.346903  0.188010  1
  P  P11  1  0.484355  0.850363  0.307409  1
  P  P12  1  0.009980  0.151941  0.437436  1
  P  P13  1  0.990020  0.651941  0.562564  1
  P  P14  1  0.515645  0.350363  0.692591  1
  P  P15  1  0.483017  0.846903  0.811990  1
  P  P16  1  0.017951  0.155773  0.941877  1
  P  P17  1  0.982049  0.655773  0.058123  1
  H  H18  1  0.768363  0.509708  0.397047  1
  H  H19  1  0.231637  0.009708  0.602953  1
  H  H20  1  0.741212  0.494119  0.866778  1
  H  H21  1  0.258788  0.994119  0.133222  1
  O  O22  1  0.089504  0.552310  0.185173  1
  O  O23  1  0.562358  0.177587  0.130509  1
  O  O24  1  0.606944  0.827238  0.201083  1
  O  O25  1  0.693340  0.445261  0.248314  1
  O  O26  1  0.896509  0.049018  0.307352  1
  O  O27  1  0.059966  0.315710  0.378809  1
  O  O28  1  0.306320  0.946608  0.240305  1
  O  O29  1  0.398492  0.326582  0.295412  1
  O  O30  1  0.103787  0.667986  0.455022  1
  O  O31  1  0.195485  0.058507  0.500753  1
  O  O32  1  0.442874  0.682084  0.364473  1
  O  O33  1  0.586993  0.959032  0.433340  1
  O  O34  1  0.804515  0.558507  0.499247  1
  O  O35  1  0.896213  0.167986  0.544978  1
  O  O36  1  0.940034  0.815710  0.621191  1
  O  O37  1  0.103491  0.549018  0.692648  1
  O  O38  1  0.413007  0.459032  0.566660  1
  O  O39  1  0.557126  0.182084  0.635527  1
  O  O40  1  0.601508  0.826582  0.704588  1
  O  O41  1  0.693680  0.446608  0.759695  1
  O  O42  1  0.910496  0.052310  0.814827  1
  O  O43  1  0.067102  0.330675  0.898698  1
  O  O44  1  0.306660  0.945261  0.751686  1
  O  O45  1  0.393056  0.327238  0.798917  1
  O  O46  1  0.102635  0.674094  0.950012  1
  O  O47  1  0.196789  0.059654  0.001749  1
  O  O48  1  0.437642  0.677587  0.869491  1
  O  O49  1  0.597934  0.951883  0.941387  1
  O  O50  1  0.803211  0.559654  0.998251  1
  O  O51  1  0.897365  0.174094  0.049988  1
  O  O52  1  0.932898  0.830675  0.101302  1
  O  O53  1  0.402066  0.451883  0.058613  1
