# generated using pymatgen
data_Li4FeO3F
_symmetry_space_group_name_H-M   'P 1'
_cell_length_a   5.28221787
_cell_length_b   5.35723813
_cell_length_c   7.82918208
_cell_angle_alpha   109.59256581
_cell_angle_beta   83.30448007
_cell_angle_gamma   113.25263596
_symmetry_Int_Tables_number   1
_chemical_formula_structural   Li4FeO3F
_chemical_formula_sum   'Li8 Fe2 O6 F2'
_cell_volume   191.73750712
_cell_formula_units_Z   2
loop_
 _symmetry_equiv_pos_site_id
 _symmetry_equiv_pos_as_xyz
  1  'x, y, z'
loop_
 _atom_site_type_symbol
 _atom_site_label
 _atom_site_symmetry_multiplicity
 _atom_site_fract_x
 _atom_site_fract_y
 _atom_site_fract_z
 _atom_site_occupancy
  Li  Li0  1  0.760618  0.049457  0.921569  1
  Li  Li1  1  0.256662  0.493832  0.916903  1
  Li  Li2  1  0.216405  0.175987  0.714878  1
  Li  Li3  1  0.746699  0.258164  0.504250  1
  Li  Li4  1  0.237709  0.763079  0.500352  1
  Li  Li5  1  0.784884  0.813314  0.279153  1
  Li  Li6  1  0.743738  0.516736  0.081746  1
  Li  Li7  1  0.260331  0.929556  0.051862  1
  Fe  Fe8  1  0.780845  0.594897  0.737993  1
  Fe  Fe9  1  0.235015  0.406175  0.288997  1
  O  O10  1  0.970969  0.825747  0.878806  1
  O  O11  1  0.506835  0.304289  0.896611  1
  O  O12  1  0.002060  0.424933  0.697617  1
  O  O13  1  0.342817  0.168760  0.491925  1
  O  O14  1  0.998063  0.578244  0.306572  1
  O  O15  1  0.488761  0.687498  0.110310  1
  F  F16  1  0.657468  0.830991  0.499088  1
  F  F17  1  0.010121  0.178344  0.121366  1
