# generated using pymatgen
data_VCrO3
_symmetry_space_group_name_H-M   'P 1'
_cell_length_a   5.11649909
_cell_length_b   5.49680453
_cell_length_c   7.50623851
_cell_angle_alpha   84.21641667
_cell_angle_beta   89.95014890
_cell_angle_gamma   89.98525647
_symmetry_Int_Tables_number   1
_chemical_formula_structural   VCrO3
_chemical_formula_sum   'V4 Cr4 O12'
_cell_volume   210.03371595
_cell_formula_units_Z   4
loop_
 _symmetry_equiv_pos_site_id
 _symmetry_equiv_pos_as_xyz
  1  'x, y, z'
loop_
 _atom_site_type_symbol
 _atom_site_label
 _atom_site_symmetry_multiplicity
 _atom_site_fract_x
 _atom_site_fract_y
 _atom_site_fract_z
 _atom_site_occupancy
  V  V0  1  0.498925  0.200175  0.850697  1
  V  V1  1  0.999590  0.702286  0.850772  1
  V  V2  1  0.500524  0.794486  0.647563  1
  V  V3  1  0.999590  0.300545  0.149467  1
  Cr  Cr4  1  0.998994  0.300351  0.649246  1
  Cr  Cr5  1  0.500304  0.200937  0.350812  1
  Cr  Cr6  1  0.000530  0.699186  0.349008  1
  Cr  Cr7  1  0.500883  0.803557  0.152738  1
  O  O8  1  0.301006  0.495947  0.748180  1
  O  O9  1  0.851162  0.346050  0.900554  1
  O  O10  1  0.650798  0.149954  0.598821  1
  O  O11  1  0.195116  0.998431  0.748806  1
  O  O12  1  0.151262  0.350495  0.400875  1
  O  O13  1  0.650017  0.845679  0.902725  1
  O  O14  1  0.848713  0.648645  0.596586  1
  O  O15  1  0.351511  0.152977  0.100332  1
  O  O16  1  0.347534  0.851229  0.400224  1
  O  O17  1  0.153732  0.655383  0.099938  1
  O  O18  1  0.697494  0.502962  0.251162  1
  O  O19  1  0.802315  0.000725  0.251492  1
