# generated using pymatgen
data_Li2MnF6
_symmetry_space_group_name_H-M   'P 1'
_cell_length_a   16.88517497
_cell_length_b   4.63390096
_cell_length_c   17.60839960
_cell_angle_alpha   90.00000000
_cell_angle_beta   163.54298166
_cell_angle_gamma   90.00000000
_symmetry_Int_Tables_number   1
_chemical_formula_structural   Li2MnF6
_chemical_formula_sum   'Li8 Mn4 F24'
_cell_volume   390.31264247
_cell_formula_units_Z   4
loop_
 _symmetry_equiv_pos_site_id
 _symmetry_equiv_pos_as_xyz
  1  'x, y, z'
loop_
 _atom_site_type_symbol
 _atom_site_label
 _atom_site_symmetry_multiplicity
 _atom_site_fract_x
 _atom_site_fract_y
 _atom_site_fract_z
 _atom_site_occupancy
  Li  Li0  1  0.519265  0.514199  0.747757  1
  Li  Li1  1  0.693289  0.009892  0.746224  1
  Li  Li2  1  0.019265  0.985801  0.747757  1
  Li  Li3  1  0.193289  0.490108  0.746224  1
  Li  Li4  1  0.806711  0.509892  0.253776  1
  Li  Li5  1  0.980735  0.014199  0.252243  1
  Li  Li6  1  0.306711  0.990108  0.253776  1
  Li  Li7  1  0.480735  0.485801  0.252243  1
  Mn  Mn8  1  0.372631  0.009336  0.752735  1
  Mn  Mn9  1  0.872631  0.490664  0.752735  1
  Mn  Mn10  1  0.127369  0.509336  0.247265  1
  Mn  Mn11  1  0.627369  0.990664  0.247265  1
  F  F12  1  0.822662  0.740984  0.947641  1
  F  F13  1  0.883272  0.297140  0.083628  1
  F  F14  1  0.951169  0.730974  0.904971  1
  F  F15  1  0.322662  0.759016  0.947641  1
  F  F16  1  0.383272  0.202860  0.083628  1
  F  F17  1  0.451169  0.769026  0.904971  1
  F  F18  1  0.143022  0.244283  0.598283  1
  F  F19  1  0.079388  0.778651  0.453263  1
  F  F20  1  0.287807  0.227599  0.588534  1
  F  F21  1  0.212193  0.727599  0.411466  1
  F  F22  1  0.643022  0.255717  0.598283  1
  F  F23  1  0.420612  0.278651  0.546737  1
  F  F24  1  0.579388  0.721349  0.453263  1
  F  F25  1  0.356978  0.744283  0.401717  1
  F  F26  1  0.787807  0.272401  0.588534  1
  F  F27  1  0.712193  0.772401  0.411466  1
  F  F28  1  0.920612  0.221349  0.546737  1
  F  F29  1  0.856978  0.755717  0.401717  1
  F  F30  1  0.548831  0.230974  0.095029  1
  F  F31  1  0.616728  0.797140  0.916372  1
  F  F32  1  0.677338  0.240984  0.052359  1
  F  F33  1  0.048831  0.269026  0.095029  1
  F  F34  1  0.116728  0.702860  0.916372  1
  F  F35  1  0.177338  0.259016  0.052359  1
