# generated using pymatgen
data_CoH17S2N5ClO4
_symmetry_space_group_name_H-M   'P 1'
_cell_length_a   8.36685030
_cell_length_b   10.37744257
_cell_length_c   13.52081046
_cell_angle_alpha   90.00000000
_cell_angle_beta   90.00000000
_cell_angle_gamma   90.00000000
_symmetry_Int_Tables_number   1
_chemical_formula_structural   CoH17S2N5ClO4
_chemical_formula_sum   'Co4 H68 S8 N20 Cl4 O16'
_cell_volume   1173.96476406
_cell_formula_units_Z   4
loop_
 _symmetry_equiv_pos_site_id
 _symmetry_equiv_pos_as_xyz
  1  'x, y, z'
loop_
 _atom_site_type_symbol
 _atom_site_label
 _atom_site_symmetry_multiplicity
 _atom_site_fract_x
 _atom_site_fract_y
 _atom_site_fract_z
 _atom_site_occupancy
  Co  Co0  1  0.250000  0.245553  0.664696  1
  Co  Co1  1  0.250000  0.254447  0.164696  1
  Co  Co2  1  0.750000  0.754447  0.335304  1
  Co  Co3  1  0.750000  0.745553  0.835304  1
  H  H4  1  0.150944  0.464802  0.593803  1
  H  H5  1  0.349056  0.035198  0.093803  1
  H  H6  1  0.650944  0.535198  0.406197  1
  H  H7  1  0.849056  0.964802  0.906197  1
  H  H8  1  0.849056  0.535198  0.406197  1
  H  H9  1  0.650944  0.964802  0.906197  1
  H  H10  1  0.349056  0.464802  0.593803  1
  H  H11  1  0.150944  0.035198  0.093803  1
  H  H12  1  0.250000  0.487632  0.697007  1
  H  H13  1  0.250000  0.012368  0.197007  1
  H  H14  1  0.750000  0.512368  0.302993  1
  H  H15  1  0.750000  0.987632  0.802993  1
  H  H16  1  0.971929  0.167079  0.583479  1
  H  H17  1  0.528071  0.332921  0.083479  1
  H  H18  1  0.471929  0.832921  0.416521  1
  H  H19  1  0.028071  0.667079  0.916521  1
  H  H20  1  0.028071  0.832921  0.416521  1
  H  H21  1  0.471929  0.667079  0.916521  1
  H  H22  1  0.528071  0.167079  0.583479  1
  H  H23  1  0.971929  0.332921  0.083479  1
  H  H24  1  0.046590  0.282203  0.511928  1
  H  H25  1  0.453410  0.217797  0.011928  1
  H  H26  1  0.546590  0.717797  0.488072  1
  H  H27  1  0.953410  0.782203  0.988072  1
  H  H28  1  0.953410  0.717797  0.488072  1
  H  H29  1  0.546590  0.782203  0.988072  1
  H  H30  1  0.453410  0.282203  0.511928  1
  H  H31  1  0.046590  0.217797  0.011928  1
  H  H32  1  0.117701  0.134656  0.506899  1
  H  H33  1  0.382299  0.365344  0.006899  1
  H  H34  1  0.617701  0.865344  0.493101  1
  H  H35  1  0.882299  0.634656  0.993101  1
  H  H36  1  0.882299  0.865344  0.493101  1
  H  H37  1  0.617701  0.634656  0.993101  1
  H  H38  1  0.382299  0.134656  0.506899  1
  H  H39  1  0.117701  0.365344  0.006899  1
  H  H40  1  0.962495  0.310348  0.730638  1
  H  H41  1  0.537505  0.189652  0.230638  1
  H  H42  1  0.462495  0.689652  0.269362  1
  H  H43  1  0.037505  0.810348  0.769362  1
  H  H44  1  0.037505  0.689652  0.269362  1
  H  H45  1  0.462495  0.810348  0.769362  1
  H  H46  1  0.537505  0.310348  0.730638  1
  H  H47  1  0.962495  0.189652  0.230638  1
  H  H48  1  0.041282  0.208338  0.811099  1
  H  H49  1  0.458718  0.291662  0.311099  1
  H  H50  1  0.541282  0.791662  0.188901  1
  H  H51  1  0.958718  0.708338  0.688901  1
  H  H52  1  0.958718  0.791662  0.188901  1
  H  H53  1  0.541282  0.708338  0.688901  1
  H  H54  1  0.458718  0.208338  0.811099  1
  H  H55  1  0.041282  0.291662  0.311099  1
  H  H56  1  0.099519  0.361018  0.810259  1
  H  H57  1  0.400481  0.138982  0.310259  1
  H  H58  1  0.599519  0.638982  0.189741  1
  H  H59  1  0.900481  0.861018  0.689741  1
  H  H60  1  0.900481  0.638982  0.189741  1
  H  H61  1  0.599519  0.861018  0.689741  1
  H  H62  1  0.400481  0.361018  0.810259  1
  H  H63  1  0.099519  0.138982  0.310259  1
  H  H64  1  0.250000  0.825202  0.588787  1
  H  H65  1  0.250000  0.674798  0.088787  1
  H  H66  1  0.750000  0.174798  0.411213  1
  H  H67  1  0.750000  0.325202  0.911213  1
  H  H68  1  0.250000  0.715475  0.511735  1
  H  H69  1  0.250000  0.784525  0.011735  1
  H  H70  1  0.750000  0.284525  0.488265  1
  H  H71  1  0.750000  0.215475  0.988265  1
  S  S72  1  0.250000  0.030644  0.702733  1
  S  S73  1  0.250000  0.469356  0.202733  1
  S  S74  1  0.750000  0.969356  0.297267  1
  S  S75  1  0.750000  0.530644  0.797267  1
  S  S76  1  0.250000  0.001470  0.855959  1
  S  S77  1  0.250000  0.498530  0.355959  1
  S  S78  1  0.750000  0.998530  0.144041  1
  S  S79  1  0.750000  0.501470  0.644041  1
  N  N80  1  0.250000  0.435296  0.632373  1
  N  N81  1  0.250000  0.064704  0.132373  1
  N  N82  1  0.750000  0.564704  0.367627  1
  N  N83  1  0.750000  0.935296  0.867627  1
  N  N84  1  0.076351  0.204258  0.554783  1
  N  N85  1  0.423649  0.295742  0.054783  1
  N  N86  1  0.576351  0.795742  0.445217  1
  N  N87  1  0.923649  0.704258  0.945217  1
  N  N88  1  0.923649  0.795742  0.445217  1
  N  N89  1  0.576351  0.704258  0.945217  1
  N  N90  1  0.423649  0.204258  0.554783  1
  N  N91  1  0.076351  0.295742  0.054783  1
  N  N92  1  0.066733  0.284712  0.765517  1
  N  N93  1  0.433267  0.215288  0.265517  1
  N  N94  1  0.566733  0.715288  0.234483  1
  N  N95  1  0.933267  0.784712  0.734483  1
  N  N96  1  0.933267  0.715288  0.234483  1
  N  N97  1  0.566733  0.784712  0.734483  1
  N  N98  1  0.433267  0.284712  0.765517  1
  N  N99  1  0.066733  0.215288  0.265517  1
  Cl  Cl100  1  0.250000  0.512919  0.897247  1
  Cl  Cl101  1  0.250000  0.987081  0.397247  1
  Cl  Cl102  1  0.750000  0.487081  0.102753  1
  Cl  Cl103  1  0.750000  0.012919  0.602753  1
  O  O104  1  0.250000  0.858713  0.861838  1
  O  O105  1  0.250000  0.641287  0.361838  1
  O  O106  1  0.750000  0.141287  0.138162  1
  O  O107  1  0.750000  0.358713  0.638162  1
  O  O108  1  0.103221  0.058480  0.898064  1
  O  O109  1  0.396779  0.441520  0.398064  1
  O  O110  1  0.603221  0.941520  0.101936  1
  O  O111  1  0.896779  0.558480  0.601936  1
  O  O112  1  0.896779  0.941520  0.101936  1
  O  O113  1  0.603221  0.558480  0.601936  1
  O  O114  1  0.396779  0.058480  0.898064  1
  O  O115  1  0.103221  0.441520  0.398064  1
  O  O116  1  0.250000  0.731503  0.583123  1
  O  O117  1  0.250000  0.768497  0.083123  1
  O  O118  1  0.750000  0.268497  0.416877  1
  O  O119  1  0.750000  0.231503  0.916877  1
