# generated using pymatgen
data_Li6Fe3Cu(PO4)6
_symmetry_space_group_name_H-M   'P 1'
_cell_length_a   8.52490330
_cell_length_b   8.57576905
_cell_length_c   8.58605249
_cell_angle_alpha   61.71305604
_cell_angle_beta   61.81324415
_cell_angle_gamma   61.81381143
_symmetry_Int_Tables_number   1
_chemical_formula_structural   Li6Fe3Cu(PO4)6
_chemical_formula_sum   'Li6 Fe3 Cu1 P6 O24'
_cell_volume   461.55419225
_cell_formula_units_Z   1
loop_
 _symmetry_equiv_pos_site_id
 _symmetry_equiv_pos_as_xyz
  1  'x, y, z'
loop_
 _atom_site_type_symbol
 _atom_site_label
 _atom_site_symmetry_multiplicity
 _atom_site_fract_x
 _atom_site_fract_y
 _atom_site_fract_z
 _atom_site_occupancy
  Li  Li0  1  0.024598  0.002994  0.992108  1
  Li  Li1  1  0.754922  0.148524  0.349250  1
  Li  Li2  1  0.474440  0.506099  0.494173  1
  Li  Li3  1  0.220081  0.848611  0.658521  1
  Li  Li4  1  0.661889  0.219547  0.847188  1
  Li  Li5  1  0.845504  0.662505  0.217735  1
  Fe  Fe6  1  0.145728  0.145172  0.136070  1
  Fe  Fe7  1  0.353876  0.363190  0.353990  1
  Fe  Fe8  1  0.646452  0.646128  0.648113  1
  Cu  Cu9  1  0.853070  0.851523  0.852218  1
  P  P10  1  0.050618  0.750109  0.453211  1
  P  P11  1  0.452681  0.051692  0.747756  1
  P  P12  1  0.748921  0.455497  0.049588  1
  P  P13  1  0.248848  0.544715  0.955873  1
  P  P14  1  0.546564  0.961326  0.249807  1
  P  P15  1  0.953218  0.248064  0.539501  1
  O  O16  1  0.123310  0.301998  0.489445  1
  O  O17  1  0.313148  0.505804  0.113722  1
  O  O18  1  0.040033  0.922508  0.273123  1
  O  O19  1  0.529922  0.115732  0.306772  1
  O  O20  1  0.244500  0.597149  0.421739  1
  O  O21  1  0.032397  0.798142  0.615808  1
  O  O22  1  0.263815  0.063834  0.908474  1
  O  O23  1  0.443736  0.238228  0.581688  1
  O  O24  1  0.595446  0.426518  0.245494  1
  O  O25  1  0.193482  0.382972  0.991259  1
  O  O26  1  0.081702  0.734204  0.951175  1
  O  O27  1  0.372052  0.007072  0.206806  1
  O  O28  1  0.615681  0.028327  0.800914  1
  O  O29  1  0.906586  0.262085  0.065321  1
  O  O30  1  0.803410  0.614634  0.028285  1
  O  O31  1  0.400207  0.578598  0.758630  1
  O  O32  1  0.577379  0.763294  0.400378  1
  O  O33  1  0.731733  0.951518  0.077952  1
  O  O34  1  0.966646  0.200570  0.381328  1
  O  O35  1  0.759443  0.401698  0.581916  1
  O  O36  1  0.494855  0.888722  0.687578  1
  O  O37  1  0.953972  0.079823  0.727638  1
  O  O38  1  0.685117  0.497440  0.890132  1
  O  O39  1  0.890019  0.682430  0.500322  1
