# generated using pymatgen
data_Li2Nb2(PO4)3
_symmetry_space_group_name_H-M   'P 1'
_cell_length_a   8.90114067
_cell_length_b   8.90114067
_cell_length_c   8.89733200
_cell_angle_alpha   60.38625733
_cell_angle_beta   119.61374267
_cell_angle_gamma   117.87744558
_symmetry_Int_Tables_number   1
_chemical_formula_structural   Li2Nb2(PO4)3
_chemical_formula_sum   'Li4 Nb4 P6 O24'
_cell_volume   508.99796105
_cell_formula_units_Z   2
loop_
 _symmetry_equiv_pos_site_id
 _symmetry_equiv_pos_as_xyz
  1  'x, y, z'
loop_
 _atom_site_type_symbol
 _atom_site_label
 _atom_site_symmetry_multiplicity
 _atom_site_fract_x
 _atom_site_fract_y
 _atom_site_fract_z
 _atom_site_occupancy
  Li  Li0  1  0.322626  0.815100  0.451947  1
  Li  Li1  1  0.815100  0.322626  0.048053  1
  Li  Li2  1  0.184900  0.677374  0.951947  1
  Li  Li3  1  0.677374  0.184900  0.548053  1
  Nb  Nb4  1  0.860415  0.639338  0.142031  1
  Nb  Nb5  1  0.639338  0.860415  0.357969  1
  Nb  Nb6  1  0.360662  0.139585  0.642031  1
  Nb  Nb7  1  0.139585  0.360662  0.857969  1
  P  P8  1  0.534156  0.534156  0.750000  1
  P  P9  1  0.465844  0.465844  0.250000  1
  P  P10  1  0.243280  0.952757  0.036929  1
  P  P11  1  0.952757  0.243280  0.463071  1
  P  P12  1  0.047243  0.756720  0.536929  1
  P  P13  1  0.756720  0.047243  0.963071  1
  O  O14  1  0.498996  0.626288  0.297730  1
  O  O15  1  0.886162  0.811531  0.488611  1
  O  O16  1  0.715977  0.543783  0.913110  1
  O  O17  1  0.698241  0.032061  0.109050  1
  O  O18  1  0.373712  0.501004  0.797730  1
  O  O19  1  0.543783  0.715977  0.586890  1
  O  O20  1  0.087568  0.770271  0.054882  1
  O  O21  1  0.396416  0.929717  0.229083  1
  O  O22  1  0.770271  0.087568  0.445118  1
  O  O23  1  0.032061  0.698241  0.390950  1
  O  O24  1  0.070283  0.603584  0.729083  1
  O  O25  1  0.811531  0.886162  0.011389  1
  O  O26  1  0.188469  0.113838  0.988611  1
  O  O27  1  0.929717  0.396416  0.270917  1
  O  O28  1  0.967939  0.301759  0.609050  1
  O  O29  1  0.229729  0.912432  0.554882  1
  O  O30  1  0.603584  0.070283  0.770917  1
  O  O31  1  0.912432  0.229729  0.945118  1
  O  O32  1  0.456217  0.284023  0.413110  1
  O  O33  1  0.626288  0.498996  0.202270  1
  O  O34  1  0.301759  0.967939  0.890950  1
  O  O35  1  0.284023  0.456217  0.086890  1
  O  O36  1  0.113838  0.188469  0.511389  1
  O  O37  1  0.501004  0.373712  0.702270  1
