# generated using pymatgen
data_Li4(NiO2)5
_symmetry_space_group_name_H-M   'P 1'
_cell_length_a   6.52003253
_cell_length_b   7.46153736
_cell_length_c   7.62680593
_cell_angle_alpha   94.99530082
_cell_angle_beta   89.83814293
_cell_angle_gamma   115.19351987
_symmetry_Int_Tables_number   1
_chemical_formula_structural   Li4(NiO2)5
_chemical_formula_sum   'Li8 Ni10 O20'
_cell_volume   334.22834317
_cell_formula_units_Z   2
loop_
 _symmetry_equiv_pos_site_id
 _symmetry_equiv_pos_as_xyz
  1  'x, y, z'
loop_
 _atom_site_type_symbol
 _atom_site_label
 _atom_site_symmetry_multiplicity
 _atom_site_fract_x
 _atom_site_fract_y
 _atom_site_fract_z
 _atom_site_occupancy
  Li  Li0  1  0.694986  0.792040  0.199937  1
  Li  Li1  1  0.605469  0.404089  0.102943  1
  Li  Li2  1  0.240921  0.493557  0.249200  1
  Li  Li3  1  0.759079  0.506443  0.750800  1
  Li  Li4  1  0.394531  0.595911  0.897057  1
  Li  Li5  1  0.305014  0.207960  0.800063  1
  Li  Li6  1  0.096769  0.418719  0.595633  1
  Li  Li7  1  0.903231  0.581281  0.404367  1
  Ni  Ni8  1  0.144738  0.101051  0.154147  1
  Ni  Ni9  1  0.855262  0.898949  0.845853  1
  Ni  Ni10  1  0.952268  0.300329  0.952236  1
  Ni  Ni11  1  0.047732  0.699671  0.047764  1
  Ni  Ni12  1  0.500000  0.000000  0.000000  1
  Ni  Ni13  1  0.455018  0.301885  0.450952  1
  Ni  Ni14  1  0.544982  0.698115  0.549048  1
  Ni  Ni15  1  0.000000  0.000000  0.500000  1
  Ni  Ni16  1  0.647687  0.100505  0.649578  1
  Ni  Ni17  1  0.352313  0.899495  0.350422  1
  O  O18  1  0.171767  0.950991  0.950859  1
  O  O19  1  0.755609  0.667485  0.970822  1
  O  O20  1  0.244391  0.332515  0.029178  1
  O  O21  1  0.353375  0.758796  0.128119  1
  O  O22  1  0.828233  0.049009  0.049141  1
  O  O23  1  0.929912  0.461603  0.148872  1
  O  O24  1  0.848420  0.759548  0.624135  1
  O  O25  1  0.459125  0.143623  0.241959  1
  O  O26  1  0.540875  0.856377  0.758041  1
  O  O27  1  0.425828  0.454466  0.650351  1
  O  O28  1  0.070088  0.538397  0.851128  1
  O  O29  1  0.971600  0.147033  0.739775  1
  O  O30  1  0.028400  0.852967  0.260225  1
  O  O31  1  0.646625  0.241204  0.871881  1
  O  O32  1  0.574172  0.545534  0.349649  1
  O  O33  1  0.667586  0.938854  0.445747  1
  O  O34  1  0.151580  0.240452  0.375865  1
  O  O35  1  0.258406  0.665578  0.464233  1
  O  O36  1  0.741594  0.334422  0.535767  1
  O  O37  1  0.332414  0.061146  0.554253  1
