# generated using pymatgen
data_Li3Fe(PO4)2
_symmetry_space_group_name_H-M   'P 1'
_cell_length_a   7.00782404
_cell_length_b   5.30081036
_cell_length_c   8.61253836
_cell_angle_alpha   90.00000000
_cell_angle_beta   94.07487688
_cell_angle_gamma   90.00000000
_symmetry_Int_Tables_number   1
_chemical_formula_structural   Li3Fe(PO4)2
_chemical_formula_sum   'Li6 Fe2 P4 O16'
_cell_volume   319.12244829
_cell_formula_units_Z   2
loop_
 _symmetry_equiv_pos_site_id
 _symmetry_equiv_pos_as_xyz
  1  'x, y, z'
loop_
 _atom_site_type_symbol
 _atom_site_label
 _atom_site_symmetry_multiplicity
 _atom_site_fract_x
 _atom_site_fract_y
 _atom_site_fract_z
 _atom_site_occupancy
  Li  Li0  1  0.657546  0.750000  0.990151  1
  Li  Li1  1  0.478566  0.250000  0.730078  1
  Li  Li2  1  0.287992  0.750000  0.651211  1
  Li  Li3  1  0.712008  0.250000  0.348789  1
  Li  Li4  1  0.521434  0.750000  0.269922  1
  Li  Li5  1  0.342454  0.250000  0.009849  1
  Fe  Fe6  1  0.036858  0.250000  0.748909  1
  Fe  Fe7  1  0.963142  0.750000  0.251091  1
  P  P8  1  0.227381  0.750000  0.950913  1
  P  P9  1  0.760119  0.750000  0.600537  1
  P  P10  1  0.239881  0.250000  0.399463  1
  P  P11  1  0.772619  0.250000  0.049087  1
  O  O12  1  0.042130  0.750000  0.035115  1
  O  O13  1  0.595945  0.250000  0.934367  1
  O  O14  1  0.238642  0.515043  0.841294  1
  O  O15  1  0.238642  0.984957  0.841294  1
  O  O16  1  0.871285  0.510284  0.656385  1
  O  O17  1  0.871285  0.989716  0.656385  1
  O  O18  1  0.559676  0.750000  0.661229  1
  O  O19  1  0.252014  0.250000  0.581707  1
  O  O20  1  0.747986  0.750000  0.418293  1
  O  O21  1  0.440324  0.250000  0.338771  1
  O  O22  1  0.128715  0.010284  0.343615  1
  O  O23  1  0.128715  0.489716  0.343615  1
  O  O24  1  0.761358  0.015043  0.158706  1
  O  O25  1  0.761358  0.484957  0.158706  1
  O  O26  1  0.404055  0.750000  0.065633  1
  O  O27  1  0.957870  0.250000  0.964885  1
