# generated using pymatgen
data_PrHfO3
_symmetry_space_group_name_H-M   'P 1'
_cell_length_a   5.75929175
_cell_length_b   5.88939029
_cell_length_c   8.15655359
_cell_angle_alpha   90.00000000
_cell_angle_beta   90.00000000
_cell_angle_gamma   90.00000000
_symmetry_Int_Tables_number   1
_chemical_formula_structural   PrHfO3
_chemical_formula_sum   'Pr4 Hf4 O12'
_cell_volume   276.65983218
_cell_formula_units_Z   4
loop_
 _symmetry_equiv_pos_site_id
 _symmetry_equiv_pos_as_xyz
  1  'x, y, z'
loop_
 _atom_site_type_symbol
 _atom_site_label
 _atom_site_symmetry_multiplicity
 _atom_site_fract_x
 _atom_site_fract_y
 _atom_site_fract_z
 _atom_site_occupancy
  Pr  Pr0  1  0.504131  0.060708  0.250000  1
  Pr  Pr1  1  0.004131  0.439292  0.750000  1
  Pr  Pr2  1  0.995869  0.560708  0.250000  1
  Pr  Pr3  1  0.495869  0.939292  0.750000  1
  Hf  Hf4  1  0.000000  0.000000  0.000000  1
  Hf  Hf5  1  0.000000  0.000000  0.500000  1
  Hf  Hf6  1  0.500000  0.500000  0.000000  1
  Hf  Hf7  1  0.500000  0.500000  0.500000  1
  O  O8  1  0.084102  0.030764  0.750000  1
  O  O9  1  0.689046  0.195005  0.542790  1
  O  O10  1  0.689046  0.195005  0.957210  1
  O  O11  1  0.189046  0.304995  0.042790  1
  O  O12  1  0.189046  0.304995  0.457210  1
  O  O13  1  0.584102  0.469236  0.250000  1
  O  O14  1  0.415898  0.530764  0.750000  1
  O  O15  1  0.810954  0.695005  0.542790  1
  O  O16  1  0.810954  0.695005  0.957210  1
  O  O17  1  0.310954  0.804995  0.042790  1
  O  O18  1  0.310954  0.804995  0.457210  1
  O  O19  1  0.915898  0.969236  0.250000  1
