# generated using pymatgen
data_Ti3Nb2Cr(PO4)6
_symmetry_space_group_name_H-M   'P 1'
_cell_length_a   8.63732073
_cell_length_b   8.63732073
_cell_length_c   8.63732073
_cell_angle_alpha   60.55716810
_cell_angle_beta   60.55716810
_cell_angle_gamma   60.55716810
_symmetry_Int_Tables_number   1
_chemical_formula_structural   Ti3Nb2Cr(PO4)6
_chemical_formula_sum   'Ti3 Nb2 Cr1 P6 O24'
_cell_volume   461.37556198
_cell_formula_units_Z   1
loop_
 _symmetry_equiv_pos_site_id
 _symmetry_equiv_pos_as_xyz
  1  'x, y, z'
loop_
 _atom_site_type_symbol
 _atom_site_label
 _atom_site_symmetry_multiplicity
 _atom_site_fract_x
 _atom_site_fract_y
 _atom_site_fract_z
 _atom_site_occupancy
  Ti  Ti0  1  0.856802  0.856802  0.856802  1
  Ti  Ti1  1  0.642149  0.642149  0.642149  1
  Ti  Ti2  1  0.358993  0.358993  0.358993  1
  Nb  Nb3  1  0.997918  0.997918  0.997918  1
  Nb  Nb4  1  0.499939  0.499939  0.499939  1
  Cr  Cr5  1  0.143999  0.143999  0.143999  1
  P  P6  1  0.960896  0.250685  0.537860  1
  P  P7  1  0.537860  0.960896  0.250685  1
  P  P8  1  0.753767  0.457537  0.038724  1
  P  P9  1  0.457537  0.038724  0.753767  1
  P  P10  1  0.038724  0.753767  0.457537  1
  P  P11  1  0.250685  0.537860  0.960896  1
  O  O12  1  0.881872  0.690849  0.497089  1
  O  O13  1  0.690849  0.497089  0.881872  1
  O  O14  1  0.942011  0.088007  0.734199  1
  O  O15  1  0.497089  0.881872  0.690849  1
  O  O16  1  0.991748  0.192485  0.383604  1
  O  O17  1  0.764058  0.411802  0.560027  1
  O  O18  1  0.734199  0.942011  0.088007  1
  O  O19  1  0.560027  0.764058  0.411802  1
  O  O20  1  0.814254  0.616277  0.000040  1
  O  O21  1  0.411802  0.560027  0.764058  1
  O  O22  1  0.913423  0.262080  0.056543  1
  O  O23  1  0.616277  0.000040  0.814254  1
  O  O24  1  0.383604  0.991748  0.192485  1
  O  O25  1  0.088007  0.734199  0.942011  1
  O  O26  1  0.591660  0.442682  0.233397  1
  O  O27  1  0.192485  0.383604  0.991748  1
  O  O28  1  0.442682  0.233397  0.591660  1
  O  O29  1  0.262080  0.056543  0.913423  1
  O  O30  1  0.233397  0.591660  0.442682  1
  O  O31  1  0.000040  0.814254  0.616277  1
  O  O32  1  0.504071  0.116978  0.311579  1
  O  O33  1  0.056543  0.913423  0.262080  1
  O  O34  1  0.311579  0.504071  0.116978  1
  O  O35  1  0.116978  0.311579  0.504071  1
