# generated using pymatgen
data_Li3Mn(FeO3)2
_symmetry_space_group_name_H-M   'P 1'
_cell_length_a   6.59951086
_cell_length_b   6.59951086
_cell_length_c   6.04968525
_cell_angle_alpha   76.30518021
_cell_angle_beta   103.69481979
_cell_angle_gamma   153.44134919
_symmetry_Int_Tables_number   1
_chemical_formula_structural   Li3Mn(FeO3)2
_chemical_formula_sum   'Li3 Mn1 Fe2 O6'
_cell_volume   114.26919754
_cell_formula_units_Z   1
loop_
 _symmetry_equiv_pos_site_id
 _symmetry_equiv_pos_as_xyz
  1  'x, y, z'
loop_
 _atom_site_type_symbol
 _atom_site_label
 _atom_site_symmetry_multiplicity
 _atom_site_fract_x
 _atom_site_fract_y
 _atom_site_fract_z
 _atom_site_occupancy
  Li  Li0  1  1.000000  0.000000  0.000000  1
  Li  Li1  1  0.336874  0.663126  0.668352  1
  Li  Li2  1  0.663126  0.336874  0.331648  1
  Mn  Mn3  1  1.000000  1.000000  0.500000  1
  Fe  Fe4  1  0.335481  0.664519  0.162833  1
  Fe  Fe5  1  0.664519  0.335481  0.837167  1
  O  O6  1  0.842300  0.157700  0.405790  1
  O  O7  1  0.172487  0.827513  0.072909  1
  O  O8  1  0.157700  0.842300  0.594210  1
  O  O9  1  0.504732  0.495268  0.745339  1
  O  O10  1  0.495268  0.504732  0.254661  1
  O  O11  1  0.827513  0.172487  0.927091  1
