# generated using pymatgen
data_Sr4Ta2O9
_symmetry_space_group_name_H-M   'P 1'
_cell_length_a   5.98063861
_cell_length_b   10.35812727
_cell_length_c   15.30601344
_cell_angle_alpha   90.00000000
_cell_angle_beta   90.00000000
_cell_angle_gamma   90.00000000
_symmetry_Int_Tables_number   1
_chemical_formula_structural   Sr4Ta2O9
_chemical_formula_sum   'Sr16 Ta8 O36'
_cell_volume   948.18022482
_cell_formula_units_Z   4
loop_
 _symmetry_equiv_pos_site_id
 _symmetry_equiv_pos_as_xyz
  1  'x, y, z'
loop_
 _atom_site_type_symbol
 _atom_site_label
 _atom_site_symmetry_multiplicity
 _atom_site_fract_x
 _atom_site_fract_y
 _atom_site_fract_z
 _atom_site_occupancy
  Sr  Sr0  1  0.006774  0.335427  0.709583  1
  Sr  Sr1  1  0.006774  0.664573  0.790417  1
  Sr  Sr2  1  0.014763  0.664219  0.515882  1
  Sr  Sr3  1  0.014763  0.335781  0.984118  1
  Sr  Sr4  1  0.485237  0.164219  0.484118  1
  Sr  Sr5  1  0.485237  0.835781  0.015882  1
  Sr  Sr6  1  0.493226  0.835427  0.290417  1
  Sr  Sr7  1  0.493226  0.164573  0.209583  1
  Sr  Sr8  1  0.506774  0.835427  0.790417  1
  Sr  Sr9  1  0.506774  0.164573  0.709583  1
  Sr  Sr10  1  0.514763  0.164219  0.984118  1
  Sr  Sr11  1  0.514763  0.835781  0.515882  1
  Sr  Sr12  1  0.985237  0.664219  0.015882  1
  Sr  Sr13  1  0.985237  0.335781  0.484118  1
  Sr  Sr14  1  0.993226  0.664573  0.290417  1
  Sr  Sr15  1  0.993226  0.335427  0.209583  1
  Ta  Ta16  1  0.004419  0.000976  0.850367  1
  Ta  Ta17  1  0.004419  0.999024  0.649633  1
  Ta  Ta18  1  0.495581  0.499024  0.350367  1
  Ta  Ta19  1  0.495581  0.500976  0.149633  1
  Ta  Ta20  1  0.504419  0.500976  0.649633  1
  Ta  Ta21  1  0.504419  0.499024  0.850367  1
  Ta  Ta22  1  0.995581  0.000976  0.350367  1
  Ta  Ta23  1  0.995581  0.999024  0.149633  1
  O  O24  1  0.117561  0.124130  0.253731  1
  O  O25  1  0.117561  0.875870  0.246269  1
  O  O26  1  0.146786  0.140129  0.910445  1
  O  O27  1  0.146786  0.859871  0.589555  1
  O  O28  1  0.209667  0.486535  0.596301  1
  O  O29  1  0.209667  0.513465  0.903699  1
  O  O30  1  0.158343  0.151799  0.600314  1
  O  O31  1  0.158343  0.848201  0.899686  1
  O  O32  1  0.249549  0.500000  0.250000  1
  O  O33  1  0.250451  0.000000  0.750000  1
  O  O34  1  0.341657  0.348201  0.100314  1
  O  O35  1  0.341657  0.651799  0.399686  1
  O  O36  1  0.290333  0.986535  0.403699  1
  O  O37  1  0.290333  0.013465  0.096301  1
  O  O38  1  0.353214  0.359871  0.410445  1
  O  O39  1  0.353214  0.640129  0.089555  1
  O  O40  1  0.382439  0.375870  0.753731  1
  O  O41  1  0.382439  0.624130  0.746269  1
  O  O42  1  0.617561  0.624130  0.246269  1
  O  O43  1  0.617561  0.375870  0.253731  1
  O  O44  1  0.646786  0.640129  0.589555  1
  O  O45  1  0.646786  0.359871  0.910445  1
  O  O46  1  0.709667  0.013465  0.596301  1
  O  O47  1  0.709667  0.986535  0.903699  1
  O  O48  1  0.658343  0.348201  0.600314  1
  O  O49  1  0.658343  0.651799  0.899686  1
  O  O50  1  0.749549  0.000000  0.250000  1
  O  O51  1  0.750451  0.500000  0.750000  1
  O  O52  1  0.841657  0.151799  0.100314  1
  O  O53  1  0.841657  0.848201  0.399686  1
  O  O54  1  0.790333  0.486535  0.096301  1
  O  O55  1  0.790333  0.513465  0.403699  1
  O  O56  1  0.853214  0.140129  0.410445  1
  O  O57  1  0.853214  0.859871  0.089555  1
  O  O58  1  0.882439  0.124130  0.753731  1
  O  O59  1  0.882439  0.875870  0.746269  1
