# generated using pymatgen
data_Li3Bi(PO4)2
_symmetry_space_group_name_H-M   'P 1'
_cell_length_a   5.09676412
_cell_length_b   19.03047192
_cell_length_c   8.28281274
_cell_angle_alpha   90.00000000
_cell_angle_beta   127.00196653
_cell_angle_gamma   90.00000000
_symmetry_Int_Tables_number   1
_chemical_formula_structural   Li3Bi(PO4)2
_chemical_formula_sum   'Li12 Bi4 P8 O32'
_cell_volume   641.59256067
_cell_formula_units_Z   4
loop_
 _symmetry_equiv_pos_site_id
 _symmetry_equiv_pos_as_xyz
  1  'x, y, z'
loop_
 _atom_site_type_symbol
 _atom_site_label
 _atom_site_symmetry_multiplicity
 _atom_site_fract_x
 _atom_site_fract_y
 _atom_site_fract_z
 _atom_site_occupancy
  Li  Li0  1  0.375092  0.701640  0.173496  1
  Li  Li1  1  0.731459  0.879636  0.502414  1
  Li  Li2  1  0.954211  0.045996  0.684414  1
  Li  Li3  1  0.268541  0.379636  0.997586  1
  Li  Li4  1  0.045789  0.545996  0.815586  1
  Li  Li5  1  0.624908  0.201640  0.326504  1
  Li  Li6  1  0.375092  0.798360  0.673496  1
  Li  Li7  1  0.954211  0.454004  0.184414  1
  Li  Li8  1  0.731459  0.620364  0.002414  1
  Li  Li9  1  0.045789  0.954004  0.315586  1
  Li  Li10  1  0.268541  0.120364  0.497586  1
  Li  Li11  1  0.624908  0.298360  0.826504  1
  Bi  Bi12  1  0.184068  0.878365  0.985714  1
  Bi  Bi13  1  0.815932  0.378365  0.514286  1
  Bi  Bi14  1  0.184068  0.621635  0.485714  1
  Bi  Bi15  1  0.815932  0.121635  0.014286  1
  P  P16  1  0.900184  0.715605  0.710503  1
  P  P17  1  0.464612  0.534379  0.251582  1
  P  P18  1  0.535388  0.034379  0.248418  1
  P  P19  1  0.099816  0.215605  0.789497  1
  P  P20  1  0.900184  0.784395  0.210503  1
  P  P21  1  0.464612  0.965621  0.751582  1
  P  P22  1  0.535388  0.465621  0.748418  1
  P  P23  1  0.099816  0.284395  0.289497  1
  O  O24  1  0.803126  0.204809  0.798745  1
  O  O25  1  0.580329  0.689001  0.506887  1
  O  O26  1  0.863841  0.446036  0.779685  1
  O  O27  1  0.961631  0.676717  0.891974  1
  O  O28  1  0.234925  0.053747  0.029980  1
  O  O29  1  0.530293  0.072107  0.409076  1
  O  O30  1  0.842656  0.796660  0.718565  1
  O  O31  1  0.454561  0.452135  0.226097  1
  O  O32  1  0.545439  0.952135  0.273903  1
  O  O33  1  0.157344  0.296660  0.781435  1
  O  O34  1  0.469707  0.572107  0.090924  1
  O  O35  1  0.765075  0.553747  0.470020  1
  O  O36  1  0.038369  0.176717  0.608026  1
  O  O37  1  0.136159  0.946036  0.720315  1
  O  O38  1  0.419671  0.189001  0.993113  1
  O  O39  1  0.196874  0.704809  0.701255  1
  O  O40  1  0.803126  0.295191  0.298745  1
  O  O41  1  0.580329  0.810999  0.006887  1
  O  O42  1  0.863841  0.053964  0.279685  1
  O  O43  1  0.961631  0.823283  0.391974  1
  O  O44  1  0.234925  0.446253  0.529980  1
  O  O45  1  0.530293  0.427893  0.909076  1
  O  O46  1  0.842656  0.703340  0.218565  1
  O  O47  1  0.454561  0.047865  0.726097  1
  O  O48  1  0.545439  0.547865  0.773903  1
  O  O49  1  0.157344  0.203340  0.281435  1
  O  O50  1  0.469707  0.927893  0.590924  1
  O  O51  1  0.765075  0.946253  0.970020  1
  O  O52  1  0.038369  0.323283  0.108026  1
  O  O53  1  0.136159  0.553964  0.220315  1
  O  O54  1  0.419671  0.310999  0.493113  1
  O  O55  1  0.196874  0.795191  0.201255  1
