# generated using pymatgen
data_RbV4O10
_symmetry_space_group_name_H-M   'P 1'
_cell_length_a   6.16083757
_cell_length_b   6.16083757
_cell_length_c   9.93959196
_cell_angle_alpha   79.69637590
_cell_angle_beta   100.30362410
_cell_angle_gamma   144.74862873
_symmetry_Int_Tables_number   1
_chemical_formula_structural   RbV4O10
_chemical_formula_sum   'Rb1 V4 O10'
_cell_volume   213.87577271
_cell_formula_units_Z   1
loop_
 _symmetry_equiv_pos_site_id
 _symmetry_equiv_pos_as_xyz
  1  'x, y, z'
loop_
 _atom_site_type_symbol
 _atom_site_label
 _atom_site_symmetry_multiplicity
 _atom_site_fract_x
 _atom_site_fract_y
 _atom_site_fract_z
 _atom_site_occupancy
  Rb  Rb0  1  0.500000  0.500000  0.500000  1
  V  V1  1  0.090480  0.909520  0.154693  1
  V  V2  1  0.206308  0.793692  0.843137  1
  V  V3  1  0.793692  0.206308  0.156863  1
  V  V4  1  0.909520  0.090480  0.845307  1
  O  O5  1  0.064949  0.935051  0.905016  1
  O  O6  1  0.102173  0.897827  0.321506  1
  O  O7  1  0.162501  0.837499  0.677139  1
  O  O8  1  0.620581  0.379419  0.126299  1
  O  O9  1  0.742189  0.257811  0.885893  1
  O  O10  1  0.257811  0.742189  0.114107  1
  O  O11  1  0.379419  0.620581  0.873701  1
  O  O12  1  0.837499  0.162501  0.322861  1
  O  O13  1  0.897827  0.102173  0.678494  1
  O  O14  1  0.935051  0.064949  0.094984  1
