# generated using pymatgen
data_LiBiB2O5
_symmetry_space_group_name_H-M   'P 1'
_cell_length_a   7.52995827
_cell_length_b   7.52995827
_cell_length_c   10.22722376
_cell_angle_alpha   71.73208979
_cell_angle_beta   108.26791021
_cell_angle_gamma   87.71704606
_symmetry_Int_Tables_number   1
_chemical_formula_structural   LiBiB2O5
_chemical_formula_sum   'Li4 Bi4 B8 O20'
_cell_volume   516.74023472
_cell_formula_units_Z   4
loop_
 _symmetry_equiv_pos_site_id
 _symmetry_equiv_pos_as_xyz
  1  'x, y, z'
loop_
 _atom_site_type_symbol
 _atom_site_label
 _atom_site_symmetry_multiplicity
 _atom_site_fract_x
 _atom_site_fract_y
 _atom_site_fract_z
 _atom_site_occupancy
  Li  Li0  1  0.335473  0.955537  0.156854  1
  Li  Li1  1  0.044463  0.664527  0.656854  1
  Li  Li2  1  0.955537  0.335473  0.343146  1
  Li  Li3  1  0.664527  0.044463  0.843146  1
  Bi  Bi4  1  0.854194  0.854194  0.250000  1
  Bi  Bi5  1  0.420736  0.420736  0.250000  1
  Bi  Bi6  1  0.579264  0.579264  0.750000  1
  Bi  Bi7  1  0.145806  0.145806  0.750000  1
  B  B8  1  0.226779  0.765163  0.409897  1
  B  B9  1  0.596129  0.751324  0.470491  1
  B  B10  1  0.234837  0.773221  0.909897  1
  B  B11  1  0.248676  0.403871  0.970491  1
  B  B12  1  0.751324  0.596129  0.029509  1
  B  B13  1  0.765163  0.226779  0.090103  1
  B  B14  1  0.403871  0.248676  0.529509  1
  B  B15  1  0.773221  0.234837  0.590103  1
  O  O16  1  0.101471  0.716357  0.481299  1
  O  O17  1  0.176763  0.831595  0.261867  1
  O  O18  1  0.283643  0.898529  0.981299  1
  O  O19  1  0.592918  0.808833  0.332366  1
  O  O20  1  0.253216  0.316767  0.395384  1
  O  O21  1  0.168405  0.823237  0.761867  1
  O  O22  1  0.254097  0.578881  0.000045  1
  O  O23  1  0.578881  0.254097  0.499955  1
  O  O24  1  0.191167  0.407082  0.832366  1
  O  O25  1  0.683233  0.746784  0.895384  1
  O  O26  1  0.316767  0.253216  0.104616  1
  O  O27  1  0.808833  0.592918  0.167634  1
  O  O28  1  0.421119  0.745903  0.500045  1
  O  O29  1  0.745903  0.421119  0.999955  1
  O  O30  1  0.831595  0.176763  0.238133  1
  O  O31  1  0.746784  0.683233  0.604616  1
  O  O32  1  0.407082  0.191167  0.667634  1
  O  O33  1  0.716357  0.101471  0.018701  1
  O  O34  1  0.823237  0.168405  0.738133  1
  O  O35  1  0.898529  0.283643  0.518701  1
