# generated using pymatgen
data_RbInPHO5
_symmetry_space_group_name_H-M   'P 1'
_cell_length_a   9.54211040
_cell_length_b   9.54211040
_cell_length_c   11.37683688
_cell_angle_alpha   90.00000000
_cell_angle_beta   90.00000000
_cell_angle_gamma   90.00000000
_symmetry_Int_Tables_number   1
_chemical_formula_structural   RbInPHO5
_chemical_formula_sum   'Rb8 In8 P8 H8 O40'
_cell_volume   1035.88228269
_cell_formula_units_Z   8
loop_
 _symmetry_equiv_pos_site_id
 _symmetry_equiv_pos_as_xyz
  1  'x, y, z'
loop_
 _atom_site_type_symbol
 _atom_site_label
 _atom_site_symmetry_multiplicity
 _atom_site_fract_x
 _atom_site_fract_y
 _atom_site_fract_z
 _atom_site_occupancy
  Rb  Rb0  1  0.484299  0.816126  0.296305  1
  Rb  Rb1  1  0.515701  0.183874  0.796305  1
  Rb  Rb2  1  0.316126  0.015701  0.546305  1
  Rb  Rb3  1  0.683874  0.984299  0.046305  1
  Rb  Rb4  1  0.183874  0.515701  0.203695  1
  Rb  Rb5  1  0.816126  0.484299  0.703695  1
  Rb  Rb6  1  0.015701  0.316126  0.453695  1
  Rb  Rb7  1  0.984299  0.683874  0.953695  1
  In  In8  1  0.100207  0.899793  0.250000  1
  In  In9  1  0.899793  0.100207  0.750000  1
  In  In10  1  0.399793  0.399793  0.500000  1
  In  In11  1  0.600207  0.600207  0.000000  1
  In  In12  1  0.653339  0.346661  0.250000  1
  In  In13  1  0.346661  0.653339  0.750000  1
  In  In14  1  0.846661  0.846661  0.500000  1
  In  In15  1  0.153339  0.153339  0.000000  1
  P  P16  1  0.340124  0.184502  0.253412  1
  P  P17  1  0.659876  0.815498  0.753412  1
  P  P18  1  0.684502  0.159876  0.503412  1
  P  P19  1  0.315498  0.840124  0.003412  1
  P  P20  1  0.815498  0.659876  0.246588  1
  P  P21  1  0.184502  0.340124  0.746588  1
  P  P22  1  0.159876  0.684502  0.496588  1
  P  P23  1  0.840124  0.315498  0.996588  1
  H  H24  1  0.621910  0.540814  0.406692  1
  H  H25  1  0.378090  0.459186  0.906692  1
  H  H26  1  0.040814  0.878090  0.656692  1
  H  H27  1  0.959186  0.121910  0.156692  1
  H  H28  1  0.459186  0.378090  0.093308  1
  H  H29  1  0.540814  0.621910  0.593308  1
  H  H30  1  0.878090  0.040814  0.343308  1
  H  H31  1  0.121910  0.959186  0.843308  1
  O  O32  1  0.328062  0.001286  0.989569  1
  O  O33  1  0.671938  0.998714  0.489569  1
  O  O34  1  0.501286  0.171938  0.239569  1
  O  O35  1  0.498714  0.828062  0.739569  1
  O  O36  1  0.998714  0.671938  0.510431  1
  O  O37  1  0.001286  0.328062  0.010431  1
  O  O38  1  0.171938  0.501286  0.760431  1
  O  O39  1  0.828062  0.498714  0.260431  1
  O  O40  1  0.215597  0.798641  0.107019  1
  O  O41  1  0.784403  0.201359  0.607019  1
  O  O42  1  0.298641  0.284403  0.357019  1
  O  O43  1  0.701359  0.715597  0.857019  1
  O  O44  1  0.201359  0.784403  0.392981  1
  O  O45  1  0.798641  0.215597  0.892981  1
  O  O46  1  0.284403  0.298641  0.642981  1
  O  O47  1  0.715597  0.701359  0.142981  1
  O  O48  1  0.280440  0.037212  0.282345  1
  O  O49  1  0.719560  0.962788  0.782345  1
  O  O50  1  0.537212  0.219560  0.532345  1
  O  O51  1  0.462788  0.780440  0.032345  1
  O  O52  1  0.962788  0.719560  0.217655  1
  O  O53  1  0.037212  0.280440  0.717655  1
  O  O54  1  0.219560  0.537212  0.467655  1
  O  O55  1  0.780440  0.462788  0.967655  1
  O  O56  1  0.275741  0.248747  0.139231  1
  O  O57  1  0.724259  0.751253  0.639231  1
  O  O58  1  0.748747  0.224259  0.389231  1
  O  O59  1  0.251253  0.775741  0.889231  1
  O  O60  1  0.751253  0.724259  0.360769  1
  O  O61  1  0.248747  0.275741  0.860769  1
  O  O62  1  0.224259  0.748747  0.610769  1
  O  O63  1  0.775741  0.251253  0.110769  1
  O  O64  1  0.955129  0.985436  0.376276  1
  O  O65  1  0.044871  0.014564  0.876276  1
  O  O66  1  0.485436  0.544871  0.626276  1
  O  O67  1  0.514564  0.455129  0.126276  1
  O  O68  1  0.014564  0.044871  0.123724  1
  O  O69  1  0.985436  0.955129  0.623724  1
  O  O70  1  0.544871  0.485436  0.373724  1
  O  O71  1  0.455129  0.514564  0.873724  1
