# generated using pymatgen
data_Ba3In2(HO)12
_symmetry_space_group_name_H-M   'P 1'
_cell_length_a   12.44447862
_cell_length_b   12.44447862
_cell_length_c   12.44447862
_cell_angle_alpha   109.47122063
_cell_angle_beta   109.47122063
_cell_angle_gamma   109.47122063
_symmetry_Int_Tables_number   1
_chemical_formula_structural   Ba3In2(HO)12
_chemical_formula_sum   'Ba12 In8 H48 O48'
_cell_volume   1483.57062890
_cell_formula_units_Z   4
loop_
 _symmetry_equiv_pos_site_id
 _symmetry_equiv_pos_as_xyz
  1  'x, y, z'
loop_
 _atom_site_type_symbol
 _atom_site_label
 _atom_site_symmetry_multiplicity
 _atom_site_fract_x
 _atom_site_fract_y
 _atom_site_fract_z
 _atom_site_occupancy
  Ba  Ba0  1  0.125000  0.375000  0.750000  1
  Ba  Ba1  1  0.375000  0.125000  0.250000  1
  Ba  Ba2  1  0.375000  0.750000  0.125000  1
  Ba  Ba3  1  0.125000  0.250000  0.375000  1
  Ba  Ba4  1  0.750000  0.125000  0.375000  1
  Ba  Ba5  1  0.250000  0.375000  0.125000  1
  Ba  Ba6  1  0.875000  0.625000  0.250000  1
  Ba  Ba7  1  0.625000  0.875000  0.750000  1
  Ba  Ba8  1  0.625000  0.250000  0.875000  1
  Ba  Ba9  1  0.875000  0.750000  0.625000  1
  Ba  Ba10  1  0.250000  0.875000  0.625000  1
  Ba  Ba11  1  0.750000  0.625000  0.875000  1
  In  In12  1  0.000000  0.500000  0.000000  1
  In  In13  1  1.000000  1.000000  0.500000  1
  In  In14  1  0.500000  1.000000  1.000000  1
  In  In15  1  0.500000  0.500000  0.500000  1
  In  In16  1  0.500000  0.500000  0.000000  1
  In  In17  1  0.500000  0.000000  0.500000  1
  In  In18  1  1.000000  0.500000  0.500000  1
  In  In19  1  0.000000  0.000000  0.000000  1
  H  H20  1  0.948933  0.250183  0.885724  1
  H  H21  1  0.864459  0.063209  0.614276  1
  H  H22  1  0.635541  0.249817  0.198750  1
  H  H23  1  0.551067  0.436791  0.301250  1
  H  H24  1  0.250183  0.885724  0.948933  1
  H  H25  1  0.063209  0.614276  0.864459  1
  H  H26  1  0.249817  0.198750  0.635541  1
  H  H27  1  0.436791  0.301250  0.551067  1
  H  H28  1  0.885724  0.948933  0.250183  1
  H  H29  1  0.614276  0.864459  0.063209  1
  H  H30  1  0.198750  0.635541  0.249817  1
  H  H31  1  0.301250  0.551067  0.436791  1
  H  H32  1  0.051067  0.749817  0.114276  1
  H  H33  1  0.135541  0.936791  0.385724  1
  H  H34  1  0.364459  0.750183  0.801250  1
  H  H35  1  0.448933  0.563209  0.698750  1
  H  H36  1  0.749817  0.114276  0.051067  1
  H  H37  1  0.936791  0.385724  0.135541  1
  H  H38  1  0.750183  0.801250  0.364459  1
  H  H39  1  0.563209  0.698750  0.448933  1
  H  H40  1  0.114276  0.051067  0.749817  1
  H  H41  1  0.385724  0.135541  0.936791  1
  H  H42  1  0.801250  0.364459  0.750183  1
  H  H43  1  0.698750  0.448933  0.563209  1
  H  H44  1  0.448933  0.385724  0.750183  1
  H  H45  1  0.364459  0.114276  0.563209  1
  H  H46  1  0.135541  0.698750  0.749817  1
  H  H47  1  0.051067  0.801250  0.936791  1
  H  H48  1  0.750183  0.448933  0.385724  1
  H  H49  1  0.563209  0.364459  0.114276  1
  H  H50  1  0.749817  0.135541  0.698750  1
  H  H51  1  0.936791  0.051067  0.801250  1
  H  H52  1  0.385724  0.750183  0.448933  1
  H  H53  1  0.114276  0.563209  0.364459  1
  H  H54  1  0.698750  0.749817  0.135541  1
  H  H55  1  0.801250  0.936791  0.051067  1
  H  H56  1  0.551067  0.614276  0.249817  1
  H  H57  1  0.635541  0.885724  0.436791  1
  H  H58  1  0.864459  0.301250  0.250183  1
  H  H59  1  0.948933  0.198750  0.063209  1
  H  H60  1  0.249817  0.551067  0.614276  1
  H  H61  1  0.436791  0.635541  0.885724  1
  H  H62  1  0.250183  0.864459  0.301250  1
  H  H63  1  0.063209  0.948933  0.198750  1
  H  H64  1  0.614276  0.249817  0.551067  1
  H  H65  1  0.885724  0.436791  0.635541  1
  H  H66  1  0.301250  0.250183  0.864459  1
  H  H67  1  0.198750  0.063209  0.948933  1
  O  O68  1  0.025867  0.330578  0.912452  1
  O  O69  1  0.918126  0.113415  0.587548  1
  O  O70  1  0.581874  0.169422  0.195290  1
  O  O71  1  0.474133  0.386585  0.304710  1
  O  O72  1  0.330578  0.912452  0.025867  1
  O  O73  1  0.113415  0.587548  0.918126  1
  O  O74  1  0.169422  0.195290  0.581874  1
  O  O75  1  0.386585  0.304710  0.474133  1
  O  O76  1  0.912452  0.025867  0.330578  1
  O  O77  1  0.587548  0.918126  0.113415  1
  O  O78  1  0.195290  0.581874  0.169422  1
  O  O79  1  0.304710  0.474133  0.386585  1
  O  O80  1  0.974133  0.669422  0.087548  1
  O  O81  1  0.081874  0.886585  0.412452  1
  O  O82  1  0.418126  0.830578  0.804710  1
  O  O83  1  0.525867  0.613415  0.695290  1
  O  O84  1  0.669422  0.087548  0.974133  1
  O  O85  1  0.886585  0.412452  0.081874  1
  O  O86  1  0.830578  0.804710  0.418126  1
  O  O87  1  0.613415  0.695290  0.525867  1
  O  O88  1  0.087548  0.974133  0.669422  1
  O  O89  1  0.412452  0.081874  0.886585  1
  O  O90  1  0.804710  0.418126  0.830578  1
  O  O91  1  0.695290  0.525867  0.613415  1
  O  O92  1  0.525867  0.412452  0.830578  1
  O  O93  1  0.418126  0.087548  0.613415  1
  O  O94  1  0.081874  0.695290  0.669422  1
  O  O95  1  0.974133  0.804710  0.886585  1
  O  O96  1  0.830578  0.525867  0.412452  1
  O  O97  1  0.613415  0.418126  0.087548  1
  O  O98  1  0.669422  0.081874  0.695290  1
  O  O99  1  0.886585  0.974133  0.804710  1
  O  O100  1  0.412452  0.830578  0.525867  1
  O  O101  1  0.087548  0.613415  0.418126  1
  O  O102  1  0.695290  0.669422  0.081874  1
  O  O103  1  0.804710  0.886585  0.974133  1
  O  O104  1  0.474133  0.587548  0.169422  1
  O  O105  1  0.581874  0.912452  0.386585  1
  O  O106  1  0.918126  0.304710  0.330578  1
  O  O107  1  0.025867  0.195290  0.113415  1
  O  O108  1  0.169422  0.474133  0.587548  1
  O  O109  1  0.386585  0.581874  0.912452  1
  O  O110  1  0.330578  0.918126  0.304710  1
  O  O111  1  0.113415  0.025867  0.195290  1
  O  O112  1  0.587548  0.169422  0.474133  1
  O  O113  1  0.912452  0.386585  0.581874  1
  O  O114  1  0.304710  0.330578  0.918126  1
  O  O115  1  0.195290  0.113415  0.025867  1
