# generated using pymatgen
data_Li2FePCO7
_symmetry_space_group_name_H-M   'P 1'
_cell_length_a   5.05965335
_cell_length_b   10.15763905
_cell_length_c   11.01609171
_cell_angle_alpha   74.28197065
_cell_angle_beta   88.02668646
_cell_angle_gamma   83.05717014
_symmetry_Int_Tables_number   1
_chemical_formula_structural   Li2FePCO7
_chemical_formula_sum   'Li8 Fe4 P4 C4 O28'
_cell_volume   540.99458141
_cell_formula_units_Z   4
loop_
 _symmetry_equiv_pos_site_id
 _symmetry_equiv_pos_as_xyz
  1  'x, y, z'
loop_
 _atom_site_type_symbol
 _atom_site_label
 _atom_site_symmetry_multiplicity
 _atom_site_fract_x
 _atom_site_fract_y
 _atom_site_fract_z
 _atom_site_occupancy
  Li  Li0  1  0.263161  0.911665  0.844176  1
  Li  Li1  1  0.223124  0.552348  0.866650  1
  Li  Li2  1  0.286112  0.399335  0.349808  1
  Li  Li3  1  0.369403  0.118674  0.601844  1
  Li  Li4  1  0.630597  0.881326  0.398156  1
  Li  Li5  1  0.736839  0.088335  0.155824  1
  Li  Li6  1  0.776876  0.447652  0.133350  1
  Li  Li7  1  0.713888  0.600665  0.650192  1
  Fe  Fe8  1  0.188304  0.207439  0.954218  1
  Fe  Fe9  1  0.186647  0.704883  0.449525  1
  Fe  Fe10  1  0.811696  0.792561  0.045782  1
  Fe  Fe11  1  0.813353  0.295117  0.550475  1
  P  P12  1  0.274164  0.910534  0.166746  1
  P  P13  1  0.273197  0.411771  0.668984  1
  P  P14  1  0.725836  0.089466  0.833254  1
  P  P15  1  0.726803  0.588229  0.331016  1
  C  C16  1  0.253966  0.849139  0.595583  1
  C  C17  1  0.328172  0.330974  0.109362  1
  C  C18  1  0.746034  0.150861  0.404417  1
  C  C19  1  0.671828  0.669026  0.890638  1
  O  O20  1  0.021769  0.836024  0.557032  1
  O  O21  1  0.150324  0.803182  0.118188  1
  O  O22  1  0.115956  0.054605  0.112870  1
  O  O23  1  0.079818  0.346533  0.071175  1
  O  O24  1  0.272830  0.871183  0.312917  1
  O  O25  1  0.169592  0.296218  0.621696  1
  O  O26  1  0.244220  0.382297  0.813930  1
  O  O27  1  0.105951  0.552371  0.609734  1
  O  O28  1  0.426559  0.082810  0.874269  1
  O  O29  1  0.298333  0.926916  0.663032  1
  O  O30  1  0.410587  0.397651  0.179936  1
  O  O31  1  0.573441  0.917190  0.125731  1
  O  O32  1  0.488210  0.245874  0.063031  1
  O  O33  1  0.545707  0.228617  0.445031  1
  O  O34  1  0.431274  0.576760  0.372423  1
  O  O35  1  0.701667  0.073084  0.336968  1
  O  O36  1  0.511790  0.754126  0.936969  1
  O  O37  1  0.589413  0.602349  0.820064  1
  O  O38  1  0.568726  0.423240  0.627577  1
  O  O39  1  0.454293  0.771383  0.554969  1
  O  O40  1  0.884044  0.945395  0.887130  1
  O  O41  1  0.727170  0.128817  0.687083  1
  O  O42  1  0.849676  0.196818  0.881812  1
  O  O43  1  0.755780  0.617703  0.186070  1
  O  O44  1  0.978231  0.163976  0.442968  1
  O  O45  1  0.894049  0.447629  0.390266  1
  O  O46  1  0.830408  0.703782  0.378304  1
  O  O47  1  0.920182  0.653467  0.928825  1
