# generated using pymatgen
data_Li3MnAl2O6
_symmetry_space_group_name_H-M   'P 1'
_cell_length_a   5.30485982
_cell_length_b   5.91750954
_cell_length_c   7.83578978
_cell_angle_alpha   89.96428656
_cell_angle_beta   100.54512784
_cell_angle_gamma   90.54887934
_symmetry_Int_Tables_number   1
_chemical_formula_structural   Li3MnAl2O6
_chemical_formula_sum   'Li6 Mn2 Al4 O12'
_cell_volume   241.81209792
_cell_formula_units_Z   2
loop_
 _symmetry_equiv_pos_site_id
 _symmetry_equiv_pos_as_xyz
  1  'x, y, z'
loop_
 _atom_site_type_symbol
 _atom_site_label
 _atom_site_symmetry_multiplicity
 _atom_site_fract_x
 _atom_site_fract_y
 _atom_site_fract_z
 _atom_site_occupancy
  Li  Li0  1  0.158470  0.833944  0.082983  1
  Li  Li1  1  0.000945  0.661729  0.756560  1
  Li  Li2  1  0.322821  0.654389  0.402227  1
  Li  Li3  1  0.677179  0.345611  0.597773  1
  Li  Li4  1  0.999055  0.338271  0.243440  1
  Li  Li5  1  0.841530  0.166056  0.917017  1
  Mn  Mn6  1  0.504305  0.828619  0.742015  1
  Mn  Mn7  1  0.495695  0.171381  0.257985  1
  Al  Al8  1  0.834806  0.825557  0.418601  1
  Al  Al9  1  0.667218  0.667530  0.087392  1
  Al  Al10  1  0.332782  0.332470  0.912608  1
  Al  Al11  1  0.165194  0.174443  0.581399  1
  O  O12  1  0.171286  0.862613  0.578321  1
  O  O13  1  0.519462  0.828687  0.242309  1
  O  O14  1  0.800623  0.818353  0.920571  1
  O  O15  1  0.681938  0.683921  0.573729  1
  O  O16  1  0.967224  0.678290  0.255073  1
  O  O17  1  0.347514  0.644696  0.920029  1
  O  O18  1  0.652486  0.355304  0.079971  1
  O  O19  1  0.032776  0.321710  0.744927  1
  O  O20  1  0.318062  0.316079  0.426271  1
  O  O21  1  0.199377  0.181647  0.079429  1
  O  O22  1  0.480538  0.171313  0.757691  1
  O  O23  1  0.828714  0.137387  0.421679  1
