# generated using pymatgen
data_Zr2N2O
_symmetry_space_group_name_H-M   'P 1'
_cell_length_a   8.52896795
_cell_length_b   3.15712768
_cell_length_c   8.60600422
_cell_angle_alpha   90.00000000
_cell_angle_beta   90.29679962
_cell_angle_gamma   90.00000000
_symmetry_Int_Tables_number   1
_chemical_formula_structural   Zr2N2O
_chemical_formula_sum   'Zr8 N8 O4'
_cell_volume   231.73111746
_cell_formula_units_Z   4
loop_
 _symmetry_equiv_pos_site_id
 _symmetry_equiv_pos_as_xyz
  1  'x, y, z'
loop_
 _atom_site_type_symbol
 _atom_site_label
 _atom_site_symmetry_multiplicity
 _atom_site_fract_x
 _atom_site_fract_y
 _atom_site_fract_z
 _atom_site_occupancy
  Zr  Zr0  1  0.826283  0.000000  0.000522  1
  Zr  Zr1  1  0.498012  0.000000  0.190461  1
  Zr  Zr2  1  0.996216  0.500000  0.317211  1
  Zr  Zr3  1  0.318402  0.500000  0.496693  1
  Zr  Zr4  1  0.678049  0.000000  0.512676  1
  Zr  Zr5  1  0.996957  0.000000  0.681320  1
  Zr  Zr6  1  0.505020  0.500000  0.812830  1
  Zr  Zr7  1  0.183328  0.500000  0.994519  1
  N  N8  1  0.057290  0.000000  0.124239  1
  N  N9  1  0.553001  0.500000  0.376347  1
  N  N10  1  0.130784  0.000000  0.449951  1
  N  N11  1  0.868543  0.500000  0.542032  1
  N  N12  1  0.440280  0.000000  0.625660  1
  N  N13  1  0.694063  0.000000  0.771111  1
  N  N14  1  0.944450  0.500000  0.877155  1
  N  N15  1  0.372319  0.000000  0.958955  1
  O  O16  1  0.633514  0.500000  0.050129  1
  O  O17  1  0.313619  0.500000  0.225551  1
  O  O18  1  0.800237  0.000000  0.264070  1
  O  O19  1  0.189634  0.500000  0.728566  1
