# generated using pymatgen
data_NaCdAs
_symmetry_space_group_name_H-M   'P 1'
_cell_length_a   4.51886698
_cell_length_b   7.64948088
_cell_length_c   8.17901233
_cell_angle_alpha   90.00000000
_cell_angle_beta   90.00000000
_cell_angle_gamma   90.00000000
_symmetry_Int_Tables_number   1
_chemical_formula_structural   NaCdAs
_chemical_formula_sum   'Na4 Cd4 As4'
_cell_volume   282.72380931
_cell_formula_units_Z   4
loop_
 _symmetry_equiv_pos_site_id
 _symmetry_equiv_pos_as_xyz
  1  'x, y, z'
loop_
 _atom_site_type_symbol
 _atom_site_label
 _atom_site_symmetry_multiplicity
 _atom_site_fract_x
 _atom_site_fract_y
 _atom_site_fract_z
 _atom_site_occupancy
  Na  Na0  1  0.250000  0.518482  0.673459  1
  Na  Na1  1  0.750000  0.481518  0.326541  1
  Na  Na2  1  0.250000  0.018482  0.826541  1
  Na  Na3  1  0.750000  0.981518  0.173459  1
  Cd  Cd4  1  0.750000  0.849979  0.574413  1
  Cd  Cd5  1  0.750000  0.349979  0.925587  1
  Cd  Cd6  1  0.250000  0.650021  0.074413  1
  Cd  Cd7  1  0.250000  0.150021  0.425587  1
  As  As8  1  0.250000  0.778548  0.390785  1
  As  As9  1  0.750000  0.721452  0.890785  1
  As  As10  1  0.750000  0.221452  0.609215  1
  As  As11  1  0.250000  0.278548  0.109215  1
