# generated using pymatgen
data_Li3CrClO4
_symmetry_space_group_name_H-M   'P 1'
_cell_length_a   6.81284149
_cell_length_b   6.81284149
_cell_length_c   4.86266244
_cell_angle_alpha   90.00000000
_cell_angle_beta   90.00000000
_cell_angle_gamma   90.00000000
_symmetry_Int_Tables_number   1
_chemical_formula_structural   Li3CrClO4
_chemical_formula_sum   'Li6 Cr2 Cl2 O8'
_cell_volume   225.69954920
_cell_formula_units_Z   2
loop_
 _symmetry_equiv_pos_site_id
 _symmetry_equiv_pos_as_xyz
  1  'x, y, z'
loop_
 _atom_site_type_symbol
 _atom_site_label
 _atom_site_symmetry_multiplicity
 _atom_site_fract_x
 _atom_site_fract_y
 _atom_site_fract_z
 _atom_site_occupancy
  Li  Li0  1  0.500000  0.000000  0.144316  1
  Li  Li1  1  0.750000  0.250000  0.500000  1
  Li  Li2  1  0.250000  0.250000  0.500000  1
  Li  Li3  1  0.000000  0.500000  0.855684  1
  Li  Li4  1  0.250000  0.750000  0.500000  1
  Li  Li5  1  0.750000  0.750000  0.500000  1
  Cr  Cr6  1  0.000000  0.000000  0.000000  1
  Cr  Cr7  1  0.500000  0.500000  0.000000  1
  Cl  Cl8  1  0.500000  0.000000  0.665350  1
  Cl  Cl9  1  0.000000  0.500000  0.334650  1
  O  O10  1  0.195561  0.000000  0.206562  1
  O  O11  1  0.804439  0.000000  0.206562  1
  O  O12  1  0.000000  0.195561  0.793438  1
  O  O13  1  0.500000  0.304439  0.206562  1
  O  O14  1  0.304439  0.500000  0.793438  1
  O  O15  1  0.695561  0.500000  0.793438  1
  O  O16  1  0.500000  0.695561  0.206562  1
  O  O17  1  0.000000  0.804439  0.793438  1
