# generated using pymatgen
data_V3OF11
_symmetry_space_group_name_H-M   'P 1'
_cell_length_a   5.25948528
_cell_length_b   5.46178286
_cell_length_c   14.73845403
_cell_angle_alpha   100.27553101
_cell_angle_beta   89.99922285
_cell_angle_gamma   90.20436909
_symmetry_Int_Tables_number   1
_chemical_formula_structural   V3OF11
_chemical_formula_sum   'V6 O2 F22'
_cell_volume   416.58610242
_cell_formula_units_Z   2
loop_
 _symmetry_equiv_pos_site_id
 _symmetry_equiv_pos_as_xyz
  1  'x, y, z'
loop_
 _atom_site_type_symbol
 _atom_site_label
 _atom_site_symmetry_multiplicity
 _atom_site_fract_x
 _atom_site_fract_y
 _atom_site_fract_z
 _atom_site_occupancy
  V  V0  1  0.024812  0.625698  0.830079  1
  V  V1  1  0.500000  0.500000  0.500000  1
  V  V2  1  0.975188  0.374302  0.169921  1
  V  V3  1  0.508434  0.155387  0.834161  1
  V  V4  1  0.000000  0.000000  0.500000  1
  V  V5  1  0.491566  0.844613  0.165839  1
  O  O6  1  0.796494  0.625533  0.189560  1
  O  O7  1  0.203506  0.374467  0.810440  1
  F  F8  1  0.712485  0.471277  0.857588  1
  F  F9  1  0.287515  0.528723  0.142412  1
  F  F10  1  0.905970  0.636645  0.718355  1
  F  F11  1  0.588174  0.457948  0.382532  1
  F  F12  1  0.926716  0.273875  0.050231  1
  F  F13  1  0.411826  0.542052  0.617468  1
  F  F14  1  0.094030  0.363355  0.281645  1
  F  F15  1  0.412276  0.217031  0.951115  1
  F  F16  1  0.802999  0.311202  0.525240  1
  F  F17  1  0.708837  0.144122  0.191407  1
  F  F18  1  0.793919  0.973758  0.857423  1
  F  F19  1  0.303293  0.188599  0.475157  1
  F  F20  1  0.206081  0.026242  0.142577  1
  F  F21  1  0.577137  0.129936  0.715296  1
  F  F22  1  0.912683  0.959245  0.382428  1
  F  F23  1  0.587724  0.782969  0.048885  1
  F  F24  1  0.087317  0.040755  0.617572  1
  F  F25  1  0.422863  0.870064  0.284704  1
  F  F26  1  0.073284  0.726125  0.949769  1
  F  F27  1  0.696707  0.811401  0.524843  1
  F  F28  1  0.291163  0.855878  0.808593  1
  F  F29  1  0.197001  0.688798  0.474760  1
