# generated using pymatgen
data_Rb5FeO4
_symmetry_space_group_name_H-M   'P 1'
_cell_length_a   6.64455899
_cell_length_b   8.04548025
_cell_length_c   8.83786148
_cell_angle_alpha   90.00000000
_cell_angle_beta   90.00000000
_cell_angle_gamma   90.00000000
_symmetry_Int_Tables_number   1
_chemical_formula_structural   Rb5FeO4
_chemical_formula_sum   'Rb10 Fe2 O8'
_cell_volume   472.46030379
_cell_formula_units_Z   2
loop_
 _symmetry_equiv_pos_site_id
 _symmetry_equiv_pos_as_xyz
  1  'x, y, z'
loop_
 _atom_site_type_symbol
 _atom_site_label
 _atom_site_symmetry_multiplicity
 _atom_site_fract_x
 _atom_site_fract_y
 _atom_site_fract_z
 _atom_site_occupancy
  Rb  Rb0  1  0.262281  0.739001  0.691226  1
  Rb  Rb1  1  0.262281  0.260999  0.691226  1
  Rb  Rb2  1  0.851122  0.000000  0.500000  1
  Rb  Rb3  1  0.262281  0.739001  0.308774  1
  Rb  Rb4  1  0.262281  0.260999  0.308774  1
  Rb  Rb5  1  0.737719  0.760999  0.191226  1
  Rb  Rb6  1  0.737719  0.239001  0.191226  1
  Rb  Rb7  1  0.148878  0.500000  0.000000  1
  Rb  Rb8  1  0.737719  0.760999  0.808774  1
  Rb  Rb9  1  0.737719  0.239001  0.808774  1
  Fe  Fe10  1  0.791014  0.500000  0.500000  1
  Fe  Fe11  1  0.208986  0.000000  0.000000  1
  O  O12  1  0.952123  0.500000  0.685852  1
  O  O13  1  0.632463  0.704114  0.500000  1
  O  O14  1  0.632463  0.295886  0.500000  1
  O  O15  1  0.952123  0.500000  0.314148  1
  O  O16  1  0.047877  0.000000  0.185852  1
  O  O17  1  0.367537  0.795886  0.000000  1
  O  O18  1  0.367537  0.204114  0.000000  1
  O  O19  1  0.047877  0.000000  0.814148  1
