# generated using pymatgen
data_Li8Mn7Fe(BO3)8
_symmetry_space_group_name_H-M   'P 1'
_cell_length_a   5.25753702
_cell_length_b   9.11255484
_cell_length_c   10.52238954
_cell_angle_alpha   88.39054615
_cell_angle_beta   88.99057534
_cell_angle_gamma   89.74952149
_symmetry_Int_Tables_number   1
_chemical_formula_structural   Li8Mn7Fe(BO3)8
_chemical_formula_sum   'Li8 Mn7 Fe1 B8 O24'
_cell_volume   503.84254127
_cell_formula_units_Z   1
loop_
 _symmetry_equiv_pos_site_id
 _symmetry_equiv_pos_as_xyz
  1  'x, y, z'
loop_
 _atom_site_type_symbol
 _atom_site_label
 _atom_site_symmetry_multiplicity
 _atom_site_fract_x
 _atom_site_fract_y
 _atom_site_fract_z
 _atom_site_occupancy
  Li  Li0  1  0.146432  0.174544  0.668693  1
  Li  Li1  1  0.187764  0.160619  0.168267  1
  Li  Li2  1  0.322490  0.330491  0.416825  1
  Li  Li3  1  0.336506  0.325701  0.917233  1
  Li  Li4  1  0.647678  0.674024  0.667469  1
  Li  Li5  1  0.688493  0.660478  0.167965  1
  Li  Li6  1  0.820612  0.831439  0.417803  1
  Li  Li7  1  0.836131  0.825562  0.917892  1
  Mn  Mn8  1  0.177445  0.498706  0.132727  1
  Mn  Mn9  1  0.159371  0.839047  0.633225  1
  Mn  Mn10  1  0.331301  0.664637  0.382809  1
  Mn  Mn11  1  0.331143  0.998106  0.883395  1
  Mn  Mn12  1  0.678207  0.999092  0.133330  1
  Mn  Mn13  1  0.829977  0.165033  0.385722  1
  Mn  Mn14  1  0.829646  0.496226  0.881776  1
  Fe  Fe15  1  0.654920  0.340459  0.632463  1
  B  B16  1  0.173362  0.829256  0.125787  1
  B  B17  1  0.160171  0.499757  0.625236  1
  B  B18  1  0.336529  0.997897  0.375924  1
  B  B19  1  0.327779  0.667037  0.875246  1
  B  B20  1  0.673457  0.329241  0.125913  1
  B  B21  1  0.657048  0.003115  0.626749  1
  B  B22  1  0.836699  0.498187  0.376784  1
  B  B23  1  0.827578  0.167093  0.874676  1
  O  O24  1  0.096308  0.481377  0.346353  1
  O  O25  1  0.089047  0.179343  0.860869  1
  O  O26  1  0.173888  0.788994  0.845000  1
  O  O27  1  0.194340  0.876389  0.417938  1
  O  O28  1  0.222936  0.134403  0.361504  1
  O  O29  1  0.216092  0.535362  0.917181  1
  O  O30  1  0.275023  0.363063  0.612535  1
  O  O31  1  0.288670  0.964645  0.095837  1
  O  O32  1  0.301801  0.626443  0.596532  1
  O  O33  1  0.322146  0.710344  0.166975  1
  O  O34  1  0.413388  0.314703  0.111149  1
  O  O35  1  0.403780  0.016526  0.666912  1
  O  O36  1  0.596153  0.981877  0.345524  1
  O  O37  1  0.589324  0.678735  0.860404  1
  O  O38  1  0.673362  0.288499  0.843670  1
  O  O39  1  0.694068  0.377280  0.419139  1
  O  O40  1  0.724224  0.635012  0.361372  1
  O  O41  1  0.717516  0.035218  0.917548  1
  O  O42  1  0.788333  0.464774  0.095754  1
  O  O43  1  0.766169  0.865644  0.611112  1
  O  O44  1  0.800772  0.129520  0.598287  1
  O  O45  1  0.822149  0.210597  0.167239  1
  O  O46  1  0.913465  0.814665  0.111151  1
  O  O47  1  0.905708  0.510233  0.663709  1
