# generated using pymatgen
data_Na2NiPCO7
_symmetry_space_group_name_H-M   'P 1'
_cell_length_a   10.25018152
_cell_length_b   6.52318740
_cell_length_c   10.38439919
_cell_angle_alpha   90.00000000
_cell_angle_beta   118.92629957
_cell_angle_gamma   90.00000000
_symmetry_Int_Tables_number   1
_chemical_formula_structural   Na2NiPCO7
_chemical_formula_sum   'Na8 Ni4 P4 C4 O28'
_cell_volume   607.71678889
_cell_formula_units_Z   4
loop_
 _symmetry_equiv_pos_site_id
 _symmetry_equiv_pos_as_xyz
  1  'x, y, z'
loop_
 _atom_site_type_symbol
 _atom_site_label
 _atom_site_symmetry_multiplicity
 _atom_site_fract_x
 _atom_site_fract_y
 _atom_site_fract_z
 _atom_site_occupancy
  Na  Na0  1  0.736188  0.732448  0.741574  1
  Na  Na1  1  0.736080  0.266237  0.742991  1
  Na  Na2  1  0.268471  0.230961  0.761659  1
  Na  Na3  1  0.088877  0.002832  0.937931  1
  Na  Na4  1  0.088877  0.997168  0.437931  1
  Na  Na5  1  0.736188  0.267552  0.241574  1
  Na  Na6  1  0.736080  0.733763  0.242991  1
  Na  Na7  1  0.268471  0.769039  0.261659  1
  Ni  Ni8  1  0.652608  0.000189  0.938021  1
  Ni  Ni9  1  0.344922  0.497833  0.561598  1
  Ni  Ni10  1  0.652608  0.999811  0.438021  1
  Ni  Ni11  1  0.344922  0.502167  0.061598  1
  P  P12  1  0.573801  0.502150  0.926781  1
  P  P13  1  0.422436  0.999300  0.568768  1
  P  P14  1  0.573801  0.497850  0.426781  1
  P  P15  1  0.422436  0.000700  0.068768  1
  C  C16  1  0.068372  0.502322  0.891277  1
  C  C17  1  0.068372  0.497678  0.391277  1
  C  C18  1  0.929314  0.004337  0.609448  1
  C  C19  1  0.929314  0.995663  0.109448  1
  O  O20  1  0.867882  0.000064  0.965697  1
  O  O21  1  0.673110  0.313482  0.941854  1
  O  O22  1  0.673003  0.689863  0.941387  1
  O  O23  1  0.570081  0.995839  0.715502  1
  O  O24  1  0.539566  0.497587  0.558307  1
  O  O25  1  0.462985  0.001188  0.941487  1
  O  O26  1  0.427637  0.497930  0.780046  1
  O  O27  1  0.324053  0.185778  0.559095  1
  O  O28  1  0.320528  0.810426  0.542053  1
  O  O29  1  0.168377  0.494872  0.847374  1
  O  O30  1  0.168377  0.505128  0.347374  1
  O  O31  1  0.126881  0.489042  0.533579  1
  O  O32  1  0.069055  0.012893  0.690953  1
  O  O33  1  0.069055  0.987107  0.190953  1
  O  O34  1  0.930132  0.500349  0.804317  1
  O  O35  1  0.930132  0.499651  0.304317  1
  O  O36  1  0.867882  0.999936  0.465697  1
  O  O37  1  0.835965  0.999589  0.661429  1
  O  O38  1  0.835965  0.000411  0.161429  1
  O  O39  1  0.673003  0.310137  0.441387  1
  O  O40  1  0.673110  0.686518  0.441854  1
  O  O41  1  0.570081  0.004161  0.215502  1
  O  O42  1  0.539566  0.502413  0.058307  1
  O  O43  1  0.462985  0.998812  0.441487  1
  O  O44  1  0.427637  0.502070  0.280046  1
  O  O45  1  0.324053  0.814222  0.059095  1
  O  O46  1  0.320528  0.189574  0.042053  1
  O  O47  1  0.126881  0.510958  0.033579  1
