# generated using pymatgen
data_Li4Cu(PO3)6
_symmetry_space_group_name_H-M   'P 1'
_cell_length_a   7.25358981
_cell_length_b   7.49222905
_cell_length_c   7.65673170
_cell_angle_alpha   107.71133155
_cell_angle_beta   99.29371687
_cell_angle_gamma   113.64792830
_symmetry_Int_Tables_number   1
_chemical_formula_structural   Li4Cu(PO3)6
_chemical_formula_sum   'Li4 Cu1 P6 O18'
_cell_volume   343.40012744
_cell_formula_units_Z   1
loop_
 _symmetry_equiv_pos_site_id
 _symmetry_equiv_pos_as_xyz
  1  'x, y, z'
loop_
 _atom_site_type_symbol
 _atom_site_label
 _atom_site_symmetry_multiplicity
 _atom_site_fract_x
 _atom_site_fract_y
 _atom_site_fract_z
 _atom_site_occupancy
  Li  Li0  1  0.215908  0.062954  0.887175  1
  Li  Li1  1  0.628268  0.445649  0.839067  1
  Li  Li2  1  0.487194  0.998306  0.528157  1
  Li  Li3  1  0.363797  0.543016  0.150473  1
  Cu  Cu4  1  0.795699  0.943210  0.132679  1
  P  P5  1  0.986935  0.315050  0.779496  1
  P  P6  1  0.340297  0.686334  0.782710  1
  P  P7  1  0.207328  0.262865  0.497722  1
  P  P8  1  0.774942  0.722936  0.498939  1
  P  P9  1  0.672945  0.319338  0.206848  1
  P  P10  1  0.021657  0.700889  0.235347  1
  O  O11  1  0.111466  0.282822  0.931823  1
  O  O12  1  0.510255  0.691229  0.934693  1
  O  O13  1  0.113988  0.564923  0.811602  1
  O  O14  1  0.757888  0.256179  0.747871  1
  O  O15  1  0.370710  0.220766  0.597974  1
  O  O16  1  0.003564  0.200144  0.571136  1
  O  O17  1  0.361453  0.885497  0.765454  1
  O  O18  1  0.837326  0.813496  0.712760  1
  O  O19  1  0.306726  0.520038  0.569875  1
  O  O20  1  0.695598  0.465191  0.421944  1
  O  O21  1  0.112021  0.161593  0.279090  1
  O  O22  1  0.660962  0.115852  0.212002  1
  O  O23  1  0.994260  0.800048  0.440345  1
  O  O24  1  0.620876  0.758772  0.375295  1
  O  O25  1  0.250938  0.769065  0.261868  1
  O  O26  1  0.902786  0.449058  0.187409  1
  O  O27  1  0.502721  0.314534  0.061622  1
  O  O28  1  0.891492  0.730247  0.078623  1
