# generated using pymatgen
data_Li4V3Cr5O16
_symmetry_space_group_name_H-M   'P 1'
_cell_length_a   5.86856340
_cell_length_b   5.86856340
_cell_length_c   9.53334528
_cell_angle_alpha   89.30137581
_cell_angle_beta   90.69862419
_cell_angle_gamma   119.47545117
_symmetry_Int_Tables_number   1
_chemical_formula_structural   Li4V3Cr5O16
_chemical_formula_sum   'Li4 V3 Cr5 O16'
_cell_volume   285.80356824
_cell_formula_units_Z   1
loop_
 _symmetry_equiv_pos_site_id
 _symmetry_equiv_pos_as_xyz
  1  'x, y, z'
loop_
 _atom_site_type_symbol
 _atom_site_label
 _atom_site_symmetry_multiplicity
 _atom_site_fract_x
 _atom_site_fract_y
 _atom_site_fract_z
 _atom_site_occupancy
  Li  Li0  1  0.332650  0.667350  0.891591  1
  Li  Li1  1  0.998286  0.001714  0.996977  1
  Li  Li2  1  0.002613  0.997387  0.495706  1
  Li  Li3  1  0.664034  0.335966  0.391294  1
  V  V4  1  0.832158  0.661705  0.712750  1
  V  V5  1  0.170300  0.829700  0.211177  1
  V  V6  1  0.338295  0.167842  0.712750  1
  Cr  Cr7  1  0.660984  0.831259  0.213984  1
  Cr  Cr8  1  0.335755  0.664245  0.483758  1
  Cr  Cr9  1  0.168741  0.339016  0.213984  1
  Cr  Cr10  1  0.830903  0.169097  0.714188  1
  Cr  Cr11  1  0.669834  0.330166  0.984577  1
  O  O12  1  0.675914  0.823824  0.603692  1
  O  O13  1  0.479743  0.520257  0.340655  1
  O  O14  1  0.323044  0.676956  0.103115  1
  O  O15  1  0.007195  0.992805  0.309927  1
  O  O16  1  0.003969  0.996031  0.812553  1
  O  O17  1  0.176176  0.324086  0.603692  1
  O  O18  1  0.466729  0.958811  0.338531  1
  O  O19  1  0.041189  0.533271  0.338531  1
  O  O20  1  0.838754  0.161246  0.097959  1
  O  O21  1  0.167786  0.832214  0.607840  1
  O  O22  1  0.959055  0.487340  0.837812  1
  O  O23  1  0.512660  0.040945  0.837812  1
  O  O24  1  0.663513  0.336487  0.602029  1
  O  O25  1  0.850586  0.670863  0.106585  1
  O  O26  1  0.518952  0.481048  0.838503  1
  O  O27  1  0.329137  0.149414  0.106585  1
