# generated using pymatgen
data_Ba2SrI6
_symmetry_space_group_name_H-M   'P 1'
_cell_length_a   7.79405308
_cell_length_b   8.67870091
_cell_length_c   28.69450969
_cell_angle_alpha   90.00000000
_cell_angle_beta   90.00000000
_cell_angle_gamma   90.00000000
_symmetry_Int_Tables_number   1
_chemical_formula_structural   Ba2SrI6
_chemical_formula_sum   'Ba8 Sr4 I24'
_cell_volume   1940.96135756
_cell_formula_units_Z   4
loop_
 _symmetry_equiv_pos_site_id
 _symmetry_equiv_pos_as_xyz
  1  'x, y, z'
loop_
 _atom_site_type_symbol
 _atom_site_label
 _atom_site_symmetry_multiplicity
 _atom_site_fract_x
 _atom_site_fract_y
 _atom_site_fract_z
 _atom_site_occupancy
  Ba  Ba0  1  0.000000  0.750000  0.049513  1
  Ba  Ba1  1  0.000000  0.250000  0.283854  1
  Ba  Ba2  1  0.000000  0.750000  0.716146  1
  Ba  Ba3  1  0.000000  0.250000  0.950487  1
  Ba  Ba4  1  0.500000  0.750000  0.216146  1
  Ba  Ba5  1  0.500000  0.750000  0.549513  1
  Ba  Ba6  1  0.500000  0.250000  0.783854  1
  Ba  Ba7  1  0.500000  0.250000  0.450487  1
  Sr  Sr8  1  0.000000  0.750000  0.383442  1
  Sr  Sr9  1  0.000000  0.250000  0.616558  1
  Sr  Sr10  1  0.500000  0.750000  0.883442  1
  Sr  Sr11  1  0.500000  0.250000  0.116558  1
  I  I12  1  0.756081  0.416211  0.038949  1
  I  I13  1  0.756081  0.916211  0.961051  1
  I  I14  1  0.735697  0.414934  0.199661  1
  I  I15  1  0.735697  0.914934  0.800339  1
  I  I16  1  0.767599  0.434670  0.371554  1
  I  I17  1  0.767599  0.934670  0.628446  1
  I  I18  1  0.732401  0.434670  0.871554  1
  I  I19  1  0.732401  0.934670  0.128446  1
  I  I20  1  0.764303  0.914934  0.300339  1
  I  I21  1  0.764303  0.414934  0.699661  1
  I  I22  1  0.743919  0.916211  0.461051  1
  I  I23  1  0.743919  0.416211  0.538949  1
  I  I24  1  0.256081  0.583789  0.461051  1
  I  I25  1  0.256081  0.083789  0.538949  1
  I  I26  1  0.235697  0.585066  0.300339  1
  I  I27  1  0.235697  0.085066  0.699661  1
  I  I28  1  0.267599  0.565330  0.128446  1
  I  I29  1  0.267599  0.065330  0.871554  1
  I  I30  1  0.232401  0.565330  0.628446  1
  I  I31  1  0.232401  0.065330  0.371554  1
  I  I32  1  0.264303  0.085066  0.199661  1
  I  I33  1  0.264303  0.585066  0.800339  1
  I  I34  1  0.243919  0.083789  0.038949  1
  I  I35  1  0.243919  0.583789  0.961051  1
