# generated using pymatgen
data_LiMnF4
_symmetry_space_group_name_H-M   'P 1'
_cell_length_a   4.69577284
_cell_length_b   5.81727805
_cell_length_c   10.17431244
_cell_angle_alpha   90.00000000
_cell_angle_beta   90.00000000
_cell_angle_gamma   90.00000000
_symmetry_Int_Tables_number   1
_chemical_formula_structural   LiMnF4
_chemical_formula_sum   'Li4 Mn4 F16'
_cell_volume   277.92778873
_cell_formula_units_Z   4
loop_
 _symmetry_equiv_pos_site_id
 _symmetry_equiv_pos_as_xyz
  1  'x, y, z'
loop_
 _atom_site_type_symbol
 _atom_site_label
 _atom_site_symmetry_multiplicity
 _atom_site_fract_x
 _atom_site_fract_y
 _atom_site_fract_z
 _atom_site_occupancy
  Li  Li0  1  0.500000  0.837089  0.250000  1
  Li  Li1  1  0.500000  0.162911  0.750000  1
  Li  Li2  1  0.000000  0.337089  0.250000  1
  Li  Li3  1  0.000000  0.662911  0.750000  1
  Mn  Mn4  1  0.500000  0.500000  0.000000  1
  Mn  Mn5  1  0.500000  0.500000  0.500000  1
  Mn  Mn6  1  0.000000  0.000000  0.000000  1
  Mn  Mn7  1  0.000000  0.000000  0.500000  1
  F  F8  1  0.738864  0.205962  0.582989  1
  F  F9  1  0.738864  0.794038  0.082989  1
  F  F10  1  0.710140  0.532090  0.345700  1
  F  F11  1  0.710140  0.467910  0.845700  1
  F  F12  1  0.789860  0.032090  0.345700  1
  F  F13  1  0.789860  0.967910  0.845700  1
  F  F14  1  0.761136  0.294038  0.082989  1
  F  F15  1  0.761136  0.705962  0.582989  1
  F  F16  1  0.238864  0.294038  0.417011  1
  F  F17  1  0.238864  0.705962  0.917011  1
  F  F18  1  0.210140  0.032090  0.154300  1
  F  F19  1  0.210140  0.967910  0.654300  1
  F  F20  1  0.289860  0.467910  0.654300  1
  F  F21  1  0.289860  0.532090  0.154300  1
  F  F22  1  0.261136  0.794038  0.417011  1
  F  F23  1  0.261136  0.205962  0.917011  1
