# generated using pymatgen
data_Ni3OF5
_symmetry_space_group_name_H-M   'P 1'
_cell_length_a   4.69517942
_cell_length_b   3.09224314
_cell_length_c   14.08967361
_cell_angle_alpha   90.00000000
_cell_angle_beta   91.03443579
_cell_angle_gamma   90.00000000
_symmetry_Int_Tables_number   1
_chemical_formula_structural   Ni3OF5
_chemical_formula_sum   'Ni6 O2 F10'
_cell_volume   204.52950898
_cell_formula_units_Z   2
loop_
 _symmetry_equiv_pos_site_id
 _symmetry_equiv_pos_as_xyz
  1  'x, y, z'
loop_
 _atom_site_type_symbol
 _atom_site_label
 _atom_site_symmetry_multiplicity
 _atom_site_fract_x
 _atom_site_fract_y
 _atom_site_fract_z
 _atom_site_occupancy
  Ni  Ni0  1  0.000000  0.000000  0.000000  1
  Ni  Ni1  1  0.009713  0.000000  0.668985  1
  Ni  Ni2  1  0.990287  0.000000  0.331015  1
  Ni  Ni3  1  0.486932  0.500000  0.829331  1
  Ni  Ni4  1  0.500000  0.500000  0.500000  1
  Ni  Ni5  1  0.513068  0.500000  0.170669  1
  O  O6  1  0.698740  0.000000  0.232898  1
  O  O7  1  0.301260  0.000000  0.767102  1
  F  F8  1  0.802205  0.500000  0.731306  1
  F  F9  1  0.804247  0.500000  0.400589  1
  F  F10  1  0.802642  0.500000  0.064728  1
  F  F11  1  0.695096  0.000000  0.896883  1
  F  F12  1  0.698750  0.000000  0.567390  1
  F  F13  1  0.301250  0.000000  0.432610  1
  F  F14  1  0.304904  0.000000  0.103117  1
  F  F15  1  0.197358  0.500000  0.935272  1
  F  F16  1  0.195753  0.500000  0.599411  1
  F  F17  1  0.197795  0.500000  0.268694  1
