# generated using pymatgen
data_Zn(AgO2)2
_symmetry_space_group_name_H-M   'P 1'
_cell_length_a   8.03135638
_cell_length_b   6.56650400
_cell_length_c   6.31335754
_cell_angle_alpha   77.12527027
_cell_angle_beta   52.84962876
_cell_angle_gamma   50.02510097
_symmetry_Int_Tables_number   1
_chemical_formula_structural   Zn(AgO2)2
_chemical_formula_sum   'Zn2 Ag4 O8'
_cell_volume   195.79283969
_cell_formula_units_Z   2
loop_
 _symmetry_equiv_pos_site_id
 _symmetry_equiv_pos_as_xyz
  1  'x, y, z'
loop_
 _atom_site_type_symbol
 _atom_site_label
 _atom_site_symmetry_multiplicity
 _atom_site_fract_x
 _atom_site_fract_y
 _atom_site_fract_z
 _atom_site_occupancy
  Zn  Zn0  1  0.750000  0.750000  0.750000  1
  Zn  Zn1  1  0.500000  0.500000  0.500000  1
  Ag  Ag2  1  0.383203  0.383203  0.116797  1
  Ag  Ag3  1  0.133203  0.133203  0.866797  1
  Ag  Ag4  1  0.116797  0.116797  0.383203  1
  Ag  Ag5  1  0.866797  0.866797  0.133203  1
  O  O6  1  0.879534  0.373535  0.759813  1
  O  O7  1  0.262882  0.490187  0.876465  1
  O  O8  1  0.759813  0.987118  0.879534  1
  O  O9  1  0.373535  0.879534  0.987118  1
  O  O10  1  0.490187  0.262882  0.370466  1
  O  O11  1  0.876465  0.370466  0.262882  1
  O  O12  1  0.987118  0.759813  0.373535  1
  O  O13  1  0.370466  0.876465  0.490187  1
