# generated using pymatgen
data_MgV3O8
_symmetry_space_group_name_H-M   'P 1'
_cell_length_a   7.84791061
_cell_length_b   8.68544589
_cell_length_c   10.56447851
_cell_angle_alpha   90.00000000
_cell_angle_beta   119.87950745
_cell_angle_gamma   90.00000000
_symmetry_Int_Tables_number   1
_chemical_formula_structural   MgV3O8
_chemical_formula_sum   'Mg4 V12 O32'
_cell_volume   624.38273688
_cell_formula_units_Z   4
loop_
 _symmetry_equiv_pos_site_id
 _symmetry_equiv_pos_as_xyz
  1  'x, y, z'
loop_
 _atom_site_type_symbol
 _atom_site_label
 _atom_site_symmetry_multiplicity
 _atom_site_fract_x
 _atom_site_fract_y
 _atom_site_fract_z
 _atom_site_occupancy
  Mg  Mg0  1  0.293199  0.315417  0.614222  1
  Mg  Mg1  1  0.293199  0.184583  0.114222  1
  Mg  Mg2  1  0.706801  0.815417  0.885778  1
  Mg  Mg3  1  0.706801  0.684583  0.385778  1
  V  V4  1  0.773903  0.005515  0.621921  1
  V  V5  1  0.706885  0.003272  0.180883  1
  V  V6  1  0.733623  0.320427  0.396524  1
  V  V7  1  0.293115  0.503272  0.319117  1
  V  V8  1  0.733623  0.179573  0.896524  1
  V  V9  1  0.773903  0.494485  0.121921  1
  V  V10  1  0.226097  0.505515  0.878079  1
  V  V11  1  0.266377  0.820427  0.103476  1
  V  V12  1  0.706885  0.496728  0.680883  1
  V  V13  1  0.266377  0.679573  0.603476  1
  V  V14  1  0.293115  0.996728  0.819117  1
  V  V15  1  0.226097  0.994485  0.378079  1
  O  O16  1  0.316978  0.994853  0.997090  1
  O  O17  1  0.039797  0.006930  0.701241  1
  O  O18  1  0.387851  0.157224  0.783187  1
  O  O19  1  0.978366  0.306441  0.486639  1
  O  O20  1  0.300291  0.154896  0.477626  1
  O  O21  1  0.691351  0.165342  0.514771  1
  O  O22  1  0.288653  0.996269  0.237549  1
  O  O23  1  0.316978  0.505147  0.497090  1
  O  O24  1  0.387851  0.342776  0.283187  1
  O  O25  1  0.626549  0.169041  0.229050  1
  O  O26  1  0.978366  0.193559  0.986639  1
  O  O27  1  0.039797  0.493070  0.201241  1
  O  O28  1  0.683022  0.005147  0.002910  1
  O  O29  1  0.373451  0.669041  0.270950  1
  O  O30  1  0.711347  0.496269  0.262451  1
  O  O31  1  0.300291  0.345104  0.977626  1
  O  O32  1  0.691351  0.334658  0.014771  1
  O  O33  1  0.021634  0.806441  0.013361  1
  O  O34  1  0.308649  0.665342  0.985229  1
  O  O35  1  0.699709  0.654896  0.022374  1
  O  O36  1  0.288653  0.503731  0.737549  1
  O  O37  1  0.626549  0.330959  0.729049  1
  O  O38  1  0.960203  0.506930  0.798759  1
  O  O39  1  0.373451  0.830959  0.770950  1
  O  O40  1  0.612149  0.657224  0.716813  1
  O  O41  1  0.021634  0.693559  0.513361  1
  O  O42  1  0.683022  0.494853  0.502910  1
  O  O43  1  0.711347  0.003731  0.762451  1
  O  O44  1  0.308649  0.834658  0.485229  1
  O  O45  1  0.699709  0.845104  0.522374  1
  O  O46  1  0.612149  0.842776  0.216813  1
  O  O47  1  0.960203  0.993070  0.298759  1
