# generated using pymatgen
data_Li2VO2F
_symmetry_space_group_name_H-M   'P 1'
_cell_length_a   2.97606104
_cell_length_b   2.97606104
_cell_length_c   14.51800278
_cell_angle_alpha   90.00000000
_cell_angle_beta   90.00000000
_cell_angle_gamma   120.00000000
_symmetry_Int_Tables_number   1
_chemical_formula_structural   Li2VO2F
_chemical_formula_sum   'Li4 V2 O4 F2'
_cell_volume   111.35793669
_cell_formula_units_Z   2
loop_
 _symmetry_equiv_pos_site_id
 _symmetry_equiv_pos_as_xyz
  1  'x, y, z'
loop_
 _atom_site_type_symbol
 _atom_site_label
 _atom_site_symmetry_multiplicity
 _atom_site_fract_x
 _atom_site_fract_y
 _atom_site_fract_z
 _atom_site_occupancy
  Li  Li0  1  0.333333  0.666667  0.661460  1
  Li  Li1  1  0.000000  0.000000  0.000000  1
  Li  Li2  1  0.000000  0.000000  0.500000  1
  Li  Li3  1  0.666667  0.333333  0.338540  1
  V  V4  1  0.333333  0.666667  0.168646  1
  V  V5  1  0.666667  0.333333  0.831354  1
  O  O6  1  0.333333  0.666667  0.909143  1
  O  O7  1  0.000000  0.000000  0.753577  1
  O  O8  1  0.000000  0.000000  0.246423  1
  O  O9  1  0.666667  0.333333  0.090857  1
  F  F10  1  0.333333  0.666667  0.419000  1
  F  F11  1  0.666667  0.333333  0.581000  1
