# generated using pymatgen
data_Na2MnBPO7
_symmetry_space_group_name_H-M   'P 1'
_cell_length_a   5.33580132
_cell_length_b   6.39546684
_cell_length_c   9.10274131
_cell_angle_alpha   90.00000000
_cell_angle_beta   92.19009594
_cell_angle_gamma   90.00000000
_symmetry_Int_Tables_number   1
_chemical_formula_structural   Na2MnBPO7
_chemical_formula_sum   'Na4 Mn2 B2 P2 O14'
_cell_volume   310.40360057
_cell_formula_units_Z   2
loop_
 _symmetry_equiv_pos_site_id
 _symmetry_equiv_pos_as_xyz
  1  'x, y, z'
loop_
 _atom_site_type_symbol
 _atom_site_label
 _atom_site_symmetry_multiplicity
 _atom_site_fract_x
 _atom_site_fract_y
 _atom_site_fract_z
 _atom_site_occupancy
  Na  Na0  1  0.762334  0.995820  0.225276  1
  Na  Na1  1  0.762334  0.504180  0.225276  1
  Na  Na2  1  0.237666  0.495820  0.774724  1
  Na  Na3  1  0.237666  0.004180  0.774724  1
  Mn  Mn4  1  0.220001  0.250000  0.344590  1
  Mn  Mn5  1  0.779999  0.750000  0.655410  1
  B  B6  1  0.272058  0.250000  0.081436  1
  B  B7  1  0.727942  0.750000  0.918564  1
  P  P8  1  0.280433  0.750000  0.432651  1
  P  P9  1  0.719567  0.250000  0.567349  1
  O  O10  1  0.696875  0.750000  0.060501  1
  O  O11  1  0.044046  0.250000  0.154303  1
  O  O12  1  0.463248  0.250000  0.194712  1
  O  O13  1  0.208425  0.941831  0.335028  1
  O  O14  1  0.208425  0.558169  0.335028  1
  O  O15  1  0.867534  0.250000  0.425103  1
  O  O16  1  0.568567  0.750000  0.469357  1
  O  O17  1  0.431433  0.250000  0.530643  1
  O  O18  1  0.132466  0.750000  0.574897  1
  O  O19  1  0.791575  0.441831  0.664972  1
  O  O20  1  0.791575  0.058169  0.664972  1
  O  O21  1  0.536752  0.750000  0.805288  1
  O  O22  1  0.955954  0.750000  0.845697  1
  O  O23  1  0.303125  0.250000  0.939499  1
