# generated using pymatgen
data_FeCoO4
_symmetry_space_group_name_H-M   'P 1'
_cell_length_a   4.33764564
_cell_length_b   5.46903432
_cell_length_c   4.88995115
_cell_angle_alpha   90.00000000
_cell_angle_beta   92.66988647
_cell_angle_gamma   90.00000000
_symmetry_Int_Tables_number   1
_chemical_formula_structural   FeCoO4
_chemical_formula_sum   'Fe2 Co2 O8'
_cell_volume   115.87708302
_cell_formula_units_Z   2
loop_
 _symmetry_equiv_pos_site_id
 _symmetry_equiv_pos_as_xyz
  1  'x, y, z'
loop_
 _atom_site_type_symbol
 _atom_site_label
 _atom_site_symmetry_multiplicity
 _atom_site_fract_x
 _atom_site_fract_y
 _atom_site_fract_z
 _atom_site_occupancy
  Fe  Fe0  1  0.000000  0.155069  0.250000  1
  Fe  Fe1  1  0.000000  0.844931  0.750000  1
  Co  Co2  1  0.500000  0.639039  0.250000  1
  Co  Co3  1  0.500000  0.360961  0.750000  1
  O  O4  1  0.243780  0.876183  0.089962  1
  O  O5  1  0.275026  0.392063  0.070155  1
  O  O6  1  0.724974  0.392063  0.429845  1
  O  O7  1  0.756220  0.876183  0.410038  1
  O  O8  1  0.243780  0.123817  0.589962  1
  O  O9  1  0.275026  0.607937  0.570155  1
  O  O10  1  0.724974  0.607937  0.929845  1
  O  O11  1  0.756220  0.123817  0.910038  1
