# generated using pymatgen
data_Na3NiPCO7
_symmetry_space_group_name_H-M   'P 1'
_cell_length_a   5.21257148
_cell_length_b   6.67867519
_cell_length_c   8.84798783
_cell_angle_alpha   90.00000000
_cell_angle_beta   91.69269199
_cell_angle_gamma   90.00000000
_symmetry_Int_Tables_number   1
_chemical_formula_structural   Na3NiPCO7
_chemical_formula_sum   'Na6 Ni2 P2 C2 O14'
_cell_volume   307.89122437
_cell_formula_units_Z   2
loop_
 _symmetry_equiv_pos_site_id
 _symmetry_equiv_pos_as_xyz
  1  'x, y, z'
loop_
 _atom_site_type_symbol
 _atom_site_label
 _atom_site_symmetry_multiplicity
 _atom_site_fract_x
 _atom_site_fract_y
 _atom_site_fract_z
 _atom_site_occupancy
  Na  Na0  1  0.777184  0.250000  0.914621  1
  Na  Na1  1  0.260330  0.009507  0.724847  1
  Na  Na2  1  0.260330  0.490493  0.724847  1
  Na  Na3  1  0.739670  0.990493  0.275153  1
  Na  Na4  1  0.739670  0.509507  0.275153  1
  Na  Na5  1  0.222816  0.750000  0.085379  1
  Ni  Ni6  1  0.777011  0.750000  0.656363  1
  Ni  Ni7  1  0.222989  0.250000  0.343637  1
  P  P8  1  0.722156  0.250000  0.581648  1
  P  P9  1  0.277844  0.750000  0.418352  1
  C  C10  1  0.709246  0.750000  0.939903  1
  C  C11  1  0.290754  0.250000  0.060097  1
  O  O12  1  0.937190  0.750000  0.883968  1
  O  O13  1  0.322921  0.250000  0.916300  1
  O  O14  1  0.513525  0.750000  0.844312  1
  O  O15  1  0.793096  0.064918  0.681523  1
  O  O16  1  0.793096  0.435082  0.681523  1
  O  O17  1  0.135466  0.750000  0.568749  1
  O  O18  1  0.426937  0.250000  0.545477  1
  O  O19  1  0.573063  0.750000  0.454523  1
  O  O20  1  0.864534  0.250000  0.431251  1
  O  O21  1  0.206904  0.564918  0.318477  1
  O  O22  1  0.206904  0.935082  0.318477  1
  O  O23  1  0.486475  0.250000  0.155688  1
  O  O24  1  0.677079  0.750000  0.083700  1
  O  O25  1  0.062810  0.250000  0.116032  1
