# generated using pymatgen
data_SrCaI4
_symmetry_space_group_name_H-M   'P 1'
_cell_length_a   9.53986752
_cell_length_b   7.71386197
_cell_length_c   18.10111021
_cell_angle_alpha   90.00000000
_cell_angle_beta   120.01874757
_cell_angle_gamma   90.00000000
_symmetry_Int_Tables_number   1
_chemical_formula_structural   SrCaI4
_chemical_formula_sum   'Sr4 Ca4 I16'
_cell_volume   1153.36820945
_cell_formula_units_Z   4
loop_
 _symmetry_equiv_pos_site_id
 _symmetry_equiv_pos_as_xyz
  1  'x, y, z'
loop_
 _atom_site_type_symbol
 _atom_site_label
 _atom_site_symmetry_multiplicity
 _atom_site_fract_x
 _atom_site_fract_y
 _atom_site_fract_z
 _atom_site_occupancy
  Sr  Sr0  1  0.248735  0.392463  0.629226  1
  Sr  Sr1  1  0.248735  0.107537  0.129226  1
  Sr  Sr2  1  0.751265  0.892463  0.870774  1
  Sr  Sr3  1  0.751265  0.607537  0.370774  1
  Ca  Ca4  1  0.244835  0.075308  0.870612  1
  Ca  Ca5  1  0.244835  0.424692  0.370612  1
  Ca  Ca6  1  0.755165  0.575308  0.629388  1
  Ca  Ca7  1  0.755165  0.924692  0.129388  1
  I  I8  1  0.989857  0.240862  0.686547  1
  I  I9  1  0.989857  0.259138  0.186547  1
  I  I10  1  0.998800  0.726859  0.571586  1
  I  I11  1  0.998800  0.773141  0.071586  1
  I  I12  1  0.492416  0.225743  0.817976  1
  I  I13  1  0.490958  0.268194  0.555760  1
  I  I14  1  0.492416  0.274257  0.317976  1
  I  I15  1  0.509042  0.768194  0.944240  1
  I  I16  1  0.490958  0.231806  0.055760  1
  I  I17  1  0.507584  0.725743  0.682024  1
  I  I18  1  0.509042  0.731806  0.444240  1
  I  I19  1  0.507584  0.774257  0.182024  1
  I  I20  1  0.001200  0.226859  0.928414  1
  I  I21  1  0.001200  0.273141  0.428414  1
  I  I22  1  0.010143  0.740862  0.813453  1
  I  I23  1  0.010143  0.759138  0.313453  1
