# generated using pymatgen
data_Li2VF4
_symmetry_space_group_name_H-M   'P 1'
_cell_length_a   5.26094604
_cell_length_b   3.19269007
_cell_length_c   10.68317750
_cell_angle_alpha   90.00000000
_cell_angle_beta   114.46293719
_cell_angle_gamma   90.00000000
_symmetry_Int_Tables_number   1
_chemical_formula_structural   Li2VF4
_chemical_formula_sum   'Li4 V2 F8'
_cell_volume   163.33222546
_cell_formula_units_Z   2
loop_
 _symmetry_equiv_pos_site_id
 _symmetry_equiv_pos_as_xyz
  1  'x, y, z'
loop_
 _atom_site_type_symbol
 _atom_site_label
 _atom_site_symmetry_multiplicity
 _atom_site_fract_x
 _atom_site_fract_y
 _atom_site_fract_z
 _atom_site_occupancy
  Li  Li0  1  0.164395  0.079061  0.425544  1
  Li  Li1  1  0.835605  0.920939  0.574456  1
  Li  Li2  1  0.164395  0.920939  0.925544  1
  Li  Li3  1  0.835605  0.079061  0.074456  1
  V  V4  1  0.500000  0.565341  0.250000  1
  V  V5  1  0.500000  0.434659  0.750000  1
  F  F6  1  0.244595  0.058528  0.123340  1
  F  F7  1  0.755405  0.058528  0.376660  1
  F  F8  1  0.268380  0.580491  0.368843  1
  F  F9  1  0.244595  0.941472  0.623340  1
  F  F10  1  0.755405  0.941472  0.876660  1
  F  F11  1  0.731620  0.419509  0.631157  1
  F  F12  1  0.268380  0.419509  0.868843  1
  F  F13  1  0.731620  0.580491  0.131157  1
