# generated using pymatgen
data_CoP4O11
_symmetry_space_group_name_H-M   'P 1'
_cell_length_a   8.28816248
_cell_length_b   12.47192257
_cell_length_c   11.27092787
_cell_angle_alpha   90.00000000
_cell_angle_beta   130.93612225
_cell_angle_gamma   90.00000000
_symmetry_Int_Tables_number   1
_chemical_formula_structural   CoP4O11
_chemical_formula_sum   'Co4 P16 O44'
_cell_volume   880.13971354
_cell_formula_units_Z   4
loop_
 _symmetry_equiv_pos_site_id
 _symmetry_equiv_pos_as_xyz
  1  'x, y, z'
loop_
 _atom_site_type_symbol
 _atom_site_label
 _atom_site_symmetry_multiplicity
 _atom_site_fract_x
 _atom_site_fract_y
 _atom_site_fract_z
 _atom_site_occupancy
  Co  Co0  1  0.493208  0.467612  0.265656  1
  Co  Co1  1  0.506792  0.967612  0.234344  1
  Co  Co2  1  0.493208  0.032388  0.765656  1
  Co  Co3  1  0.506792  0.532388  0.734344  1
  P  P4  1  0.501674  0.211535  0.397196  1
  P  P5  1  0.849871  0.165133  0.734520  1
  P  P6  1  0.839265  0.496189  0.659364  1
  P  P7  1  0.848773  0.847552  0.598562  1
  P  P8  1  0.151227  0.347552  0.901438  1
  P  P9  1  0.160735  0.996189  0.840636  1
  P  P10  1  0.498326  0.711535  0.102804  1
  P  P11  1  0.150129  0.665133  0.765480  1
  P  P12  1  0.849871  0.334867  0.234520  1
  P  P13  1  0.501674  0.288465  0.897196  1
  P  P14  1  0.839265  0.003811  0.159364  1
  P  P15  1  0.848773  0.652448  0.098562  1
  P  P16  1  0.151227  0.152448  0.401438  1
  P  P17  1  0.160735  0.503811  0.340636  1
  P  P18  1  0.150129  0.834867  0.265480  1
  P  P19  1  0.498326  0.788465  0.602804  1
  O  O20  1  0.277923  0.898863  0.244692  1
  O  O21  1  0.710179  0.469499  0.703809  1
  O  O22  1  0.668013  0.780905  0.573242  1
  O  O23  1  0.500832  0.101965  0.346173  1
  O  O24  1  0.469016  0.310144  0.311143  1
  O  O25  1  0.216913  0.417505  0.031156  1
  O  O26  1  0.723114  0.232936  0.578744  1
  O  O27  1  0.989771  0.255058  0.867940  1
  O  O28  1  0.969756  0.905463  0.762389  1
  O  O29  1  0.985882  0.600778  0.765630  1
  O  O30  1  0.750552  0.512664  0.495620  1
  O  O31  1  0.249448  0.012664  0.004380  1
  O  O32  1  0.014118  0.100778  0.734370  1
  O  O33  1  0.783087  0.917505  0.468844  1
  O  O34  1  0.530984  0.810144  0.188857  1
  O  O35  1  0.030244  0.405463  0.737611  1
  O  O36  1  0.499168  0.601965  0.153827  1
  O  O37  1  0.010229  0.755058  0.632060  1
  O  O38  1  0.276886  0.732936  0.921256  1
  O  O39  1  0.331987  0.280905  0.926758  1
  O  O40  1  0.722077  0.398863  0.255308  1
  O  O41  1  0.710179  0.030501  0.203809  1
  O  O42  1  0.289821  0.969499  0.796191  1
  O  O43  1  0.277923  0.601137  0.744692  1
  O  O44  1  0.668013  0.719095  0.073242  1
  O  O45  1  0.723114  0.267064  0.078744  1
  O  O46  1  0.989771  0.244942  0.367940  1
  O  O47  1  0.500832  0.398035  0.846173  1
  O  O48  1  0.969756  0.594537  0.262389  1
  O  O49  1  0.469016  0.189856  0.811143  1
  O  O50  1  0.216913  0.082495  0.531156  1
  O  O51  1  0.985882  0.899222  0.265630  1
  O  O52  1  0.750552  0.987336  0.995620  1
  O  O53  1  0.249448  0.487336  0.504380  1
  O  O54  1  0.014118  0.399222  0.234370  1
  O  O55  1  0.030244  0.094537  0.237611  1
  O  O56  1  0.010229  0.744942  0.132060  1
  O  O57  1  0.276886  0.767064  0.421256  1
  O  O58  1  0.783087  0.582495  0.968844  1
  O  O59  1  0.530984  0.689856  0.688857  1
  O  O60  1  0.499168  0.898035  0.653827  1
  O  O61  1  0.331987  0.219095  0.426758  1
  O  O62  1  0.289821  0.530501  0.296191  1
  O  O63  1  0.722077  0.101137  0.755308  1
