# generated using pymatgen
data_Co4OF11
_symmetry_space_group_name_H-M   'P 1'
_cell_length_a   5.06705939
_cell_length_b   5.35041435
_cell_length_c   7.26404977
_cell_angle_alpha   93.76144796
_cell_angle_beta   90.88190649
_cell_angle_gamma   90.06689311
_symmetry_Int_Tables_number   1
_chemical_formula_structural   Co4OF11
_chemical_formula_sum   'Co4 O1 F11'
_cell_volume   196.48671325
_cell_formula_units_Z   1
loop_
 _symmetry_equiv_pos_site_id
 _symmetry_equiv_pos_as_xyz
  1  'x, y, z'
loop_
 _atom_site_type_symbol
 _atom_site_label
 _atom_site_symmetry_multiplicity
 _atom_site_fract_x
 _atom_site_fract_y
 _atom_site_fract_z
 _atom_site_occupancy
  Co  Co0  1  0.496110  0.499547  0.993757  1
  Co  Co1  1  0.998774  0.999939  0.999824  1
  Co  Co2  1  0.490967  0.498779  0.513008  1
  Co  Co3  1  0.996705  0.999182  0.499542  1
  O  O4  1  0.406957  0.502864  0.759316  1
  F  F5  1  0.881877  0.000997  0.253372  1
  F  F6  1  0.197237  0.312008  0.056666  1
  F  F7  1  0.605955  0.500072  0.240918  1
  F  F8  1  0.299328  0.815732  0.057826  1
  F  F9  1  0.809119  0.316341  0.556274  1
  F  F10  1  0.308587  0.188220  0.440885  1
  F  F11  1  0.689525  0.811995  0.562348  1
  F  F12  1  0.192964  0.684191  0.440308  1
  F  F13  1  0.700876  0.182587  0.938131  1
  F  F14  1  0.803101  0.688642  0.941981  1
  F  F15  1  0.121919  0.998903  0.745844  1
