# generated using pymatgen
data_Li24Mn7Cr5O36
_symmetry_space_group_name_H-M   'P 1'
_cell_length_a   5.00586538
_cell_length_b   5.01038645
_cell_length_c   28.82816477
_cell_angle_alpha   90.19122159
_cell_angle_beta   90.27878608
_cell_angle_gamma   119.65665450
_symmetry_Int_Tables_number   1
_chemical_formula_structural   Li24Mn7Cr5O36
_chemical_formula_sum   'Li24 Mn7 Cr5 O36'
_cell_volume   628.31231883
_cell_formula_units_Z   1
loop_
 _symmetry_equiv_pos_site_id
 _symmetry_equiv_pos_as_xyz
  1  'x, y, z'
loop_
 _atom_site_type_symbol
 _atom_site_label
 _atom_site_symmetry_multiplicity
 _atom_site_fract_x
 _atom_site_fract_y
 _atom_site_fract_z
 _atom_site_occupancy
  Li  Li0  1  0.166107  0.666679  0.666723  1
  Li  Li1  1  0.166739  0.666572  0.916657  1
  Li  Li2  1  0.495231  0.669844  0.833274  1
  Li  Li3  1  0.833954  0.335544  0.333327  1
  Li  Li4  1  0.831311  0.335186  0.583348  1
  Li  Li5  1  0.832561  0.333053  0.833425  1
  Li  Li6  1  0.163810  0.339722  0.499845  1
  Li  Li7  1  0.498870  0.999483  0.999876  1
  Li  Li8  1  0.498816  0.997448  0.249995  1
  Li  Li9  1  0.499942  0.000947  0.500015  1
  Li  Li10  1  0.837965  0.661037  0.999721  1
  Li  Li11  1  0.826162  0.000620  0.166510  1
  Li  Li12  1  0.167170  0.668084  0.166649  1
  Li  Li13  1  0.826235  0.002641  0.666861  1
  Li  Li14  1  0.508177  0.329470  0.666594  1
  Li  Li15  1  0.496995  0.673046  0.333449  1
  Li  Li16  1  0.169572  0.992118  0.333224  1
  Li  Li17  1  0.171959  0.996536  0.833597  1
  Li  Li18  1  0.163664  0.339194  0.999998  1
  Li  Li19  1  0.500080  0.002812  0.750039  1
  Li  Li20  1  0.837189  0.658665  0.500159  1
  Li  Li21  1  0.164191  0.667411  0.416676  1
  Li  Li22  1  0.507086  0.331227  0.166822  1
  Li  Li23  1  0.831723  0.335567  0.083297  1
  Mn  Mn24  1  0.167688  0.333211  0.749998  1
  Mn  Mn25  1  0.833638  0.999008  0.416693  1
  Mn  Mn26  1  0.499443  0.333935  0.916676  1
  Mn  Mn27  1  0.500911  0.665991  0.083283  1
  Mn  Mn28  1  0.832432  0.666526  0.250011  1
  Mn  Mn29  1  0.833630  0.999563  0.916677  1
  Mn  Mn30  1  0.500658  0.665869  0.583309  1
  Cr  Cr31  1  0.832358  0.671686  0.750018  1
  Cr  Cr32  1  0.495629  0.335514  0.416678  1
  Cr  Cr33  1  0.163789  0.004030  0.083331  1
  Cr  Cr34  1  0.162928  0.003838  0.583307  1
  Cr  Cr35  1  0.165391  0.327822  0.250012  1
  O  O36  1  0.139445  0.639818  0.787874  1
  O  O37  1  0.858591  0.355756  0.711823  1
  O  O38  1  0.810129  0.307694  0.454739  1
  O  O39  1  0.525208  0.667947  0.953819  1
  O  O40  1  0.500796  0.638441  0.712807  1
  O  O41  1  0.526363  0.026605  0.378729  1
  O  O42  1  0.808267  0.665803  0.879402  1
  O  O43  1  0.474934  0.974068  0.121289  1
  O  O44  1  0.194061  0.332175  0.620428  1
  O  O45  1  0.166455  0.306396  0.379375  1
  O  O46  1  0.165157  0.308263  0.879512  1
  O  O47  1  0.495673  0.353869  0.787673  1
  O  O48  1  0.192483  0.691173  0.045355  1
  O  O49  1  0.480259  0.338854  0.545514  1
  O  O50  1  0.856867  0.998867  0.287322  1
  O  O51  1  0.859934  0.000902  0.787229  1
  O  O52  1  0.834479  0.972446  0.046156  1
  O  O53  1  0.834204  0.972741  0.546195  1
  O  O54  1  0.162753  0.020932  0.454306  1
  O  O55  1  0.167730  0.025153  0.953953  1
  O  O56  1  0.140145  0.997236  0.212588  1
  O  O57  1  0.145230  0.003426  0.712420  1
  O  O58  1  0.527803  0.665710  0.453792  1
  O  O59  1  0.809230  0.309032  0.954592  1
  O  O60  1  0.502899  0.644947  0.212484  1
  O  O61  1  0.828748  0.686491  0.121019  1
  O  O62  1  0.828047  0.686557  0.621143  1
  O  O63  1  0.812984  0.671362  0.379027  1
  O  O64  1  0.523841  0.024076  0.878754  1
  O  O65  1  0.193515  0.332468  0.120592  1
  O  O66  1  0.474900  0.973778  0.621283  1
  O  O67  1  0.499555  0.361412  0.287277  1
  O  O68  1  0.479680  0.338089  0.045693  1
  O  O69  1  0.192490  0.691743  0.545366  1
  O  O70  1  0.141936  0.645689  0.288256  1
  O  O71  1  0.861210  0.360184  0.212140  1
