# generated using pymatgen
data_Li4(NiO2)7
_symmetry_space_group_name_H-M   'P 1'
_cell_length_a   4.92003060
_cell_length_b   6.43202135
_cell_length_c   7.65457935
_cell_angle_alpha   87.79653399
_cell_angle_beta   79.38053567
_cell_angle_gamma   83.73046759
_symmetry_Int_Tables_number   1
_chemical_formula_structural   Li4(NiO2)7
_chemical_formula_sum   'Li4 Ni7 O14'
_cell_volume   236.62045976
_cell_formula_units_Z   1
loop_
 _symmetry_equiv_pos_site_id
 _symmetry_equiv_pos_as_xyz
  1  'x, y, z'
loop_
 _atom_site_type_symbol
 _atom_site_label
 _atom_site_symmetry_multiplicity
 _atom_site_fract_x
 _atom_site_fract_y
 _atom_site_fract_z
 _atom_site_occupancy
  Li  Li0  1  0.072152  0.857306  0.858920  1
  Li  Li1  1  0.927848  0.142694  0.141080  1
  Li  Li2  1  0.779655  0.425692  0.426587  1
  Li  Li3  1  0.220345  0.574308  0.573413  1
  Ni  Ni4  1  0.859719  0.288449  0.781118  1
  Ni  Ni5  1  0.140281  0.711551  0.218882  1
  Ni  Ni6  1  0.570134  0.862020  0.355528  1
  Ni  Ni7  1  0.287361  0.423815  0.931406  1
  Ni  Ni8  1  0.712639  0.576185  0.068594  1
  Ni  Ni9  1  0.000000  0.000000  0.500000  1
  Ni  Ni10  1  0.429866  0.137980  0.644472  1
  O  O11  1  0.774362  0.022845  0.727624  1
  O  O12  1  0.838662  0.832607  0.120426  1
  O  O13  1  0.161338  0.167393  0.879574  1
  O  O14  1  0.626052  0.310509  0.006764  1
  O  O15  1  0.985778  0.544339  0.826001  1
  O  O16  1  0.225638  0.977155  0.272376  1
  O  O17  1  0.912454  0.733816  0.444661  1
  O  O18  1  0.373948  0.689491  0.993236  1
  O  O19  1  0.693655  0.115412  0.403580  1
  O  O20  1  0.306345  0.884588  0.596420  1
  O  O21  1  0.014222  0.455661  0.173999  1
  O  O22  1  0.452278  0.605619  0.319168  1
  O  O23  1  0.087546  0.266184  0.555339  1
  O  O24  1  0.547722  0.394381  0.680832  1
