# generated using pymatgen
data_TiP6(WO8)3
_symmetry_space_group_name_H-M   'P 1'
_cell_length_a   8.92540121
_cell_length_b   8.92540121
_cell_length_c   8.92540121
_cell_angle_alpha   58.92197843
_cell_angle_beta   58.92197843
_cell_angle_gamma   58.92197843
_symmetry_Int_Tables_number   1
_chemical_formula_structural   TiP6(WO8)3
_chemical_formula_sum   'Ti1 P6 W3 O24'
_cell_volume   490.39992609
_cell_formula_units_Z   1
loop_
 _symmetry_equiv_pos_site_id
 _symmetry_equiv_pos_as_xyz
  1  'x, y, z'
loop_
 _atom_site_type_symbol
 _atom_site_label
 _atom_site_symmetry_multiplicity
 _atom_site_fract_x
 _atom_site_fract_y
 _atom_site_fract_z
 _atom_site_occupancy
  Ti  Ti0  1  0.141046  0.141046  0.141046  1
  P  P1  1  0.249372  0.530666  0.965734  1
  P  P2  1  0.965734  0.249372  0.530666  1
  P  P3  1  0.530666  0.965734  0.249372  1
  P  P4  1  0.458976  0.037304  0.754008  1
  P  P5  1  0.037304  0.754008  0.458976  1
  P  P6  1  0.754008  0.458976  0.037304  1
  W  W7  1  0.857531  0.857531  0.857531  1
  W  W8  1  0.642305  0.642305  0.642305  1
  W  W9  1  0.357294  0.357294  0.357294  1
  O  O10  1  0.721163  0.488278  0.870774  1
  O  O11  1  0.488278  0.870774  0.721163  1
  O  O12  1  0.078539  0.711123  0.939964  1
  O  O13  1  0.870774  0.721163  0.488278  1
  O  O14  1  0.417411  0.559267  0.790123  1
  O  O15  1  0.218234  0.361403  0.000636  1
  O  O16  1  0.939964  0.078539  0.711123  1
  O  O17  1  0.790123  0.417411  0.559267  1
  O  O18  1  0.559267  0.790123  0.417411  1
  O  O19  1  0.631941  0.009771  0.779933  1
  O  O20  1  0.286059  0.064423  0.924527  1
  O  O21  1  0.009771  0.779933  0.631941  1
  O  O22  1  0.000636  0.218234  0.361403  1
  O  O23  1  0.711123  0.939964  0.078539  1
  O  O24  1  0.361403  0.000636  0.218234  1
  O  O25  1  0.435777  0.213579  0.580232  1
  O  O26  1  0.213579  0.580232  0.435777  1
  O  O27  1  0.064423  0.924527  0.286059  1
  O  O28  1  0.779933  0.631941  0.009771  1
  O  O29  1  0.580232  0.435777  0.213579  1
  O  O30  1  0.133626  0.280083  0.508897  1
  O  O31  1  0.924527  0.286059  0.064423  1
  O  O32  1  0.508897  0.133626  0.280083  1
  O  O33  1  0.280083  0.508897  0.133626  1
