# generated using pymatgen
data_Li3FePCO7
_symmetry_space_group_name_H-M   'P 1'
_cell_length_a   5.07471218
_cell_length_b   6.35142306
_cell_length_c   8.75265012
_cell_angle_alpha   85.07927269
_cell_angle_beta   85.54105210
_cell_angle_gamma   89.52347166
_symmetry_Int_Tables_number   1
_chemical_formula_structural   Li3FePCO7
_chemical_formula_sum   'Li6 Fe2 P2 C2 O14'
_cell_volume   280.22142005
_cell_formula_units_Z   2
loop_
 _symmetry_equiv_pos_site_id
 _symmetry_equiv_pos_as_xyz
  1  'x, y, z'
loop_
 _atom_site_type_symbol
 _atom_site_label
 _atom_site_symmetry_multiplicity
 _atom_site_fract_x
 _atom_site_fract_y
 _atom_site_fract_z
 _atom_site_occupancy
  Li  Li0  1  0.763088  0.271031  0.393147  1
  Li  Li1  1  0.834654  0.978689  0.754371  1
  Li  Li2  1  0.708691  0.469954  0.727944  1
  Li  Li3  1  0.291309  0.530046  0.272056  1
  Li  Li4  1  0.165346  0.021311  0.245629  1
  Li  Li5  1  0.236912  0.728969  0.606853  1
  Fe  Fe6  1  0.800437  0.742407  0.136685  1
  Fe  Fe7  1  0.199563  0.257593  0.863315  1
  P  P8  1  0.653881  0.244796  0.089094  1
  P  P9  1  0.346119  0.755204  0.910906  1
  C  C10  1  0.769707  0.737940  0.468067  1
  C  C11  1  0.230293  0.262060  0.531933  1
  O  O12  1  0.790029  0.059379  0.181943  1
  O  O13  1  0.795569  0.296584  0.926448  1
  O  O14  1  0.665862  0.435123  0.191390  1
  O  O15  1  0.839052  0.755897  0.606698  1
  O  O16  1  0.637804  0.809198  0.926443  1
  O  O17  1  0.525076  0.735357  0.438612  1
  O  O18  1  0.474924  0.264643  0.561388  1
  O  O19  1  0.362196  0.190802  0.073557  1
  O  O20  1  0.160948  0.244103  0.393302  1
  O  O21  1  0.334138  0.564877  0.808610  1
  O  O22  1  0.204431  0.703416  0.073552  1
  O  O23  1  0.209971  0.940621  0.818057  1
  O  O24  1  0.959591  0.718480  0.359347  1
  O  O25  1  0.040409  0.281520  0.640653  1
