# generated using pymatgen
data_Li7Fe3Ni(PO4)6
_symmetry_space_group_name_H-M   'P 1'
_cell_length_a   8.66528161
_cell_length_b   8.66528161
_cell_length_c   8.66528161
_cell_angle_alpha   61.15372059
_cell_angle_beta   61.15372059
_cell_angle_gamma   61.15372059
_symmetry_Int_Tables_number   1
_chemical_formula_structural   Li7Fe3Ni(PO4)6
_chemical_formula_sum   'Li7 Fe3 Ni1 P6 O24'
_cell_volume   472.02345210
_cell_formula_units_Z   1
loop_
 _symmetry_equiv_pos_site_id
 _symmetry_equiv_pos_as_xyz
  1  'x, y, z'
loop_
 _atom_site_type_symbol
 _atom_site_label
 _atom_site_symmetry_multiplicity
 _atom_site_fract_x
 _atom_site_fract_y
 _atom_site_fract_z
 _atom_site_occupancy
  Li  Li0  1  0.701118  0.438388  0.242428  1
  Li  Li1  1  0.242428  0.701118  0.438388  1
  Li  Li2  1  0.660823  0.845337  0.204227  1
  Li  Li3  1  0.438388  0.242428  0.701118  1
  Li  Li4  1  0.845337  0.204227  0.660823  1
  Li  Li5  1  0.204227  0.660823  0.845337  1
  Li  Li6  1  0.990189  0.990189  0.990189  1
  Fe  Fe7  1  0.353720  0.353720  0.353720  1
  Fe  Fe8  1  0.139467  0.139467  0.139467  1
  Fe  Fe9  1  0.645145  0.645145  0.645145  1
  Ni  Ni10  1  0.851398  0.851398  0.851398  1
  P  P11  1  0.455861  0.747081  0.046999  1
  P  P12  1  0.747081  0.046999  0.455861  1
  P  P13  1  0.046999  0.455861  0.747081  1
  P  P14  1  0.959356  0.547045  0.246496  1
  P  P15  1  0.246496  0.959356  0.547045  1
  P  P16  1  0.547045  0.246496  0.959356  1
  O  O17  1  0.271153  0.912640  0.056524  1
  O  O18  1  0.427457  0.589186  0.241026  1
  O  O19  1  0.620271  0.784708  0.031990  1
  O  O20  1  0.682342  0.889328  0.502071  1
  O  O21  1  0.912640  0.056524  0.271153  1
  O  O22  1  0.589186  0.241026  0.427457  1
  O  O23  1  0.889328  0.502071  0.682342  1
  O  O24  1  0.241026  0.427457  0.589186  1
  O  O25  1  0.972503  0.380408  0.210651  1
  O  O26  1  0.969730  0.722025  0.068322  1
  O  O27  1  0.502071  0.682342  0.889328  1
  O  O28  1  0.210651  0.972503  0.380408  1
  O  O29  1  0.784708  0.031990  0.620271  1
  O  O30  1  0.496768  0.314027  0.115011  1
  O  O31  1  0.056524  0.271153  0.912640  1
  O  O32  1  0.031990  0.620271  0.784708  1
  O  O33  1  0.759671  0.601461  0.387437  1
  O  O34  1  0.115011  0.496768  0.314027  1
  O  O35  1  0.387437  0.759671  0.601461  1
  O  O36  1  0.314027  0.115011  0.496768  1
  O  O37  1  0.068322  0.969730  0.722025  1
  O  O38  1  0.380408  0.210651  0.972503  1
  O  O39  1  0.601461  0.387437  0.759671  1
  O  O40  1  0.722025  0.068322  0.969730  1
