# generated using pymatgen
data_SbOF
_symmetry_space_group_name_H-M   'P 1'
_cell_length_a   10.26046774
_cell_length_b   10.26046774
_cell_length_c   4.54822874
_cell_angle_alpha   90.00000000
_cell_angle_beta   90.00000000
_cell_angle_gamma   90.00000000
_symmetry_Int_Tables_number   1
_chemical_formula_structural   SbOF
_chemical_formula_sum   'Sb8 O8 F8'
_cell_volume   478.82477872
_cell_formula_units_Z   8
loop_
 _symmetry_equiv_pos_site_id
 _symmetry_equiv_pos_as_xyz
  1  'x, y, z'
loop_
 _atom_site_type_symbol
 _atom_site_label
 _atom_site_symmetry_multiplicity
 _atom_site_fract_x
 _atom_site_fract_y
 _atom_site_fract_z
 _atom_site_occupancy
  Sb  Sb0  1  0.039057  0.768604  0.132441  1
  Sb  Sb1  1  0.231396  0.039057  0.867559  1
  Sb  Sb2  1  0.268604  0.539057  0.632441  1
  Sb  Sb3  1  0.460943  0.268604  0.367559  1
  Sb  Sb4  1  0.539057  0.731396  0.367559  1
  Sb  Sb5  1  0.731396  0.460943  0.632441  1
  Sb  Sb6  1  0.768604  0.960943  0.867559  1
  Sb  Sb7  1  0.960943  0.231396  0.132441  1
  O  O8  1  0.119853  0.126003  0.170089  1
  O  O9  1  0.126003  0.880147  0.829911  1
  O  O10  1  0.373997  0.380147  0.670089  1
  O  O11  1  0.380147  0.626003  0.329911  1
  O  O12  1  0.619853  0.373997  0.329911  1
  O  O13  1  0.626003  0.619853  0.670089  1
  O  O14  1  0.873997  0.119853  0.829911  1
  O  O15  1  0.880147  0.873997  0.170089  1
  F  F16  1  0.028719  0.335800  0.803776  1
  F  F17  1  0.164200  0.471281  0.303776  1
  F  F18  1  0.335800  0.971281  0.196224  1
  F  F19  1  0.471281  0.835800  0.696224  1
  F  F20  1  0.528719  0.164200  0.696224  1
  F  F21  1  0.664200  0.028719  0.196224  1
  F  F22  1  0.835800  0.528719  0.303776  1
  F  F23  1  0.971281  0.664200  0.803776  1
