# generated using pymatgen
data_Na2LiMnPCO7
_symmetry_space_group_name_H-M   'P 1'
_cell_length_a   6.84843406
_cell_length_b   8.82981702
_cell_length_c   10.21140020
_cell_angle_alpha   91.08128535
_cell_angle_beta   90.02737764
_cell_angle_gamma   90.42050965
_symmetry_Int_Tables_number   1
_chemical_formula_structural   Na2LiMnPCO7
_chemical_formula_sum   'Na8 Li4 Mn4 P4 C4 O28'
_cell_volume   617.36095330
_cell_formula_units_Z   4
loop_
 _symmetry_equiv_pos_site_id
 _symmetry_equiv_pos_as_xyz
  1  'x, y, z'
loop_
 _atom_site_type_symbol
 _atom_site_label
 _atom_site_symmetry_multiplicity
 _atom_site_fract_x
 _atom_site_fract_y
 _atom_site_fract_z
 _atom_site_occupancy
  Na  Na0  1  0.256006  0.083901  0.122827  1
  Na  Na1  1  0.999759  0.255227  0.374985  1
  Na  Na2  1  0.000295  0.256449  0.874156  1
  Na  Na3  1  0.500323  0.255747  0.873819  1
  Na  Na4  1  0.503168  0.744195  0.123984  1
  Na  Na5  1  0.996764  0.743710  0.123948  1
  Na  Na6  1  0.501523  0.743178  0.624766  1
  Na  Na7  1  0.999198  0.743375  0.623986  1
  Li  Li8  1  0.254644  0.087792  0.621868  1
  Li  Li9  1  0.472216  0.272480  0.387088  1
  Li  Li10  1  0.740754  0.913691  0.374343  1
  Li  Li11  1  0.749728  0.908545  0.872725  1
  Mn  Mn12  1  0.748015  0.360398  0.113054  1
  Mn  Mn13  1  0.746529  0.357107  0.608348  1
  Mn  Mn14  1  0.249516  0.643526  0.387022  1
  Mn  Mn15  1  0.250668  0.640402  0.888225  1
  P  P16  1  0.254129  0.408626  0.147957  1
  P  P17  1  0.248902  0.403662  0.643536  1
  P  P18  1  0.745366  0.593254  0.352890  1
  P  P19  1  0.750572  0.594394  0.851915  1
  C  C20  1  0.749326  0.050974  0.136417  1
  C  C21  1  0.749833  0.049821  0.635377  1
  C  C22  1  0.259610  0.955338  0.373463  1
  C  C23  1  0.250380  0.941159  0.860262  1
  O  O24  1  0.276325  0.099152  0.353043  1
  O  O25  1  0.248494  0.085682  0.839836  1
  O  O26  1  0.749243  0.087184  0.012843  1
  O  O27  1  0.751737  0.087863  0.512548  1
  O  O28  1  0.746978  0.156375  0.227620  1
  O  O29  1  0.745646  0.155216  0.727252  1
  O  O30  1  0.067525  0.316059  0.110235  1
  O  O31  1  0.432230  0.317165  0.097409  1
  O  O32  1  0.065045  0.308402  0.604357  1
  O  O33  1  0.426738  0.306166  0.597298  1
  O  O34  1  0.267517  0.424029  0.301207  1
  O  O35  1  0.732052  0.430565  0.410200  1
  O  O36  1  0.254591  0.425116  0.795869  1
  O  O37  1  0.751624  0.435183  0.914247  1
  O  O38  1  0.249012  0.570899  0.091460  1
  O  O39  1  0.747913  0.574921  0.200635  1
  O  O40  1  0.250346  0.563725  0.583587  1
  O  O41  1  0.749075  0.570505  0.699849  1
  O  O42  1  0.569207  0.694483  0.394043  1
  O  O43  1  0.931869  0.681913  0.397166  1
  O  O44  1  0.570295  0.690745  0.893130  1
  O  O45  1  0.932152  0.691696  0.892276  1
  O  O46  1  0.249875  0.859742  0.273932  1
  O  O47  1  0.251608  0.847070  0.761273  1
  O  O48  1  0.251374  0.904542  0.492064  1
  O  O49  1  0.251279  0.887518  0.978444  1
  O  O50  1  0.751461  0.910993  0.171406  1
  O  O51  1  0.751564  0.910136  0.669808  1
