# generated using pymatgen
data_Li6Ca3MnC6(O9F)2
_symmetry_space_group_name_H-M   'P 1'
_cell_length_a   6.71847294
_cell_length_b   7.73282438
_cell_length_c   8.66076471
_cell_angle_alpha   64.13604090
_cell_angle_beta   84.70118383
_cell_angle_gamma   78.11630185
_symmetry_Int_Tables_number   1
_chemical_formula_structural   Li6Ca3MnC6(O9F)2
_chemical_formula_sum   'Li6 Ca3 Mn1 C6 O18 F2'
_cell_volume   396.20105899
_cell_formula_units_Z   1
loop_
 _symmetry_equiv_pos_site_id
 _symmetry_equiv_pos_as_xyz
  1  'x, y, z'
loop_
 _atom_site_type_symbol
 _atom_site_label
 _atom_site_symmetry_multiplicity
 _atom_site_fract_x
 _atom_site_fract_y
 _atom_site_fract_z
 _atom_site_occupancy
  Li  Li0  1  0.517210  0.437775  0.321840  1
  Li  Li1  1  0.688832  0.049420  0.768067  1
  Li  Li2  1  0.181075  0.048924  0.785587  1
  Li  Li3  1  0.023579  0.769975  0.662678  1
  Li  Li4  1  0.677577  0.839966  0.216045  1
  Li  Li5  1  0.182752  0.820893  0.228456  1
  Ca  Ca6  1  0.022361  0.382618  0.368163  1
  Ca  Ca7  1  0.846513  0.276538  0.024035  1
  Ca  Ca8  1  0.347027  0.309501  0.968247  1
  Mn  Mn9  1  0.525988  0.755604  0.631897  1
  C  C10  1  0.993210  0.685428  0.003407  1
  C  C11  1  0.800078  0.050923  0.395071  1
  C  C12  1  0.313726  0.058389  0.384232  1
  C  C13  1  0.493285  0.686561  0.995601  1
  C  C14  1  0.802667  0.440833  0.620878  1
  C  C15  1  0.309112  0.455837  0.604316  1
  O  O16  1  0.966267  0.703773  0.146136  1
  O  O17  1  0.476645  0.707745  0.135771  1
  O  O18  1  0.253087  0.523970  0.446787  1
  O  O19  1  0.904771  0.264637  0.665656  1
  O  O20  1  0.381108  0.273229  0.693807  1
  O  O21  1  0.537579  0.511357  0.001715  1
  O  O22  1  0.774236  0.242857  0.316874  1
  O  O23  1  0.981462  0.835608  0.857082  1
  O  O24  1  0.312075  0.235355  0.267168  1
  O  O25  1  0.738999  0.966381  0.553034  1
  O  O26  1  0.206574  0.030555  0.523687  1
  O  O27  1  0.466130  0.837400  0.845796  1
  O  O28  1  0.886026  0.953151  0.311400  1
  O  O29  1  0.421708  0.910627  0.362998  1
  O  O30  1  0.033900  0.507691  0.011775  1
  O  O31  1  0.787809  0.522153  0.726938  1
  O  O32  1  0.289715  0.574567  0.680544  1
  O  O33  1  0.717736  0.538639  0.471296  1
  F  F34  1  0.148002  0.092815  0.007963  1
  F  F35  1  0.642397  0.097866  0.995057  1
