# generated using pymatgen
data_Li2VPO4F
_symmetry_space_group_name_H-M   'P 1'
_cell_length_a   6.51064460
_cell_length_b   10.75210424
_cell_length_c   11.17077482
_cell_angle_alpha   90.00000000
_cell_angle_beta   90.00000000
_cell_angle_gamma   90.00000000
_symmetry_Int_Tables_number   1
_chemical_formula_structural   Li2VPO4F
_chemical_formula_sum   'Li16 V8 P8 O32 F8'
_cell_volume   781.98919532
_cell_formula_units_Z   8
loop_
 _symmetry_equiv_pos_site_id
 _symmetry_equiv_pos_as_xyz
  1  'x, y, z'
loop_
 _atom_site_type_symbol
 _atom_site_label
 _atom_site_symmetry_multiplicity
 _atom_site_fract_x
 _atom_site_fract_y
 _atom_site_fract_z
 _atom_site_occupancy
  Li  Li0  1  0.250000  0.973432  0.770711  1
  Li  Li1  1  0.750000  0.768769  0.584221  1
  Li  Li2  1  0.494104  0.760308  0.832069  1
  Li  Li3  1  0.005896  0.760308  0.832069  1
  Li  Li4  1  0.994104  0.739692  0.332069  1
  Li  Li5  1  0.505896  0.739692  0.332069  1
  Li  Li6  1  0.250000  0.731231  0.084221  1
  Li  Li7  1  0.750000  0.526568  0.270711  1
  Li  Li8  1  0.250000  0.473432  0.729289  1
  Li  Li9  1  0.750000  0.268769  0.915779  1
  Li  Li10  1  0.494104  0.260308  0.667931  1
  Li  Li11  1  0.005896  0.260308  0.667931  1
  Li  Li12  1  0.994104  0.239692  0.167931  1
  Li  Li13  1  0.505896  0.239692  0.167931  1
  Li  Li14  1  0.250000  0.231231  0.415779  1
  Li  Li15  1  0.750000  0.026568  0.229289  1
  V  V16  1  0.000000  0.000000  0.500000  1
  V  V17  1  0.500000  0.000000  0.500000  1
  V  V18  1  0.000000  0.000000  0.000000  1
  V  V19  1  0.500000  0.000000  0.000000  1
  V  V20  1  0.000000  0.500000  0.000000  1
  V  V21  1  0.500000  0.500000  0.000000  1
  V  V22  1  0.000000  0.500000  0.500000  1
  V  V23  1  0.500000  0.500000  0.500000  1
  P  P24  1  0.250000  0.979238  0.246128  1
  P  P25  1  0.250000  0.754133  0.580070  1
  P  P26  1  0.750000  0.745867  0.080070  1
  P  P27  1  0.750000  0.520762  0.746128  1
  P  P28  1  0.250000  0.479238  0.253872  1
  P  P29  1  0.250000  0.254133  0.919930  1
  P  P30  1  0.750000  0.245867  0.419930  1
  P  P31  1  0.750000  0.020762  0.753872  1
  O  O32  1  0.750000  0.971010  0.622292  1
  O  O33  1  0.943930  0.965043  0.814865  1
  O  O34  1  0.556070  0.965043  0.814865  1
  O  O35  1  0.750000  0.889568  0.061652  1
  O  O36  1  0.250000  0.834739  0.244620  1
  O  O37  1  0.446305  0.804145  0.516688  1
  O  O38  1  0.053695  0.804145  0.516688  1
  O  O39  1  0.250000  0.784209  0.715694  1
  O  O40  1  0.750000  0.715791  0.215694  1
  O  O41  1  0.946305  0.695855  0.016688  1
  O  O42  1  0.553695  0.695855  0.016688  1
  O  O43  1  0.750000  0.665261  0.744620  1
  O  O44  1  0.250000  0.610432  0.561652  1
  O  O45  1  0.443930  0.534957  0.314865  1
  O  O46  1  0.056070  0.534957  0.314865  1
  O  O47  1  0.250000  0.528990  0.122292  1
  O  O48  1  0.750000  0.471010  0.877708  1
  O  O49  1  0.943930  0.465043  0.685135  1
  O  O50  1  0.556070  0.465043  0.685135  1
  O  O51  1  0.750000  0.389568  0.438348  1
  O  O52  1  0.250000  0.334739  0.255380  1
  O  O53  1  0.446305  0.304145  0.983312  1
  O  O54  1  0.053695  0.304145  0.983312  1
  O  O55  1  0.250000  0.284209  0.784306  1
  O  O56  1  0.750000  0.215791  0.284306  1
  O  O57  1  0.946305  0.195855  0.483312  1
  O  O58  1  0.553695  0.195855  0.483312  1
  O  O59  1  0.750000  0.165261  0.755380  1
  O  O60  1  0.250000  0.110432  0.938348  1
  O  O61  1  0.443930  0.034957  0.185135  1
  O  O62  1  0.056070  0.034957  0.185135  1
  O  O63  1  0.250000  0.028990  0.377708  1
  F  F64  1  0.750000  0.947882  0.383352  1
  F  F65  1  0.250000  0.871032  0.968718  1
  F  F66  1  0.750000  0.628968  0.468718  1
  F  F67  1  0.250000  0.552118  0.883352  1
  F  F68  1  0.750000  0.447882  0.116648  1
  F  F69  1  0.250000  0.371032  0.531282  1
  F  F70  1  0.750000  0.128968  0.031282  1
  F  F71  1  0.250000  0.052118  0.616648  1
