# generated using pymatgen
data_Li6Fe5O12
_symmetry_space_group_name_H-M   'P 1'
_cell_length_a   5.07257375
_cell_length_b   5.07257375
_cell_length_c   9.52160745
_cell_angle_alpha   85.99016043
_cell_angle_beta   94.00983957
_cell_angle_gamma   63.46544596
_symmetry_Int_Tables_number   1
_chemical_formula_structural   Li6Fe5O12
_chemical_formula_sum   'Li6 Fe5 O12'
_cell_volume   217.24748652
_cell_formula_units_Z   1
loop_
 _symmetry_equiv_pos_site_id
 _symmetry_equiv_pos_as_xyz
  1  'x, y, z'
loop_
 _atom_site_type_symbol
 _atom_site_label
 _atom_site_symmetry_multiplicity
 _atom_site_fract_x
 _atom_site_fract_y
 _atom_site_fract_z
 _atom_site_occupancy
  Li  Li0  1  0.748077  0.748077  0.500000  1
  Li  Li1  1  0.837485  0.344056  0.744745  1
  Li  Li2  1  0.680411  0.140733  0.259356  1
  Li  Li3  1  0.344056  0.837485  0.255255  1
  Li  Li4  1  0.140733  0.680411  0.740644  1
  Li  Li5  1  0.078332  0.078332  0.500000  1
  Fe  Fe6  1  0.930315  0.930315  0.000000  1
  Fe  Fe7  1  0.489844  0.006687  0.747233  1
  Fe  Fe8  1  0.006687  0.489844  0.252767  1
  Fe  Fe9  1  0.575737  0.575737  0.000000  1
  Fe  Fe10  1  0.424699  0.424699  0.500000  1
  O  O11  1  0.821445  0.684160  0.865256  1
  O  O12  1  0.684160  0.821445  0.134744  1
  O  O13  1  0.926289  0.235497  0.126623  1
  O  O14  1  0.710568  0.450037  0.381534  1
  O  O15  1  0.749192  0.057227  0.622102  1
  O  O16  1  0.450037  0.710568  0.618466  1
  O  O17  1  0.594621  0.262470  0.882697  1
  O  O18  1  0.235497  0.926289  0.873377  1
  O  O19  1  0.262470  0.594621  0.117303  1
  O  O20  1  0.340997  0.171962  0.363780  1
  O  O21  1  0.057227  0.749192  0.377898  1
  O  O22  1  0.171962  0.340997  0.636220  1
