# generated using pymatgen
data_LiMnP3H8O13
_symmetry_space_group_name_H-M   'P 1'
_cell_length_a   7.13654088
_cell_length_b   7.71211238
_cell_length_c   10.01930000
_cell_angle_alpha   84.01389316
_cell_angle_beta   74.37310625
_cell_angle_gamma   78.16618672
_symmetry_Int_Tables_number   1
_chemical_formula_structural   LiMnP3H8O13
_chemical_formula_sum   'Li2 Mn2 P6 H16 O26'
_cell_volume   519.06602805
_cell_formula_units_Z   2
loop_
 _symmetry_equiv_pos_site_id
 _symmetry_equiv_pos_as_xyz
  1  'x, y, z'
loop_
 _atom_site_type_symbol
 _atom_site_label
 _atom_site_symmetry_multiplicity
 _atom_site_fract_x
 _atom_site_fract_y
 _atom_site_fract_z
 _atom_site_occupancy
  Li  Li0  1  0.000000  0.000000  0.000000  1
  Li  Li1  1  0.000000  0.500000  0.500000  1
  Mn  Mn2  1  0.818640  0.809012  0.761965  1
  Mn  Mn3  1  0.181360  0.190988  0.238035  1
  P  P4  1  0.326879  0.805498  0.742809  1
  P  P5  1  0.240656  0.804631  0.477495  1
  P  P6  1  0.594126  0.461002  0.730905  1
  P  P7  1  0.405874  0.538998  0.269095  1
  P  P8  1  0.759344  0.195369  0.522505  1
  P  P9  1  0.673121  0.194502  0.257191  1
  H  H10  1  0.360827  0.981047  0.965962  1
  H  H11  1  0.818451  0.818639  0.430343  1
  H  H12  1  0.309868  0.863786  0.101800  1
  H  H13  1  0.920999  0.740926  0.204512  1
  H  H14  1  0.690390  0.694628  0.398238  1
  H  H15  1  0.856408  0.661928  0.011465  1
  H  H16  1  0.649465  0.624870  0.005311  1
  H  H17  1  0.099241  0.658142  0.084935  1
  H  H18  1  0.900759  0.341858  0.915065  1
  H  H19  1  0.350535  0.375130  0.994689  1
  H  H20  1  0.143592  0.338072  0.988535  1
  H  H21  1  0.309610  0.305372  0.601762  1
  H  H22  1  0.079001  0.259074  0.795488  1
  H  H23  1  0.690132  0.136214  0.898200  1
  H  H24  1  0.181549  0.181361  0.569657  1
  H  H25  1  0.639173  0.018953  0.034038  1
  O  O26  1  0.476132  0.878034  0.791302  1
  O  O27  1  0.270692  0.984430  0.060120  1
  O  O28  1  0.192823  0.960029  0.382420  1
  O  O29  1  0.362483  0.860399  0.576754  1
  O  O30  1  0.111096  0.854606  0.812739  1
  O  O31  1  0.976300  0.746758  0.101773  1
  O  O32  1  0.826531  0.714566  0.379886  1
  O  O33  1  0.786755  0.623064  0.947815  1
  O  O34  1  0.759903  0.562459  0.674143  1
  O  O35  1  0.079893  0.710865  0.563414  1
  O  O36  1  0.419336  0.656999  0.391638  1
  O  O37  1  0.380780  0.590015  0.746718  1
  O  O38  1  0.414143  0.651984  0.136977  1
  O  O39  1  0.585857  0.348016  0.863023  1
  O  O40  1  0.619220  0.409985  0.253282  1
  O  O41  1  0.580664  0.343001  0.608362  1
  O  O42  1  0.920107  0.289135  0.436586  1
  O  O43  1  0.240097  0.437541  0.325857  1
  O  O44  1  0.213245  0.376936  0.052185  1
  O  O45  1  0.173469  0.285434  0.620114  1
  O  O46  1  0.023700  0.253242  0.898227  1
  O  O47  1  0.888904  0.145394  0.187261  1
  O  O48  1  0.637517  0.139601  0.423246  1
  O  O49  1  0.807177  0.039971  0.617580  1
  O  O50  1  0.729308  0.015570  0.939880  1
  O  O51  1  0.523868  0.121966  0.208698  1
