# generated using pymatgen
data_Li2V(CO3)2
_symmetry_space_group_name_H-M   'P 1'
_cell_length_a   10.73972261
_cell_length_b   9.04890463
_cell_length_c   8.98384852
_cell_angle_alpha   73.10519819
_cell_angle_beta   53.72620733
_cell_angle_gamma   53.16859448
_symmetry_Int_Tables_number   1
_chemical_formula_structural   Li2V(CO3)2
_chemical_formula_sum   'Li8 V4 C8 O24'
_cell_volume   560.59882155
_cell_formula_units_Z   4
loop_
 _symmetry_equiv_pos_site_id
 _symmetry_equiv_pos_as_xyz
  1  'x, y, z'
loop_
 _atom_site_type_symbol
 _atom_site_label
 _atom_site_symmetry_multiplicity
 _atom_site_fract_x
 _atom_site_fract_y
 _atom_site_fract_z
 _atom_site_occupancy
  Li  Li0  1  0.378225  0.946041  0.803048  1
  Li  Li1  1  0.303959  0.871775  0.377314  1
  Li  Li2  1  0.446952  0.377314  0.871775  1
  Li  Li3  1  0.331182  0.390607  0.371887  1
  Li  Li4  1  0.878113  0.343675  0.918818  1
  Li  Li5  1  0.872686  0.803048  0.946041  1
  Li  Li6  1  0.906325  0.371887  0.390607  1
  Li  Li7  1  0.859393  0.918818  0.343675  1
  V  V8  1  0.157930  0.374429  0.874296  1
  V  V9  1  0.375704  0.656655  0.092070  1
  V  V10  1  0.593345  0.874296  0.374429  1
  V  V11  1  0.875571  0.092070  0.656655  1
  C  C12  1  0.152345  0.101668  0.684952  1
  C  C13  1  0.177034  0.654676  0.562443  1
  C  C14  1  0.148332  0.097655  0.188965  1
  C  C15  1  0.061035  0.684952  0.101668  1
  C  C16  1  0.605847  0.562443  0.654676  1
  C  C17  1  0.595324  0.072966  0.644153  1
  C  C18  1  0.687557  0.644153  0.072966  1
  C  C19  1  0.565048  0.188965  0.097655  1
  O  O20  1  0.051185  0.799692  0.681378  1
  O  O21  1  0.161769  0.165004  0.789714  1
  O  O22  1  0.080052  0.263026  0.136533  1
  O  O23  1  0.299459  0.975353  0.549122  1
  O  O24  1  0.214693  0.490142  0.613532  1
  O  O25  1  0.084996  0.088231  0.366487  1
  O  O26  1  0.113467  0.729610  0.169948  1
  O  O27  1  0.176066  0.549122  0.975353  1
  O  O28  1  0.274647  0.950541  0.073934  1
  O  O29  1  0.467745  0.681378  0.799692  1
  O  O30  1  0.272715  0.668195  0.386063  1
  O  O31  1  0.450308  0.198815  0.782255  1
  O  O32  1  0.673027  0.386063  0.668195  1
  O  O33  1  0.581805  0.977285  0.576973  1
  O  O34  1  0.460286  0.366487  0.088231  1
  O  O35  1  0.568622  0.782255  0.198815  1
  O  O36  1  0.636468  0.568367  0.035307  1
  O  O37  1  0.759858  0.035307  0.568367  1
  O  O38  1  0.520390  0.136533  0.263026  1
  O  O39  1  0.863937  0.576973  0.977285  1
  O  O40  1  0.700878  0.073934  0.950541  1
  O  O41  1  0.681633  0.613532  0.490142  1
  O  O42  1  0.986974  0.169948  0.729610  1
  O  O43  1  0.883513  0.789714  0.165004  1
