# generated using pymatgen
data_Ba16S16O59
_symmetry_space_group_name_H-M   'P 1'
_cell_length_a   8.96161629
_cell_length_b   11.13839810
_cell_length_c   14.54172443
_cell_angle_alpha   90.00338378
_cell_angle_beta   90.06392647
_cell_angle_gamma   90.02024898
_symmetry_Int_Tables_number   1
_chemical_formula_structural   Ba16S16O59
_chemical_formula_sum   'Ba16 S16 O59'
_cell_volume   1451.52557697
_cell_formula_units_Z   1
loop_
 _symmetry_equiv_pos_site_id
 _symmetry_equiv_pos_as_xyz
  1  'x, y, z'
loop_
 _atom_site_type_symbol
 _atom_site_label
 _atom_site_symmetry_multiplicity
 _atom_site_fract_x
 _atom_site_fract_y
 _atom_site_fract_z
 _atom_site_occupancy
  Ba  Ba0  1  0.185444  0.864498  0.924090  1
  Ba  Ba1  1  0.177615  0.874535  0.426851  1
  Ba  Ba2  1  0.185151  0.385349  0.924237  1
  Ba  Ba3  1  0.179276  0.375553  0.429162  1
  Ba  Ba4  1  0.322436  0.620091  0.681052  1
  Ba  Ba5  1  0.321096  0.130074  0.673637  1
  Ba  Ba6  1  0.319985  0.625071  0.168956  1
  Ba  Ba7  1  0.321948  0.124952  0.170116  1
  Ba  Ba8  1  0.684572  0.884815  0.820427  1
  Ba  Ba9  1  0.693569  0.875877  0.330855  1
  Ba  Ba10  1  0.688558  0.364766  0.824829  1
  Ba  Ba11  1  0.692639  0.373979  0.329302  1
  Ba  Ba12  1  0.812886  0.630277  0.573841  1
  Ba  Ba13  1  0.816198  0.625587  0.081622  1
  Ba  Ba14  1  0.811929  0.119765  0.575214  1
  Ba  Ba15  1  0.817310  0.124098  0.073823  1
  S  S16  1  0.065113  0.876633  0.656378  1
  S  S17  1  0.060074  0.373427  0.656806  1
  S  S18  1  0.059179  0.874977  0.157521  1
  S  S19  1  0.059410  0.374992  0.157298  1
  S  S20  1  0.451924  0.624879  0.913696  1
  S  S21  1  0.435181  0.626839  0.405194  1
  S  S22  1  0.434617  0.125238  0.906115  1
  S  S23  1  0.435345  0.123203  0.405283  1
  S  S24  1  0.547503  0.874454  0.586005  1
  S  S25  1  0.558570  0.873531  0.093756  1
  S  S26  1  0.559906  0.374982  0.593881  1
  S  S27  1  0.558551  0.376462  0.093813  1
  S  S28  1  0.952187  0.125637  0.336019  1
  S  S29  1  0.934658  0.625141  0.845208  1
  S  S30  1  0.952800  0.624382  0.336098  1
  S  S31  1  0.951677  0.124946  0.837626  1
  O  O32  1  0.085498  0.985748  0.596149  1
  O  O33  1  0.090449  0.767457  0.597399  1
  O  O34  1  0.084925  0.482884  0.598374  1
  O  O35  1  0.079747  0.264004  0.597054  1
  O  O36  1  0.081460  0.484993  0.098319  1
  O  O37  1  0.083758  0.265977  0.098306  1
  O  O38  1  0.081824  0.765018  0.098677  1
  O  O39  1  0.084187  0.983969  0.098677  1
  O  O40  1  0.087441  0.625186  0.807057  1
  O  O41  1  0.181253  0.880938  0.729671  1
  O  O42  1  0.172578  0.874057  0.232755  1
  O  O43  1  0.176192  0.369099  0.730478  1
  O  O44  1  0.173196  0.375899  0.232162  1
  O  O45  1  0.315838  0.624531  0.978647  1
  O  O46  1  0.318997  0.630717  0.478751  1
  O  O47  1  0.317521  0.125620  0.978490  1
  O  O48  1  0.319539  0.119155  0.479208  1
  O  O49  1  0.404908  0.875827  0.057068  1
  O  O50  1  0.407019  0.374947  0.555906  1
  O  O51  1  0.405135  0.374127  0.057003  1
  O  O52  1  0.427162  0.734470  0.849875  1
  O  O53  1  0.415025  0.735973  0.345121  1
  O  O54  1  0.427701  0.514992  0.849748  1
  O  O55  1  0.410205  0.517611  0.346114  1
  O  O56  1  0.413550  0.234053  0.845831  1
  O  O57  1  0.409639  0.232329  0.346349  1
  O  O58  1  0.412858  0.016593  0.845991  1
  O  O59  1  0.414352  0.014223  0.345256  1
  O  O60  1  0.568207  0.985161  0.650014  1
  O  O61  1  0.572045  0.765758  0.650669  1
  O  O62  1  0.581165  0.483532  0.653690  1
  O  O63  1  0.582257  0.982970  0.152475  1
  O  O64  1  0.577510  0.764107  0.153606  1
  O  O65  1  0.577624  0.485833  0.153742  1
  O  O66  1  0.579165  0.265390  0.653539  1
  O  O67  1  0.582358  0.267073  0.152564  1
  O  O68  1  0.587070  0.125304  0.944425  1
  O  O69  1  0.587906  0.624542  0.442824  1
  O  O70  1  0.587938  0.125556  0.442729  1
  O  O71  1  0.684750  0.875939  0.522804  1
  O  O72  1  0.676988  0.374205  0.521600  1
  O  O73  1  0.673992  0.869283  0.020230  1
  O  O74  1  0.674163  0.380798  0.020410  1
  O  O75  1  0.817429  0.624946  0.772885  1
  O  O76  1  0.817711  0.625325  0.271360  1
  O  O77  1  0.815200  0.125060  0.772987  1
  O  O78  1  0.816364  0.124661  0.272120  1
  O  O79  1  0.904941  0.875120  0.192237  1
  O  O80  1  0.905211  0.374873  0.192319  1
  O  O81  1  0.912098  0.874317  0.692832  1
  O  O82  1  0.907249  0.375747  0.693663  1
  O  O83  1  0.928378  0.234207  0.401278  1
  O  O84  1  0.931361  0.015464  0.400508  1
  O  O85  1  0.913870  0.733940  0.905425  1
  O  O86  1  0.930581  0.734490  0.400274  1
  O  O87  1  0.914199  0.516208  0.905510  1
  O  O88  1  0.927615  0.515875  0.401003  1
  O  O89  1  0.928330  0.234821  0.901858  1
  O  O90  1  0.928368  0.015086  0.901567  1
