# generated using pymatgen
data_KY(H2N)4
_symmetry_space_group_name_H-M   'P 1'
_cell_length_a   9.22860100
_cell_length_b   9.22860100
_cell_length_c   6.03997120
_cell_angle_alpha   78.59207791
_cell_angle_beta   101.40792209
_cell_angle_gamma   46.99154639
_symmetry_Int_Tables_number   1
_chemical_formula_structural   KY(H2N)4
_chemical_formula_sum   'K2 Y2 H16 N8'
_cell_volume   326.60419714
_cell_formula_units_Z   2
loop_
 _symmetry_equiv_pos_site_id
 _symmetry_equiv_pos_as_xyz
  1  'x, y, z'
loop_
 _atom_site_type_symbol
 _atom_site_label
 _atom_site_symmetry_multiplicity
 _atom_site_fract_x
 _atom_site_fract_y
 _atom_site_fract_z
 _atom_site_occupancy
  K  K0  1  0.694651  0.694651  0.750000  1
  K  K1  1  0.305349  0.305349  0.250000  1
  Y  Y2  1  0.064728  0.064728  0.250000  1
  Y  Y3  1  0.935272  0.935272  0.750000  1
  H  H4  1  0.380570  0.664900  0.784889  1
  H  H5  1  0.498545  0.788579  0.233109  1
  H  H6  1  0.294148  0.872700  0.835412  1
  H  H7  1  0.664900  0.380570  0.715111  1
  H  H8  1  0.651332  0.956667  0.951597  1
  H  H9  1  0.956667  0.651332  0.548403  1
  H  H10  1  0.872700  0.294148  0.664588  1
  H  H11  1  0.211421  0.501455  0.733109  1
  H  H12  1  0.788579  0.498545  0.266891  1
  H  H13  1  0.127300  0.705852  0.335412  1
  H  H14  1  0.043333  0.348668  0.451597  1
  H  H15  1  0.348668  0.043333  0.048403  1
  H  H16  1  0.335100  0.619430  0.284889  1
  H  H17  1  0.705852  0.127300  0.164588  1
  H  H18  1  0.501455  0.211421  0.766891  1
  H  H19  1  0.619430  0.335100  0.215111  1
  N  N20  1  0.378872  0.947162  0.214041  1
  N  N21  1  0.253817  0.835620  0.703553  1
  N  N22  1  0.052838  0.621128  0.714041  1
  N  N23  1  0.835620  0.253817  0.796447  1
  N  N24  1  0.164380  0.746183  0.203553  1
  N  N25  1  0.947162  0.378872  0.285959  1
  N  N26  1  0.746183  0.164380  0.296447  1
  N  N27  1  0.621128  0.052838  0.785959  1
