# generated using pymatgen
data_Li3NiPCO7
_symmetry_space_group_name_H-M   'P 1'
_cell_length_a   8.60677066
_cell_length_b   6.30126099
_cell_length_c   9.68807897
_cell_angle_alpha   90.00000000
_cell_angle_beta   95.90347794
_cell_angle_gamma   90.00000000
_symmetry_Int_Tables_number   1
_chemical_formula_structural   Li3NiPCO7
_chemical_formula_sum   'Li12 Ni4 P4 C4 O28'
_cell_volume   522.63199337
_cell_formula_units_Z   4
loop_
 _symmetry_equiv_pos_site_id
 _symmetry_equiv_pos_as_xyz
  1  'x, y, z'
loop_
 _atom_site_type_symbol
 _atom_site_label
 _atom_site_symmetry_multiplicity
 _atom_site_fract_x
 _atom_site_fract_y
 _atom_site_fract_z
 _atom_site_occupancy
  Li  Li0  1  0.891523  0.757925  0.638917  1
  Li  Li1  1  0.891523  0.742075  0.138917  1
  Li  Li2  1  0.721282  0.498309  0.371639  1
  Li  Li3  1  0.721282  0.001691  0.871639  1
  Li  Li4  1  0.644178  0.252345  0.637115  1
  Li  Li5  1  0.644178  0.247655  0.137115  1
  Li  Li6  1  0.355822  0.747655  0.362885  1
  Li  Li7  1  0.355822  0.752345  0.862885  1
  Li  Li8  1  0.278718  0.501691  0.628361  1
  Li  Li9  1  0.278718  0.998309  0.128361  1
  Li  Li10  1  0.108477  0.242075  0.361083  1
  Li  Li11  1  0.108477  0.257925  0.861083  1
  Ni  Ni12  1  0.730220  0.996390  0.377714  1
  Ni  Ni13  1  0.730220  0.503610  0.877714  1
  Ni  Ni14  1  0.269780  0.003610  0.622286  1
  Ni  Ni15  1  0.269780  0.496390  0.122286  1
  P  P16  1  0.592915  0.760919  0.611505  1
  P  P17  1  0.592915  0.739081  0.111505  1
  P  P18  1  0.407085  0.239081  0.388495  1
  P  P19  1  0.407085  0.260919  0.888495  1
  C  C20  1  0.959120  0.240881  0.599113  1
  C  C21  1  0.959120  0.259119  0.099113  1
  C  C22  1  0.040880  0.759119  0.400887  1
  C  C23  1  0.040880  0.740881  0.900887  1
  O  O24  1  0.935336  0.259304  0.725709  1
  O  O25  1  0.896950  0.773677  0.436701  1
  O  O26  1  0.935336  0.240696  0.225709  1
  O  O27  1  0.844515  0.242076  0.500871  1
  O  O28  1  0.896950  0.726323  0.936701  1
  O  O29  1  0.844515  0.257924  0.000871  1
  O  O30  1  0.692367  0.949105  0.670085  1
  O  O31  1  0.683722  0.560303  0.668379  1
  O  O32  1  0.683722  0.939697  0.168379  1
  O  O33  1  0.692367  0.550895  0.170085  1
  O  O34  1  0.576104  0.240616  0.348089  1
  O  O35  1  0.586220  0.762236  0.449481  1
  O  O36  1  0.576104  0.259384  0.848089  1
  O  O37  1  0.586220  0.737764  0.949481  1
  O  O38  1  0.413780  0.237764  0.550519  1
  O  O39  1  0.423896  0.759384  0.651911  1
  O  O40  1  0.413780  0.262236  0.050519  1
  O  O41  1  0.423896  0.740616  0.151911  1
  O  O42  1  0.307633  0.050895  0.329915  1
  O  O43  1  0.316278  0.439697  0.331621  1
  O  O44  1  0.307633  0.449105  0.829915  1
  O  O45  1  0.316278  0.060303  0.831621  1
  O  O46  1  0.155485  0.757924  0.499129  1
  O  O47  1  0.103050  0.226323  0.563299  1
  O  O48  1  0.155485  0.742076  0.999129  1
  O  O49  1  0.064664  0.740696  0.274291  1
  O  O50  1  0.103050  0.273677  0.063299  1
  O  O51  1  0.064664  0.759304  0.774291  1
