# generated using pymatgen
data_Ca4I6O
_symmetry_space_group_name_H-M   'P 1'
_cell_length_a   10.28054159
_cell_length_b   10.28054159
_cell_length_c   7.78734783
_cell_angle_alpha   90.00000000
_cell_angle_beta   90.00000000
_cell_angle_gamma   120.00000000
_symmetry_Int_Tables_number   1
_chemical_formula_structural   Ca4I6O
_chemical_formula_sum   'Ca8 I12 O2'
_cell_volume   712.77456573
_cell_formula_units_Z   2
loop_
 _symmetry_equiv_pos_site_id
 _symmetry_equiv_pos_as_xyz
  1  'x, y, z'
loop_
 _atom_site_type_symbol
 _atom_site_label
 _atom_site_symmetry_multiplicity
 _atom_site_fract_x
 _atom_site_fract_y
 _atom_site_fract_z
 _atom_site_occupancy
  Ca  Ca0  1  0.210292  0.789708  0.016997  1
  Ca  Ca1  1  0.333333  0.666667  0.398393  1
  Ca  Ca2  1  0.210292  0.420583  0.016997  1
  Ca  Ca3  1  0.579417  0.789708  0.016997  1
  Ca  Ca4  1  0.420583  0.210292  0.516997  1
  Ca  Ca5  1  0.666667  0.333333  0.898393  1
  Ca  Ca6  1  0.789708  0.579417  0.516997  1
  Ca  Ca7  1  0.789708  0.210292  0.516997  1
  I  I8  1  0.135344  0.864656  0.386240  1
  I  I9  1  0.076294  0.538147  0.707808  1
  I  I10  1  0.135344  0.270687  0.386240  1
  I  I11  1  0.461853  0.923706  0.707808  1
  I  I12  1  0.461853  0.538147  0.707808  1
  I  I13  1  0.270687  0.135344  0.886240  1
  I  I14  1  0.729313  0.864656  0.386240  1
  I  I15  1  0.538147  0.461853  0.207808  1
  I  I16  1  0.538147  0.076294  0.207808  1
  I  I17  1  0.864656  0.729313  0.886240  1
  I  I18  1  0.923706  0.461853  0.207808  1
  I  I19  1  0.864656  0.135344  0.886240  1
  O  O20  1  0.333333  0.666667  0.109194  1
  O  O21  1  0.666667  0.333333  0.609194  1
