# generated using pymatgen
data_LiFePO4
_symmetry_space_group_name_H-M   'P 1'
_cell_length_a   5.88721701
_cell_length_b   7.70809435
_cell_length_c   13.88989867
_cell_angle_alpha   90.00000000
_cell_angle_beta   90.00000000
_cell_angle_gamma   90.00000000
_symmetry_Int_Tables_number   1
_chemical_formula_structural   LiFePO4
_chemical_formula_sum   'Li8 Fe8 P8 O32'
_cell_volume   630.31282547
_cell_formula_units_Z   8
loop_
 _symmetry_equiv_pos_site_id
 _symmetry_equiv_pos_as_xyz
  1  'x, y, z'
loop_
 _atom_site_type_symbol
 _atom_site_label
 _atom_site_symmetry_multiplicity
 _atom_site_fract_x
 _atom_site_fract_y
 _atom_site_fract_z
 _atom_site_occupancy
  Li  Li0  1  0.155387  0.196760  0.224410  1
  Li  Li1  1  0.655387  0.196760  0.275590  1
  Li  Li2  1  0.655387  0.303240  0.775590  1
  Li  Li3  1  0.155387  0.303240  0.724410  1
  Li  Li4  1  0.344613  0.696760  0.224410  1
  Li  Li5  1  0.844613  0.696760  0.275590  1
  Li  Li6  1  0.344613  0.803240  0.724410  1
  Li  Li7  1  0.844613  0.803240  0.775590  1
  Fe  Fe8  1  0.397636  0.182004  0.535577  1
  Fe  Fe9  1  0.897636  0.182004  0.964423  1
  Fe  Fe10  1  0.397636  0.317996  0.035577  1
  Fe  Fe11  1  0.897636  0.317996  0.464423  1
  Fe  Fe12  1  0.102364  0.682004  0.535577  1
  Fe  Fe13  1  0.602364  0.682004  0.964423  1
  Fe  Fe14  1  0.102364  0.817996  0.035577  1
  Fe  Fe15  1  0.602364  0.817996  0.464423  1
  P  P16  1  0.899279  0.046226  0.629104  1
  P  P17  1  0.399279  0.046226  0.870896  1
  P  P18  1  0.899279  0.453774  0.129104  1
  P  P19  1  0.399279  0.453774  0.370896  1
  P  P20  1  0.600721  0.546226  0.629104  1
  P  P21  1  0.100721  0.546226  0.870896  1
  P  P22  1  0.600721  0.953774  0.129104  1
  P  P23  1  0.100721  0.953774  0.370896  1
  O  O24  1  0.805158  0.968651  0.056241  1
  O  O25  1  0.305158  0.968651  0.443759  1
  O  O26  1  0.325715  0.102177  0.770700  1
  O  O27  1  0.825715  0.102177  0.729300  1
  O  O28  1  0.477206  0.130098  0.136765  1
  O  O29  1  0.977206  0.130098  0.363235  1
  O  O30  1  0.062427  0.190793  0.585303  1
  O  O31  1  0.562427  0.190793  0.914697  1
  O  O32  1  0.062427  0.309207  0.085303  1
  O  O33  1  0.562427  0.309207  0.414697  1
  O  O34  1  0.477206  0.369902  0.636765  1
  O  O35  1  0.977206  0.369902  0.863235  1
  O  O36  1  0.825715  0.397823  0.229300  1
  O  O37  1  0.325715  0.397823  0.270700  1
  O  O38  1  0.805158  0.531349  0.556241  1
  O  O39  1  0.305158  0.531349  0.943759  1
  O  O40  1  0.194842  0.468651  0.443759  1
  O  O41  1  0.694842  0.468651  0.056241  1
  O  O42  1  0.674285  0.602177  0.729300  1
  O  O43  1  0.174285  0.602177  0.770700  1
  O  O44  1  0.022794  0.630098  0.136765  1
  O  O45  1  0.522794  0.630098  0.363235  1
  O  O46  1  0.437573  0.690793  0.585303  1
  O  O47  1  0.937573  0.690793  0.914697  1
  O  O48  1  0.437573  0.809207  0.085303  1
  O  O49  1  0.937573  0.809207  0.414697  1
  O  O50  1  0.022794  0.869902  0.636765  1
  O  O51  1  0.522794  0.869902  0.863235  1
  O  O52  1  0.674285  0.897823  0.229300  1
  O  O53  1  0.174285  0.897823  0.270700  1
  O  O54  1  0.694842  0.031349  0.556241  1
  O  O55  1  0.194842  0.031349  0.943759  1
