# generated using pymatgen
data_LiFe4(BO3)4
_symmetry_space_group_name_H-M   'P 1'
_cell_length_a   5.20461741
_cell_length_b   9.22328682
_cell_length_c   10.20200406
_cell_angle_alpha   90.78782934
_cell_angle_beta   90.62063223
_cell_angle_gamma   90.56675759
_symmetry_Int_Tables_number   1
_chemical_formula_structural   LiFe4(BO3)4
_chemical_formula_sum   'Li2 Fe8 B8 O24'
_cell_volume   489.63401578
_cell_formula_units_Z   2
loop_
 _symmetry_equiv_pos_site_id
 _symmetry_equiv_pos_as_xyz
  1  'x, y, z'
loop_
 _atom_site_type_symbol
 _atom_site_label
 _atom_site_symmetry_multiplicity
 _atom_site_fract_x
 _atom_site_fract_y
 _atom_site_fract_z
 _atom_site_occupancy
  Li  Li0  1  0.842122  0.176327  0.348602  1
  Li  Li1  1  0.657484  0.328429  0.631521  1
  Fe  Fe2  1  0.836472  0.831001  0.372144  1
  Fe  Fe3  1  0.830009  0.508541  0.871133  1
  Fe  Fe4  1  0.675730  0.989503  0.120674  1
  Fe  Fe5  1  0.671200  0.670066  0.622071  1
  Fe  Fe6  1  0.332410  0.344399  0.374056  1
  Fe  Fe7  1  0.337227  0.006183  0.867693  1
  Fe  Fe8  1  0.161904  0.152565  0.617959  1
  Fe  Fe9  1  0.164945  0.492907  0.124602  1
  B  B10  1  0.843310  0.498568  0.378935  1
  B  B11  1  0.840484  0.833855  0.872016  1
  B  B12  1  0.653033  0.000917  0.615460  1
  B  B13  1  0.664202  0.664244  0.123312  1
  B  B14  1  0.329648  0.003424  0.365652  1
  B  B15  1  0.322492  0.333223  0.866302  1
  B  B16  1  0.175329  0.494140  0.626695  1
  B  B17  1  0.183828  0.166348  0.125174  1
  O  O18  1  0.912528  0.500085  0.666047  1
  O  O19  1  0.930813  0.135055  0.150342  1
  O  O20  1  0.776637  0.792572  0.175282  1
  O  O21  1  0.754060  0.869526  0.566217  1
  O  O22  1  0.778237  0.129810  0.599383  1
  O  O23  1  0.826333  0.563347  0.063524  1
  O  O24  1  0.714870  0.371235  0.398704  1
  O  O25  1  0.675282  0.935033  0.928830  1
  O  O26  1  0.751119  0.631911  0.428100  1
  O  O27  1  0.729788  0.706108  0.818490  1
  O  O28  1  0.574140  0.365059  0.838885  1
  O  O29  1  0.593365  0.001139  0.326487  1
  O  O30  1  0.416446  0.994423  0.676477  1
  O  O31  1  0.411832  0.640422  0.130708  1
  O  O32  1  0.293098  0.298789  0.161094  1
  O  O33  1  0.271570  0.363495  0.584108  1
  O  O34  1  0.326145  0.616012  0.631872  1
  O  O35  1  0.341377  0.061757  0.068079  1
  O  O36  1  0.166165  0.438348  0.924721  1
  O  O37  1  0.185580  0.878911  0.362278  1
  O  O38  1  0.224969  0.133133  0.406252  1
  O  O39  1  0.212613  0.200751  0.831980  1
  O  O40  1  0.093168  0.857220  0.869536  1
  O  O41  1  0.076267  0.500548  0.314675  1
