# generated using pymatgen
data_Li3MnF5
_symmetry_space_group_name_H-M   'P 1'
_cell_length_a   5.15961571
_cell_length_b   5.76664995
_cell_length_c   7.86029567
_cell_angle_alpha   96.05878212
_cell_angle_beta   108.00844114
_cell_angle_gamma   113.80744274
_symmetry_Int_Tables_number   1
_chemical_formula_structural   Li3MnF5
_chemical_formula_sum   'Li6 Mn2 F10'
_cell_volume   196.22930455
_cell_formula_units_Z   2
loop_
 _symmetry_equiv_pos_site_id
 _symmetry_equiv_pos_as_xyz
  1  'x, y, z'
loop_
 _atom_site_type_symbol
 _atom_site_label
 _atom_site_symmetry_multiplicity
 _atom_site_fract_x
 _atom_site_fract_y
 _atom_site_fract_z
 _atom_site_occupancy
  Li  Li0  1  0.685685  0.457490  0.913240  1
  Li  Li1  1  0.343615  0.968824  0.712344  1
  Li  Li2  1  0.941988  0.559933  0.301722  1
  Li  Li3  1  0.058012  0.440067  0.698278  1
  Li  Li4  1  0.656385  0.031176  0.287656  1
  Li  Li5  1  0.314315  0.542510  0.086760  1
  Mn  Mn6  1  0.000000  0.000000  0.000000  1
  Mn  Mn7  1  0.500000  0.500000  0.500000  1
  F  F8  1  0.963520  0.709982  0.543249  1
  F  F9  1  0.756030  0.741493  0.136481  1
  F  F10  1  0.627846  0.270425  0.672386  1
  F  F11  1  0.864801  0.281014  0.068418  1
  F  F12  1  0.438714  0.252730  0.241854  1
  F  F13  1  0.135199  0.718986  0.931582  1
  F  F14  1  0.372154  0.729575  0.327614  1
  F  F15  1  0.243970  0.258507  0.863519  1
  F  F16  1  0.036480  0.290018  0.456751  1
  F  F17  1  0.561286  0.747270  0.758146  1
