# generated using pymatgen
data_Lu2GeO5
_symmetry_space_group_name_H-M   'P 1'
_cell_length_a   8.08272622
_cell_length_b   8.08272622
_cell_length_c   10.30122265
_cell_angle_alpha   61.49617778
_cell_angle_beta   118.50382222
_cell_angle_gamma   130.49602203
_symmetry_Int_Tables_number   1
_chemical_formula_structural   Lu2GeO5
_chemical_formula_sum   'Lu8 Ge4 O20'
_cell_volume   435.41306403
_cell_formula_units_Z   4
loop_
 _symmetry_equiv_pos_site_id
 _symmetry_equiv_pos_as_xyz
  1  'x, y, z'
loop_
 _atom_site_type_symbol
 _atom_site_label
 _atom_site_symmetry_multiplicity
 _atom_site_fract_x
 _atom_site_fract_y
 _atom_site_fract_z
 _atom_site_occupancy
  Lu  Lu0  1  0.760750  0.486392  0.338800  1
  Lu  Lu1  1  0.224737  0.294867  0.032094  1
  Lu  Lu2  1  0.294867  0.224737  0.467906  1
  Lu  Lu3  1  0.513608  0.239250  0.838800  1
  Lu  Lu4  1  0.486392  0.760750  0.161200  1
  Lu  Lu5  1  0.705133  0.775263  0.532094  1
  Lu  Lu6  1  0.775263  0.705133  0.967906  1
  Lu  Lu7  1  0.239250  0.513608  0.661200  1
  Ge  Ge8  1  0.721340  0.092159  0.691528  1
  Ge  Ge9  1  0.092159  0.721340  0.808472  1
  Ge  Ge10  1  0.907841  0.278660  0.191528  1
  Ge  Ge11  1  0.278660  0.907841  0.308472  1
  O  O12  1  0.908956  0.072697  0.871537  1
  O  O13  1  0.122624  0.714651  0.446811  1
  O  O14  1  0.415999  0.182370  0.327409  1
  O  O15  1  0.152827  0.539346  0.824118  1
  O  O16  1  0.539346  0.152827  0.675882  1
  O  O17  1  0.580803  0.614703  0.103070  1
  O  O18  1  0.614703  0.580803  0.396930  1
  O  O19  1  0.072697  0.908956  0.628463  1
  O  O20  1  0.285349  0.877376  0.946811  1
  O  O21  1  0.182370  0.415999  0.172591  1
  O  O22  1  0.817630  0.584001  0.827409  1
  O  O23  1  0.714651  0.122624  0.053189  1
  O  O24  1  0.927303  0.091044  0.371537  1
  O  O25  1  0.385297  0.419197  0.603070  1
  O  O26  1  0.419197  0.385297  0.896930  1
  O  O27  1  0.460654  0.847173  0.324118  1
  O  O28  1  0.847173  0.460654  0.175882  1
  O  O29  1  0.584001  0.817630  0.672591  1
  O  O30  1  0.877376  0.285349  0.553189  1
  O  O31  1  0.091044  0.927303  0.128463  1
