# generated using pymatgen
data_Sn3P6WO24
_symmetry_space_group_name_H-M   'P 1'
_cell_length_a   9.00402327
_cell_length_b   9.00402327
_cell_length_c   9.00402327
_cell_angle_alpha   58.29107151
_cell_angle_beta   58.29107151
_cell_angle_gamma   58.29107151
_symmetry_Int_Tables_number   1
_chemical_formula_structural   Sn3P6WO24
_chemical_formula_sum   'Sn3 P6 W1 O24'
_cell_volume   495.97014560
_cell_formula_units_Z   1
loop_
 _symmetry_equiv_pos_site_id
 _symmetry_equiv_pos_as_xyz
  1  'x, y, z'
loop_
 _atom_site_type_symbol
 _atom_site_label
 _atom_site_symmetry_multiplicity
 _atom_site_fract_x
 _atom_site_fract_y
 _atom_site_fract_z
 _atom_site_occupancy
  Sn  Sn0  1  0.856752  0.856752  0.856752  1
  Sn  Sn1  1  0.641497  0.641497  0.641497  1
  Sn  Sn2  1  0.356762  0.356762  0.356762  1
  P  P3  1  0.250261  0.538098  0.962679  1
  P  P4  1  0.962679  0.250261  0.538098  1
  P  P5  1  0.538098  0.962679  0.250261  1
  P  P6  1  0.464743  0.037599  0.747499  1
  P  P7  1  0.037599  0.747499  0.464743  1
  P  P8  1  0.747499  0.464743  0.037599  1
  W  W9  1  0.142650  0.142650  0.142650  1
  O  O10  1  0.731144  0.480432  0.868566  1
  O  O11  1  0.480432  0.868566  0.731144  1
  O  O12  1  0.079387  0.710614  0.940143  1
  O  O13  1  0.868566  0.731144  0.480432  1
  O  O14  1  0.421149  0.549595  0.785533  1
  O  O15  1  0.214616  0.362064  0.004397  1
  O  O16  1  0.940143  0.079387  0.710614  1
  O  O17  1  0.785533  0.421149  0.549595  1
  O  O18  1  0.549595  0.785533  0.421149  1
  O  O19  1  0.626865  0.012151  0.780744  1
  O  O20  1  0.285165  0.068330  0.926992  1
  O  O21  1  0.012151  0.780744  0.626865  1
  O  O22  1  0.004397  0.214616  0.362064  1
  O  O23  1  0.710614  0.940143  0.079387  1
  O  O24  1  0.362064  0.004397  0.214616  1
  O  O25  1  0.432022  0.217966  0.585326  1
  O  O26  1  0.217966  0.585326  0.432022  1
  O  O27  1  0.068330  0.926992  0.285165  1
  O  O28  1  0.780744  0.626865  0.012151  1
  O  O29  1  0.585326  0.432022  0.217966  1
  O  O30  1  0.129519  0.278065  0.510679  1
  O  O31  1  0.926992  0.285165  0.068330  1
  O  O32  1  0.510679  0.129519  0.278065  1
  O  O33  1  0.278065  0.510679  0.129519  1
