# generated using pymatgen
data_Li4Mn3(OF3)2
_symmetry_space_group_name_H-M   'P 1'
_cell_length_a   5.36275714
_cell_length_b   5.39146629
_cell_length_c   6.13968368
_cell_angle_alpha   89.27061328
_cell_angle_beta   107.22175648
_cell_angle_gamma   100.09181451
_symmetry_Int_Tables_number   1
_chemical_formula_structural   Li4Mn3(OF3)2
_chemical_formula_sum   'Li4 Mn3 O2 F6'
_cell_volume   166.79052398
_cell_formula_units_Z   1
loop_
 _symmetry_equiv_pos_site_id
 _symmetry_equiv_pos_as_xyz
  1  'x, y, z'
loop_
 _atom_site_type_symbol
 _atom_site_label
 _atom_site_symmetry_multiplicity
 _atom_site_fract_x
 _atom_site_fract_y
 _atom_site_fract_z
 _atom_site_occupancy
  Li  Li0  1  0.984960  0.267524  0.378825  1
  Li  Li1  1  0.015040  0.732476  0.621175  1
  Li  Li2  1  0.991176  0.231607  0.861369  1
  Li  Li3  1  0.008824  0.768393  0.138631  1
  Mn  Mn4  1  0.500000  0.000000  0.500000  1
  Mn  Mn5  1  0.505908  0.498250  0.742173  1
  Mn  Mn6  1  0.494092  0.501750  0.257827  1
  O  O7  1  0.732427  0.355298  0.557288  1
  O  O8  1  0.267573  0.644702  0.442712  1
  F  F9  1  0.225186  0.132419  0.673247  1
  F  F10  1  0.792561  0.864146  0.813877  1
  F  F11  1  0.762545  0.414424  0.070784  1
  F  F12  1  0.237455  0.585576  0.929216  1
  F  F13  1  0.774814  0.867581  0.326753  1
  F  F14  1  0.207439  0.135854  0.186123  1
