# generated using pymatgen
data_Li2CuPO4
_symmetry_space_group_name_H-M   'P 1'
_cell_length_a   5.40399970
_cell_length_b   6.21800509
_cell_length_c   10.06759147
_cell_angle_alpha   90.10337415
_cell_angle_beta   90.02128720
_cell_angle_gamma   90.28040497
_symmetry_Int_Tables_number   1
_chemical_formula_structural   Li2CuPO4
_chemical_formula_sum   'Li8 Cu4 P4 O16'
_cell_volume   338.28756532
_cell_formula_units_Z   4
loop_
 _symmetry_equiv_pos_site_id
 _symmetry_equiv_pos_as_xyz
  1  'x, y, z'
loop_
 _atom_site_type_symbol
 _atom_site_label
 _atom_site_symmetry_multiplicity
 _atom_site_fract_x
 _atom_site_fract_y
 _atom_site_fract_z
 _atom_site_occupancy
  Li  Li0  1  0.155200  0.001571  0.746239  1
  Li  Li1  1  0.154957  0.999702  0.246139  1
  Li  Li2  1  0.326749  0.752940  0.496610  1
  Li  Li3  1  0.328744  0.753780  0.995841  1
  Li  Li4  1  0.672042  0.748408  0.745258  1
  Li  Li5  1  0.845421  0.500134  0.996375  1
  Li  Li6  1  0.844822  0.498987  0.496108  1
  Li  Li7  1  0.673432  0.251694  0.245279  1
  Cu  Cu8  1  0.664502  0.742036  0.248865  1
  Cu  Cu9  1  0.664335  0.258506  0.746248  1
  Cu  Cu10  1  0.338266  0.243508  0.497225  1
  Cu  Cu11  1  0.331348  0.243478  0.997791  1
  P  P12  1  0.828091  0.997149  0.999469  1
  P  P13  1  0.828060  0.994514  0.499190  1
  P  P14  1  0.172316  0.500400  0.249258  1
  P  P15  1  0.171793  0.509347  0.749531  1
  O  O16  1  0.831381  0.995070  0.653840  1
  O  O17  1  0.098147  0.985446  0.444598  1
  O  O18  1  0.831083  0.004042  0.154010  1
  O  O19  1  0.098264  0.988233  0.944438  1
  O  O20  1  0.681305  0.789482  0.454010  1
  O  O21  1  0.683554  0.796558  0.947150  1
  O  O22  1  0.298084  0.707774  0.191732  1
  O  O23  1  0.317274  0.707882  0.696151  1
  O  O24  1  0.169270  0.513060  0.904065  1
  O  O25  1  0.901669  0.515267  0.694444  1
  O  O26  1  0.169408  0.511931  0.403780  1
  O  O27  1  0.902026  0.486946  0.194691  1
  O  O28  1  0.294710  0.293806  0.702621  1
  O  O29  1  0.316692  0.294464  0.205991  1
  O  O30  1  0.703766  0.203090  0.443982  1
  O  O31  1  0.703288  0.210797  0.951663  1
