# generated using pymatgen
data_Fe2Co3O10
_symmetry_space_group_name_H-M   'P 1'
_cell_length_a   5.02593865
_cell_length_b   2.90499203
_cell_length_c   23.55269336
_cell_angle_alpha   90.00000000
_cell_angle_beta   93.47312507
_cell_angle_gamma   90.00000000
_symmetry_Int_Tables_number   1
_chemical_formula_structural   Fe2Co3O10
_chemical_formula_sum   'Fe4 Co6 O20'
_cell_volume   343.24507471
_cell_formula_units_Z   2
loop_
 _symmetry_equiv_pos_site_id
 _symmetry_equiv_pos_as_xyz
  1  'x, y, z'
loop_
 _atom_site_type_symbol
 _atom_site_label
 _atom_site_symmetry_multiplicity
 _atom_site_fract_x
 _atom_site_fract_y
 _atom_site_fract_z
 _atom_site_occupancy
  Fe  Fe0  1  0.504064  0.500000  0.501714  1
  Fe  Fe1  1  0.104607  0.500000  0.301492  1
  Fe  Fe2  1  0.897022  0.000000  0.199747  1
  Fe  Fe3  1  0.693672  0.500000  0.097029  1
  Co  Co4  1  0.296453  0.500000  0.898389  1
  Co  Co5  1  0.099685  0.000000  0.799864  1
  Co  Co6  1  0.902519  0.500000  0.701187  1
  Co  Co7  1  0.704897  0.000000  0.602466  1
  Co  Co8  1  0.301673  0.000000  0.401541  1
  Co  Co9  1  0.495955  0.000000  0.996120  1
  O  O10  1  0.599390  0.500000  0.950185  1
  O  O11  1  0.193384  0.000000  0.944988  1
  O  O12  1  0.995691  0.500000  0.846335  1
  O  O13  1  0.400453  0.000000  0.852221  1
  O  O14  1  0.204320  0.500000  0.753654  1
  O  O15  1  0.799391  0.000000  0.747938  1
  O  O16  1  0.603004  0.500000  0.648604  1
  O  O17  1  0.815069  0.500000  0.556749  1
  O  O18  1  0.003213  0.000000  0.654835  1
  O  O19  1  0.400654  0.000000  0.552327  1
  O  O20  1  0.604336  0.000000  0.450936  1
  O  O21  1  0.192024  0.500000  0.446678  1
  O  O22  1  0.410506  0.500000  0.356094  1
  O  O23  1  0.999825  0.000000  0.352580  1
  O  O24  1  0.791435  0.500000  0.251041  1
  O  O25  1  0.224178  0.000000  0.255050  1
  O  O26  1  0.002142  0.500000  0.147639  1
  O  O27  1  0.570156  0.000000  0.143317  1
  O  O28  1  0.802107  0.000000  0.046956  1
  O  O29  1  0.388173  0.500000  0.042325  1
