# generated using pymatgen
data_Y7HoO12
_symmetry_space_group_name_H-M   'P 1'
_cell_length_a   9.25355978
_cell_length_b   9.25355978
_cell_length_c   9.25355978
_cell_angle_alpha   109.47633338
_cell_angle_beta   109.47275898
_cell_angle_gamma   109.46456977
_symmetry_Int_Tables_number   1
_chemical_formula_structural   Y7HoO12
_chemical_formula_sum   'Y14 Ho2 O24'
_cell_volume   609.96456951
_cell_formula_units_Z   2
loop_
 _symmetry_equiv_pos_site_id
 _symmetry_equiv_pos_as_xyz
  1  'x, y, z'
loop_
 _atom_site_type_symbol
 _atom_site_label
 _atom_site_symmetry_multiplicity
 _atom_site_fract_x
 _atom_site_fract_y
 _atom_site_fract_z
 _atom_site_occupancy
  Y  Y0  1  0.217341  0.250000  0.467341  1
  Y  Y1  1  0.999197  0.499859  0.499404  1
  Y  Y2  1  0.750000  0.967190  0.217190  1
  Y  Y3  1  0.250000  0.532810  0.282810  1
  Y  Y4  1  0.533276  0.783276  0.750000  1
  Y  Y5  1  0.032103  0.282103  0.750000  1
  Y  Y6  1  0.999544  0.000141  0.999337  1
  Y  Y7  1  0.500803  0.000207  0.500663  1
  Y  Y8  1  0.500456  0.499793  0.000596  1
  Y  Y9  1  0.282659  0.750000  0.032659  1
  Y  Y10  1  0.467897  0.217897  0.250000  1
  Y  Y11  1  0.966724  0.716724  0.250000  1
  Y  Y12  1  0.750000  0.467830  0.717830  1
  Y  Y13  1  0.250000  0.032170  0.782170  1
  Ho  Ho14  1  0.717067  0.250000  0.967067  1
  Ho  Ho15  1  0.782933  0.750000  0.532933  1
  O  O16  1  0.489316  0.728114  0.957658  1
  O  O17  1  0.270456  0.531659  0.542342  1
  O  O18  1  0.041560  0.770267  0.531350  1
  O  O19  1  0.239377  0.270767  0.228105  1
  O  O20  1  0.260623  0.488729  0.031390  1
  O  O21  1  0.458440  0.989790  0.728706  1
  O  O22  1  0.229544  0.771886  0.261203  1
  O  O23  1  0.010684  0.968341  0.238797  1
  O  O24  1  0.031334  0.542357  0.770676  1
  O  O25  1  0.771769  0.043829  0.011103  1
  O  O26  1  0.271681  0.260658  0.729324  1
  O  O27  1  0.532727  0.760666  0.488897  1
  O  O28  1  0.468666  0.239342  0.511023  1
  O  O29  1  0.228319  0.957643  0.988977  1
  O  O30  1  0.728231  0.739334  0.272061  1
  O  O31  1  0.967273  0.456171  0.227939  1
  O  O32  1  0.987543  0.029724  0.758738  1
  O  O33  1  0.770986  0.228804  0.741262  1
  O  O34  1  0.542662  0.011271  0.271895  1
  O  O35  1  0.738916  0.510210  0.968650  1
  O  O36  1  0.761084  0.729733  0.771294  1
  O  O37  1  0.957338  0.229233  0.468610  1
  O  O38  1  0.729014  0.470276  0.457818  1
  O  O39  1  0.512457  0.271196  0.042182  1
