# generated using pymatgen
data_CrPO4F
_symmetry_space_group_name_H-M   'P 1'
_cell_length_a   6.24144985
_cell_length_b   10.55057064
_cell_length_c   12.62750315
_cell_angle_alpha   90.00000000
_cell_angle_beta   90.00000000
_cell_angle_gamma   90.00000000
_symmetry_Int_Tables_number   1
_chemical_formula_structural   CrPO4F
_chemical_formula_sum   'Cr8 P8 O32 F8'
_cell_volume   831.53191100
_cell_formula_units_Z   8
loop_
 _symmetry_equiv_pos_site_id
 _symmetry_equiv_pos_as_xyz
  1  'x, y, z'
loop_
 _atom_site_type_symbol
 _atom_site_label
 _atom_site_symmetry_multiplicity
 _atom_site_fract_x
 _atom_site_fract_y
 _atom_site_fract_z
 _atom_site_occupancy
  Cr  Cr0  1  0.996457  0.247052  0.889882  1
  Cr  Cr1  1  0.248057  0.999411  0.747686  1
  Cr  Cr2  1  0.251943  0.999411  0.247686  1
  Cr  Cr3  1  0.503543  0.247052  0.389882  1
  Cr  Cr4  1  0.496457  0.747052  0.610118  1
  Cr  Cr5  1  0.748057  0.499411  0.752314  1
  Cr  Cr6  1  0.751943  0.499411  0.252314  1
  Cr  Cr7  1  0.003543  0.747052  0.110118  1
  P  P8  1  0.002903  0.248308  0.315031  1
  P  P9  1  0.166157  0.997123  0.997950  1
  P  P10  1  0.333843  0.997123  0.497950  1
  P  P11  1  0.497097  0.248308  0.815031  1
  P  P12  1  0.502903  0.748308  0.184969  1
  P  P13  1  0.666157  0.497123  0.502050  1
  P  P14  1  0.833843  0.497123  0.002050  1
  P  P15  1  0.997097  0.748308  0.684969  1
  O  O16  1  0.012445  0.112141  0.988867  1
  O  O17  1  0.022891  0.877214  0.007632  1
  O  O18  1  0.037499  0.866355  0.755338  1
  O  O19  1  0.042667  0.133343  0.240981  1
  O  O20  1  0.192176  0.016802  0.596546  1
  O  O21  1  0.191140  0.720430  0.613231  1
  O  O22  1  0.196473  0.272360  0.387923  1
  O  O23  1  0.193231  0.981561  0.398615  1
  O  O24  1  0.306769  0.981561  0.898615  1
  O  O25  1  0.303527  0.272360  0.887923  1
  O  O26  1  0.308860  0.720430  0.113231  1
  O  O27  1  0.307824  0.016802  0.096547  1
  O  O28  1  0.457333  0.133343  0.740981  1
  O  O29  1  0.462501  0.866355  0.255338  1
  O  O30  1  0.477109  0.877214  0.507632  1
  O  O31  1  0.487555  0.112141  0.488867  1
  O  O32  1  0.512445  0.612141  0.511133  1
  O  O33  1  0.522891  0.377214  0.492368  1
  O  O34  1  0.537499  0.366355  0.744662  1
  O  O35  1  0.542667  0.633343  0.259019  1
  O  O36  1  0.692176  0.516802  0.903454  1
  O  O37  1  0.691140  0.220430  0.886769  1
  O  O38  1  0.696473  0.772360  0.112077  1
  O  O39  1  0.693232  0.481561  0.101385  1
  O  O40  1  0.806768  0.481561  0.601385  1
  O  O41  1  0.803527  0.772360  0.612077  1
  O  O42  1  0.808860  0.220430  0.386769  1
  O  O43  1  0.807824  0.516802  0.403454  1
  O  O44  1  0.957333  0.633343  0.759019  1
  O  O45  1  0.962501  0.366355  0.244662  1
  O  O46  1  0.977109  0.377214  0.992368  1
  O  O47  1  0.987555  0.612141  0.011133  1
  F  F48  1  0.026238  0.125078  0.774040  1
  F  F49  1  0.029820  0.873850  0.222096  1
  F  F50  1  0.470180  0.873850  0.722096  1
  F  F51  1  0.473762  0.125078  0.274040  1
  F  F52  1  0.526238  0.625078  0.725960  1
  F  F53  1  0.529820  0.373850  0.277904  1
  F  F54  1  0.970180  0.373850  0.777904  1
  F  F55  1  0.973762  0.625078  0.225960  1
