# generated using pymatgen
data_Li2FePCO7
_symmetry_space_group_name_H-M   'P 1'
_cell_length_a   8.34698282
_cell_length_b   6.49056923
_cell_length_c   10.19444319
_cell_angle_alpha   90.00000000
_cell_angle_beta   94.99528981
_cell_angle_gamma   90.00000000
_symmetry_Int_Tables_number   1
_chemical_formula_structural   Li2FePCO7
_chemical_formula_sum   'Li8 Fe4 P4 C4 O28'
_cell_volume   550.20326648
_cell_formula_units_Z   4
loop_
 _symmetry_equiv_pos_site_id
 _symmetry_equiv_pos_as_xyz
  1  'x, y, z'
loop_
 _atom_site_type_symbol
 _atom_site_label
 _atom_site_symmetry_multiplicity
 _atom_site_fract_x
 _atom_site_fract_y
 _atom_site_fract_z
 _atom_site_occupancy
  Li  Li0  1  0.902447  0.749129  0.631092  1
  Li  Li1  1  0.902447  0.750871  0.131092  1
  Li  Li2  1  0.721692  0.535685  0.377497  1
  Li  Li3  1  0.721692  0.964315  0.877497  1
  Li  Li4  1  0.278308  0.464315  0.622503  1
  Li  Li5  1  0.278308  0.035685  0.122503  1
  Li  Li6  1  0.097553  0.250871  0.368908  1
  Li  Li7  1  0.097553  0.249129  0.868908  1
  Fe  Fe8  1  0.670752  0.250686  0.649408  1
  Fe  Fe9  1  0.670752  0.249314  0.149408  1
  Fe  Fe10  1  0.329248  0.749314  0.350592  1
  Fe  Fe11  1  0.329248  0.750686  0.850592  1
  P  P12  1  0.579938  0.741958  0.611616  1
  P  P13  1  0.579938  0.758042  0.111616  1
  P  P14  1  0.420062  0.258042  0.388384  1
  P  P15  1  0.420062  0.241958  0.888384  1
  C  C16  1  0.960310  0.259029  0.600819  1
  C  C17  1  0.960310  0.240971  0.100819  1
  C  C18  1  0.039690  0.740971  0.399181  1
  C  C19  1  0.039690  0.759029  0.899181  1
  O  O20  1  0.924314  0.239499  0.723311  1
  O  O21  1  0.898071  0.718644  0.432594  1
  O  O22  1  0.924314  0.260501  0.223311  1
  O  O23  1  0.835973  0.255135  0.512547  1
  O  O24  1  0.898071  0.781356  0.932594  1
  O  O25  1  0.835973  0.244865  0.012547  1
  O  O26  1  0.683096  0.932160  0.658125  1
  O  O27  1  0.695110  0.558575  0.646769  1
  O  O28  1  0.695110  0.941425  0.146769  1
  O  O29  1  0.683096  0.567840  0.158125  1
  O  O30  1  0.578514  0.276259  0.321943  1
  O  O31  1  0.538226  0.740828  0.459496  1
  O  O32  1  0.578514  0.223741  0.821943  1
  O  O33  1  0.538226  0.759172  0.959496  1
  O  O34  1  0.461774  0.259172  0.540504  1
  O  O35  1  0.421486  0.723741  0.678057  1
  O  O36  1  0.461774  0.240828  0.040504  1
  O  O37  1  0.421486  0.776259  0.178057  1
  O  O38  1  0.304890  0.441425  0.353231  1
  O  O39  1  0.316904  0.067840  0.341875  1
  O  O40  1  0.316904  0.432160  0.841875  1
  O  O41  1  0.304890  0.058575  0.853231  1
  O  O42  1  0.164027  0.744865  0.487453  1
  O  O43  1  0.101929  0.281356  0.567406  1
  O  O44  1  0.164027  0.755135  0.987453  1
  O  O45  1  0.075686  0.760501  0.276689  1
  O  O46  1  0.101929  0.218644  0.067406  1
  O  O47  1  0.075686  0.739499  0.776689  1
