# generated using pymatgen
data_Li4Mn3Co3(WO8)2
_symmetry_space_group_name_H-M   'P 1'
_cell_length_a   5.99537155
_cell_length_b   5.99537155
_cell_length_c   9.86266793
_cell_angle_alpha   88.52573315
_cell_angle_beta   91.47426685
_cell_angle_gamma   121.04688849
_symmetry_Int_Tables_number   1
_chemical_formula_structural   Li4Mn3Co3(WO8)2
_chemical_formula_sum   'Li4 Mn3 Co3 W2 O16'
_cell_volume   303.59088004
_cell_formula_units_Z   1
loop_
 _symmetry_equiv_pos_site_id
 _symmetry_equiv_pos_as_xyz
  1  'x, y, z'
loop_
 _atom_site_type_symbol
 _atom_site_label
 _atom_site_symmetry_multiplicity
 _atom_site_fract_x
 _atom_site_fract_y
 _atom_site_fract_z
 _atom_site_occupancy
  Li  Li0  1  0.662153  0.337847  0.907201  1
  Li  Li1  1  0.997890  0.002110  0.989999  1
  Li  Li2  1  0.001560  0.998440  0.484407  1
  Li  Li3  1  0.332338  0.667662  0.407160  1
  Mn  Mn4  1  0.832167  0.167833  0.210650  1
  Mn  Mn5  1  0.168198  0.341766  0.714382  1
  Mn  Mn6  1  0.658234  0.831802  0.714382  1
  Co  Co7  1  0.350854  0.186685  0.216608  1
  Co  Co8  1  0.813315  0.649146  0.216608  1
  Co  Co9  1  0.169168  0.830832  0.713202  1
  W  W10  1  0.666566  0.333434  0.485832  1
  W  W11  1  0.320382  0.679618  0.987312  1
  O  O12  1  0.351762  0.166154  0.582729  1
  O  O13  1  0.517307  0.482693  0.355211  1
  O  O14  1  0.668689  0.331311  0.113012  1
  O  O15  1  0.998771  0.001229  0.295475  1
  O  O16  1  0.996717  0.003283  0.801046  1
  O  O17  1  0.833846  0.648238  0.582729  1
  O  O18  1  0.521974  0.039817  0.352242  1
  O  O19  1  0.960183  0.478026  0.352242  1
  O  O20  1  0.171153  0.828847  0.088781  1
  O  O21  1  0.833632  0.166368  0.592025  1
  O  O22  1  0.032826  0.520261  0.857364  1
  O  O23  1  0.479739  0.967174  0.857364  1
  O  O24  1  0.337999  0.662001  0.614230  1
  O  O25  1  0.175402  0.348015  0.086383  1
  O  O26  1  0.476553  0.523447  0.842851  1
  O  O27  1  0.651985  0.824598  0.086383  1
