# generated using pymatgen
data_NaMnO4
_symmetry_space_group_name_H-M   'P 1'
_cell_length_a   5.48180559
_cell_length_b   6.43871984
_cell_length_c   11.04898071
_cell_angle_alpha   90.00000000
_cell_angle_beta   90.00000000
_cell_angle_gamma   90.00000000
_symmetry_Int_Tables_number   1
_chemical_formula_structural   NaMnO4
_chemical_formula_sum   'Na4 Mn4 O16'
_cell_volume   389.98272863
_cell_formula_units_Z   4
loop_
 _symmetry_equiv_pos_site_id
 _symmetry_equiv_pos_as_xyz
  1  'x, y, z'
loop_
 _atom_site_type_symbol
 _atom_site_label
 _atom_site_symmetry_multiplicity
 _atom_site_fract_x
 _atom_site_fract_y
 _atom_site_fract_z
 _atom_site_occupancy
  Na  Na0  1  0.750000  0.430351  0.197476  1
  Na  Na1  1  0.750000  0.069649  0.697476  1
  Na  Na2  1  0.250000  0.930351  0.302524  1
  Na  Na3  1  0.250000  0.569649  0.802524  1
  Mn  Mn4  1  0.500000  0.500000  0.500000  1
  Mn  Mn5  1  0.000000  0.500000  0.500000  1
  Mn  Mn6  1  0.500000  0.000000  0.000000  1
  Mn  Mn7  1  0.000000  0.000000  0.000000  1
  O  O8  1  0.750000  0.560195  0.386713  1
  O  O9  1  0.627567  0.758330  0.096711  1
  O  O10  1  0.872433  0.758330  0.096711  1
  O  O11  1  0.250000  0.657295  0.425782  1
  O  O12  1  0.250000  0.842705  0.925782  1
  O  O13  1  0.627567  0.741670  0.596711  1
  O  O14  1  0.872433  0.741670  0.596711  1
  O  O15  1  0.750000  0.939805  0.886713  1
  O  O16  1  0.250000  0.060195  0.113287  1
  O  O17  1  0.372433  0.258330  0.403289  1
  O  O18  1  0.127567  0.258330  0.403289  1
  O  O19  1  0.750000  0.157295  0.074218  1
  O  O20  1  0.750000  0.342705  0.574218  1
  O  O21  1  0.372433  0.241670  0.903289  1
  O  O22  1  0.127567  0.241670  0.903289  1
  O  O23  1  0.250000  0.439805  0.613287  1
