# generated using pymatgen
data_Li3BiS3
_symmetry_space_group_name_H-M   'P 1'
_cell_length_a   6.84450921
_cell_length_b   7.82021964
_cell_length_c   10.43582472
_cell_angle_alpha   90.00000000
_cell_angle_beta   90.00000000
_cell_angle_gamma   90.00000000
_symmetry_Int_Tables_number   1
_chemical_formula_structural   Li3BiS3
_chemical_formula_sum   'Li12 Bi4 S12'
_cell_volume   558.58341803
_cell_formula_units_Z   4
loop_
 _symmetry_equiv_pos_site_id
 _symmetry_equiv_pos_as_xyz
  1  'x, y, z'
loop_
 _atom_site_type_symbol
 _atom_site_label
 _atom_site_symmetry_multiplicity
 _atom_site_fract_x
 _atom_site_fract_y
 _atom_site_fract_z
 _atom_site_occupancy
  Li  Li0  1  0.960004  0.932541  0.771146  1
  Li  Li1  1  0.657550  0.905847  0.316209  1
  Li  Li2  1  0.623353  0.752207  0.619646  1
  Li  Li3  1  0.123353  0.747793  0.119646  1
  Li  Li4  1  0.157550  0.594153  0.816209  1
  Li  Li5  1  0.460004  0.567459  0.271146  1
  Li  Li6  1  0.539996  0.432541  0.771146  1
  Li  Li7  1  0.842450  0.405847  0.316209  1
  Li  Li8  1  0.876647  0.252207  0.619646  1
  Li  Li9  1  0.376647  0.247793  0.119646  1
  Li  Li10  1  0.342450  0.094153  0.816209  1
  Li  Li11  1  0.039996  0.067459  0.271146  1
  Bi  Bi12  1  0.099224  0.716947  0.496568  1
  Bi  Bi13  1  0.599224  0.783053  0.996568  1
  Bi  Bi14  1  0.400776  0.216947  0.496568  1
  Bi  Bi15  1  0.900776  0.283053  0.996568  1
  S  S16  1  0.844648  0.962493  0.509487  1
  S  S17  1  0.304283  0.851214  0.315930  1
  S  S18  1  0.295759  0.826767  0.691838  1
  S  S19  1  0.795759  0.673233  0.191838  1
  S  S20  1  0.804283  0.648786  0.815930  1
  S  S21  1  0.344648  0.537507  0.009487  1
  S  S22  1  0.655352  0.462493  0.509487  1
  S  S23  1  0.195717  0.351214  0.315930  1
  S  S24  1  0.204241  0.326767  0.691838  1
  S  S25  1  0.704241  0.173233  0.191838  1
  S  S26  1  0.695717  0.148786  0.815930  1
  S  S27  1  0.155352  0.037507  0.009487  1
