# generated using pymatgen
data_Fe10O11
_symmetry_space_group_name_H-M   'P 1'
_cell_length_a   5.35378178
_cell_length_b   6.80744177
_cell_length_c   6.87970350
_cell_angle_alpha   107.40716480
_cell_angle_beta   98.41747580
_cell_angle_gamma   104.79498454
_symmetry_Int_Tables_number   1
_chemical_formula_structural   Fe10O11
_chemical_formula_sum   'Fe10 O11'
_cell_volume   224.47396835
_cell_formula_units_Z   1
loop_
 _symmetry_equiv_pos_site_id
 _symmetry_equiv_pos_as_xyz
  1  'x, y, z'
loop_
 _atom_site_type_symbol
 _atom_site_label
 _atom_site_symmetry_multiplicity
 _atom_site_fract_x
 _atom_site_fract_y
 _atom_site_fract_z
 _atom_site_occupancy
  Fe  Fe0  1  0.086420  0.345491  0.817562  1
  Fe  Fe1  1  0.556869  0.183849  0.915483  1
  Fe  Fe2  1  0.170414  0.732961  0.638881  1
  Fe  Fe3  1  0.649246  0.555890  0.735489  1
  Fe  Fe4  1  0.273780  0.096275  0.439928  1
  Fe  Fe5  1  0.726220  0.903725  0.560072  1
  Fe  Fe6  1  0.350754  0.444110  0.264511  1
  Fe  Fe7  1  0.829586  0.267039  0.361119  1
  Fe  Fe8  1  0.443131  0.816151  0.084517  1
  Fe  Fe9  1  0.913580  0.654509  0.182438  1
  O  O10  1  0.168340  0.054812  0.714078  1
  O  O11  1  0.062166  0.663777  0.906266  1
  O  O12  1  0.500000  0.500000  0.000000  1
  O  O13  1  0.674296  0.224562  0.652532  1
  O  O14  1  0.240507  0.424218  0.551301  1
  O  O15  1  0.574868  0.874966  0.828248  1
  O  O16  1  0.325704  0.775438  0.347468  1
  O  O17  1  0.425132  0.125034  0.171752  1
  O  O18  1  0.759493  0.575782  0.448699  1
  O  O19  1  0.831661  0.945188  0.285922  1
  O  O20  1  0.937834  0.336223  0.093734  1
