# generated using pymatgen
data_LiSn(PO3)4
_symmetry_space_group_name_H-M   'P 1'
_cell_length_a   7.00575233
_cell_length_b   8.81076094
_cell_length_c   7.76970565
_cell_angle_alpha   90.00000000
_cell_angle_beta   90.51645048
_cell_angle_gamma   90.00000000
_symmetry_Int_Tables_number   1
_chemical_formula_structural   LiSn(PO3)4
_chemical_formula_sum   'Li2 Sn2 P8 O24'
_cell_volume   479.57343793
_cell_formula_units_Z   2
loop_
 _symmetry_equiv_pos_site_id
 _symmetry_equiv_pos_as_xyz
  1  'x, y, z'
loop_
 _atom_site_type_symbol
 _atom_site_label
 _atom_site_symmetry_multiplicity
 _atom_site_fract_x
 _atom_site_fract_y
 _atom_site_fract_z
 _atom_site_occupancy
  Li  Li0  1  0.295638  0.624687  0.360621  1
  Li  Li1  1  0.704362  0.124687  0.639379  1
  Sn  Sn2  1  0.237938  0.287993  0.772566  1
  Sn  Sn3  1  0.762062  0.787993  0.227434  1
  P  P4  1  0.993299  0.100485  0.406233  1
  P  P5  1  0.084819  0.818249  0.886509  1
  P  P6  1  0.399963  0.992588  0.414738  1
  P  P7  1  0.443490  0.626830  0.905914  1
  P  P8  1  0.556510  0.126830  0.094086  1
  P  P9  1  0.600037  0.492588  0.585262  1
  P  P10  1  0.915181  0.318249  0.113491  1
  P  P11  1  0.006701  0.600485  0.593767  1
  O  O12  1  0.013861  0.181119  0.223638  1
  O  O13  1  0.020098  0.791545  0.070843  1
  O  O14  1  0.992234  0.206826  0.558012  1
  O  O15  1  0.055900  0.965124  0.799492  1
  O  O16  1  0.172699  0.992484  0.399863  1
  O  O17  1  0.182481  0.499228  0.593707  1
  O  O18  1  0.311557  0.774123  0.886160  1
  O  O19  1  0.326606  0.484809  0.934403  1
  O  O20  1  0.458706  0.039660  0.591152  1
  O  O21  1  0.404068  0.155674  0.960838  1
  O  O22  1  0.458243  0.125292  0.280711  1
  O  O23  1  0.455043  0.837785  0.344641  1
  O  O24  1  0.544957  0.337785  0.655359  1
  O  O25  1  0.541757  0.625292  0.719289  1
  O  O26  1  0.595932  0.655674  0.039162  1
  O  O27  1  0.541294  0.539660  0.408848  1
  O  O28  1  0.673394  0.984809  0.065597  1
  O  O29  1  0.688443  0.274123  0.113840  1
  O  O30  1  0.817519  0.999228  0.406293  1
  O  O31  1  0.827301  0.492484  0.600137  1
  O  O32  1  0.944100  0.465124  0.200508  1
  O  O33  1  0.007766  0.706826  0.441988  1
  O  O34  1  0.979902  0.291545  0.929157  1
  O  O35  1  0.986139  0.681119  0.776362  1
