# generated using pymatgen
data_Li2FeS2
_symmetry_space_group_name_H-M   'P 1'
_cell_length_a   6.71268665
_cell_length_b   6.38280066
_cell_length_c   8.11918389
_cell_angle_alpha   90.00000000
_cell_angle_beta   92.82685707
_cell_angle_gamma   90.00000000
_symmetry_Int_Tables_number   1
_chemical_formula_structural   Li2FeS2
_chemical_formula_sum   'Li8 Fe4 S8'
_cell_volume   347.44913258
_cell_formula_units_Z   4
loop_
 _symmetry_equiv_pos_site_id
 _symmetry_equiv_pos_as_xyz
  1  'x, y, z'
loop_
 _atom_site_type_symbol
 _atom_site_label
 _atom_site_symmetry_multiplicity
 _atom_site_fract_x
 _atom_site_fract_y
 _atom_site_fract_z
 _atom_site_occupancy
  Li  Li0  1  0.115129  0.356011  0.728545  1
  Li  Li1  1  0.115129  0.143989  0.228545  1
  Li  Li2  1  0.469189  0.010161  0.819190  1
  Li  Li3  1  0.469189  0.489839  0.319190  1
  Li  Li4  1  0.530811  0.510161  0.680810  1
  Li  Li5  1  0.530811  0.989839  0.180810  1
  Li  Li6  1  0.884871  0.856011  0.771455  1
  Li  Li7  1  0.884871  0.643989  0.271455  1
  Fe  Fe8  1  0.349355  0.618232  0.992498  1
  Fe  Fe9  1  0.349355  0.881768  0.492498  1
  Fe  Fe10  1  0.650645  0.118232  0.507502  1
  Fe  Fe11  1  0.650645  0.381768  0.007502  1
  S  S12  1  0.223851  0.733324  0.734255  1
  S  S13  1  0.223851  0.766676  0.234255  1
  S  S14  1  0.312250  0.260682  0.998350  1
  S  S15  1  0.312250  0.239318  0.498350  1
  S  S16  1  0.687750  0.760682  0.501650  1
  S  S17  1  0.687750  0.739318  0.001650  1
  S  S18  1  0.776149  0.233324  0.765745  1
  S  S19  1  0.776149  0.266676  0.265745  1
