# generated using pymatgen
data_CaY2O4
_symmetry_space_group_name_H-M   'P 1'
_cell_length_a   5.78553541
_cell_length_b   5.78553541
_cell_length_c   10.99972313
_cell_angle_alpha   90.00000000
_cell_angle_beta   90.00000000
_cell_angle_gamma   146.54112314
_symmetry_Int_Tables_number   1
_chemical_formula_structural   CaY2O4
_chemical_formula_sum   'Ca2 Y4 O8'
_cell_volume   202.99580152
_cell_formula_units_Z   2
loop_
 _symmetry_equiv_pos_site_id
 _symmetry_equiv_pos_as_xyz
  1  'x, y, z'
loop_
 _atom_site_type_symbol
 _atom_site_label
 _atom_site_symmetry_multiplicity
 _atom_site_fract_x
 _atom_site_fract_y
 _atom_site_fract_z
 _atom_site_occupancy
  Ca  Ca0  1  0.110602  0.889398  0.750000  1
  Ca  Ca1  1  0.889398  0.110602  0.250000  1
  Y  Y2  1  0.367403  0.632597  0.574441  1
  Y  Y3  1  0.632597  0.367403  0.425559  1
  Y  Y4  1  0.367403  0.632597  0.925559  1
  Y  Y5  1  0.632597  0.367403  0.074441  1
  O  O6  1  0.000000  0.000000  0.000000  1
  O  O7  1  0.000000  0.000000  0.500000  1
  O  O8  1  0.266996  0.733004  0.386688  1
  O  O9  1  0.467119  0.532881  0.750000  1
  O  O10  1  0.532881  0.467119  0.250000  1
  O  O11  1  0.733004  0.266996  0.613312  1
  O  O12  1  0.266996  0.733004  0.113312  1
  O  O13  1  0.733004  0.266996  0.886688  1
