# generated using pymatgen
data_LiVCO4
_symmetry_space_group_name_H-M   'P 1'
_cell_length_a   3.18176207
_cell_length_b   9.37604495
_cell_length_c   9.39640227
_cell_angle_alpha   90.00000000
_cell_angle_beta   91.51575897
_cell_angle_gamma   90.00000000
_symmetry_Int_Tables_number   1
_chemical_formula_structural   LiVCO4
_chemical_formula_sum   'Li4 V4 C4 O16'
_cell_volume   280.21861984
_cell_formula_units_Z   4
loop_
 _symmetry_equiv_pos_site_id
 _symmetry_equiv_pos_as_xyz
  1  'x, y, z'
loop_
 _atom_site_type_symbol
 _atom_site_label
 _atom_site_symmetry_multiplicity
 _atom_site_fract_x
 _atom_site_fract_y
 _atom_site_fract_z
 _atom_site_occupancy
  Li  Li0  1  0.247533  0.191007  0.904202  1
  Li  Li1  1  0.247533  0.308993  0.404202  1
  Li  Li2  1  0.752467  0.691007  0.595798  1
  Li  Li3  1  0.752467  0.808993  0.095798  1
  V  V4  1  0.260553  0.562403  0.881315  1
  V  V5  1  0.260553  0.937597  0.381315  1
  V  V6  1  0.739447  0.062403  0.618685  1
  V  V7  1  0.739447  0.437597  0.118685  1
  C  C8  1  0.244619  0.870059  0.834661  1
  C  C9  1  0.244619  0.629941  0.334661  1
  C  C10  1  0.755381  0.370059  0.665339  1
  C  C11  1  0.755381  0.129941  0.165339  1
  O  O12  1  0.247623  0.113107  0.497631  1
  O  O13  1  0.257376  0.751137  0.761489  1
  O  O14  1  0.234568  0.992686  0.760266  1
  O  O15  1  0.247623  0.386893  0.997631  1
  O  O16  1  0.245778  0.872457  0.967876  1
  O  O17  1  0.257376  0.748863  0.261489  1
  O  O18  1  0.234568  0.507314  0.260266  1
  O  O19  1  0.245778  0.627543  0.467876  1
  O  O20  1  0.754222  0.372457  0.532124  1
  O  O21  1  0.765432  0.492686  0.739734  1
  O  O22  1  0.742624  0.251137  0.738511  1
  O  O23  1  0.754222  0.127543  0.032124  1
  O  O24  1  0.752377  0.613107  0.002369  1
  O  O25  1  0.765432  0.007314  0.239734  1
  O  O26  1  0.742624  0.248863  0.238511  1
  O  O27  1  0.752377  0.886893  0.502369  1
