# generated using pymatgen
data_VF5
_symmetry_space_group_name_H-M   'P 1'
_cell_length_a   6.56777259
_cell_length_b   7.49960595
_cell_length_c   14.89730130
_cell_angle_alpha   90.00000000
_cell_angle_beta   95.90072740
_cell_angle_gamma   90.00000000
_symmetry_Int_Tables_number   1
_chemical_formula_structural   VF5
_chemical_formula_sum   'V8 F40'
_cell_volume   729.88919036
_cell_formula_units_Z   8
loop_
 _symmetry_equiv_pos_site_id
 _symmetry_equiv_pos_as_xyz
  1  'x, y, z'
loop_
 _atom_site_type_symbol
 _atom_site_label
 _atom_site_symmetry_multiplicity
 _atom_site_fract_x
 _atom_site_fract_y
 _atom_site_fract_z
 _atom_site_occupancy
  V  V0  1  0.829565  0.687332  0.376195  1
  V  V1  1  0.829565  0.812668  0.876195  1
  V  V2  1  0.500879  0.626622  0.153793  1
  V  V3  1  0.499121  0.126622  0.346207  1
  V  V4  1  0.500879  0.873378  0.653793  1
  V  V5  1  0.499121  0.373378  0.846207  1
  V  V6  1  0.170435  0.187332  0.123805  1
  V  V7  1  0.170435  0.312668  0.623805  1
  F  F8  1  0.998923  0.010108  0.109192  1
  F  F9  1  0.956635  0.805975  0.296079  1
  F  F10  1  0.998923  0.489892  0.609192  1
  F  F11  1  0.935817  0.814431  0.467236  1
  F  F12  1  0.956635  0.694025  0.796079  1
  F  F13  1  0.935817  0.685569  0.967236  1
  F  F14  1  0.701575  0.525585  0.101950  1
  F  F15  1  0.677905  0.165782  0.267808  1
  F  F16  1  0.684910  0.569533  0.270098  1
  F  F17  1  0.701575  0.974415  0.601950  1
  F  F18  1  0.615568  0.836426  0.160412  1
  F  F19  1  0.660058  0.180612  0.442589  1
  F  F20  1  0.640545  0.589933  0.437421  1
  F  F21  1  0.677905  0.334218  0.767808  1
  F  F22  1  0.684910  0.930467  0.770098  1
  F  F23  1  0.612384  0.882232  0.352062  1
  F  F24  1  0.615568  0.663574  0.660412  1
  F  F25  1  0.660058  0.319388  0.942589  1
  F  F26  1  0.640545  0.910067  0.937421  1
  F  F27  1  0.612384  0.617768  0.852062  1
  F  F28  1  0.387616  0.382232  0.147938  1
  F  F29  1  0.359455  0.089933  0.062579  1
  F  F30  1  0.339942  0.680612  0.057411  1
  F  F31  1  0.384432  0.336426  0.339588  1
  F  F32  1  0.387616  0.117768  0.647938  1
  F  F33  1  0.315090  0.069533  0.229902  1
  F  F34  1  0.322095  0.665782  0.232192  1
  F  F35  1  0.359455  0.410067  0.562579  1
  F  F36  1  0.339942  0.819388  0.557411  1
  F  F37  1  0.384432  0.163574  0.839588  1
  F  F38  1  0.298425  0.025585  0.398050  1
  F  F39  1  0.315090  0.430467  0.729902  1
  F  F40  1  0.322095  0.834218  0.732192  1
  F  F41  1  0.298425  0.474415  0.898050  1
  F  F42  1  0.064183  0.314431  0.032764  1
  F  F43  1  0.043365  0.305975  0.203921  1
  F  F44  1  0.064183  0.185569  0.532764  1
  F  F45  1  0.001077  0.510108  0.390808  1
  F  F46  1  0.043365  0.194025  0.703921  1
  F  F47  1  0.001077  0.989892  0.890808  1
