# generated using pymatgen
data_Li10Mn5Fe3O16
_symmetry_space_group_name_H-M   'P 1'
_cell_length_a   5.96791098
_cell_length_b   6.03020612
_cell_length_c   10.02190763
_cell_angle_alpha   90.91735090
_cell_angle_beta   90.46842084
_cell_angle_gamma   118.87560669
_symmetry_Int_Tables_number   1
_chemical_formula_structural   Li10Mn5Fe3O16
_chemical_formula_sum   'Li10 Mn5 Fe3 O16'
_cell_volume   315.73164261
_cell_formula_units_Z   1
loop_
 _symmetry_equiv_pos_site_id
 _symmetry_equiv_pos_as_xyz
  1  'x, y, z'
loop_
 _atom_site_type_symbol
 _atom_site_label
 _atom_site_symmetry_multiplicity
 _atom_site_fract_x
 _atom_site_fract_y
 _atom_site_fract_z
 _atom_site_occupancy
  Li  Li0  1  0.205821  0.394645  0.066364  1
  Li  Li1  1  0.687355  0.341255  0.775878  1
  Li  Li2  1  0.818468  0.186786  0.563935  1
  Li  Li3  1  0.403554  0.185577  0.564134  1
  Li  Li4  1  0.350036  0.673366  0.273794  1
  Li  Li5  1  0.213318  0.812263  0.058098  1
  Li  Li6  1  0.804141  0.602736  0.554671  1
  Li  Li7  1  0.617689  0.791019  0.056420  1
  Li  Li8  1  0.019327  0.995827  0.479516  1
  Li  Li9  1  0.016456  0.013770  0.984586  1
  Mn  Mn10  1  0.345697  0.659738  0.523251  1
  Mn  Mn11  1  0.844348  0.167125  0.286381  1
  Mn  Mn12  1  0.681911  0.333309  0.026620  1
  Mn  Mn13  1  0.681755  0.836640  0.784698  1
  Mn  Mn14  1  0.845635  0.662148  0.284634  1
  Fe  Fe15  1  0.187523  0.342149  0.786362  1
  Fe  Fe16  1  0.349411  0.166880  0.286296  1
  Fe  Fe17  1  0.184224  0.834995  0.785099  1
  O  O18  1  0.332320  0.161192  0.902944  1
  O  O19  1  0.166179  0.310011  0.396698  1
  O  O20  1  0.025257  0.508108  0.668397  1
  O  O21  1  0.524468  0.016460  0.173722  1
  O  O22  1  0.849527  0.160578  0.895689  1
  O  O23  1  0.327804  0.660123  0.909546  1
  O  O24  1  0.179903  0.843136  0.390134  1
  O  O25  1  0.511379  0.507782  0.674122  1
  O  O26  1  0.666951  0.299653  0.405528  1
  O  O27  1  0.516053  0.486871  0.176274  1
  O  O28  1  0.510554  0.980198  0.672281  1
  O  O29  1  0.849483  0.694441  0.900562  1
  O  O30  1  0.003269  0.517503  0.164217  1
  O  O31  1  0.692369  0.804356  0.408049  1
  O  O32  1  0.040989  0.015735  0.665926  1
  O  O33  1  0.026094  0.032790  0.170912  1
