# generated using pymatgen
data_Li4CrH8SO7
_symmetry_space_group_name_H-M   'P 1'
_cell_length_a   5.35777613
_cell_length_b   13.15411975
_cell_length_c   10.54289272
_cell_angle_alpha   90.00000000
_cell_angle_beta   105.07097997
_cell_angle_gamma   90.00000000
_symmetry_Int_Tables_number   1
_chemical_formula_structural   Li4CrH8SO7
_chemical_formula_sum   'Li16 Cr4 H32 S4 O28'
_cell_volume   717.47273258
_cell_formula_units_Z   4
loop_
 _symmetry_equiv_pos_site_id
 _symmetry_equiv_pos_as_xyz
  1  'x, y, z'
loop_
 _atom_site_type_symbol
 _atom_site_label
 _atom_site_symmetry_multiplicity
 _atom_site_fract_x
 _atom_site_fract_y
 _atom_site_fract_z
 _atom_site_occupancy
  Li  Li0  1  0.013023  0.698355  0.759205  1
  Li  Li1  1  0.251512  0.049012  0.992060  1
  Li  Li2  1  0.248710  0.280270  0.977709  1
  Li  Li3  1  0.013023  0.801645  0.259205  1
  Li  Li4  1  0.251512  0.450988  0.492060  1
  Li  Li5  1  0.248710  0.219730  0.477709  1
  Li  Li6  1  0.498268  0.783221  0.777698  1
  Li  Li7  1  0.501732  0.283221  0.722302  1
  Li  Li8  1  0.498268  0.716779  0.277698  1
  Li  Li9  1  0.501732  0.216779  0.222302  1
  Li  Li10  1  0.751290  0.780270  0.522291  1
  Li  Li11  1  0.748488  0.549012  0.507940  1
  Li  Li12  1  0.986977  0.198355  0.740795  1
  Li  Li13  1  0.751290  0.719730  0.022291  1
  Li  Li14  1  0.748488  0.950988  0.007940  1
  Li  Li15  1  0.986977  0.301645  0.240795  1
  Cr  Cr16  1  0.249679  0.685751  0.516598  1
  Cr  Cr17  1  0.249679  0.814249  0.016598  1
  Cr  Cr18  1  0.750321  0.185751  0.983402  1
  Cr  Cr19  1  0.750321  0.314249  0.483402  1
  H  H20  1  0.135864  0.358193  0.670841  1
  H  H21  1  0.214737  0.459254  0.853444  1
  H  H22  1  0.251396  0.931611  0.820447  1
  H  H23  1  0.145686  0.858391  0.620526  1
  H  H24  1  0.334507  0.637547  0.937931  1
  H  H25  1  0.233508  0.540654  0.685957  1
  H  H26  1  0.395656  0.119417  0.804120  1
  H  H27  1  0.135864  0.141807  0.170841  1
  H  H28  1  0.214737  0.040746  0.353444  1
  H  H29  1  0.251396  0.568389  0.320447  1
  H  H30  1  0.145686  0.641609  0.120526  1
  H  H31  1  0.519793  0.461437  0.860699  1
  H  H32  1  0.334507  0.862453  0.437931  1
  H  H33  1  0.233508  0.959346  0.185957  1
  H  H34  1  0.480207  0.961437  0.639301  1
  H  H35  1  0.604344  0.619417  0.695880  1
  H  H36  1  0.395656  0.380583  0.304120  1
  H  H37  1  0.519793  0.038563  0.360699  1
  H  H38  1  0.766492  0.040654  0.814043  1
  H  H39  1  0.665493  0.137547  0.562069  1
  H  H40  1  0.480207  0.538563  0.139301  1
  H  H41  1  0.854314  0.358391  0.879474  1
  H  H42  1  0.748604  0.431611  0.679553  1
  H  H43  1  0.785263  0.959254  0.646556  1
  H  H44  1  0.864136  0.858193  0.829159  1
  H  H45  1  0.604344  0.880583  0.195880  1
  H  H46  1  0.766492  0.459346  0.314043  1
  H  H47  1  0.665493  0.362453  0.062069  1
  H  H48  1  0.854314  0.141609  0.379474  1
  H  H49  1  0.748604  0.068389  0.179553  1
  H  H50  1  0.785263  0.540746  0.146556  1
  H  H51  1  0.864136  0.641807  0.329159  1
  S  S52  1  0.094223  0.026390  0.595391  1
  S  S53  1  0.094223  0.473610  0.095391  1
  S  S54  1  0.905777  0.526390  0.904609  1
  S  S55  1  0.905777  0.973610  0.404609  1
  O  O56  1  0.107764  0.302620  0.606996  1
  O  O57  1  0.112466  0.575961  0.614173  1
  O  O58  1  0.131637  0.784946  0.636322  1
  O  O59  1  0.380907  0.705028  0.913721  1
  O  O60  1  0.374767  0.918408  0.905081  1
  O  O61  1  0.357767  0.420871  0.829035  1
  O  O62  1  0.390445  0.180651  0.855262  1
  O  O63  1  0.107764  0.197380  0.106996  1
  O  O64  1  0.112466  0.924039  0.114173  1
  O  O65  1  0.131637  0.715054  0.136322  1
  O  O66  1  0.380907  0.794972  0.413721  1
  O  O67  1  0.374767  0.581592  0.405081  1
  O  O68  1  0.357767  0.079129  0.329035  1
  O  O69  1  0.390445  0.319349  0.355262  1
  O  O70  1  0.609555  0.680651  0.644738  1
  O  O71  1  0.642233  0.920871  0.670965  1
  O  O72  1  0.625233  0.418408  0.594919  1
  O  O73  1  0.619093  0.205028  0.586279  1
  O  O74  1  0.868363  0.284946  0.863678  1
  O  O75  1  0.887534  0.075961  0.885827  1
  O  O76  1  0.892236  0.802620  0.893004  1
  O  O77  1  0.609555  0.819349  0.144738  1
  O  O78  1  0.642233  0.579129  0.170965  1
  O  O79  1  0.625233  0.081592  0.094919  1
  O  O80  1  0.619093  0.294972  0.086279  1
  O  O81  1  0.868363  0.215054  0.363678  1
  O  O82  1  0.887534  0.424039  0.385827  1
  O  O83  1  0.892236  0.697380  0.393004  1
