# generated using pymatgen
data_K5YO4
_symmetry_space_group_name_H-M   'P 1'
_cell_length_a   6.97483649
_cell_length_b   12.12346980
_cell_length_c   21.24204046
_cell_angle_alpha   90.00000000
_cell_angle_beta   90.00000000
_cell_angle_gamma   90.00000000
_symmetry_Int_Tables_number   1
_chemical_formula_structural   K5YO4
_chemical_formula_sum   'K40 Y8 O32'
_cell_volume   1796.21036287
_cell_formula_units_Z   8
loop_
 _symmetry_equiv_pos_site_id
 _symmetry_equiv_pos_as_xyz
  1  'x, y, z'
loop_
 _atom_site_type_symbol
 _atom_site_label
 _atom_site_symmetry_multiplicity
 _atom_site_fract_x
 _atom_site_fract_y
 _atom_site_fract_z
 _atom_site_occupancy
  K  K0  1  0.900369  0.928813  0.435624  1
  K  K1  1  0.599631  0.928813  0.935624  1
  K  K2  1  0.392312  0.914769  0.749232  1
  K  K3  1  0.107688  0.914769  0.249232  1
  K  K4  1  0.095006  0.833821  0.002588  1
  K  K5  1  0.404994  0.833821  0.502588  1
  K  K6  1  0.608016  0.824562  0.326161  1
  K  K7  1  0.891984  0.824562  0.826161  1
  K  K8  1  0.415952  0.804188  0.137557  1
  K  K9  1  0.084048  0.804188  0.637557  1
  K  K10  1  0.915952  0.695812  0.137557  1
  K  K11  1  0.584048  0.695812  0.637557  1
  K  K12  1  0.108016  0.675438  0.326161  1
  K  K13  1  0.391984  0.675438  0.826161  1
  K  K14  1  0.595006  0.666179  0.002588  1
  K  K15  1  0.904994  0.666179  0.502588  1
  K  K16  1  0.607688  0.585231  0.249232  1
  K  K17  1  0.892312  0.585231  0.749232  1
  K  K18  1  0.099631  0.571187  0.935624  1
  K  K19  1  0.400369  0.571187  0.435624  1
  K  K20  1  0.900369  0.428813  0.064376  1
  K  K21  1  0.599631  0.428813  0.564376  1
  K  K22  1  0.107688  0.414769  0.250768  1
  K  K23  1  0.392312  0.414769  0.750768  1
  K  K24  1  0.404994  0.333821  0.997412  1
  K  K25  1  0.095006  0.333821  0.497412  1
  K  K26  1  0.891984  0.324562  0.673839  1
  K  K27  1  0.608016  0.324562  0.173839  1
  K  K28  1  0.415952  0.304188  0.362443  1
  K  K29  1  0.084048  0.304188  0.862443  1
  K  K30  1  0.915952  0.195812  0.362443  1
  K  K31  1  0.584048  0.195812  0.862443  1
  K  K32  1  0.391984  0.175438  0.673839  1
  K  K33  1  0.108016  0.175438  0.173839  1
  K  K34  1  0.595006  0.166179  0.497412  1
  K  K35  1  0.904994  0.166179  0.997412  1
  K  K36  1  0.607688  0.085231  0.250768  1
  K  K37  1  0.892312  0.085231  0.750768  1
  K  K38  1  0.099631  0.071187  0.564376  1
  K  K39  1  0.400369  0.071187  0.064376  1
  Y  Y40  1  0.823132  0.962593  0.122837  1
  Y  Y41  1  0.676868  0.962593  0.622837  1
  Y  Y42  1  0.323132  0.537407  0.122837  1
  Y  Y43  1  0.176868  0.537407  0.622837  1
  Y  Y44  1  0.676868  0.462593  0.877163  1
  Y  Y45  1  0.823132  0.462593  0.377163  1
  Y  Y46  1  0.323132  0.037407  0.377163  1
  Y  Y47  1  0.176868  0.037407  0.877163  1
  O  O48  1  0.131708  0.952920  0.120013  1
  O  O49  1  0.368292  0.952920  0.620013  1
  O  O50  1  0.765567  0.880957  0.709181  1
  O  O51  1  0.734433  0.880957  0.209181  1
  O  O52  1  0.701415  0.866018  0.047033  1
  O  O53  1  0.798585  0.866018  0.547033  1
  O  O54  1  0.238356  0.865002  0.375618  1
  O  O55  1  0.261644  0.865002  0.875618  1
  O  O56  1  0.761644  0.634998  0.875618  1
  O  O57  1  0.738356  0.634998  0.375618  1
  O  O58  1  0.201415  0.633982  0.047033  1
  O  O59  1  0.298585  0.633982  0.547033  1
  O  O60  1  0.234433  0.619043  0.209181  1
  O  O61  1  0.265567  0.619043  0.709181  1
  O  O62  1  0.631708  0.547080  0.120013  1
  O  O63  1  0.868292  0.547080  0.620013  1
  O  O64  1  0.368292  0.452920  0.879987  1
  O  O65  1  0.131708  0.452920  0.379987  1
  O  O66  1  0.734433  0.380957  0.290819  1
  O  O67  1  0.765567  0.380957  0.790819  1
  O  O68  1  0.798585  0.366018  0.952967  1
  O  O69  1  0.701415  0.366018  0.452967  1
  O  O70  1  0.261644  0.365002  0.624382  1
  O  O71  1  0.238356  0.365002  0.124382  1
  O  O72  1  0.761644  0.134998  0.624382  1
  O  O73  1  0.738356  0.134998  0.124382  1
  O  O74  1  0.201415  0.133982  0.452967  1
  O  O75  1  0.298585  0.133982  0.952967  1
  O  O76  1  0.234433  0.119043  0.290819  1
  O  O77  1  0.265567  0.119043  0.790819  1
  O  O78  1  0.631708  0.047080  0.379987  1
  O  O79  1  0.868292  0.047080  0.879987  1
