# generated using pymatgen
data_LiCo(CO3)2
_symmetry_space_group_name_H-M   'P 1'
_cell_length_a   6.33592591
_cell_length_b   6.33592591
_cell_length_c   7.87821133
_cell_angle_alpha   86.78198963
_cell_angle_beta   93.21801037
_cell_angle_gamma   53.38138947
_symmetry_Int_Tables_number   1
_chemical_formula_structural   LiCo(CO3)2
_chemical_formula_sum   'Li2 Co2 C4 O12'
_cell_volume   251.84974197
_cell_formula_units_Z   2
loop_
 _symmetry_equiv_pos_site_id
 _symmetry_equiv_pos_as_xyz
  1  'x, y, z'
loop_
 _atom_site_type_symbol
 _atom_site_label
 _atom_site_symmetry_multiplicity
 _atom_site_fract_x
 _atom_site_fract_y
 _atom_site_fract_z
 _atom_site_occupancy
  Li  Li0  1  0.546700  0.310056  0.336981  1
  Li  Li1  1  0.689944  0.453300  0.836981  1
  Co  Co2  1  0.949096  0.765061  0.005589  1
  Co  Co3  1  0.234939  0.050904  0.505589  1
  C  C4  1  0.919043  0.402967  0.216665  1
  C  C5  1  0.019296  0.840242  0.295787  1
  C  C6  1  0.597033  0.080957  0.716665  1
  C  C7  1  0.159758  0.980704  0.795787  1
  O  O8  1  0.881685  0.517597  0.057371  1
  O  O9  1  0.791740  0.996672  0.200636  1
  O  O10  1  0.163320  0.206250  0.272771  1
  O  O11  1  0.197898  0.627346  0.233641  1
  O  O12  1  0.727113  0.484008  0.299588  1
  O  O13  1  0.056664  0.897708  0.442985  1
  O  O14  1  0.482403  0.118315  0.557371  1
  O  O15  1  0.372654  0.802102  0.733641  1
  O  O16  1  0.793750  0.836680  0.772771  1
  O  O17  1  0.003328  0.208260  0.700636  1
  O  O18  1  0.515992  0.272887  0.799588  1
  O  O19  1  0.102292  0.943336  0.942985  1
