# generated using pymatgen
data_Na4Ti5O12
_symmetry_space_group_name_H-M   'P 1'
_cell_length_a   6.19543205
_cell_length_b   6.19543205
_cell_length_c   14.05543164
_cell_angle_alpha   79.30286909
_cell_angle_beta   100.69713091
_cell_angle_gamma   89.82748210
_symmetry_Int_Tables_number   1
_chemical_formula_structural   Na4Ti5O12
_chemical_formula_sum   'Na8 Ti10 O24'
_cell_volume   520.51500749
_cell_formula_units_Z   2
loop_
 _symmetry_equiv_pos_site_id
 _symmetry_equiv_pos_as_xyz
  1  'x, y, z'
loop_
 _atom_site_type_symbol
 _atom_site_label
 _atom_site_symmetry_multiplicity
 _atom_site_fract_x
 _atom_site_fract_y
 _atom_site_fract_z
 _atom_site_occupancy
  Na  Na0  1  0.463356  0.807999  0.419960  1
  Na  Na1  1  0.000000  0.000000  0.500000  1
  Na  Na2  1  0.536644  0.192001  0.580040  1
  Na  Na3  1  0.109108  0.109108  0.750000  1
  Na  Na4  1  0.192001  0.536644  0.919960  1
  Na  Na5  1  0.000000  0.000000  0.000000  1
  Na  Na6  1  0.807999  0.463356  0.080040  1
  Na  Na7  1  0.890892  0.890892  0.250000  1
  Ti  Ti8  1  0.000000  0.500000  0.500000  1
  Ti  Ti9  1  0.837453  0.641861  0.663311  1
  Ti  Ti10  1  0.338917  0.653628  0.665075  1
  Ti  Ti11  1  0.641861  0.837453  0.836689  1
  Ti  Ti12  1  0.653628  0.338917  0.834925  1
  Ti  Ti13  1  0.500000  1.000000  0.000000  1
  Ti  Ti14  1  0.358139  0.162547  0.163311  1
  Ti  Ti15  1  0.346372  0.661083  0.165075  1
  Ti  Ti16  1  0.661083  0.346372  0.334925  1
  Ti  Ti17  1  0.162547  0.358139  0.336689  1
  O  O18  1  0.761053  0.297514  0.472574  1
  O  O19  1  0.216766  0.292236  0.473587  1
  O  O20  1  0.238947  0.702486  0.527426  1
  O  O21  1  0.783234  0.707764  0.526413  1
  O  O22  1  0.051236  0.424436  0.647278  1
  O  O23  1  0.077089  0.820001  0.680221  1
  O  O24  1  0.572099  0.849171  0.676581  1
  O  O25  1  0.572822  0.426456  0.682272  1
  O  O26  1  0.426456  0.572822  0.817728  1
  O  O27  1  0.849171  0.572099  0.823419  1
  O  O28  1  0.820001  0.077089  0.819779  1
  O  O29  1  0.424436  0.051236  0.852722  1
  O  O30  1  0.702486  0.238947  0.972574  1
  O  O31  1  0.707764  0.783234  0.973587  1
  O  O32  1  0.292236  0.216766  0.026413  1
  O  O33  1  0.297514  0.761053  0.027426  1
  O  O34  1  0.575564  0.948764  0.147278  1
  O  O35  1  0.179999  0.922911  0.180221  1
  O  O36  1  0.150829  0.427901  0.176581  1
  O  O37  1  0.573544  0.427178  0.182272  1
  O  O38  1  0.427901  0.150829  0.323419  1
  O  O39  1  0.427178  0.573544  0.317728  1
  O  O40  1  0.922911  0.179999  0.319779  1
  O  O41  1  0.948764  0.575564  0.352722  1
