# generated using pymatgen
data_Li2Fe(NiO3)2
_symmetry_space_group_name_H-M   'P 1'
_cell_length_a   4.92098435
_cell_length_b   4.92098435
_cell_length_c   9.92406486
_cell_angle_alpha   90.00000000
_cell_angle_beta   90.00000000
_cell_angle_gamma   117.45079961
_symmetry_Int_Tables_number   1
_chemical_formula_structural   Li2Fe(NiO3)2
_chemical_formula_sum   'Li4 Fe2 Ni4 O12'
_cell_volume   213.26344409
_cell_formula_units_Z   2
loop_
 _symmetry_equiv_pos_site_id
 _symmetry_equiv_pos_as_xyz
  1  'x, y, z'
loop_
 _atom_site_type_symbol
 _atom_site_label
 _atom_site_symmetry_multiplicity
 _atom_site_fract_x
 _atom_site_fract_y
 _atom_site_fract_z
 _atom_site_occupancy
  Li  Li0  1  0.632743  0.132743  0.750000  1
  Li  Li1  1  0.867257  0.367257  0.250000  1
  Li  Li2  1  0.132743  0.632743  0.750000  1
  Li  Li3  1  0.367257  0.867257  0.250000  1
  Fe  Fe4  1  0.000000  0.000000  0.000000  1
  Fe  Fe5  1  0.500000  0.500000  0.500000  1
  Ni  Ni6  1  0.835137  0.164863  0.500000  1
  Ni  Ni7  1  0.664863  0.335137  0.000000  1
  Ni  Ni8  1  0.335137  0.664863  0.000000  1
  Ni  Ni9  1  0.164863  0.835137  0.500000  1
  O  O10  1  0.690516  0.032864  0.107595  1
  O  O11  1  0.309484  0.967136  0.892405  1
  O  O12  1  0.532864  0.190516  0.392405  1
  O  O13  1  0.809484  0.467136  0.607595  1
  O  O14  1  0.174479  0.174479  0.595580  1
  O  O15  1  0.325521  0.325521  0.095580  1
  O  O16  1  0.674479  0.674479  0.904420  1
  O  O17  1  0.967136  0.309484  0.892405  1
  O  O18  1  0.825521  0.825521  0.404420  1
  O  O19  1  0.190516  0.532864  0.392405  1
  O  O20  1  0.467136  0.809484  0.607595  1
  O  O21  1  0.032864  0.690516  0.107595  1
