# generated using pymatgen
data_Li2V2SiGeO10
_symmetry_space_group_name_H-M   'P 1'
_cell_length_a   4.65362028
_cell_length_b   6.38286231
_cell_length_c   6.48222050
_cell_angle_alpha   90.00000000
_cell_angle_beta   92.43652793
_cell_angle_gamma   90.00000000
_symmetry_Int_Tables_number   1
_chemical_formula_structural   Li2V2SiGeO10
_chemical_formula_sum   'Li2 V2 Si1 Ge1 O10'
_cell_volume   192.37002826
_cell_formula_units_Z   1
loop_
 _symmetry_equiv_pos_site_id
 _symmetry_equiv_pos_as_xyz
  1  'x, y, z'
loop_
 _atom_site_type_symbol
 _atom_site_label
 _atom_site_symmetry_multiplicity
 _atom_site_fract_x
 _atom_site_fract_y
 _atom_site_fract_z
 _atom_site_occupancy
  Li  Li0  1  0.000302  0.257925  0.491902  1
  Li  Li1  1  0.000302  0.742075  0.491902  1
  V  V2  1  0.389319  0.000000  0.244202  1
  V  V3  1  0.611192  0.500000  0.763142  1
  Si  Si4  1  0.498480  0.500000  0.259536  1
  Ge  Ge5  1  0.500795  0.000000  0.746250  1
  O  O6  1  0.668341  0.500000  0.041282  1
  O  O7  1  0.739836  0.000000  0.269413  1
  O  O8  1  0.294099  0.710498  0.270139  1
  O  O9  1  0.294099  0.289502  0.270139  1
  O  O10  1  0.736198  0.500000  0.453431  1
  O  O11  1  0.248263  0.000000  0.534916  1
  O  O12  1  0.730225  0.220820  0.734500  1
  O  O13  1  0.730225  0.779180  0.734500  1
  O  O14  1  0.261337  0.500000  0.724884  1
  O  O15  1  0.296985  0.000000  0.969865  1
