# generated using pymatgen
data_Mn2Fe3Co3O16
_symmetry_space_group_name_H-M   'P 1'
_cell_length_a   5.77081800
_cell_length_b   5.77081800
_cell_length_c   8.85412488
_cell_angle_alpha   88.24081248
_cell_angle_beta   91.75918752
_cell_angle_gamma   120.20418691
_symmetry_Int_Tables_number   1
_chemical_formula_structural   Mn2Fe3Co3O16
_chemical_formula_sum   'Mn2 Fe3 Co3 O16'
_cell_volume   254.67206474
_cell_formula_units_Z   1
loop_
 _symmetry_equiv_pos_site_id
 _symmetry_equiv_pos_as_xyz
  1  'x, y, z'
loop_
 _atom_site_type_symbol
 _atom_site_label
 _atom_site_symmetry_multiplicity
 _atom_site_fract_x
 _atom_site_fract_y
 _atom_site_fract_z
 _atom_site_occupancy
  Mn  Mn0  1  0.666997  0.333003  0.483351  1
  Mn  Mn1  1  0.331017  0.668983  0.985007  1
  Fe  Fe2  1  0.834687  0.165313  0.210416  1
  Fe  Fe3  1  0.169381  0.331370  0.709655  1
  Fe  Fe4  1  0.668630  0.830619  0.709655  1
  Co  Co5  1  0.334385  0.166284  0.208538  1
  Co  Co6  1  0.833716  0.665615  0.208538  1
  Co  Co7  1  0.168910  0.831090  0.707217  1
  O  O8  1  0.337306  0.160870  0.600153  1
  O  O9  1  0.521463  0.478537  0.329658  1
  O  O10  1  0.663669  0.336331  0.101525  1
  O  O11  1  0.005461  0.994539  0.316486  1
  O  O12  1  0.008924  0.991076  0.815498  1
  O  O13  1  0.839130  0.662694  0.600153  1
  O  O14  1  0.513075  0.041324  0.340342  1
  O  O15  1  0.958676  0.486925  0.340342  1
  O  O16  1  0.163148  0.836852  0.109959  1
  O  O17  1  0.830343  0.169657  0.599609  1
  O  O18  1  0.039815  0.532673  0.842708  1
  O  O19  1  0.467327  0.960185  0.842708  1
  O  O20  1  0.328699  0.671301  0.598710  1
  O  O21  1  0.169118  0.329997  0.101812  1
  O  O22  1  0.477916  0.522084  0.851805  1
  O  O23  1  0.670003  0.830882  0.101812  1
