# generated using pymatgen
data_Li10Cr3Fe3(NiO8)2
_symmetry_space_group_name_H-M   'P 1'
_cell_length_a   5.97838522
_cell_length_b   5.97838522
_cell_length_c   9.83837754
_cell_angle_alpha   89.77425927
_cell_angle_beta   90.22574073
_cell_angle_gamma   120.14916355
_symmetry_Int_Tables_number   1
_chemical_formula_structural   Li10Cr3Fe3(NiO8)2
_chemical_formula_sum   'Li10 Cr3 Fe3 Ni2 O16'
_cell_volume   304.06237273
_cell_formula_units_Z   1
loop_
 _symmetry_equiv_pos_site_id
 _symmetry_equiv_pos_as_xyz
  1  'x, y, z'
loop_
 _atom_site_type_symbol
 _atom_site_label
 _atom_site_symmetry_multiplicity
 _atom_site_fract_x
 _atom_site_fract_y
 _atom_site_fract_z
 _atom_site_occupancy
  Li  Li0  1  0.816782  0.593708  0.058739  1
  Li  Li1  1  0.015016  0.984984  0.983556  1
  Li  Li2  1  0.017252  0.982748  0.484719  1
  Li  Li3  1  0.406292  0.183218  0.058739  1
  Li  Li4  1  0.683625  0.316375  0.283352  1
  Li  Li5  1  0.817966  0.182034  0.057671  1
  Li  Li6  1  0.619805  0.793899  0.558287  1
  Li  Li7  1  0.346622  0.653378  0.783222  1
  Li  Li8  1  0.210686  0.789314  0.557396  1
  Li  Li9  1  0.206101  0.380195  0.558287  1
  Cr  Cr10  1  0.847985  0.651766  0.785432  1
  Cr  Cr11  1  0.348234  0.152015  0.785432  1
  Cr  Cr12  1  0.185170  0.814830  0.285649  1
  Fe  Fe13  1  0.845026  0.154974  0.784972  1
  Fe  Fe14  1  0.673046  0.808798  0.285345  1
  Fe  Fe15  1  0.191202  0.326954  0.285345  1
  Ni  Ni16  1  0.681767  0.318233  0.529855  1
  Ni  Ni17  1  0.349523  0.650477  0.029536  1
  O  O18  1  0.851637  0.654446  0.402140  1
  O  O19  1  0.522689  0.477311  0.667077  1
  O  O20  1  0.679569  0.320431  0.902426  1
  O  O21  1  0.999748  0.481535  0.667832  1
  O  O22  1  0.015667  0.984333  0.674056  1
  O  O23  1  0.018601  0.981399  0.172897  1
  O  O24  1  0.345554  0.148363  0.402140  1
  O  O25  1  0.518465  0.000252  0.667832  1
  O  O26  1  0.176028  0.823972  0.902131  1
  O  O27  1  0.855400  0.144600  0.405729  1
  O  O28  1  0.502408  0.962245  0.167222  1
  O  O29  1  0.037755  0.497592  0.167222  1
  O  O30  1  0.348527  0.651473  0.404266  1
  O  O31  1  0.693439  0.825049  0.903515  1
  O  O32  1  0.508556  0.491444  0.166865  1
  O  O33  1  0.174951  0.306561  0.903515  1
