# generated using pymatgen
data_Na4Ni3O7
_symmetry_space_group_name_H-M   'P 1'
_cell_length_a   7.00620678
_cell_length_b   7.00620678
_cell_length_c   7.00620678
_cell_angle_alpha   69.27078699
_cell_angle_beta   69.27078699
_cell_angle_gamma   69.27078699
_symmetry_Int_Tables_number   1
_chemical_formula_structural   Na4Ni3O7
_chemical_formula_sum   'Na8 Ni6 O14'
_cell_volume   290.36580728
_cell_formula_units_Z   2
loop_
 _symmetry_equiv_pos_site_id
 _symmetry_equiv_pos_as_xyz
  1  'x, y, z'
loop_
 _atom_site_type_symbol
 _atom_site_label
 _atom_site_symmetry_multiplicity
 _atom_site_fract_x
 _atom_site_fract_y
 _atom_site_fract_z
 _atom_site_occupancy
  Na  Na0  1  0.575831  0.156433  0.283348  1
  Na  Na1  1  0.156433  0.283348  0.575831  1
  Na  Na2  1  0.716652  0.424169  0.843567  1
  Na  Na3  1  0.500000  0.500000  0.500000  1
  Na  Na4  1  0.283348  0.575831  0.156433  1
  Na  Na5  1  0.843567  0.716652  0.424169  1
  Na  Na6  1  0.424169  0.843567  0.716652  1
  Na  Na7  1  0.000000  1.000000  0.000000  1
  Ni  Ni8  1  0.356269  0.209662  0.931666  1
  Ni  Ni9  1  0.931666  0.356269  0.209662  1
  Ni  Ni10  1  0.790338  0.068334  0.643731  1
  Ni  Ni11  1  0.643731  0.790338  0.068334  1
  Ni  Ni12  1  0.209662  0.931666  0.356269  1
  Ni  Ni13  1  0.068334  0.643731  0.790338  1
  O  O14  1  0.663818  0.081741  0.953945  1
  O  O15  1  0.492597  0.161197  0.645341  1
  O  O16  1  0.228452  0.228452  0.228452  1
  O  O17  1  0.645341  0.492597  0.161197  1
  O  O18  1  0.354659  0.507403  0.838803  1
  O  O19  1  0.838803  0.354659  0.507403  1
  O  O20  1  0.507403  0.838803  0.354659  1
  O  O21  1  0.771548  0.771548  0.771548  1
  O  O22  1  0.046055  0.336182  0.918259  1
  O  O23  1  0.161197  0.645341  0.492597  1
  O  O24  1  0.953945  0.663818  0.081741  1
  O  O25  1  0.336182  0.918259  0.046055  1
  O  O26  1  0.081741  0.953945  0.663818  1
  O  O27  1  0.918259  0.046055  0.336182  1
