# generated using pymatgen
data_Li8Mn5Fe3(BO3)8
_symmetry_space_group_name_H-M   'P 1'
_cell_length_a   5.24558385
_cell_length_b   6.04953992
_cell_length_c   16.18721504
_cell_angle_alpha   82.08500651
_cell_angle_beta   89.01367612
_cell_angle_gamma   89.01177469
_symmetry_Int_Tables_number   1
_chemical_formula_structural   Li8Mn5Fe3(BO3)8
_chemical_formula_sum   'Li8 Mn5 Fe3 B8 O24'
_cell_volume   508.64853956
_cell_formula_units_Z   1
loop_
 _symmetry_equiv_pos_site_id
 _symmetry_equiv_pos_as_xyz
  1  'x, y, z'
loop_
 _atom_site_type_symbol
 _atom_site_label
 _atom_site_symmetry_multiplicity
 _atom_site_fract_x
 _atom_site_fract_y
 _atom_site_fract_z
 _atom_site_occupancy
  Li  Li0  1  0.849922  0.062997  0.389368  1
  Li  Li1  1  0.150657  0.435604  0.109383  1
  Li  Li2  1  0.649955  0.187561  0.859469  1
  Li  Li3  1  0.349287  0.311477  0.640786  1
  Li  Li4  1  0.650644  0.687685  0.358413  1
  Li  Li5  1  0.349236  0.812448  0.141283  1
  Li  Li6  1  0.849413  0.564305  0.891026  1
  Li  Li7  1  0.152308  0.936368  0.610077  1
  Mn  Mn8  1  0.667544  0.273470  0.040974  1
  Mn  Mn9  1  0.166637  0.521149  0.291028  1
  Mn  Mn10  1  0.834358  0.476811  0.710510  1
  Mn  Mn11  1  0.665963  0.775083  0.539100  1
  Mn  Mn12  1  0.332212  0.726862  0.959140  1
  Fe  Fe13  1  0.160253  0.025258  0.790557  1
  Fe  Fe14  1  0.331262  0.224608  0.462097  1
  Fe  Fe15  1  0.840871  0.973865  0.209251  1
  B  B16  1  0.331135  0.037289  0.297719  1
  B  B17  1  0.827389  0.285875  0.546524  1
  B  B18  1  0.670864  0.462858  0.202572  1
  B  B19  1  0.169243  0.214777  0.950905  1
  B  B20  1  0.830436  0.785375  0.049078  1
  B  B21  1  0.329337  0.536989  0.797296  1
  B  B22  1  0.170563  0.714804  0.452216  1
  B  B23  1  0.670220  0.963400  0.703101  1
  O  O24  1  0.590441  0.012787  0.308452  1
  O  O25  1  0.185955  0.168988  0.346330  1
  O  O26  1  0.706345  0.170348  0.489755  1
  O  O27  1  0.287610  0.330594  0.007647  1
  O  O28  1  0.793380  0.077994  0.759992  1
  O  O29  1  0.820646  0.327010  0.156715  1
  O  O30  1  0.317613  0.081122  0.903489  1
  O  O31  1  0.087716  0.263465  0.558163  1
  O  O32  1  0.411593  0.485655  0.188755  1
  O  O33  1  0.909927  0.236038  0.938498  1
  O  O34  1  0.681630  0.418381  0.594616  1
  O  O35  1  0.214551  0.418055  0.740810  1
  O  O36  1  0.787370  0.581507  0.258770  1
  O  O37  1  0.320680  0.579004  0.406673  1
  O  O38  1  0.090006  0.764427  0.061485  1
  O  O39  1  0.588358  0.514789  0.811591  1
  O  O40  1  0.911271  0.736367  0.438184  1
  O  O41  1  0.681638  0.918858  0.096490  1
  O  O42  1  0.178726  0.672635  0.842940  1
  O  O43  1  0.206846  0.924303  0.240721  1
  O  O44  1  0.712324  0.669737  0.992154  1
  O  O45  1  0.285595  0.833010  0.509045  1
  O  O46  1  0.818449  0.831181  0.655253  1
  O  O47  1  0.411619  0.986832  0.691598  1
