# generated using pymatgen
data_LiMn2(PO5)2
_symmetry_space_group_name_H-M   'P 1'
_cell_length_a   6.69799839
_cell_length_b   6.97364066
_cell_length_c   7.97266311
_cell_angle_alpha   89.85291293
_cell_angle_beta   91.02688779
_cell_angle_gamma   116.69209547
_symmetry_Int_Tables_number   1
_chemical_formula_structural   LiMn2(PO5)2
_chemical_formula_sum   'Li2 Mn4 P4 O20'
_cell_volume   332.65361562
_cell_formula_units_Z   2
loop_
 _symmetry_equiv_pos_site_id
 _symmetry_equiv_pos_as_xyz
  1  'x, y, z'
loop_
 _atom_site_type_symbol
 _atom_site_label
 _atom_site_symmetry_multiplicity
 _atom_site_fract_x
 _atom_site_fract_y
 _atom_site_fract_z
 _atom_site_occupancy
  Li  Li0  1  0.220637  0.272426  0.070522  1
  Li  Li1  1  0.703217  0.200101  0.569218  1
  Mn  Mn2  1  0.245569  0.995814  0.752606  1
  Mn  Mn3  1  0.248923  0.498239  0.746790  1
  Mn  Mn4  1  0.755344  0.503542  0.249331  1
  Mn  Mn5  1  0.751451  0.000469  0.249061  1
  P  P6  1  0.240540  0.754152  0.084254  1
  P  P7  1  0.261875  0.244140  0.418851  1
  P  P8  1  0.740483  0.754653  0.583909  1
  P  P9  1  0.759904  0.246279  0.918116  1
  O  O10  1  0.146670  0.877320  0.970750  1
  O  O11  1  0.073054  0.638653  0.224114  1
  O  O12  1  0.230113  0.741713  0.670075  1
  O  O13  1  0.283934  0.585915  0.984284  1
  O  O14  1  0.191451  0.390682  0.520228  1
  O  O15  1  0.060741  0.084585  0.310971  1
  O  O16  1  0.452923  0.922784  0.173682  1
  O  O17  1  0.265279  0.255083  0.829911  1
  O  O18  1  0.654188  0.887506  0.472247  1
  O  O19  1  0.429983  0.369521  0.279118  1
  O  O20  1  0.566098  0.632286  0.717714  1
  O  O21  1  0.363144  0.128826  0.532753  1
  O  O22  1  0.733668  0.744753  0.169553  1
  O  O23  1  0.555186  0.080172  0.816744  1
  O  O24  1  0.947319  0.920268  0.681121  1
  O  O25  1  0.794576  0.596958  0.481485  1
  O  O26  1  0.699578  0.399724  0.019278  1
  O  O27  1  0.767849  0.257314  0.329104  1
  O  O28  1  0.922959  0.361277  0.773062  1
  O  O29  1  0.867245  0.135447  0.032049  1
