# generated using pymatgen
data_Li5SbS4
_symmetry_space_group_name_H-M   'P 1'
_cell_length_a   7.30966112
_cell_length_b   7.30966112
_cell_length_c   7.92020926
_cell_angle_alpha   90.00000000
_cell_angle_beta   90.00000000
_cell_angle_gamma   117.46413181
_symmetry_Int_Tables_number   1
_chemical_formula_structural   Li5SbS4
_chemical_formula_sum   'Li10 Sb2 S8'
_cell_volume   375.49269170
_cell_formula_units_Z   2
loop_
 _symmetry_equiv_pos_site_id
 _symmetry_equiv_pos_as_xyz
  1  'x, y, z'
loop_
 _atom_site_type_symbol
 _atom_site_label
 _atom_site_symmetry_multiplicity
 _atom_site_fract_x
 _atom_site_fract_y
 _atom_site_fract_z
 _atom_site_occupancy
  Li  Li0  1  0.120706  0.243376  0.307033  1
  Li  Li1  1  0.243376  0.120706  0.807033  1
  Li  Li2  1  0.156328  0.414815  0.016698  1
  Li  Li3  1  0.414815  0.156328  0.516698  1
  Li  Li4  1  0.858830  0.141170  0.698025  1
  Li  Li5  1  0.141170  0.858830  0.198025  1
  Li  Li6  1  0.843672  0.585185  0.516698  1
  Li  Li7  1  0.585185  0.843672  0.016698  1
  Li  Li8  1  0.879294  0.756624  0.807033  1
  Li  Li9  1  0.756624  0.879294  0.307033  1
  Sb  Sb10  1  0.666034  0.333966  0.094832  1
  Sb  Sb11  1  0.333966  0.666034  0.594832  1
  S  S12  1  0.015883  0.503340  0.766481  1
  S  S13  1  0.503340  0.015883  0.266481  1
  S  S14  1  0.978337  0.021663  0.029937  1
  S  S15  1  0.021663  0.978337  0.529937  1
  S  S16  1  0.518960  0.481040  0.712485  1
  S  S17  1  0.481040  0.518960  0.212485  1
  S  S18  1  0.984117  0.496660  0.266481  1
  S  S19  1  0.496660  0.984117  0.766481  1
