# generated using pymatgen
data_Li2Fe3SnO8
_symmetry_space_group_name_H-M   'P 1'
_cell_length_a   6.17958880
_cell_length_b   6.17958880
_cell_length_c   6.17958880
_cell_angle_alpha   58.31921588
_cell_angle_beta   58.31921588
_cell_angle_gamma   58.31921588
_symmetry_Int_Tables_number   1
_chemical_formula_structural   Li2Fe3SnO8
_chemical_formula_sum   'Li2 Fe3 Sn1 O8'
_cell_volume   160.44211721
_cell_formula_units_Z   1
loop_
 _symmetry_equiv_pos_site_id
 _symmetry_equiv_pos_as_xyz
  1  'x, y, z'
loop_
 _atom_site_type_symbol
 _atom_site_label
 _atom_site_symmetry_multiplicity
 _atom_site_fract_x
 _atom_site_fract_y
 _atom_site_fract_z
 _atom_site_occupancy
  Li  Li0  1  0.875603  0.875603  0.875603  1
  Li  Li1  1  0.124397  0.124397  0.124397  1
  Fe  Fe2  1  0.500000  0.500000  0.000000  1
  Fe  Fe3  1  0.000000  0.500000  0.500000  1
  Fe  Fe4  1  0.500000  1.000000  0.500000  1
  Sn  Sn5  1  0.500000  0.500000  0.500000  1
  O  O6  1  0.735241  0.735241  0.735241  1
  O  O7  1  0.742834  0.282271  0.742834  1
  O  O8  1  0.282271  0.742834  0.742834  1
  O  O9  1  0.742834  0.742834  0.282271  1
  O  O10  1  0.257166  0.257166  0.717729  1
  O  O11  1  0.717729  0.257166  0.257166  1
  O  O12  1  0.257166  0.717729  0.257166  1
  O  O13  1  0.264759  0.264759  0.264759  1
