# generated using pymatgen
data_LiMnAlO3
_symmetry_space_group_name_H-M   'P 1'
_cell_length_a   5.77664578
_cell_length_b   5.78339738
_cell_length_c   5.81014550
_cell_angle_alpha   91.18262567
_cell_angle_beta   118.80707207
_cell_angle_gamma   119.51611832
_symmetry_Int_Tables_number   1
_chemical_formula_structural   LiMnAlO3
_chemical_formula_sum   'Li2 Mn2 Al2 O6'
_cell_volume   139.28073147
_cell_formula_units_Z   2
loop_
 _symmetry_equiv_pos_site_id
 _symmetry_equiv_pos_as_xyz
  1  'x, y, z'
loop_
 _atom_site_type_symbol
 _atom_site_label
 _atom_site_symmetry_multiplicity
 _atom_site_fract_x
 _atom_site_fract_y
 _atom_site_fract_z
 _atom_site_occupancy
  Li  Li0  1  0.375672  0.071163  0.610724  1
  Li  Li1  1  0.624328  0.928837  0.389276  1
  Mn  Mn2  1  0.683608  0.433325  0.250338  1
  Mn  Mn3  1  0.316392  0.566675  0.749662  1
  Al  Al4  1  0.953680  0.770914  0.882620  1
  Al  Al5  1  0.046320  0.229086  0.117380  1
  O  O6  1  0.054300  0.754956  0.645177  1
  O  O7  1  0.665676  0.451919  0.879391  1
  O  O8  1  0.266639  0.052721  0.217971  1
  O  O9  1  0.733361  0.947279  0.782029  1
  O  O10  1  0.334324  0.548081  0.120609  1
  O  O11  1  0.945700  0.245044  0.354823  1
