# generated using pymatgen
data_Ti3FeSb2(PO4)6
_symmetry_space_group_name_H-M   'P 1'
_cell_length_a   8.89058479
_cell_length_b   8.89058479
_cell_length_c   8.89058479
_cell_angle_alpha   59.06686507
_cell_angle_beta   59.06686507
_cell_angle_gamma   59.06686507
_symmetry_Int_Tables_number   1
_chemical_formula_structural   Ti3FeSb2(PO4)6
_chemical_formula_sum   'Ti3 Fe1 Sb2 P6 O24'
_cell_volume   486.33532729
_cell_formula_units_Z   1
loop_
 _symmetry_equiv_pos_site_id
 _symmetry_equiv_pos_as_xyz
  1  'x, y, z'
loop_
 _atom_site_type_symbol
 _atom_site_label
 _atom_site_symmetry_multiplicity
 _atom_site_fract_x
 _atom_site_fract_y
 _atom_site_fract_z
 _atom_site_occupancy
  Ti  Ti0  1  0.854288  0.854288  0.854288  1
  Ti  Ti1  1  0.648643  0.648643  0.648643  1
  Ti  Ti2  1  0.350568  0.350568  0.350568  1
  Fe  Fe3  1  0.151199  0.151199  0.151199  1
  Sb  Sb4  1  0.008361  0.008361  0.008361  1
  Sb  Sb5  1  0.502844  0.502844  0.502844  1
  P  P6  1  0.461329  0.040909  0.746413  1
  P  P7  1  0.040909  0.746413  0.461329  1
  P  P8  1  0.746413  0.461329  0.040909  1
  P  P9  1  0.248433  0.542441  0.956065  1
  P  P10  1  0.956065  0.248433  0.542441  1
  P  P11  1  0.542441  0.956065  0.248433  1
  O  O12  1  0.688671  0.502163  0.883996  1
  O  O13  1  0.502163  0.883996  0.688671  1
  O  O14  1  0.085845  0.734668  0.935936  1
  O  O15  1  0.883996  0.688671  0.502163  1
  O  O16  1  0.199117  0.390693  0.980094  1
  O  O17  1  0.418003  0.567628  0.764945  1
  O  O18  1  0.935936  0.085845  0.734668  1
  O  O19  1  0.764945  0.418003  0.567628  1
  O  O20  1  0.616457  0.003834  0.804061  1
  O  O21  1  0.567628  0.764945  0.418003  1
  O  O22  1  0.268793  0.057089  0.909887  1
  O  O23  1  0.003834  0.804061  0.616457  1
  O  O24  1  0.980094  0.199117  0.390693  1
  O  O25  1  0.734668  0.935936  0.085845  1
  O  O26  1  0.441641  0.230848  0.580638  1
  O  O27  1  0.390693  0.980094  0.199117  1
  O  O28  1  0.230848  0.580638  0.441641  1
  O  O29  1  0.057089  0.909887  0.268793  1
  O  O30  1  0.580638  0.441641  0.230848  1
  O  O31  1  0.804061  0.616457  0.003834  1
  O  O32  1  0.114543  0.303686  0.505269  1
  O  O33  1  0.909887  0.268793  0.057089  1
  O  O34  1  0.505269  0.114543  0.303686  1
  O  O35  1  0.303686  0.505269  0.114543  1
