# generated using pymatgen
data_Na2BiO3
_symmetry_space_group_name_H-M   'P 1'
_cell_length_a   4.83684197
_cell_length_b   10.03647428
_cell_length_c   6.77374031
_cell_angle_alpha   90.00000000
_cell_angle_beta   90.18255800
_cell_angle_gamma   90.00000000
_symmetry_Int_Tables_number   1
_chemical_formula_structural   Na2BiO3
_chemical_formula_sum   'Na8 Bi4 O12'
_cell_volume   328.82847093
_cell_formula_units_Z   4
loop_
 _symmetry_equiv_pos_site_id
 _symmetry_equiv_pos_as_xyz
  1  'x, y, z'
loop_
 _atom_site_type_symbol
 _atom_site_label
 _atom_site_symmetry_multiplicity
 _atom_site_fract_x
 _atom_site_fract_y
 _atom_site_fract_z
 _atom_site_occupancy
  Na  Na0  1  0.255522  0.745447  0.112499  1
  Na  Na1  1  0.255522  0.754553  0.612499  1
  Na  Na2  1  0.251207  0.418627  0.125763  1
  Na  Na3  1  0.251207  0.081373  0.625763  1
  Na  Na4  1  0.748793  0.918627  0.374237  1
  Na  Na5  1  0.748793  0.581373  0.874237  1
  Na  Na6  1  0.744478  0.245447  0.387501  1
  Na  Na7  1  0.744478  0.254553  0.887501  1
  Bi  Bi8  1  0.240975  0.089511  0.140014  1
  Bi  Bi9  1  0.240975  0.410489  0.640014  1
  Bi  Bi10  1  0.759025  0.589511  0.359986  1
  Bi  Bi11  1  0.759025  0.910489  0.859986  1
  O  O12  1  0.240062  0.570621  0.393100  1
  O  O13  1  0.240062  0.929379  0.893100  1
  O  O14  1  0.250904  0.934895  0.344025  1
  O  O15  1  0.250904  0.565105  0.844025  1
  O  O16  1  0.247163  0.248454  0.379734  1
  O  O17  1  0.247163  0.251546  0.879734  1
  O  O18  1  0.752837  0.748454  0.120266  1
  O  O19  1  0.752837  0.751546  0.620266  1
  O  O20  1  0.749096  0.434895  0.155975  1
  O  O21  1  0.749096  0.065105  0.655975  1
  O  O22  1  0.759938  0.070621  0.106900  1
  O  O23  1  0.759938  0.429379  0.606900  1
