# generated using pymatgen
data_La3Ti4O12
_symmetry_space_group_name_H-M   'P 1'
_cell_length_a   5.55200847
_cell_length_b   5.55200847
_cell_length_c   7.83632674
_cell_angle_alpha   90.00000000
_cell_angle_beta   90.00000000
_cell_angle_gamma   90.68907216
_symmetry_Int_Tables_number   1
_chemical_formula_structural   La3Ti4O12
_chemical_formula_sum   'La3 Ti4 O12'
_cell_volume   241.53572006
_cell_formula_units_Z   1
loop_
 _symmetry_equiv_pos_site_id
 _symmetry_equiv_pos_as_xyz
  1  'x, y, z'
loop_
 _atom_site_type_symbol
 _atom_site_label
 _atom_site_symmetry_multiplicity
 _atom_site_fract_x
 _atom_site_fract_y
 _atom_site_fract_z
 _atom_site_occupancy
  La  La0  1  0.742635  0.257365  0.000000  1
  La  La1  1  0.743654  0.256346  0.500000  1
  La  La2  1  0.249733  0.750267  1.000000  1
  Ti  Ti3  1  0.248251  0.251154  0.257148  1
  Ti  Ti4  1  0.248251  0.251154  0.742852  1
  Ti  Ti5  1  0.748846  0.751749  0.257148  1
  Ti  Ti6  1  0.748846  0.751749  0.742852  1
  O  O7  1  0.000607  0.999393  0.199204  1
  O  O8  1  0.000607  0.999393  0.800796  1
  O  O9  1  0.508249  0.006447  0.235997  1
  O  O10  1  0.508249  0.006447  0.764003  1
  O  O11  1  0.205271  0.222709  0.500000  1
  O  O12  1  0.290356  0.298996  1.000000  1
  O  O13  1  0.993553  0.491751  0.235997  1
  O  O14  1  0.993553  0.491751  0.764003  1
  O  O15  1  0.517921  0.482079  0.279372  1
  O  O16  1  0.517921  0.482079  0.720628  1
  O  O17  1  0.701004  0.709644  0.000000  1
  O  O18  1  0.777291  0.794729  0.500000  1
