# generated using pymatgen
data_Li3FePCO7
_symmetry_space_group_name_H-M   'P 1'
_cell_length_a   5.01522270
_cell_length_b   6.48094960
_cell_length_c   8.61728322
_cell_angle_alpha   90.00000000
_cell_angle_beta   97.04777497
_cell_angle_gamma   90.00000000
_symmetry_Int_Tables_number   1
_chemical_formula_structural   Li3FePCO7
_chemical_formula_sum   'Li6 Fe2 P2 C2 O14'
_cell_volume   277.97473599
_cell_formula_units_Z   2
loop_
 _symmetry_equiv_pos_site_id
 _symmetry_equiv_pos_as_xyz
  1  'x, y, z'
loop_
 _atom_site_type_symbol
 _atom_site_label
 _atom_site_symmetry_multiplicity
 _atom_site_fract_x
 _atom_site_fract_y
 _atom_site_fract_z
 _atom_site_occupancy
  Li  Li0  1  0.176972  0.116446  0.566072  1
  Li  Li1  1  0.823028  0.616446  0.433928  1
  Li  Li2  1  0.741243  0.490269  0.797765  1
  Li  Li3  1  0.740848  0.019662  0.786543  1
  Li  Li4  1  0.258757  0.990269  0.202235  1
  Li  Li5  1  0.259152  0.519662  0.213457  1
  Fe  Fe6  1  0.221593  0.754356  0.831795  1
  Fe  Fe7  1  0.778407  0.254356  0.168205  1
  P  P8  1  0.264285  0.259552  0.904493  1
  P  P9  1  0.735715  0.759552  0.095507  1
  C  C10  1  0.643585  0.213077  0.460370  1
  C  C11  1  0.356415  0.713077  0.539630  1
  O  O12  1  0.113927  0.779742  0.557495  1
  O  O13  1  0.529019  0.698845  0.665197  1
  O  O14  1  0.576976  0.166255  0.595186  1
  O  O15  1  0.161811  0.067054  0.805292  1
  O  O16  1  0.143342  0.446839  0.808913  1
  O  O17  1  0.829370  0.756997  0.931174  1
  O  O18  1  0.579543  0.262870  0.925263  1
  O  O19  1  0.420457  0.762870  0.074737  1
  O  O20  1  0.170630  0.256997  0.068826  1
  O  O21  1  0.838189  0.567054  0.194708  1
  O  O22  1  0.856658  0.946839  0.191087  1
  O  O23  1  0.423024  0.666255  0.404814  1
  O  O24  1  0.470981  0.198845  0.334803  1
  O  O25  1  0.886073  0.279742  0.442505  1
