# generated using pymatgen
data_La9Ni5O19
_symmetry_space_group_name_H-M   'P 1'
_cell_length_a   15.34586738
_cell_length_b   14.28215582
_cell_length_c   6.80831860
_cell_angle_alpha   85.62434686
_cell_angle_beta   68.12078007
_cell_angle_gamma   26.25487307
_symmetry_Int_Tables_number   1
_chemical_formula_structural   La9Ni5O19
_chemical_formula_sum   'La9 Ni5 O19'
_cell_volume   476.55351479
_cell_formula_units_Z   1
loop_
 _symmetry_equiv_pos_site_id
 _symmetry_equiv_pos_as_xyz
  1  'x, y, z'
loop_
 _atom_site_type_symbol
 _atom_site_label
 _atom_site_symmetry_multiplicity
 _atom_site_fract_x
 _atom_site_fract_y
 _atom_site_fract_z
 _atom_site_occupancy
  La  La0  1  0.596681  0.403319  0.596681  1
  La  La1  1  0.233617  0.944372  0.055628  1
  La  La2  1  0.561080  0.838662  0.161338  1
  La  La3  1  0.970037  0.238405  0.761595  1
  La  La4  1  0.841084  0.562171  0.437829  1
  La  La5  1  0.161338  0.438920  0.561080  1
  La  La6  1  0.437829  0.158916  0.841084  1
  La  La7  1  0.055628  0.766383  0.233617  1
  La  La8  1  0.761595  0.029963  0.970037  1
  Ni  Ni9  1  0.590886  0.609772  0.390228  1
  Ni  Ni10  1  0.993126  0.006874  0.993126  1
  Ni  Ni11  1  0.206990  0.192789  0.807211  1
  Ni  Ni12  1  0.807211  0.793010  0.206990  1
  Ni  Ni13  1  0.390228  0.409114  0.590886  1
  O  O14  1  0.155815  0.844185  0.155815  1
  O  O15  1  0.279025  0.826960  0.695205  1
  O  O16  1  0.418005  0.881678  0.620328  1
  O  O17  1  0.801190  0.304795  0.173040  1
  O  O18  1  0.440201  0.793670  0.206330  1
  O  O19  1  0.920011  0.379672  0.118322  1
  O  O20  1  0.769513  0.397226  0.602774  1
  O  O21  1  0.991982  0.508018  0.991982  1
  O  O22  1  0.633030  0.981428  0.018572  1
  O  O23  1  0.018572  0.366970  0.633030  1
  O  O24  1  0.491982  0.008018  0.491982  1
  O  O25  1  0.391501  0.033610  0.966390  1
  O  O26  1  0.118322  0.581995  0.920011  1
  O  O27  1  0.966390  0.608499  0.391501  1
  O  O28  1  0.173040  0.720975  0.801190  1
  O  O29  1  0.620328  0.079989  0.418005  1
  O  O30  1  0.206330  0.559799  0.440201  1
  O  O31  1  0.695205  0.198810  0.279025  1
  O  O32  1  0.602774  0.230487  0.769513  1
