# generated using pymatgen
data_Fe3OF5
_symmetry_space_group_name_H-M   'P 1'
_cell_length_a   5.76696303
_cell_length_b   5.76696303
_cell_length_c   7.46106661
_cell_angle_alpha   72.92382587
_cell_angle_beta   107.07617413
_cell_angle_gamma   105.65216426
_symmetry_Int_Tables_number   1
_chemical_formula_structural   Fe3OF5
_chemical_formula_sum   'Fe6 O2 F10'
_cell_volume   222.12050114
_cell_formula_units_Z   2
loop_
 _symmetry_equiv_pos_site_id
 _symmetry_equiv_pos_as_xyz
  1  'x, y, z'
loop_
 _atom_site_type_symbol
 _atom_site_label
 _atom_site_symmetry_multiplicity
 _atom_site_fract_x
 _atom_site_fract_y
 _atom_site_fract_z
 _atom_site_occupancy
  Fe  Fe0  1  0.321597  0.678403  0.843646  1
  Fe  Fe1  1  0.666193  0.333807  0.685542  1
  Fe  Fe2  1  0.333807  0.666193  0.314458  1
  Fe  Fe3  1  0.678403  0.321597  0.156354  1
  Fe  Fe4  1  1.000000  0.000000  0.500000  1
  Fe  Fe5  1  0.000000  0.000000  0.000000  1
  O  O6  1  0.776609  0.223391  0.969201  1
  O  O7  1  0.223391  0.776609  0.030799  1
  F  F8  1  0.969431  0.633020  0.661557  1
  F  F9  1  0.633020  0.969431  0.338443  1
  F  F10  1  0.105542  0.894458  0.304864  1
  F  F11  1  0.431268  0.568732  0.630266  1
  F  F12  1  0.568732  0.431268  0.369734  1
  F  F13  1  0.894458  0.105542  0.695136  1
  F  F14  1  0.030569  0.366980  0.338443  1
  F  F15  1  0.366980  0.030569  0.661557  1
  F  F16  1  0.691908  0.691908  0.000000  1
  F  F17  1  0.308092  0.308092  0.000000  1
