# generated using pymatgen
data_Li5Cu(PO4)2
_symmetry_space_group_name_H-M   'P 1'
_cell_length_a   4.97488564
_cell_length_b   6.21696355
_cell_length_c   5.30782570
_cell_angle_alpha   90.00000000
_cell_angle_beta   90.35058291
_cell_angle_gamma   90.00000000
_symmetry_Int_Tables_number   1
_chemical_formula_structural   Li5Cu(PO4)2
_chemical_formula_sum   'Li5 Cu1 P2 O8'
_cell_volume   164.16098366
_cell_formula_units_Z   1
loop_
 _symmetry_equiv_pos_site_id
 _symmetry_equiv_pos_as_xyz
  1  'x, y, z'
loop_
 _atom_site_type_symbol
 _atom_site_label
 _atom_site_symmetry_multiplicity
 _atom_site_fract_x
 _atom_site_fract_y
 _atom_site_fract_z
 _atom_site_occupancy
  Li  Li0  1  0.490672  0.000000  0.155595  1
  Li  Li1  1  0.992041  0.750988  0.326568  1
  Li  Li2  1  0.490573  0.746136  0.673441  1
  Li  Li3  1  0.490573  0.253864  0.673441  1
  Li  Li4  1  0.992041  0.249012  0.326568  1
  Cu  Cu5  1  0.993573  0.500000  0.827893  1
  P  P6  1  0.999752  0.000000  0.825763  1
  P  P7  1  0.498629  0.500000  0.181417  1
  O  O8  1  0.898878  0.000000  0.103139  1
  O  O9  1  0.312207  0.000000  0.819478  1
  O  O10  1  0.889290  0.798407  0.681991  1
  O  O11  1  0.390303  0.706995  0.313048  1
  O  O12  1  0.811033  0.500000  0.199222  1
  O  O13  1  0.413436  0.500000  0.897398  1
  O  O14  1  0.390303  0.293005  0.313048  1
  O  O15  1  0.889290  0.201593  0.681991  1
