# generated using pymatgen
data_Li3Bi(BO3)2
_symmetry_space_group_name_H-M   'P 1'
_cell_length_a   8.98539076
_cell_length_b   6.54328663
_cell_length_c   10.29410072
_cell_angle_alpha   90.00000000
_cell_angle_beta   117.27874919
_cell_angle_gamma   90.00000000
_symmetry_Int_Tables_number   1
_chemical_formula_structural   Li3Bi(BO3)2
_chemical_formula_sum   'Li12 Bi4 B8 O24'
_cell_volume   537.92181730
_cell_formula_units_Z   4
loop_
 _symmetry_equiv_pos_site_id
 _symmetry_equiv_pos_as_xyz
  1  'x, y, z'
loop_
 _atom_site_type_symbol
 _atom_site_label
 _atom_site_symmetry_multiplicity
 _atom_site_fract_x
 _atom_site_fract_y
 _atom_site_fract_z
 _atom_site_occupancy
  Li  Li0  1  0.108480  0.743720  0.979230  1
  Li  Li1  1  0.206265  0.435992  0.168066  1
  Li  Li2  1  0.891520  0.243720  0.520770  1
  Li  Li3  1  0.341094  0.216905  0.045252  1
  Li  Li4  1  0.206265  0.064008  0.668066  1
  Li  Li5  1  0.658906  0.716905  0.454748  1
  Li  Li6  1  0.341094  0.283095  0.545252  1
  Li  Li7  1  0.793735  0.935992  0.331934  1
  Li  Li8  1  0.658906  0.783095  0.954748  1
  Li  Li9  1  0.108480  0.756280  0.479230  1
  Li  Li10  1  0.793735  0.564008  0.831934  1
  Li  Li11  1  0.891520  0.256280  0.020770  1
  Bi  Bi12  1  0.310656  0.970984  0.300461  1
  Bi  Bi13  1  0.310656  0.529016  0.800461  1
  Bi  Bi14  1  0.689344  0.470984  0.199539  1
  Bi  Bi15  1  0.689344  0.029016  0.699539  1
  B  B16  1  0.960875  0.835564  0.675285  1
  B  B17  1  0.039125  0.335564  0.824715  1
  B  B18  1  0.548779  0.330642  0.390032  1
  B  B19  1  0.451221  0.830642  0.109968  1
  B  B20  1  0.548779  0.169358  0.890032  1
  B  B21  1  0.451221  0.669358  0.609968  1
  B  B22  1  0.960875  0.664436  0.175285  1
  B  B23  1  0.039125  0.164436  0.324715  1
  O  O24  1  0.884740  0.294502  0.818784  1
  O  O25  1  0.919607  0.788317  0.787333  1
  O  O26  1  0.837848  0.935120  0.551758  1
  O  O27  1  0.162152  0.435120  0.948242  1
  O  O28  1  0.080393  0.288317  0.712667  1
  O  O29  1  0.505276  0.223706  0.483929  1
  O  O30  1  0.299036  0.930305  0.060177  1
  O  O31  1  0.115260  0.794502  0.681216  1
  O  O32  1  0.437358  0.326905  0.241490  1
  O  O33  1  0.562642  0.826905  0.258510  1
  O  O34  1  0.700964  0.430305  0.439823  1
  O  O35  1  0.494724  0.723706  0.016071  1
  O  O36  1  0.505276  0.276294  0.983929  1
  O  O37  1  0.299036  0.569695  0.560177  1
  O  O38  1  0.437358  0.173095  0.741490  1
  O  O39  1  0.562642  0.673095  0.758510  1
  O  O40  1  0.884740  0.205498  0.318784  1
  O  O41  1  0.700964  0.069695  0.939823  1
  O  O42  1  0.494724  0.776294  0.516071  1
  O  O43  1  0.919607  0.711683  0.287333  1
  O  O44  1  0.837848  0.564880  0.051758  1
  O  O45  1  0.162152  0.064880  0.448242  1
  O  O46  1  0.080393  0.211683  0.212667  1
  O  O47  1  0.115260  0.705498  0.181216  1
