# generated using pymatgen
data_H16PdC4S4(N4Cl)2
_symmetry_space_group_name_H-M   'P 1'
_cell_length_a   10.28404692
_cell_length_b   10.28404692
_cell_length_c   8.96802810
_cell_angle_alpha   88.04511071
_cell_angle_beta   91.95488929
_cell_angle_gamma   112.86808612
_symmetry_Int_Tables_number   1
_chemical_formula_structural   H16PdC4S4(N4Cl)2
_chemical_formula_sum   'H32 Pd2 C8 S8 N16 Cl4'
_cell_volume   873.19243362
_cell_formula_units_Z   2
loop_
 _symmetry_equiv_pos_site_id
 _symmetry_equiv_pos_as_xyz
  1  'x, y, z'
loop_
 _atom_site_type_symbol
 _atom_site_label
 _atom_site_symmetry_multiplicity
 _atom_site_fract_x
 _atom_site_fract_y
 _atom_site_fract_z
 _atom_site_occupancy
  H  H0  1  0.938607  0.329409  0.365117  1
  H  H1  1  0.670591  0.061393  0.865117  1
  H  H2  1  0.613696  0.131351  0.170059  1
  H  H3  1  0.793242  0.341730  0.268834  1
  H  H4  1  0.868649  0.386304  0.670059  1
  H  H5  1  0.658270  0.206758  0.768834  1
  H  H6  1  0.976471  0.648034  0.320348  1
  H  H7  1  0.351966  0.023529  0.820348  1
  H  H8  1  0.600657  0.408183  0.449169  1
  H  H9  1  0.518809  0.331055  0.279547  1
  H  H10  1  0.591817  0.399343  0.949169  1
  H  H11  1  0.668945  0.481191  0.779547  1
  H  H12  1  0.296894  0.155968  0.275186  1
  H  H13  1  0.211564  0.086505  0.444917  1
  H  H14  1  0.844032  0.703106  0.775186  1
  H  H15  1  0.913495  0.788436  0.944917  1
  H  H16  1  0.086505  0.211564  0.055083  1
  H  H17  1  0.155968  0.296894  0.224814  1
  H  H18  1  0.788436  0.913495  0.555083  1
  H  H19  1  0.703106  0.844032  0.724814  1
  H  H20  1  0.331055  0.518809  0.220453  1
  H  H21  1  0.408183  0.600657  0.050831  1
  H  H22  1  0.481191  0.668945  0.720453  1
  H  H23  1  0.399343  0.591817  0.550831  1
  H  H24  1  0.648034  0.976471  0.179652  1
  H  H25  1  0.023529  0.351966  0.679652  1
  H  H26  1  0.341730  0.793242  0.231166  1
  H  H27  1  0.131351  0.613696  0.329941  1
  H  H28  1  0.206758  0.658270  0.731166  1
  H  H29  1  0.386304  0.868649  0.829941  1
  H  H30  1  0.329409  0.938607  0.134883  1
  H  H31  1  0.061393  0.670591  0.634883  1
  Pd  Pd32  1  0.823086  0.823086  0.250000  1
  Pd  Pd33  1  0.176914  0.176914  0.750000  1
  C  C34  1  0.797790  0.142528  0.282548  1
  C  C35  1  0.857472  0.202210  0.782548  1
  C  C36  1  0.405039  0.245904  0.466387  1
  C  C37  1  0.754096  0.594961  0.966387  1
  C  C38  1  0.245904  0.405039  0.033613  1
  C  C39  1  0.594961  0.754096  0.533613  1
  C  C40  1  0.142528  0.797790  0.217452  1
  C  C41  1  0.202210  0.857472  0.717452  1
  S  S42  1  0.904322  0.054092  0.344181  1
  S  S43  1  0.945908  0.095678  0.844181  1
  S  S44  1  0.746042  0.589572  0.159663  1
  S  S45  1  0.410428  0.253958  0.659663  1
  S  S46  1  0.589572  0.746042  0.340337  1
  S  S47  1  0.253958  0.410428  0.840337  1
  S  S48  1  0.054092  0.904322  0.155819  1
  S  S49  1  0.095678  0.945908  0.655819  1
  N  N50  1  0.677747  0.079599  0.206594  1
  N  N51  1  0.920401  0.322253  0.706594  1
  N  N52  1  0.842479  0.279689  0.312898  1
  N  N53  1  0.720311  0.157521  0.812898  1
  N  N54  1  0.517296  0.334371  0.393454  1
  N  N55  1  0.665629  0.482704  0.893454  1
  N  N56  1  0.295698  0.156881  0.389283  1
  N  N57  1  0.843119  0.704302  0.889283  1
  N  N58  1  0.156881  0.295698  0.110717  1
  N  N59  1  0.704302  0.843119  0.610717  1
  N  N60  1  0.334371  0.517296  0.106546  1
  N  N61  1  0.482704  0.665629  0.606546  1
  N  N62  1  0.279689  0.842479  0.187102  1
  N  N63  1  0.157521  0.720311  0.687102  1
  N  N64  1  0.079599  0.677747  0.293406  1
  N  N65  1  0.322253  0.920401  0.793406  1
  Cl  Cl66  1  0.449189  0.184105  0.057927  1
  Cl  Cl67  1  0.815895  0.550811  0.557927  1
  Cl  Cl68  1  0.184105  0.449189  0.442073  1
  Cl  Cl69  1  0.550811  0.815895  0.942073  1
