# generated using pymatgen
data_LiV4O5F7
_symmetry_space_group_name_H-M   'P 1'
_cell_length_a   5.20734446
_cell_length_b   5.41805285
_cell_length_c   7.49524399
_cell_angle_alpha   86.62166327
_cell_angle_beta   89.82631165
_cell_angle_gamma   89.48907498
_symmetry_Int_Tables_number   1
_chemical_formula_structural   LiV4O5F7
_chemical_formula_sum   'Li1 V4 O5 F7'
_cell_volume   211.09176946
_cell_formula_units_Z   1
loop_
 _symmetry_equiv_pos_site_id
 _symmetry_equiv_pos_as_xyz
  1  'x, y, z'
loop_
 _atom_site_type_symbol
 _atom_site_label
 _atom_site_symmetry_multiplicity
 _atom_site_fract_x
 _atom_site_fract_y
 _atom_site_fract_z
 _atom_site_occupancy
  Li  Li0  1  0.003033  0.557562  0.269098  1
  V  V1  1  0.024919  0.964773  0.494578  1
  V  V2  1  0.026956  0.043166  0.004815  1
  V  V3  1  0.521916  0.520057  0.002068  1
  V  V4  1  0.519741  0.479184  0.499653  1
  O  O5  1  0.073068  0.990859  0.249885  1
  O  O6  1  0.206775  0.299958  0.962389  1
  O  O7  1  0.203323  0.698622  0.537394  1
  O  O8  1  0.782120  0.682762  0.056895  1
  O  O9  1  0.785915  0.316413  0.443981  1
  F  F10  1  0.294112  0.200922  0.553199  1
  F  F11  1  0.289575  0.795804  0.945665  1
  F  F12  1  0.371978  0.499480  0.250611  1
  F  F13  1  0.601618  0.500450  0.750219  1
  F  F14  1  0.692699  0.197829  0.050618  1
  F  F15  1  0.696128  0.798091  0.447737  1
  F  F16  1  0.907097  0.002114  0.750543  1
