# generated using pymatgen
data_Mn6O5F7
_symmetry_space_group_name_H-M   'P 1'
_cell_length_a   4.78559892
_cell_length_b   5.71061246
_cell_length_c   7.87064678
_cell_angle_alpha   86.11088175
_cell_angle_beta   87.51372851
_cell_angle_gamma   86.08117964
_symmetry_Int_Tables_number   1
_chemical_formula_structural   Mn6O5F7
_chemical_formula_sum   'Mn6 O5 F7'
_cell_volume   213.93521139
_cell_formula_units_Z   1
loop_
 _symmetry_equiv_pos_site_id
 _symmetry_equiv_pos_as_xyz
  1  'x, y, z'
loop_
 _atom_site_type_symbol
 _atom_site_label
 _atom_site_symmetry_multiplicity
 _atom_site_fract_x
 _atom_site_fract_y
 _atom_site_fract_z
 _atom_site_occupancy
  Mn  Mn0  1  0.510577  0.484934  0.998666  1
  Mn  Mn1  1  0.522927  0.850756  0.676655  1
  Mn  Mn2  1  0.488886  0.175028  0.331187  1
  Mn  Mn3  1  0.994648  0.326578  0.670405  1
  Mn  Mn4  1  0.024926  0.655961  0.327502  1
  Mn  Mn5  1  0.962816  0.005874  0.995892  1
  O  O6  1  0.807892  0.043102  0.773660  1
  O  O7  1  0.691050  0.199901  0.105343  1
  O  O8  1  0.697656  0.542500  0.771229  1
  O  O9  1  0.304912  0.127464  0.563910  1
  O  O10  1  0.317137  0.460220  0.225575  1
  F  F11  1  0.811649  0.372619  0.434127  1
  F  F12  1  0.798797  0.697676  0.103149  1
  F  F13  1  0.700596  0.872249  0.420192  1
  F  F14  1  0.286728  0.794270  0.912914  1
  F  F15  1  0.200326  0.628665  0.573335  1
  F  F16  1  0.179046  0.966072  0.216274  1
  F  F17  1  0.199432  0.296131  0.899987  1
