# generated using pymatgen
data_Li3V3P8O29
_symmetry_space_group_name_H-M   'P 1'
_cell_length_a   9.76049543
_cell_length_b   9.77733901
_cell_length_c   14.38868049
_cell_angle_alpha   90.37074737
_cell_angle_beta   89.98030851
_cell_angle_gamma   119.80363301
_symmetry_Int_Tables_number   1
_chemical_formula_structural   Li3V3P8O29
_chemical_formula_sum   'Li6 V6 P16 O58'
_cell_volume   1191.48510595
_cell_formula_units_Z   2
loop_
 _symmetry_equiv_pos_site_id
 _symmetry_equiv_pos_as_xyz
  1  'x, y, z'
loop_
 _atom_site_type_symbol
 _atom_site_label
 _atom_site_symmetry_multiplicity
 _atom_site_fract_x
 _atom_site_fract_y
 _atom_site_fract_z
 _atom_site_occupancy
  Li  Li0  1  0.658461  0.321794  0.607634  1
  Li  Li1  1  0.921181  0.696737  0.449257  1
  Li  Li2  1  0.219715  0.300906  0.053574  1
  Li  Li3  1  0.076709  0.785033  0.047122  1
  Li  Li4  1  0.701882  0.918916  0.051915  1
  Li  Li5  1  0.011510  0.064226  0.521152  1
  V  V6  1  0.003988  0.428581  0.750180  1
  V  V7  1  0.001054  0.561998  0.251077  1
  V  V8  1  0.438529  0.434157  0.254828  1
  V  V9  1  0.566676  0.572696  0.749713  1
  V  V10  1  0.426266  0.993905  0.747908  1
  V  V11  1  0.563397  0.001509  0.257827  1
  P  P12  1  0.314284  0.084930  0.162093  1
  P  P13  1  0.308754  0.219191  0.660766  1
  P  P14  1  0.781831  0.087107  0.659372  1
  P  P15  1  0.666518  0.333397  0.864154  1
  P  P16  1  0.670581  0.337514  0.369715  1
  P  P17  1  0.910125  0.224343  0.161955  1
  P  P18  1  0.084649  0.307181  0.342541  1
  P  P19  1  0.770151  0.681971  0.158472  1
  P  P20  1  0.232027  0.315040  0.840934  1
  P  P21  1  0.905307  0.679851  0.658874  1
  P  P22  1  0.085240  0.769712  0.836561  1
  P  P23  1  0.330564  0.663744  0.629793  1
  P  P24  1  0.335966  0.666808  0.136243  1
  P  P25  1  0.220818  0.916341  0.343791  1
  P  P26  1  0.693785  0.775990  0.340003  1
  P  P27  1  0.685083  0.916620  0.839522  1
  O  O28  1  0.206252  0.990345  0.429651  1
  O  O29  1  0.349529  0.082939  0.664960  1
  O  O30  1  0.237886  0.249502  0.932296  1
  O  O31  1  0.340332  0.255198  0.163761  1
  O  O32  1  0.475313  0.093143  0.183207  1
  O  O33  1  0.527482  0.181146  0.817465  1
  O  O34  1  0.625925  0.092574  0.662965  1
  O  O35  1  0.751977  0.988663  0.931122  1
  O  O36  1  0.740356  0.080917  0.163650  1
  O  O37  1  0.519438  0.332252  0.326350  1
  O  O38  1  0.469626  0.374098  0.665521  1
  O  O39  1  0.672162  0.188969  0.327943  1
  O  O40  1  0.666109  0.335293  0.966947  1
  O  O41  1  0.671844  0.342735  0.473140  1
  O  O42  1  0.820449  0.344358  0.821005  1
  O  O43  1  0.618607  0.522053  0.179283  1
  O  O44  1  0.654176  0.473546  0.818538  1
  O  O45  1  0.918033  0.263258  0.666933  1
  O  O46  1  0.992073  0.201204  0.253437  1
  O  O47  1  0.015023  0.221984  0.429056  1
  O  O48  1  0.003878  0.235507  0.078616  1
  O  O49  1  0.901674  0.378562  0.181122  1
  O  O50  1  0.816869  0.489598  0.329769  1
  O  O51  1  0.085911  0.338873  0.829764  1
  O  O52  1  0.894250  0.517225  0.669137  1
  O  O53  1  0.733281  0.650807  0.666604  1
  O  O54  1  0.215345  0.198618  0.757895  1
  O  O55  1  0.202526  0.196496  0.582156  1
  O  O56  1  0.786569  0.782422  0.422722  1
  O  O57  1  0.258884  0.346841  0.326642  1
  O  O58  1  0.082081  0.464973  0.327082  1
  O  O59  1  0.916316  0.657462  0.161970  1
  O  O60  1  0.181643  0.520100  0.674534  1
  O  O61  1  0.094981  0.619177  0.817701  1
  O  O62  1  0.009046  0.767757  0.925945  1
  O  O63  1  0.981492  0.766525  0.572271  1
  O  O64  1  0.992325  0.787105  0.749228  1
  O  O65  1  0.082644  0.741440  0.333490  1
  O  O66  1  0.340158  0.519868  0.175296  1
  O  O67  1  0.380461  0.474922  0.818644  1
  O  O68  1  0.182427  0.660153  0.181151  1
  O  O69  1  0.327365  0.668289  0.033391  1
  O  O70  1  0.329192  0.663282  0.527072  1
  O  O71  1  0.336136  0.814599  0.674351  1
  O  O72  1  0.534098  0.617088  0.326903  1
  O  O73  1  0.476083  0.660164  0.674704  1
  O  O74  1  0.255011  0.915543  0.827923  1
  O  O75  1  0.206280  0.002001  0.252274  1
  O  O76  1  0.232574  0.992660  0.077947  1
  O  O77  1  0.382112  0.917396  0.328934  1
  O  O78  1  0.480180  0.817621  0.179335  1
  O  O79  1  0.525465  0.906951  0.817175  1
  O  O80  1  0.659553  0.746024  0.828664  1
  O  O81  1  0.761305  0.763204  0.074181  1
  O  O82  1  0.794300  0.792680  0.248055  1
  O  O83  1  0.656038  0.912328  0.332549  1
  O  O84  1  0.811157  0.007973  0.580127  1
  O  O85  1  0.800508  0.013183  0.756419  1
