# generated using pymatgen
data_NaB2HO4
_symmetry_space_group_name_H-M   'P 1'
_cell_length_a   8.78230775
_cell_length_b   10.57598648
_cell_length_c   14.37669478
_cell_angle_alpha   90.00000000
_cell_angle_beta   90.00000000
_cell_angle_gamma   90.00000000
_symmetry_Int_Tables_number   1
_chemical_formula_structural   NaB2HO4
_chemical_formula_sum   'Na16 B32 H16 O64'
_cell_volume   1335.32995421
_cell_formula_units_Z   16
loop_
 _symmetry_equiv_pos_site_id
 _symmetry_equiv_pos_as_xyz
  1  'x, y, z'
loop_
 _atom_site_type_symbol
 _atom_site_label
 _atom_site_symmetry_multiplicity
 _atom_site_fract_x
 _atom_site_fract_y
 _atom_site_fract_z
 _atom_site_occupancy
  Na  Na0  1  0.418195  0.528398  0.188486  1
  Na  Na1  1  0.918195  0.971602  0.811514  1
  Na  Na2  1  0.581805  0.028398  0.311514  1
  Na  Na3  1  0.081805  0.471602  0.688486  1
  Na  Na4  1  0.581805  0.471602  0.811514  1
  Na  Na5  1  0.081805  0.028398  0.188486  1
  Na  Na6  1  0.418195  0.971602  0.688486  1
  Na  Na7  1  0.918195  0.528398  0.311514  1
  Na  Na8  1  0.265026  0.474401  0.430074  1
  Na  Na9  1  0.765026  0.025599  0.569926  1
  Na  Na10  1  0.734974  0.974401  0.069926  1
  Na  Na11  1  0.234974  0.525599  0.930074  1
  Na  Na12  1  0.734974  0.525599  0.569926  1
  Na  Na13  1  0.234974  0.974401  0.430074  1
  Na  Na14  1  0.265026  0.025599  0.930074  1
  Na  Na15  1  0.765026  0.474401  0.069926  1
  B  B16  1  0.079886  0.264114  0.337029  1
  B  B17  1  0.579886  0.235886  0.662971  1
  B  B18  1  0.920114  0.764114  0.162971  1
  B  B19  1  0.420114  0.735886  0.837029  1
  B  B20  1  0.920114  0.735886  0.662971  1
  B  B21  1  0.420114  0.764114  0.337029  1
  B  B22  1  0.079886  0.235886  0.837029  1
  B  B23  1  0.579886  0.264114  0.162971  1
  B  B24  1  0.900877  0.106885  0.385568  1
  B  B25  1  0.400877  0.393115  0.614432  1
  B  B26  1  0.099123  0.606885  0.114432  1
  B  B27  1  0.599123  0.893115  0.885568  1
  B  B28  1  0.099123  0.893115  0.614432  1
  B  B29  1  0.599123  0.606885  0.385568  1
  B  B30  1  0.900877  0.393115  0.885568  1
  B  B31  1  0.400877  0.106885  0.114432  1
  B  B32  1  0.829548  0.257697  0.260184  1
  B  B33  1  0.329548  0.242303  0.739816  1
  B  B34  1  0.170452  0.757697  0.239816  1
  B  B35  1  0.670452  0.742303  0.760184  1
  B  B36  1  0.170452  0.742303  0.739816  1
  B  B37  1  0.670452  0.757697  0.260184  1
  B  B38  1  0.829548  0.242303  0.760184  1
  B  B39  1  0.329548  0.257697  0.239816  1
  B  B40  1  0.952878  0.288861  0.489573  1
  B  B41  1  0.452878  0.211139  0.510427  1
  B  B42  1  0.047122  0.788861  0.010427  1
  B  B43  1  0.547122  0.711139  0.989573  1
  B  B44  1  0.047122  0.711139  0.510427  1
  B  B45  1  0.547122  0.788861  0.489573  1
  B  B46  1  0.952878  0.211139  0.989573  1
  B  B47  1  0.452878  0.288861  0.010427  1
  H  H48  1  0.933203  0.919903  0.419095  1
  H  H49  1  0.433203  0.580097  0.580905  1
  H  H50  1  0.066797  0.419903  0.080905  1
  H  H51  1  0.566797  0.080097  0.919095  1
  H  H52  1  0.066797  0.080097  0.580905  1
  H  H53  1  0.566797  0.419903  0.419095  1
  H  H54  1  0.933203  0.580097  0.919095  1
  H  H55  1  0.433203  0.919903  0.080905  1
  H  H56  1  0.849619  0.298814  0.608279  1
  H  H57  1  0.349619  0.201186  0.391721  1
  H  H58  1  0.150381  0.798814  0.891721  1
  H  H59  1  0.650381  0.701186  0.108279  1
  H  H60  1  0.150381  0.701186  0.391721  1
  H  H61  1  0.650381  0.798814  0.608279  1
  H  H62  1  0.849619  0.201186  0.108279  1
  H  H63  1  0.349619  0.298814  0.891721  1
  O  O64  1  0.970816  0.314374  0.266205  1
  O  O65  1  0.470816  0.185626  0.733795  1
  O  O66  1  0.029184  0.814374  0.233795  1
  O  O67  1  0.529184  0.685626  0.766205  1
  O  O68  1  0.029184  0.685626  0.733795  1
  O  O69  1  0.529184  0.814374  0.266205  1
  O  O70  1  0.970816  0.185626  0.766205  1
  O  O71  1  0.470816  0.314374  0.233795  1
  O  O72  1  0.238598  0.297173  0.313402  1
  O  O73  1  0.738598  0.202827  0.686598  1
  O  O74  1  0.761402  0.797173  0.186598  1
  O  O75  1  0.261402  0.702827  0.813402  1
  O  O76  1  0.761402  0.702827  0.686598  1
  O  O77  1  0.261402  0.797173  0.313402  1
  O  O78  1  0.238598  0.202827  0.813402  1
  O  O79  1  0.738598  0.297173  0.186598  1
  O  O80  1  0.056689  0.127073  0.350157  1
  O  O81  1  0.556689  0.372927  0.649843  1
  O  O82  1  0.943311  0.627073  0.149843  1
  O  O83  1  0.443311  0.872927  0.850157  1
  O  O84  1  0.943311  0.872927  0.649843  1
  O  O85  1  0.443311  0.627073  0.350157  1
  O  O86  1  0.056689  0.372927  0.850157  1
  O  O87  1  0.556689  0.127073  0.149843  1
  O  O88  1  0.048935  0.339370  0.425275  1
  O  O89  1  0.548935  0.160630  0.574725  1
  O  O90  1  0.951065  0.839370  0.074725  1
  O  O91  1  0.451065  0.660630  0.925275  1
  O  O92  1  0.951065  0.660630  0.574725  1
  O  O93  1  0.451065  0.839370  0.425275  1
  O  O94  1  0.048935  0.160630  0.925275  1
  O  O95  1  0.548935  0.339370  0.074725  1
  O  O96  1  0.787223  0.161588  0.318515  1
  O  O97  1  0.287223  0.338412  0.681485  1
  O  O98  1  0.212777  0.661588  0.181485  1
  O  O99  1  0.712777  0.838412  0.818515  1
  O  O100  1  0.212777  0.838412  0.681485  1
  O  O101  1  0.712777  0.661588  0.318515  1
  O  O102  1  0.787223  0.338412  0.818515  1
  O  O103  1  0.287223  0.161588  0.181485  1
  O  O104  1  0.886506  0.172698  0.478654  1
  O  O105  1  0.386506  0.327302  0.521346  1
  O  O106  1  0.113494  0.672698  0.021346  1
  O  O107  1  0.613494  0.827302  0.978654  1
  O  O108  1  0.113494  0.827302  0.521346  1
  O  O109  1  0.613494  0.672698  0.478654  1
  O  O110  1  0.886506  0.327302  0.978654  1
  O  O111  1  0.386506  0.172698  0.021346  1
  O  O112  1  0.851661  0.976372  0.399811  1
  O  O113  1  0.351661  0.523628  0.600189  1
  O  O114  1  0.148339  0.476372  0.100189  1
  O  O115  1  0.648339  0.023628  0.899811  1
  O  O116  1  0.148339  0.023628  0.600189  1
  O  O117  1  0.648339  0.476372  0.399811  1
  O  O118  1  0.851661  0.523628  0.899811  1
  O  O119  1  0.351661  0.976372  0.100189  1
  O  O120  1  0.918573  0.355093  0.571908  1
  O  O121  1  0.418573  0.144907  0.428092  1
  O  O122  1  0.081427  0.855093  0.928092  1
  O  O123  1  0.581427  0.644907  0.071908  1
  O  O124  1  0.081427  0.644907  0.428092  1
  O  O125  1  0.581427  0.855093  0.571908  1
  O  O126  1  0.918573  0.144907  0.071908  1
  O  O127  1  0.418573  0.355093  0.928092  1
