# generated using pymatgen
data_Y4Ga2O9
_symmetry_space_group_name_H-M   'P 1'
_cell_length_a   7.42484890
_cell_length_b   10.67172339
_cell_length_c   11.41629595
_cell_angle_alpha   90.00000000
_cell_angle_beta   107.71713311
_cell_angle_gamma   90.00000000
_symmetry_Int_Tables_number   1
_chemical_formula_structural   Y4Ga2O9
_chemical_formula_sum   'Y16 Ga8 O36'
_cell_volume   861.67707167
_cell_formula_units_Z   4
loop_
 _symmetry_equiv_pos_site_id
 _symmetry_equiv_pos_as_xyz
  1  'x, y, z'
loop_
 _atom_site_type_symbol
 _atom_site_label
 _atom_site_symmetry_multiplicity
 _atom_site_fract_x
 _atom_site_fract_y
 _atom_site_fract_z
 _atom_site_occupancy
  Y  Y0  1  0.906430  0.628645  0.058587  1
  Y  Y1  1  0.906430  0.871355  0.558587  1
  Y  Y2  1  0.773707  0.400984  0.300138  1
  Y  Y3  1  0.737408  0.884467  0.219813  1
  Y  Y4  1  0.773707  0.099016  0.800138  1
  Y  Y5  1  0.582693  0.115508  0.407970  1
  Y  Y6  1  0.737408  0.615533  0.719813  1
  Y  Y7  1  0.417307  0.615508  0.092030  1
  Y  Y8  1  0.582693  0.384492  0.907970  1
  Y  Y9  1  0.262592  0.384467  0.280187  1
  Y  Y10  1  0.417307  0.884492  0.592030  1
  Y  Y11  1  0.226293  0.900984  0.199862  1
  Y  Y12  1  0.262592  0.115533  0.780187  1
  Y  Y13  1  0.226293  0.599016  0.699862  1
  Y  Y14  1  0.093570  0.128645  0.441413  1
  Y  Y15  1  0.093570  0.371355  0.941413  1
  Ga  Ga16  1  0.945878  0.170981  0.122310  1
  Ga  Ga17  1  0.945878  0.329019  0.622310  1
  Ga  Ga18  1  0.586087  0.676104  0.391313  1
  Ga  Ga19  1  0.413913  0.176104  0.108687  1
  Ga  Ga20  1  0.586087  0.823896  0.891313  1
  Ga  Ga21  1  0.413913  0.323896  0.608687  1
  Ga  Ga22  1  0.054122  0.670981  0.377690  1
  Ga  Ga23  1  0.054122  0.829019  0.877690  1
  O  O24  1  0.937013  0.001327  0.143280  1
  O  O25  1  0.979785  0.255162  0.271299  1
  O  O26  1  0.833978  0.003030  0.391707  1
  O  O27  1  0.822337  0.738573  0.386583  1
  O  O28  1  0.687514  0.494003  0.105274  1
  O  O29  1  0.937013  0.498673  0.643280  1
  O  O30  1  0.979785  0.244838  0.771299  1
  O  O31  1  0.620640  0.761215  0.046932  1
  O  O32  1  0.809611  0.265999  0.472377  1
  O  O33  1  0.535473  0.267171  0.248493  1
  O  O34  1  0.833978  0.496970  0.891707  1
  O  O35  1  0.822337  0.761427  0.886583  1
  O  O36  1  0.475292  0.018481  0.175401  1
  O  O37  1  0.687514  0.005997  0.605274  1
  O  O38  1  0.524708  0.518481  0.324599  1
  O  O39  1  0.620640  0.738785  0.546932  1
  O  O40  1  0.464527  0.767171  0.251507  1
  O  O41  1  0.809611  0.234001  0.972377  1
  O  O42  1  0.190389  0.765999  0.027623  1
  O  O43  1  0.535473  0.232829  0.748493  1
  O  O44  1  0.379360  0.261215  0.453068  1
  O  O45  1  0.475292  0.481519  0.675401  1
  O  O46  1  0.312486  0.994003  0.394726  1
  O  O47  1  0.524708  0.981519  0.824599  1
  O  O48  1  0.177663  0.238573  0.113417  1
  O  O49  1  0.166022  0.503030  0.108293  1
  O  O50  1  0.464527  0.732829  0.751507  1
  O  O51  1  0.190389  0.734001  0.527623  1
  O  O52  1  0.379360  0.238785  0.953068  1
  O  O53  1  0.020215  0.755162  0.228701  1
  O  O54  1  0.062987  0.501327  0.356720  1
  O  O55  1  0.312486  0.505997  0.894726  1
  O  O56  1  0.177663  0.261427  0.613417  1
  O  O57  1  0.166022  0.996970  0.608293  1
  O  O58  1  0.020215  0.744838  0.728701  1
  O  O59  1  0.062987  0.998673  0.856720  1
