# generated using pymatgen
data_Li3VSiO5
_symmetry_space_group_name_H-M   'P 1'
_cell_length_a   4.94606663
_cell_length_b   5.52986346
_cell_length_c   15.98894439
_cell_angle_alpha   90.00000000
_cell_angle_beta   90.00000000
_cell_angle_gamma   90.00000000
_symmetry_Int_Tables_number   1
_chemical_formula_structural   Li3VSiO5
_chemical_formula_sum   'Li12 V4 Si4 O20'
_cell_volume   437.31478725
_cell_formula_units_Z   4
loop_
 _symmetry_equiv_pos_site_id
 _symmetry_equiv_pos_as_xyz
  1  'x, y, z'
loop_
 _atom_site_type_symbol
 _atom_site_label
 _atom_site_symmetry_multiplicity
 _atom_site_fract_x
 _atom_site_fract_y
 _atom_site_fract_z
 _atom_site_occupancy
  Li  Li0  1  0.000723  0.666351  0.590938  1
  Li  Li1  1  0.000723  0.166351  0.909062  1
  Li  Li2  1  0.504245  0.336004  0.993652  1
  Li  Li3  1  0.504245  0.836004  0.506348  1
  Li  Li4  1  0.505080  0.326696  0.805101  1
  Li  Li5  1  0.505080  0.826696  0.694899  1
  Li  Li6  1  0.500723  0.333649  0.409062  1
  Li  Li7  1  0.500723  0.833649  0.090938  1
  Li  Li8  1  0.004245  0.663996  0.006348  1
  Li  Li9  1  0.004245  0.163996  0.493652  1
  Li  Li10  1  0.005080  0.173304  0.305101  1
  Li  Li11  1  0.005080  0.673304  0.194899  1
  V  V12  1  0.004136  0.175727  0.697570  1
  V  V13  1  0.004136  0.675727  0.802430  1
  V  V14  1  0.504136  0.324273  0.197570  1
  V  V15  1  0.504136  0.824273  0.302430  1
  Si  Si16  1  0.005249  0.162548  0.096823  1
  Si  Si17  1  0.005249  0.662548  0.403177  1
  Si  Si18  1  0.505249  0.337452  0.596823  1
  Si  Si19  1  0.505249  0.837452  0.903177  1
  O  O20  1  0.095980  0.340437  0.798220  1
  O  O21  1  0.095980  0.840437  0.701780  1
  O  O22  1  0.104267  0.381423  0.398296  1
  O  O23  1  0.104267  0.881423  0.101704  1
  O  O24  1  0.106860  0.313872  0.015635  1
  O  O25  1  0.106860  0.813872  0.484365  1
  O  O26  1  0.103396  0.308174  0.185503  1
  O  O27  1  0.103396  0.808174  0.314497  1
  O  O28  1  0.165065  0.327117  0.600714  1
  O  O29  1  0.165065  0.827117  0.899286  1
  O  O30  1  0.595980  0.659563  0.201780  1
  O  O31  1  0.595980  0.159563  0.298220  1
  O  O32  1  0.604267  0.618577  0.601704  1
  O  O33  1  0.604267  0.118577  0.898296  1
  O  O34  1  0.606861  0.186128  0.515635  1
  O  O35  1  0.606861  0.686128  0.984365  1
  O  O36  1  0.603396  0.191826  0.685503  1
  O  O37  1  0.603396  0.691826  0.814497  1
  O  O38  1  0.665065  0.172883  0.100714  1
  O  O39  1  0.665065  0.672883  0.399286  1
