# generated using pymatgen
data_Li4Mn2Cr3Fe3O16
_symmetry_space_group_name_H-M   'P 1'
_cell_length_a   5.89932347
_cell_length_b   5.89932347
_cell_length_c   9.44459979
_cell_angle_alpha   89.25395222
_cell_angle_beta   90.74604778
_cell_angle_gamma   120.16589976
_symmetry_Int_Tables_number   1
_chemical_formula_structural   Li4Mn2Cr3Fe3O16
_chemical_formula_sum   'Li4 Mn2 Cr3 Fe3 O16'
_cell_volume   284.14574368
_cell_formula_units_Z   1
loop_
 _symmetry_equiv_pos_site_id
 _symmetry_equiv_pos_as_xyz
  1  'x, y, z'
loop_
 _atom_site_type_symbol
 _atom_site_label
 _atom_site_symmetry_multiplicity
 _atom_site_fract_x
 _atom_site_fract_y
 _atom_site_fract_z
 _atom_site_occupancy
  Li  Li0  1  0.666551  0.333449  0.897100  1
  Li  Li1  1  0.996958  0.003042  0.994291  1
  Li  Li2  1  0.999650  0.000350  0.494913  1
  Li  Li3  1  0.332255  0.667745  0.397626  1
  Mn  Mn4  1  0.665635  0.334365  0.483378  1
  Mn  Mn5  1  0.332304  0.667696  0.983781  1
  Cr  Cr6  1  0.341727  0.172115  0.212683  1
  Cr  Cr7  1  0.827885  0.658273  0.212683  1
  Cr  Cr8  1  0.170711  0.829289  0.712382  1
  Fe  Fe9  1  0.830390  0.169610  0.213313  1
  Fe  Fe10  1  0.170633  0.339672  0.711972  1
  Fe  Fe11  1  0.660328  0.829367  0.711972  1
  O  O12  1  0.336539  0.170575  0.596390  1
  O  O13  1  0.520082  0.479918  0.340206  1
  O  O14  1  0.663309  0.336691  0.103840  1
  O  O15  1  0.001964  0.998036  0.307458  1
  O  O16  1  0.001535  0.998465  0.806609  1
  O  O17  1  0.829425  0.663461  0.596390  1
  O  O18  1  0.520189  0.044304  0.345381  1
  O  O19  1  0.955696  0.479811  0.345381  1
  O  O20  1  0.164139  0.835861  0.101105  1
  O  O21  1  0.829932  0.170068  0.597866  1
  O  O22  1  0.041736  0.525213  0.846584  1
  O  O23  1  0.474787  0.958264  0.846584  1
  O  O24  1  0.331154  0.668846  0.604086  1
  O  O25  1  0.165932  0.337599  0.097527  1
  O  O26  1  0.476866  0.523134  0.848313  1
  O  O27  1  0.662401  0.834068  0.097527  1
