# generated using pymatgen
data_LiCa2Nb3O10
_symmetry_space_group_name_H-M   'P 1'
_cell_length_a   5.54267469
_cell_length_b   5.54247244
_cell_length_c   27.39909411
_cell_angle_alpha   90.00000000
_cell_angle_beta   90.49253902
_cell_angle_gamma   90.00000000
_symmetry_Int_Tables_number   1
_chemical_formula_structural   LiCa2Nb3O10
_chemical_formula_sum   'Li4 Ca8 Nb12 O40'
_cell_volume   841.67240567
_cell_formula_units_Z   4
loop_
 _symmetry_equiv_pos_site_id
 _symmetry_equiv_pos_as_xyz
  1  'x, y, z'
loop_
 _atom_site_type_symbol
 _atom_site_label
 _atom_site_symmetry_multiplicity
 _atom_site_fract_x
 _atom_site_fract_y
 _atom_site_fract_z
 _atom_site_occupancy
  Li  Li0  1  0.747962  0.759012  0.258774  1
  Li  Li1  1  0.747962  0.740988  0.758774  1
  Li  Li2  1  0.252038  0.259012  0.241226  1
  Li  Li3  1  0.252038  0.240988  0.741226  1
  Ca  Ca4  1  0.990267  0.990118  0.416251  1
  Ca  Ca5  1  0.990267  0.509882  0.916251  1
  Ca  Ca6  1  0.516694  0.516554  0.419953  1
  Ca  Ca7  1  0.483306  0.016554  0.080047  1
  Ca  Ca8  1  0.516694  0.983446  0.919953  1
  Ca  Ca9  1  0.483306  0.483446  0.580047  1
  Ca  Ca10  1  0.009733  0.490118  0.083749  1
  Ca  Ca11  1  0.009733  0.009882  0.583749  1
  Nb  Nb12  1  0.994065  0.998296  0.156601  1
  Nb  Nb13  1  0.000000  0.500000  0.500000  1
  Nb  Nb14  1  0.994065  0.501704  0.656601  1
  Nb  Nb15  1  0.000000  0.000000  0.000000  1
  Nb  Nb16  1  0.506396  0.510560  0.156560  1
  Nb  Nb17  1  0.506396  0.989440  0.656560  1
  Nb  Nb18  1  0.500000  0.000000  0.500000  1
  Nb  Nb19  1  0.493604  0.010560  0.343440  1
  Nb  Nb20  1  0.500000  0.500000  0.000000  1
  Nb  Nb21  1  0.493604  0.489440  0.843440  1
  Nb  Nb22  1  0.005935  0.498296  0.343399  1
  Nb  Nb23  1  0.005935  0.001704  0.843399  1
  O  O24  1  0.962248  0.965592  0.221321  1
  O  O25  1  0.962248  0.534408  0.721321  1
  O  O26  1  0.949238  0.566232  0.430126  1
  O  O27  1  0.949238  0.933768  0.930126  1
  O  O28  1  0.812644  0.689573  0.017108  1
  O  O29  1  0.812644  0.810427  0.517108  1
  O  O30  1  0.754188  0.255285  0.362138  1
  O  O31  1  0.749545  0.255482  0.137907  1
  O  O32  1  0.753078  0.755441  0.341622  1
  O  O33  1  0.747805  0.756186  0.130760  1
  O  O34  1  0.754188  0.244715  0.862138  1
  O  O35  1  0.749545  0.244518  0.637907  1
  O  O36  1  0.753078  0.744559  0.841622  1
  O  O37  1  0.747805  0.743814  0.630760  1
  O  O38  1  0.684234  0.182511  0.000145  1
  O  O39  1  0.684234  0.317489  0.500145  1
  O  O40  1  0.566303  0.949646  0.430160  1
  O  O41  1  0.566303  0.550354  0.930160  1
  O  O42  1  0.540446  0.542957  0.221368  1
  O  O43  1  0.540446  0.957043  0.721368  1
  O  O44  1  0.459554  0.042957  0.278632  1
  O  O45  1  0.459554  0.457043  0.778632  1
  O  O46  1  0.433697  0.449646  0.069840  1
  O  O47  1  0.433697  0.050354  0.569840  1
  O  O48  1  0.315766  0.682511  0.499855  1
  O  O49  1  0.315766  0.817489  0.999855  1
  O  O50  1  0.252195  0.256186  0.369240  1
  O  O51  1  0.246922  0.255441  0.158378  1
  O  O52  1  0.250455  0.755482  0.362093  1
  O  O53  1  0.245812  0.755285  0.137862  1
  O  O54  1  0.252195  0.243814  0.869240  1
  O  O55  1  0.246922  0.244559  0.658378  1
  O  O56  1  0.250455  0.744518  0.862093  1
  O  O57  1  0.245812  0.744715  0.637862  1
  O  O58  1  0.187356  0.189573  0.482892  1
  O  O59  1  0.187356  0.310427  0.982892  1
  O  O60  1  0.050762  0.066232  0.069874  1
  O  O61  1  0.050762  0.433768  0.569874  1
  O  O62  1  0.037752  0.465592  0.278679  1
  O  O63  1  0.037752  0.034408  0.778679  1
