# generated using pymatgen
data_Li2VCrP2(O4F)2
_symmetry_space_group_name_H-M   'P 1'
_cell_length_a   5.37081194
_cell_length_b   7.40905324
_cell_length_c   14.55085558
_cell_angle_alpha   94.23449529
_cell_angle_beta   92.70382699
_cell_angle_gamma   109.78129165
_symmetry_Int_Tables_number   1
_chemical_formula_structural   Li2VCrP2(O4F)2
_chemical_formula_sum   'Li6 V3 Cr3 P6 O24 F6'
_cell_volume   541.75359123
_cell_formula_units_Z   3
loop_
 _symmetry_equiv_pos_site_id
 _symmetry_equiv_pos_as_xyz
  1  'x, y, z'
loop_
 _atom_site_type_symbol
 _atom_site_label
 _atom_site_symmetry_multiplicity
 _atom_site_fract_x
 _atom_site_fract_y
 _atom_site_fract_z
 _atom_site_occupancy
  Li  Li0  1  0.600508  0.215525  0.026805  1
  Li  Li1  1  0.731796  0.117735  0.306746  1
  Li  Li2  1  0.934091  0.549346  0.361011  1
  Li  Li3  1  0.066599  0.450324  0.639194  1
  Li  Li4  1  0.266793  0.882978  0.693833  1
  Li  Li5  1  0.400149  0.783865  0.972466  1
  V  V6  1  0.000058  0.999470  0.999330  1
  V  V7  1  0.665980  0.666541  0.166909  1
  V  V8  1  0.666328  0.666767  0.666445  1
  Cr  Cr9  1  0.333663  0.333769  0.334007  1
  Cr  Cr10  1  0.000545  0.000206  0.499935  1
  Cr  Cr11  1  0.333496  0.333298  0.833278  1
  P  P12  1  0.025719  0.383558  0.147084  1
  P  P13  1  0.308718  0.950574  0.187260  1
  P  P14  1  0.639598  0.280628  0.519978  1
  P  P15  1  0.359428  0.718671  0.479286  1
  P  P16  1  0.692382  0.052927  0.812885  1
  P  P17  1  0.974059  0.613476  0.853438  1
  O  O18  1  0.932478  0.179402  0.094163  1
  O  O19  1  0.296237  0.510066  0.118898  1
  O  O20  1  0.801977  0.459979  0.116559  1
  O  O21  1  0.304054  0.968181  0.080242  1
  O  O22  1  0.402284  0.155031  0.238869  1
  O  O23  1  0.032125  0.365516  0.253850  1
  O  O24  1  0.037024  0.823515  0.214543  1
  O  O25  1  0.531694  0.873004  0.217739  1
  O  O26  1  0.633631  0.300092  0.413038  1
  O  O27  1  0.263871  0.513139  0.427789  1
  O  O28  1  0.132863  0.793073  0.449581  1
  O  O29  1  0.368918  0.156312  0.548038  1
  O  O30  1  0.630958  0.843818  0.451860  1
  O  O31  1  0.866996  0.207542  0.549822  1
  O  O32  1  0.733986  0.486238  0.572479  1
  O  O33  1  0.364417  0.698537  0.586436  1
  O  O34  1  0.465534  0.125987  0.782544  1
  O  O35  1  0.963927  0.177124  0.785477  1
  O  O36  1  0.969456  0.635210  0.746703  1
  O  O37  1  0.599089  0.847072  0.760842  1
  O  O38  1  0.696432  0.032566  0.919737  1
  O  O39  1  0.200760  0.540293  0.883824  1
  O  O40  1  0.702862  0.489266  0.881194  1
  O  O41  1  0.068538  0.819095  0.905807  1
  F  F42  1  0.708349  0.781074  0.044143  1
  F  F43  1  0.045822  0.115926  0.378906  1
  F  F44  1  0.620053  0.548431  0.290017  1
  F  F45  1  0.373668  0.445528  0.713087  1
  F  F46  1  0.959406  0.888115  0.620031  1
  F  F47  1  0.292679  0.221207  0.953897  1
