# generated using pymatgen
data_Re6Pb6O19
_symmetry_space_group_name_H-M   'P 1'
_cell_length_a   9.42844225
_cell_length_b   9.42978735
_cell_length_c   9.43286275
_cell_angle_alpha   90.00000000
_cell_angle_beta   90.00000000
_cell_angle_gamma   90.00000000
_symmetry_Int_Tables_number   1
_chemical_formula_structural   Re6Pb6O19
_chemical_formula_sum   'Re12 Pb12 O38'
_cell_volume   838.65889945
_cell_formula_units_Z   2
loop_
 _symmetry_equiv_pos_site_id
 _symmetry_equiv_pos_as_xyz
  1  'x, y, z'
loop_
 _atom_site_type_symbol
 _atom_site_label
 _atom_site_symmetry_multiplicity
 _atom_site_fract_x
 _atom_site_fract_y
 _atom_site_fract_z
 _atom_site_occupancy
  Re  Re0  1  0.120067  0.500000  0.000000  1
  Re  Re1  1  0.250461  0.869366  0.499380  1
  Re  Re2  1  0.250461  0.130634  0.500620  1
  Re  Re3  1  0.249698  0.499149  0.369538  1
  Re  Re4  1  0.249698  0.500851  0.630462  1
  Re  Re5  1  0.381328  0.500000  0.000000  1
  Re  Re6  1  0.620067  0.000000  0.500000  1
  Re  Re7  1  0.749698  0.999149  0.130462  1
  Re  Re8  1  0.749698  0.000851  0.869538  1
  Re  Re9  1  0.750461  0.369366  0.000620  1
  Re  Re10  1  0.750461  0.630634  0.999380  1
  Re  Re11  1  0.881328  0.000000  0.500000  1
  Pb  Pb12  1  0.102317  0.144768  0.144209  1
  Pb  Pb13  1  0.102317  0.855232  0.855791  1
  Pb  Pb14  1  0.392651  0.852212  0.146006  1
  Pb  Pb15  1  0.392651  0.147788  0.853994  1
  Pb  Pb16  1  0.489684  0.240101  0.240876  1
  Pb  Pb17  1  0.489684  0.759899  0.759124  1
  Pb  Pb18  1  0.602317  0.355232  0.644209  1
  Pb  Pb19  1  0.602317  0.644768  0.355791  1
  Pb  Pb20  1  0.892651  0.352212  0.353994  1
  Pb  Pb21  1  0.892651  0.647788  0.646006  1
  Pb  Pb22  1  0.989684  0.259899  0.740876  1
  Pb  Pb23  1  0.989684  0.740101  0.259124  1
  O  O24  1  0.036991  0.853135  0.500411  1
  O  O25  1  0.036991  0.146865  0.499589  1
  O  O26  1  0.078879  0.500000  0.500000  1
  O  O27  1  0.102975  0.498494  0.212968  1
  O  O28  1  0.102975  0.501506  0.787032  1
  O  O29  1  0.249438  0.713777  0.646576  1
  O  O30  1  0.249438  0.286223  0.353424  1
  O  O31  1  0.249421  0.000000  0.000000  1
  O  O32  1  0.250888  0.670718  0.000173  1
  O  O33  1  0.250888  0.329282  0.999827  1
  O  O34  1  0.251475  0.000988  0.329429  1
  O  O35  1  0.251475  0.999012  0.670571  1
  O  O36  1  0.247285  0.286461  0.649063  1
  O  O37  1  0.247285  0.713539  0.350937  1
  O  O38  1  0.398545  0.503340  0.786040  1
  O  O39  1  0.398545  0.496660  0.213960  1
  O  O40  1  0.419976  0.500000  0.500000  1
  O  O41  1  0.464365  0.850839  0.502790  1
  O  O42  1  0.464365  0.149161  0.497210  1
  O  O43  1  0.536991  0.353135  0.999589  1
  O  O44  1  0.536991  0.646865  0.000411  1
  O  O45  1  0.578879  0.000000  0.000000  1
  O  O46  1  0.602975  0.998494  0.287032  1
  O  O47  1  0.602975  0.001506  0.712968  1
  O  O48  1  0.749437  0.786223  0.146576  1
  O  O49  1  0.749437  0.213777  0.853424  1
  O  O50  1  0.750888  0.829282  0.500173  1
  O  O51  1  0.750888  0.170718  0.499827  1
  O  O52  1  0.751475  0.499012  0.829429  1
  O  O53  1  0.751475  0.500988  0.170571  1
  O  O54  1  0.749421  0.500000  0.500000  1
  O  O55  1  0.747285  0.786461  0.850937  1
  O  O56  1  0.747285  0.213539  0.149063  1
  O  O57  1  0.898545  0.003340  0.713960  1
  O  O58  1  0.898545  0.996660  0.286040  1
  O  O59  1  0.919976  0.000000  0.000000  1
  O  O60  1  0.964365  0.350839  0.997210  1
  O  O61  1  0.964365  0.649161  0.002790  1
