# generated using pymatgen
data_La2Bi2O7
_symmetry_space_group_name_H-M   'P 1'
_cell_length_a   8.44202568
_cell_length_b   5.96037355
_cell_length_c   14.31471826
_cell_angle_alpha   90.00000000
_cell_angle_beta   98.58261739
_cell_angle_gamma   90.00000000
_symmetry_Int_Tables_number   1
_chemical_formula_structural   La2Bi2O7
_chemical_formula_sum   'La8 Bi8 O28'
_cell_volume   712.21670848
_cell_formula_units_Z   4
loop_
 _symmetry_equiv_pos_site_id
 _symmetry_equiv_pos_as_xyz
  1  'x, y, z'
loop_
 _atom_site_type_symbol
 _atom_site_label
 _atom_site_symmetry_multiplicity
 _atom_site_fract_x
 _atom_site_fract_y
 _atom_site_fract_z
 _atom_site_occupancy
  La  La0  1  0.763186  0.773618  0.078683  1
  La  La1  1  0.857131  0.333087  0.435130  1
  La  La2  1  0.715463  0.251410  0.875324  1
  La  La3  1  0.645464  0.782519  0.610981  1
  La  La4  1  0.354536  0.282519  0.389019  1
  La  La5  1  0.284537  0.751410  0.124676  1
  La  La6  1  0.142869  0.833087  0.564870  1
  La  La7  1  0.236814  0.273618  0.921317  1
  Bi  Bi8  1  0.922069  0.268770  0.682177  1
  Bi  Bi9  1  0.973503  0.767457  0.881726  1
  Bi  Bi10  1  0.586458  0.779995  0.324782  1
  Bi  Bi11  1  0.532207  0.266628  0.122575  1
  Bi  Bi12  1  0.467793  0.766628  0.877425  1
  Bi  Bi13  1  0.413542  0.279995  0.675218  1
  Bi  Bi14  1  0.026497  0.267457  0.118274  1
  Bi  Bi15  1  0.077931  0.768770  0.317823  1
  O  O16  1  0.991684  0.397926  0.819618  1
  O  O17  1  0.928270  0.551477  0.589961  1
  O  O18  1  0.831576  0.656586  0.321407  1
  O  O19  1  0.775269  0.396721  0.115273  1
  O  O20  1  0.865620  0.056439  0.561869  1
  O  O21  1  0.919759  0.052962  0.981821  1
  O  O22  1  0.840190  0.985266  0.752673  1
  O  O23  1  0.627895  0.101078  0.384073  1
  O  O24  1  0.577824  0.900870  0.180696  1
  O  O25  1  0.677006  0.415519  0.691949  1
  O  O26  1  0.732068  0.628188  0.921233  1
  O  O27  1  0.598103  0.581538  0.452962  1
  O  O28  1  0.437621  0.559182  0.018020  1
  O  O29  1  0.483501  0.491109  0.251913  1
  O  O30  1  0.516499  0.991109  0.748087  1
  O  O31  1  0.562379  0.059182  0.981980  1
  O  O32  1  0.401897  0.081538  0.547038  1
  O  O33  1  0.267932  0.128188  0.078767  1
  O  O34  1  0.322994  0.915519  0.308051  1
  O  O35  1  0.422176  0.400870  0.819304  1
  O  O36  1  0.372105  0.601078  0.615927  1
  O  O37  1  0.159810  0.485266  0.247327  1
  O  O38  1  0.080241  0.552962  0.018179  1
  O  O39  1  0.134380  0.556439  0.438131  1
  O  O40  1  0.224731  0.896721  0.884727  1
  O  O41  1  0.168424  0.156586  0.678593  1
  O  O42  1  0.071730  0.051477  0.410039  1
  O  O43  1  0.008316  0.897926  0.180382  1
