# generated using pymatgen
data_Li2MnSiO4
_symmetry_space_group_name_H-M   'P 1'
_cell_length_a   5.13580086
_cell_length_b   11.01015434
_cell_length_c   8.11170450
_cell_angle_alpha   90.00000000
_cell_angle_beta   128.19576933
_cell_angle_gamma   90.00000000
_symmetry_Int_Tables_number   1
_chemical_formula_structural   Li2MnSiO4
_chemical_formula_sum   'Li8 Mn4 Si4 O16'
_cell_volume   360.48102118
_cell_formula_units_Z   4
loop_
 _symmetry_equiv_pos_site_id
 _symmetry_equiv_pos_as_xyz
  1  'x, y, z'
loop_
 _atom_site_type_symbol
 _atom_site_label
 _atom_site_symmetry_multiplicity
 _atom_site_fract_x
 _atom_site_fract_y
 _atom_site_fract_z
 _atom_site_occupancy
  Li  Li0  1  0.311583  0.160794  0.001365  1
  Li  Li1  1  0.533748  0.927452  0.236728  1
  Li  Li2  1  0.466252  0.427452  0.263272  1
  Li  Li3  1  0.688417  0.660794  0.498635  1
  Li  Li4  1  0.311583  0.339206  0.501365  1
  Li  Li5  1  0.533748  0.572548  0.736728  1
  Li  Li6  1  0.466252  0.072548  0.763272  1
  Li  Li7  1  0.688417  0.839206  0.998635  1
  Mn  Mn8  1  0.801053  0.335213  0.996672  1
  Mn  Mn9  1  0.198947  0.835213  0.503328  1
  Mn  Mn10  1  0.801053  0.164787  0.496672  1
  Mn  Mn11  1  0.198947  0.664787  0.003328  1
  Si  Si12  1  0.942245  0.586382  0.252516  1
  Si  Si13  1  0.057755  0.086382  0.247484  1
  Si  Si14  1  0.942245  0.913618  0.752516  1
  Si  Si15  1  0.057755  0.413618  0.747484  1
  O  O16  1  0.819294  0.659549  0.035470  1
  O  O17  1  0.737297  0.157045  0.038045  1
  O  O18  1  0.940724  0.946509  0.244556  1
  O  O19  1  0.627201  0.585846  0.259858  1
  O  O20  1  0.372799  0.085846  0.240142  1
  O  O21  1  0.059276  0.446509  0.255444  1
  O  O22  1  0.262703  0.657045  0.461955  1
  O  O23  1  0.180706  0.159549  0.464530  1
  O  O24  1  0.819294  0.840451  0.535470  1
  O  O25  1  0.737297  0.342955  0.538045  1
  O  O26  1  0.940724  0.553491  0.744556  1
  O  O27  1  0.627201  0.914154  0.759858  1
  O  O28  1  0.372799  0.414154  0.740142  1
  O  O29  1  0.059276  0.053491  0.755444  1
  O  O30  1  0.262703  0.842955  0.961955  1
  O  O31  1  0.180706  0.340451  0.964530  1
