# generated using pymatgen
data_Li2VCrO4
_symmetry_space_group_name_H-M   'P 1'
_cell_length_a   5.14209759
_cell_length_b   5.17009969
_cell_length_c   6.00615756
_cell_angle_alpha   106.85053779
_cell_angle_beta   90.02622537
_cell_angle_gamma   100.02196099
_symmetry_Int_Tables_number   1
_chemical_formula_structural   Li2VCrO4
_chemical_formula_sum   'Li4 V2 Cr2 O8'
_cell_volume   150.26737427
_cell_formula_units_Z   2
loop_
 _symmetry_equiv_pos_site_id
 _symmetry_equiv_pos_as_xyz
  1  'x, y, z'
loop_
 _atom_site_type_symbol
 _atom_site_label
 _atom_site_symmetry_multiplicity
 _atom_site_fract_x
 _atom_site_fract_y
 _atom_site_fract_z
 _atom_site_occupancy
  Li  Li0  1  0.000000  0.000000  0.000000  1
  Li  Li1  1  0.498321  0.003389  0.755038  1
  Li  Li2  1  0.000000  0.000000  0.500000  1
  Li  Li3  1  0.501679  0.996611  0.244962  1
  V  V4  1  0.750206  0.500586  0.624619  1
  V  V5  1  0.249794  0.499414  0.375381  1
  Cr  Cr6  1  0.249596  0.498917  0.876728  1
  Cr  Cr7  1  0.750404  0.501083  0.123272  1
  O  O8  1  0.879778  0.272280  0.821991  1
  O  O9  1  0.622854  0.723907  0.931133  1
  O  O10  1  0.374848  0.273954  0.568928  1
  O  O11  1  0.120495  0.728400  0.688752  1
  O  O12  1  0.879505  0.271600  0.311248  1
  O  O13  1  0.625152  0.726046  0.431072  1
  O  O14  1  0.377146  0.276093  0.068867  1
  O  O15  1  0.120222  0.727720  0.178009  1
