# generated using pymatgen
data_Fe3O4
_symmetry_space_group_name_H-M   'P 1'
_cell_length_a   6.02187108
_cell_length_b   6.02187108
_cell_length_c   6.12170466
_cell_angle_alpha   59.86247110
_cell_angle_beta   120.13752890
_cell_angle_gamma   120.16206963
_symmetry_Int_Tables_number   1
_chemical_formula_structural   Fe3O4
_chemical_formula_sum   'Fe6 O8'
_cell_volume   156.45224883
_cell_formula_units_Z   2
loop_
 _symmetry_equiv_pos_site_id
 _symmetry_equiv_pos_as_xyz
  1  'x, y, z'
loop_
 _atom_site_type_symbol
 _atom_site_label
 _atom_site_symmetry_multiplicity
 _atom_site_fract_x
 _atom_site_fract_y
 _atom_site_fract_z
 _atom_site_occupancy
  Fe  Fe0  1  0.126091  0.873909  0.382824  1
  Fe  Fe1  1  0.873909  0.126091  0.617176  1
  Fe  Fe2  1  0.500000  0.500000  0.000000  1
  Fe  Fe3  1  0.500000  0.500000  0.500000  1
  Fe  Fe4  1  0.000000  0.500000  0.000000  1
  Fe  Fe5  1  0.500000  0.000000  0.000000  1
  O  O6  1  0.252364  0.266728  0.254464  1
  O  O7  1  0.266728  0.252364  0.745536  1
  O  O8  1  0.747636  0.733272  0.745536  1
  O  O9  1  0.733272  0.747636  0.254464  1
  O  O10  1  0.744865  0.255135  0.234361  1
  O  O11  1  0.255135  0.744865  0.765639  1
  O  O12  1  0.257453  0.742547  0.251613  1
  O  O13  1  0.742547  0.257453  0.748387  1
