# generated using pymatgen
data_V4SnO12
_symmetry_space_group_name_H-M   'P 1'
_cell_length_a   6.92478621
_cell_length_b   6.92478621
_cell_length_c   5.98518663
_cell_angle_alpha   74.50036041
_cell_angle_beta   105.49963959
_cell_angle_gamma   96.99470073
_symmetry_Int_Tables_number   1
_chemical_formula_structural   V4SnO12
_chemical_formula_sum   'V4 Sn1 O12'
_cell_volume   266.11738970
_cell_formula_units_Z   1
loop_
 _symmetry_equiv_pos_site_id
 _symmetry_equiv_pos_as_xyz
  1  'x, y, z'
loop_
 _atom_site_type_symbol
 _atom_site_label
 _atom_site_symmetry_multiplicity
 _atom_site_fract_x
 _atom_site_fract_y
 _atom_site_fract_z
 _atom_site_occupancy
  V  V0  1  0.386931  0.795185  0.011094  1
  V  V1  1  0.212271  0.609163  0.524126  1
  V  V2  1  0.795185  0.386931  0.988906  1
  V  V3  1  0.609163  0.212271  0.475874  1
  Sn  Sn4  1  0.082134  0.082134  0.500000  1
  O  O5  1  0.211052  0.973385  0.855757  1
  O  O6  1  0.607278  0.909922  0.054420  1
  O  O7  1  0.043595  0.791319  0.444888  1
  O  O8  1  0.371365  0.640696  0.800876  1
  O  O9  1  0.909922  0.607278  0.945580  1
  O  O10  1  0.349271  0.649875  0.304350  1
  O  O11  1  0.640696  0.371365  0.199124  1
  O  O12  1  0.096824  0.371638  0.557803  1
  O  O13  1  0.649875  0.349271  0.695650  1
  O  O14  1  0.973385  0.211052  0.144243  1
  O  O15  1  0.371638  0.096824  0.442197  1
  O  O16  1  0.791319  0.043595  0.555112  1
