# generated using pymatgen
data_SrH3C3O7
_symmetry_space_group_name_H-M   'P 1'
_cell_length_a   5.80551884
_cell_length_b   17.04841070
_cell_length_c   8.06929734
_cell_angle_alpha   90.00000000
_cell_angle_beta   127.98065964
_cell_angle_gamma   90.00000000
_symmetry_Int_Tables_number   1
_chemical_formula_structural   SrH3C3O7
_chemical_formula_sum   'Sr4 H12 C12 O28'
_cell_volume   629.51675748
_cell_formula_units_Z   4
loop_
 _symmetry_equiv_pos_site_id
 _symmetry_equiv_pos_as_xyz
  1  'x, y, z'
loop_
 _atom_site_type_symbol
 _atom_site_label
 _atom_site_symmetry_multiplicity
 _atom_site_fract_x
 _atom_site_fract_y
 _atom_site_fract_z
 _atom_site_occupancy
  Sr  Sr0  1  0.856800  0.081519  0.621035  1
  Sr  Sr1  1  0.856800  0.418481  0.121035  1
  Sr  Sr2  1  0.143200  0.918481  0.378965  1
  Sr  Sr3  1  0.143200  0.581519  0.878965  1
  H  H4  1  0.243824  0.430737  0.718475  1
  H  H5  1  0.243824  0.069263  0.218475  1
  H  H6  1  0.756176  0.569263  0.281525  1
  H  H7  1  0.756176  0.930737  0.781525  1
  H  H8  1  0.172519  0.396025  0.871209  1
  H  H9  1  0.172519  0.103975  0.371209  1
  H  H10  1  0.827481  0.603975  0.128791  1
  H  H11  1  0.827481  0.896025  0.628791  1
  H  H12  1  0.356228  0.254159  0.355168  1
  H  H13  1  0.356228  0.245841  0.855168  1
  H  H14  1  0.643772  0.745841  0.644832  1
  H  H15  1  0.643772  0.754159  0.144832  1
  C  C16  1  0.945588  0.261885  0.870459  1
  C  C17  1  0.945588  0.238115  0.370459  1
  C  C18  1  0.054412  0.738115  0.129541  1
  C  C19  1  0.054412  0.761885  0.629541  1
  C  C20  1  0.509395  0.982190  0.914795  1
  C  C21  1  0.509395  0.517810  0.414795  1
  C  C22  1  0.490605  0.017810  0.085205  1
  C  C23  1  0.490605  0.482190  0.585205  1
  C  C24  1  0.688138  0.220824  0.848662  1
  C  C25  1  0.688138  0.279176  0.348662  1
  C  C26  1  0.311862  0.779176  0.151338  1
  C  C27  1  0.311862  0.720824  0.651338  1
  O  O28  1  0.541374  0.269506  0.880534  1
  O  O29  1  0.541374  0.230494  0.380534  1
  O  O30  1  0.458626  0.730494  0.119466  1
  O  O31  1  0.458626  0.769506  0.619466  1
  O  O32  1  0.079354  0.218968  0.825196  1
  O  O33  1  0.079354  0.281032  0.325196  1
  O  O34  1  0.920646  0.781032  0.174804  1
  O  O35  1  0.920646  0.718968  0.674804  1
  O  O36  1  0.714091  0.935943  0.641345  1
  O  O37  1  0.714091  0.564057  0.141345  1
  O  O38  1  0.285909  0.064057  0.358655  1
  O  O39  1  0.285909  0.435943  0.858655  1
  O  O40  1  0.292897  0.992162  0.723388  1
  O  O41  1  0.292897  0.507838  0.223388  1
  O  O42  1  0.707103  0.007838  0.276612  1
  O  O43  1  0.707103  0.492162  0.776612  1
  O  O44  1  0.995623  0.332681  0.925660  1
  O  O45  1  0.995623  0.167319  0.425660  1
  O  O46  1  0.004377  0.667319  0.074340  1
  O  O47  1  0.004377  0.832681  0.574340  1
  O  O48  1  0.742542  0.945397  0.982571  1
  O  O49  1  0.742542  0.554603  0.482571  1
  O  O50  1  0.257458  0.054603  0.017429  1
  O  O51  1  0.257458  0.445397  0.517429  1
  O  O52  1  0.632392  0.150805  0.803146  1
  O  O53  1  0.632392  0.349195  0.303146  1
  O  O54  1  0.367608  0.849195  0.196854  1
  O  O55  1  0.367608  0.650805  0.696854  1
