# generated using pymatgen
data_Na2Li4Co2C4SO16
_symmetry_space_group_name_H-M   'P 1'
_cell_length_a   9.82551880
_cell_length_b   9.60579721
_cell_length_c   9.59295682
_cell_angle_alpha   61.56475635
_cell_angle_beta   59.28194947
_cell_angle_gamma   59.15329418
_symmetry_Int_Tables_number   1
_chemical_formula_structural   Na2Li4Co2C4SO16
_chemical_formula_sum   'Na4 Li8 Co4 C8 S2 O32'
_cell_volume   639.48645066
_cell_formula_units_Z   2
loop_
 _symmetry_equiv_pos_site_id
 _symmetry_equiv_pos_as_xyz
  1  'x, y, z'
loop_
 _atom_site_type_symbol
 _atom_site_label
 _atom_site_symmetry_multiplicity
 _atom_site_fract_x
 _atom_site_fract_y
 _atom_site_fract_z
 _atom_site_occupancy
  Na  Na0  1  0.527864  0.527864  0.972136  1
  Na  Na1  1  0.277864  0.277864  0.722136  1
  Na  Na2  1  0.972136  0.972136  0.527864  1
  Na  Na3  1  0.722136  0.722136  0.277864  1
  Li  Li4  1  0.112346  0.652689  0.791786  1
  Li  Li5  1  0.806821  0.458214  0.597311  1
  Li  Li6  1  0.791786  0.443179  0.112346  1
  Li  Li7  1  0.597311  0.137654  0.806821  1
  Li  Li8  1  0.652689  0.112346  0.443179  1
  Li  Li9  1  0.458214  0.806821  0.137654  1
  Li  Li10  1  0.443179  0.791786  0.652689  1
  Li  Li11  1  0.137654  0.597311  0.458214  1
  Co  Co12  1  0.125000  0.625000  0.125000  1
  Co  Co13  1  0.125000  0.125000  0.125000  1
  Co  Co14  1  0.625000  0.125000  0.125000  1
  Co  Co15  1  0.125000  0.125000  0.625000  1
  C  C16  1  0.347641  0.339338  0.961647  1
  C  C17  1  0.898626  0.288353  0.910662  1
  C  C18  1  0.339338  0.347641  0.351374  1
  C  C19  1  0.961647  0.351374  0.347641  1
  C  C20  1  0.288353  0.898626  0.902359  1
  C  C21  1  0.910662  0.902359  0.898626  1
  C  C22  1  0.351374  0.961647  0.339338  1
  C  C23  1  0.902359  0.910662  0.288353  1
  S  S24  1  0.500000  0.500000  0.500000  1
  S  S25  1  0.750000  0.750000  0.750000  1
  O  O26  1  0.565199  0.560693  0.310073  1
  O  O27  1  0.946615  0.497536  0.337937  1
  O  O28  1  0.560693  0.565199  0.564036  1
  O  O29  1  0.310073  0.564036  0.565199  1
  O  O30  1  0.217913  0.337937  0.497536  1
  O  O31  1  0.564036  0.310073  0.560693  1
  O  O32  1  0.221190  0.482273  0.964732  1
  O  O33  1  0.918196  0.285268  0.767727  1
  O  O34  1  0.486596  0.318174  0.965490  1
  O  O35  1  0.020261  0.284510  0.931826  1
  O  O36  1  0.318174  0.486596  0.229739  1
  O  O37  1  0.337937  0.217913  0.946615  1
  O  O38  1  0.284510  0.020261  0.763404  1
  O  O39  1  0.752464  0.303385  0.032087  1
  O  O40  1  0.964732  0.331804  0.221190  1
  O  O41  1  0.767727  0.028810  0.918196  1
  O  O42  1  0.482273  0.221190  0.331804  1
  O  O43  1  0.285268  0.918196  0.028810  1
  O  O44  1  0.497536  0.946615  0.217913  1
  O  O45  1  0.965490  0.229739  0.486596  1
  O  O46  1  0.912063  0.032087  0.303385  1
  O  O47  1  0.931826  0.763404  0.020261  1
  O  O48  1  0.229739  0.965490  0.318174  1
  O  O49  1  0.763404  0.931826  0.284510  1
  O  O50  1  0.331804  0.964732  0.482273  1
  O  O51  1  0.028810  0.767727  0.285268  1
  O  O52  1  0.685964  0.939927  0.689307  1
  O  O53  1  0.032087  0.912063  0.752464  1
  O  O54  1  0.939927  0.685964  0.684801  1
  O  O55  1  0.689307  0.684801  0.685964  1
  O  O56  1  0.303385  0.752464  0.912063  1
  O  O57  1  0.684801  0.689307  0.939927  1
