# generated using pymatgen
data_Na3CuPCO7
_symmetry_space_group_name_H-M   'P 1'
_cell_length_a   5.43932271
_cell_length_b   6.35911824
_cell_length_c   9.13290222
_cell_angle_alpha   90.00000000
_cell_angle_beta   92.12800008
_cell_angle_gamma   90.00000000
_symmetry_Int_Tables_number   1
_chemical_formula_structural   Na3CuPCO7
_chemical_formula_sum   'Na6 Cu2 P2 C2 O14'
_cell_volume   315.68280484
_cell_formula_units_Z   2
loop_
 _symmetry_equiv_pos_site_id
 _symmetry_equiv_pos_as_xyz
  1  'x, y, z'
loop_
 _atom_site_type_symbol
 _atom_site_label
 _atom_site_symmetry_multiplicity
 _atom_site_fract_x
 _atom_site_fract_y
 _atom_site_fract_z
 _atom_site_occupancy
  Na  Na0  1  0.997800  0.508259  0.994502  1
  Na  Na1  1  0.560892  0.815129  0.831768  1
  Na  Na2  1  0.497066  0.513685  0.509628  1
  Na  Na3  1  0.502934  0.013685  0.490372  1
  Na  Na4  1  0.439108  0.315129  0.168232  1
  Na  Na5  1  0.002200  0.008259  0.005498  1
  Cu  Cu6  1  0.049603  0.252762  0.708177  1
  Cu  Cu7  1  0.950397  0.752762  0.291823  1
  P  P8  1  0.039620  0.757979  0.650780  1
  P  P9  1  0.960380  0.257979  0.349220  1
  C  C10  1  0.496945  0.262621  0.857972  1
  C  C11  1  0.503055  0.762621  0.142028  1
  O  O12  1  0.668626  0.257384  0.959531  1
  O  O13  1  0.265013  0.250261  0.901910  1
  O  O14  1  0.945353  0.948623  0.743876  1
  O  O15  1  0.977933  0.559442  0.743698  1
  O  O16  1  0.534864  0.273309  0.721290  1
  O  O17  1  0.316095  0.776880  0.629025  1
  O  O18  1  0.886406  0.749068  0.503430  1
  O  O19  1  0.113594  0.249068  0.496570  1
  O  O20  1  0.683905  0.276880  0.370975  1
  O  O21  1  0.465136  0.773309  0.278710  1
  O  O22  1  0.022067  0.059442  0.256302  1
  O  O23  1  0.054647  0.448623  0.256124  1
  O  O24  1  0.734987  0.750261  0.098090  1
  O  O25  1  0.331374  0.757384  0.040469  1
