# generated using pymatgen
data_LiMn2F9
_symmetry_space_group_name_H-M   'P 1'
_cell_length_a   4.92324227
_cell_length_b   8.50203617
_cell_length_c   8.80625564
_cell_angle_alpha   113.19471987
_cell_angle_beta   105.33274388
_cell_angle_gamma   90.86765144
_symmetry_Int_Tables_number   1
_chemical_formula_structural   LiMn2F9
_chemical_formula_sum   'Li2 Mn4 F18'
_cell_volume   323.78291698
_cell_formula_units_Z   2
loop_
 _symmetry_equiv_pos_site_id
 _symmetry_equiv_pos_as_xyz
  1  'x, y, z'
loop_
 _atom_site_type_symbol
 _atom_site_label
 _atom_site_symmetry_multiplicity
 _atom_site_fract_x
 _atom_site_fract_y
 _atom_site_fract_z
 _atom_site_occupancy
  Li  Li0  1  0.037195  0.131368  0.421945  1
  Li  Li1  1  0.962805  0.868632  0.578055  1
  Mn  Mn2  1  0.694378  0.242506  0.759274  1
  Mn  Mn3  1  0.395609  0.669712  0.799758  1
  Mn  Mn4  1  0.604391  0.330288  0.200242  1
  Mn  Mn5  1  0.305622  0.757494  0.240726  1
  F  F6  1  0.568211  0.674652  0.651115  1
  F  F7  1  0.197389  0.963592  0.257189  1
  F  F8  1  0.218511  0.775557  0.432047  1
  F  F9  1  0.558050  0.467573  0.795549  1
  F  F10  1  0.325721  0.139940  0.629441  1
  F  F11  1  0.959430  0.652153  0.107637  1
  F  F12  1  0.937633  0.446897  0.325647  1
  F  F13  1  0.594217  0.269066  0.968176  1
  F  F14  1  0.266836  0.869437  0.813695  1
  F  F15  1  0.733164  0.130563  0.186305  1
  F  F16  1  0.405783  0.730934  0.031824  1
  F  F17  1  0.062367  0.553103  0.674353  1
  F  F18  1  0.040570  0.347847  0.892363  1
  F  F19  1  0.674279  0.860060  0.370559  1
  F  F20  1  0.441950  0.532427  0.204451  1
  F  F21  1  0.781489  0.224443  0.567953  1
  F  F22  1  0.802611  0.036408  0.742811  1
  F  F23  1  0.431789  0.325348  0.348885  1
