# generated using pymatgen
data_Li2Mn3F8
_symmetry_space_group_name_H-M   'P 1'
_cell_length_a   5.44954465
_cell_length_b   6.55077888
_cell_length_c   9.50924874
_cell_angle_alpha   90.00000000
_cell_angle_beta   90.00000000
_cell_angle_gamma   90.00000000
_symmetry_Int_Tables_number   1
_chemical_formula_structural   Li2Mn3F8
_chemical_formula_sum   'Li4 Mn6 F16'
_cell_volume   339.46840756
_cell_formula_units_Z   2
loop_
 _symmetry_equiv_pos_site_id
 _symmetry_equiv_pos_as_xyz
  1  'x, y, z'
loop_
 _atom_site_type_symbol
 _atom_site_label
 _atom_site_symmetry_multiplicity
 _atom_site_fract_x
 _atom_site_fract_y
 _atom_site_fract_z
 _atom_site_occupancy
  Li  Li0  1  0.015519  0.500000  0.818399  1
  Li  Li1  1  0.484481  0.000000  0.318399  1
  Li  Li2  1  0.515519  0.000000  0.681601  1
  Li  Li3  1  0.984481  0.500000  0.181601  1
  Mn  Mn4  1  0.000000  0.764668  0.500000  1
  Mn  Mn5  1  0.000000  0.235332  0.500000  1
  Mn  Mn6  1  0.000000  0.000000  0.000000  1
  Mn  Mn7  1  0.500000  0.500000  0.500000  1
  Mn  Mn8  1  0.500000  0.735332  0.000000  1
  Mn  Mn9  1  0.500000  0.264668  0.000000  1
  F  F10  1  0.852204  0.500000  0.381353  1
  F  F11  1  0.831950  0.755516  0.113911  1
  F  F12  1  0.831950  0.244484  0.113911  1
  F  F13  1  0.824288  0.000000  0.384545  1
  F  F14  1  0.675712  0.500000  0.884545  1
  F  F15  1  0.668050  0.744484  0.613911  1
  F  F16  1  0.668050  0.255516  0.613911  1
  F  F17  1  0.647796  0.000000  0.881353  1
  F  F18  1  0.352204  0.000000  0.118647  1
  F  F19  1  0.331950  0.744484  0.386089  1
  F  F20  1  0.331950  0.255516  0.386089  1
  F  F21  1  0.324288  0.500000  0.115455  1
  F  F22  1  0.175712  0.000000  0.615455  1
  F  F23  1  0.168050  0.755516  0.886089  1
  F  F24  1  0.168050  0.244484  0.886089  1
  F  F25  1  0.147796  0.500000  0.618647  1
