# generated using pymatgen
data_Li4Co2C4SO16
_symmetry_space_group_name_H-M   'P 1'
_cell_length_a   9.62914466
_cell_length_b   9.56484288
_cell_length_c   9.22603954
_cell_angle_alpha   61.62136869
_cell_angle_beta   60.92101832
_cell_angle_gamma   57.45761299
_symmetry_Int_Tables_number   1
_chemical_formula_structural   Li4Co2C4SO16
_chemical_formula_sum   'Li8 Co4 C8 S2 O32'
_cell_volume   599.07053320
_cell_formula_units_Z   2
loop_
 _symmetry_equiv_pos_site_id
 _symmetry_equiv_pos_as_xyz
  1  'x, y, z'
loop_
 _atom_site_type_symbol
 _atom_site_label
 _atom_site_symmetry_multiplicity
 _atom_site_fract_x
 _atom_site_fract_y
 _atom_site_fract_z
 _atom_site_occupancy
  Li  Li0  1  0.544976  0.955024  0.544976  1
  Li  Li1  1  0.955685  0.544315  0.544315  1
  Li  Li2  1  0.705685  0.294315  0.294315  1
  Li  Li3  1  0.294976  0.705024  0.294976  1
  Li  Li4  1  0.955024  0.544976  0.955024  1
  Li  Li5  1  0.544315  0.955685  0.955685  1
  Li  Li6  1  0.294315  0.705685  0.705685  1
  Li  Li7  1  0.705024  0.294976  0.705024  1
  Co  Co8  1  0.125000  0.125000  0.625000  1
  Co  Co9  1  0.125000  0.125000  0.125000  1
  Co  Co10  1  0.625000  0.125000  0.125000  1
  Co  Co11  1  0.125000  0.625000  0.125000  1
  C  C12  1  0.909717  0.916582  0.278925  1
  C  C13  1  0.333418  0.340283  0.355225  1
  C  C14  1  0.278925  0.894775  0.909717  1
  C  C15  1  0.894775  0.278925  0.916582  1
  C  C16  1  0.355225  0.971075  0.333418  1
  C  C17  1  0.971075  0.355225  0.340283  1
  C  C18  1  0.916582  0.909717  0.894775  1
  C  C19  1  0.340283  0.333418  0.971075  1
  S  S20  1  0.500000  0.500000  0.500000  1
  S  S21  1  0.750000  0.750000  0.750000  1
  O  O22  1  0.763534  0.935010  0.285628  1
  O  O23  1  0.578893  0.306317  0.556830  1
  O  O24  1  0.927147  0.045858  0.268281  1
  O  O25  1  0.204142  0.322853  0.491286  1
  O  O26  1  0.268281  0.758714  0.927147  1
  O  O27  1  0.484696  0.212535  0.339547  1
  O  O28  1  0.556830  0.557959  0.578893  1
  O  O29  1  0.306317  0.578893  0.557959  1
  O  O30  1  0.963221  0.339547  0.212535  1
  O  O31  1  0.758714  0.268281  0.045858  1
  O  O32  1  0.314990  0.486466  0.234172  1
  O  O33  1  0.557959  0.556830  0.306317  1
  O  O34  1  0.285628  0.015828  0.763534  1
  O  O35  1  0.015828  0.285628  0.935010  1
  O  O36  1  0.037465  0.765304  0.286779  1
  O  O37  1  0.339547  0.963221  0.484696  1
  O  O38  1  0.910453  0.286779  0.765304  1
  O  O39  1  0.212535  0.484696  0.963221  1
  O  O40  1  0.234172  0.964372  0.314990  1
  O  O41  1  0.964372  0.234172  0.486466  1
  O  O42  1  0.692041  0.693170  0.943683  1
  O  O43  1  0.935010  0.763534  0.015828  1
  O  O44  1  0.491286  0.981719  0.204142  1
  O  O45  1  0.286779  0.910453  0.037465  1
  O  O46  1  0.943683  0.671107  0.692041  1
  O  O47  1  0.693170  0.692041  0.671107  1
  O  O48  1  0.765304  0.037465  0.910453  1
  O  O49  1  0.981719  0.491286  0.322853  1
  O  O50  1  0.045858  0.927147  0.758714  1
  O  O51  1  0.322853  0.204142  0.981719  1
  O  O52  1  0.671107  0.943683  0.693170  1
  O  O53  1  0.486466  0.314990  0.964372  1
