# generated using pymatgen
data_H6C2N4O
_symmetry_space_group_name_H-M   'P 1'
_cell_length_a   3.93840299
_cell_length_b   11.31905384
_cell_length_c   11.09859306
_cell_angle_alpha   90.00000000
_cell_angle_beta   92.46663523
_cell_angle_gamma   90.00000000
_symmetry_Int_Tables_number   1
_chemical_formula_structural   H6C2N4O
_chemical_formula_sum   'H24 C8 N16 O4'
_cell_volume   494.30570750
_cell_formula_units_Z   4
loop_
 _symmetry_equiv_pos_site_id
 _symmetry_equiv_pos_as_xyz
  1  'x, y, z'
loop_
 _atom_site_type_symbol
 _atom_site_label
 _atom_site_symmetry_multiplicity
 _atom_site_fract_x
 _atom_site_fract_y
 _atom_site_fract_z
 _atom_site_occupancy
  H  H0  1  0.185699  0.621290  0.801144  1
  H  H1  1  0.233983  0.498729  0.892460  1
  H  H2  1  0.257776  0.070733  0.910700  1
  H  H3  1  0.185699  0.878710  0.301144  1
  H  H4  1  0.233983  0.001271  0.392460  1
  H  H5  1  0.257776  0.429267  0.410700  1
  H  H6  1  0.388158  0.353799  0.542589  1
  H  H7  1  0.508720  0.614071  0.911307  1
  H  H8  1  0.388158  0.146201  0.042589  1
  H  H9  1  0.512699  0.525044  0.787036  1
  H  H10  1  0.487301  0.025044  0.712964  1
  H  H11  1  0.508720  0.885929  0.411307  1
  H  H12  1  0.491280  0.114071  0.588693  1
  H  H13  1  0.512699  0.974956  0.287036  1
  H  H14  1  0.487301  0.474956  0.212964  1
  H  H15  1  0.611842  0.853799  0.957411  1
  H  H16  1  0.491280  0.385929  0.088693  1
  H  H17  1  0.611842  0.646201  0.457411  1
  H  H18  1  0.742224  0.570733  0.589300  1
  H  H19  1  0.766017  0.998729  0.607540  1
  H  H20  1  0.814301  0.121290  0.698856  1
  H  H21  1  0.742224  0.929267  0.089300  1
  H  H22  1  0.766017  0.501271  0.107540  1
  H  H23  1  0.814301  0.378710  0.198856  1
  C  C24  1  0.088946  0.837633  0.755689  1
  C  C25  1  0.088946  0.662367  0.255689  1
  C  C26  1  0.175093  0.250688  0.908867  1
  C  C27  1  0.175093  0.249312  0.408867  1
  C  C28  1  0.824907  0.750688  0.591133  1
  C  C29  1  0.824907  0.749312  0.091133  1
  C  C30  1  0.911054  0.337633  0.744311  1
  C  C31  1  0.911054  0.162367  0.244311  1
  N  N32  1  0.040785  0.242813  0.792120  1
  N  N33  1  0.040785  0.257187  0.292120  1
  N  N34  1  0.216992  0.919882  0.806596  1
  N  N35  1  0.294688  0.148582  0.955919  1
  N  N36  1  0.216992  0.580118  0.306596  1
  N  N37  1  0.294688  0.351418  0.455919  1
  N  N38  1  0.358015  0.566178  0.848341  1
  N  N39  1  0.358015  0.933822  0.348341  1
  N  N40  1  0.641985  0.066178  0.651659  1
  N  N41  1  0.641985  0.433822  0.151659  1
  N  N42  1  0.705312  0.648582  0.544081  1
  N  N43  1  0.783008  0.419882  0.693404  1
  N  N44  1  0.705312  0.851418  0.044081  1
  N  N45  1  0.783008  0.080118  0.193404  1
  N  N46  1  0.959215  0.742813  0.707880  1
  N  N47  1  0.959215  0.757187  0.207880  1
  O  O48  1  0.189986  0.346982  0.968364  1
  O  O49  1  0.189986  0.153018  0.468364  1
  O  O50  1  0.810014  0.846982  0.531636  1
  O  O51  1  0.810014  0.653018  0.031636  1
