# generated using pymatgen
data_Li6(NiO2)5
_symmetry_space_group_name_H-M   'P 1'
_cell_length_a   5.17384243
_cell_length_b   5.63596488
_cell_length_c   7.74511445
_cell_angle_alpha   70.79099340
_cell_angle_beta   70.80090789
_cell_angle_gamma   66.90567452
_symmetry_Int_Tables_number   1
_chemical_formula_structural   Li6(NiO2)5
_chemical_formula_sum   'Li6 Ni5 O10'
_cell_volume   190.91914791
_cell_formula_units_Z   1
loop_
 _symmetry_equiv_pos_site_id
 _symmetry_equiv_pos_as_xyz
  1  'x, y, z'
loop_
 _atom_site_type_symbol
 _atom_site_label
 _atom_site_symmetry_multiplicity
 _atom_site_fract_x
 _atom_site_fract_y
 _atom_site_fract_z
 _atom_site_occupancy
  Li  Li0  1  0.163524  0.105271  0.955229  1
  Li  Li1  1  0.722771  0.073572  0.745869  1
  Li  Li2  1  0.719098  0.924524  0.406250  1
  Li  Li3  1  0.277229  0.926428  0.254131  1
  Li  Li4  1  0.280902  0.075476  0.593750  1
  Li  Li5  1  0.836476  0.894729  0.044771  1
  Ni  Ni6  1  0.902831  0.504176  0.697317  1
  Ni  Ni7  1  0.308440  0.512433  0.895427  1
  Ni  Ni8  1  0.097169  0.495824  0.302683  1
  Ni  Ni9  1  0.691560  0.487567  0.104573  1
  Ni  Ni10  1  0.500000  0.500000  0.500000  1
  O  O11  1  0.114776  0.292817  0.141764  1
  O  O12  1  0.743436  0.268077  0.920497  1
  O  O13  1  0.329958  0.285628  0.724343  1
  O  O14  1  0.256564  0.731923  0.079503  1
  O  O15  1  0.919536  0.296306  0.540193  1
  O  O16  1  0.885224  0.707183  0.858236  1
  O  O17  1  0.504459  0.285940  0.352308  1
  O  O18  1  0.495541  0.714060  0.647692  1
  O  O19  1  0.080464  0.703694  0.459807  1
  O  O20  1  0.670042  0.714372  0.275657  1
