# generated using pymatgen
data_Dy2Ge2O7
_symmetry_space_group_name_H-M   'P 1'
_cell_length_a   6.87136890
_cell_length_b   6.87136890
_cell_length_c   12.51820717
_cell_angle_alpha   90.00000000
_cell_angle_beta   90.00000000
_cell_angle_gamma   90.00000000
_symmetry_Int_Tables_number   1
_chemical_formula_structural   Dy2Ge2O7
_chemical_formula_sum   'Dy8 Ge8 O28'
_cell_volume   591.05604561
_cell_formula_units_Z   4
loop_
 _symmetry_equiv_pos_site_id
 _symmetry_equiv_pos_as_xyz
  1  'x, y, z'
loop_
 _atom_site_type_symbol
 _atom_site_label
 _atom_site_symmetry_multiplicity
 _atom_site_fract_x
 _atom_site_fract_y
 _atom_site_fract_z
 _atom_site_occupancy
  Dy  Dy0  1  0.124620  0.646682  0.635405  1
  Dy  Dy1  1  0.146682  0.375380  0.385405  1
  Dy  Dy2  1  0.353318  0.875380  0.864595  1
  Dy  Dy3  1  0.375380  0.146682  0.614595  1
  Dy  Dy4  1  0.624620  0.853318  0.114595  1
  Dy  Dy5  1  0.646682  0.124620  0.364595  1
  Dy  Dy6  1  0.853318  0.624620  0.885405  1
  Dy  Dy7  1  0.875380  0.353318  0.135405  1
  Ge  Ge8  1  0.099303  0.848354  0.119017  1
  Ge  Ge9  1  0.151646  0.900697  0.380983  1
  Ge  Ge10  1  0.348354  0.400697  0.869017  1
  Ge  Ge11  1  0.400697  0.348354  0.130983  1
  Ge  Ge12  1  0.599303  0.651646  0.630983  1
  Ge  Ge13  1  0.651646  0.599303  0.369017  1
  Ge  Ge14  1  0.848354  0.099303  0.880983  1
  Ge  Ge15  1  0.900697  0.151646  0.619017  1
  O  O16  1  0.031552  0.921433  0.877166  1
  O  O17  1  0.063578  0.338098  0.570931  1
  O  O18  1  0.078567  0.968448  0.622834  1
  O  O19  1  0.143601  0.683558  0.455362  1
  O  O20  1  0.161902  0.563578  0.820931  1
  O  O21  1  0.183558  0.356399  0.205362  1
  O  O22  1  0.196671  0.803329  0.250000  1
  O  O23  1  0.303329  0.303329  0.000000  1
  O  O24  1  0.316442  0.856399  0.044638  1
  O  O25  1  0.338098  0.063578  0.429069  1
  O  O26  1  0.356399  0.183558  0.794638  1
  O  O27  1  0.421433  0.468448  0.627166  1
  O  O28  1  0.436422  0.838098  0.679069  1
  O  O29  1  0.468448  0.421433  0.372834  1
  O  O30  1  0.531552  0.578567  0.872834  1
  O  O31  1  0.563578  0.161902  0.179069  1
  O  O32  1  0.578567  0.531552  0.127166  1
  O  O33  1  0.643601  0.816442  0.294638  1
  O  O34  1  0.661902  0.936422  0.929069  1
  O  O35  1  0.683558  0.143601  0.544638  1
  O  O36  1  0.696671  0.696671  0.500000  1
  O  O37  1  0.803329  0.196671  0.750000  1
  O  O38  1  0.816442  0.643601  0.705362  1
  O  O39  1  0.838098  0.436422  0.320931  1
  O  O40  1  0.856399  0.316442  0.955362  1
  O  O41  1  0.921433  0.031552  0.122834  1
  O  O42  1  0.936422  0.661902  0.070931  1
  O  O43  1  0.968448  0.078567  0.377166  1
