# generated using pymatgen
data_Li4Co3OF11
_symmetry_space_group_name_H-M   'P 1'
_cell_length_a   5.81291063
_cell_length_b   5.95587157
_cell_length_c   6.22542631
_cell_angle_alpha   99.74572683
_cell_angle_beta   100.08854962
_cell_angle_gamma   98.83568421
_symmetry_Int_Tables_number   1
_chemical_formula_structural   Li4Co3OF11
_chemical_formula_sum   'Li4 Co3 O1 F11'
_cell_volume   205.37192903
_cell_formula_units_Z   1
loop_
 _symmetry_equiv_pos_site_id
 _symmetry_equiv_pos_as_xyz
  1  'x, y, z'
loop_
 _atom_site_type_symbol
 _atom_site_label
 _atom_site_symmetry_multiplicity
 _atom_site_fract_x
 _atom_site_fract_y
 _atom_site_fract_z
 _atom_site_occupancy
  Li  Li0  1  0.683071  0.428424  0.874861  1
  Li  Li1  1  0.143881  0.349069  0.608005  1
  Li  Li2  1  0.875591  0.666803  0.392734  1
  Li  Li3  1  0.305140  0.574126  0.122965  1
  Co  Co4  1  0.601261  0.155076  0.341045  1
  Co  Co5  1  0.977712  0.997015  0.989001  1
  Co  Co6  1  0.408853  0.848740  0.670204  1
  O  O7  1  0.660692  0.009763  0.869250  1
  F  F8  1  0.088805  0.292337  0.947638  1
  F  F9  1  0.382356  0.153307  0.551331  1
  F  F10  1  0.924204  0.135828  0.289338  1
  F  F11  1  0.405618  0.578772  0.822915  1
  F  F12  1  0.801304  0.393014  0.586790  1
  F  F13  1  0.211535  0.607471  0.418660  1
  F  F14  1  0.585033  0.403013  0.183992  1
  F  F15  1  0.070692  0.868846  0.710648  1
  F  F16  1  0.627188  0.852993  0.429008  1
  F  F17  1  0.917840  0.703238  0.061894  1
  F  F18  1  0.329222  0.982162  0.129723  1
