# generated using pymatgen
data_Bi6B10O21
_symmetry_space_group_name_H-M   'P 1'
_cell_length_a   7.08905763
_cell_length_b   7.16172214
_cell_length_c   11.35306460
_cell_angle_alpha   102.60385841
_cell_angle_beta   86.38037956
_cell_angle_gamma   116.69185174
_symmetry_Int_Tables_number   1
_chemical_formula_structural   Bi6B10O21
_chemical_formula_sum   'Bi6 B10 O21'
_cell_volume   502.15815683
_cell_formula_units_Z   1
loop_
 _symmetry_equiv_pos_site_id
 _symmetry_equiv_pos_as_xyz
  1  'x, y, z'
loop_
 _atom_site_type_symbol
 _atom_site_label
 _atom_site_symmetry_multiplicity
 _atom_site_fract_x
 _atom_site_fract_y
 _atom_site_fract_z
 _atom_site_occupancy
  Bi  Bi0  1  0.760117  0.270332  0.911077  1
  Bi  Bi1  1  0.210680  0.999357  0.442294  1
  Bi  Bi2  1  0.846270  0.268115  0.365661  1
  Bi  Bi3  1  0.153730  0.731885  0.634339  1
  Bi  Bi4  1  0.789320  0.000643  0.557706  1
  Bi  Bi5  1  0.239883  0.729668  0.088923  1
  B  B6  1  0.421408  0.178811  0.726144  1
  B  B7  1  0.171028  0.324886  0.773204  1
  B  B8  1  0.619605  0.446206  0.589070  1
  B  B9  1  0.562133  0.569869  0.801442  1
  B  B10  1  0.864393  0.789113  0.955662  1
  B  B11  1  0.135607  0.210887  0.044338  1
  B  B12  1  0.437867  0.430131  0.198558  1
  B  B13  1  0.380395  0.553794  0.410930  1
  B  B14  1  0.828972  0.675114  0.226796  1
  B  B15  1  0.578592  0.821189  0.273856  1
  O  O16  1  0.963803  0.296638  0.760130  1
  O  O17  1  0.000000  0.000000  0.000000  1
  O  O18  1  0.549697  0.004597  0.271126  1
  O  O19  1  0.201531  0.143306  0.750288  1
  O  O20  1  0.467779  0.240488  0.600980  1
  O  O21  1  0.567312  0.366443  0.814768  1
  O  O22  1  0.919355  0.631507  0.972851  1
  O  O23  1  0.731991  0.480790  0.487090  1
  O  O24  1  0.336651  0.527373  0.802071  1
  O  O25  1  0.319649  0.252449  0.101220  1
  O  O26  1  0.661049  0.615092  0.686007  1
  O  O27  1  0.338951  0.384908  0.313993  1
  O  O28  1  0.680351  0.747551  0.898780  1
  O  O29  1  0.663349  0.472627  0.197929  1
  O  O30  1  0.268009  0.519210  0.512910  1
  O  O31  1  0.080645  0.368493  0.027149  1
  O  O32  1  0.432688  0.633557  0.185232  1
  O  O33  1  0.532221  0.759512  0.399020  1
  O  O34  1  0.798469  0.856694  0.249712  1
  O  O35  1  0.450303  0.995403  0.728874  1
  O  O36  1  0.036197  0.703362  0.239870  1
