# generated using pymatgen
data_CrPO5
_symmetry_space_group_name_H-M   'P 1'
_cell_length_a   12.68238441
_cell_length_b   5.04246620
_cell_length_c   12.80386275
_cell_angle_alpha   90.00000000
_cell_angle_beta   119.81006870
_cell_angle_gamma   90.00000000
_symmetry_Int_Tables_number   1
_chemical_formula_structural   CrPO5
_chemical_formula_sum   'Cr8 P8 O40'
_cell_volume   710.46642277
_cell_formula_units_Z   8
loop_
 _symmetry_equiv_pos_site_id
 _symmetry_equiv_pos_as_xyz
  1  'x, y, z'
loop_
 _atom_site_type_symbol
 _atom_site_label
 _atom_site_symmetry_multiplicity
 _atom_site_fract_x
 _atom_site_fract_y
 _atom_site_fract_z
 _atom_site_occupancy
  Cr  Cr0  1  0.563115  0.732241  0.871250  1
  Cr  Cr1  1  0.436885  0.232241  0.628750  1
  Cr  Cr2  1  0.063977  0.736473  0.692818  1
  Cr  Cr3  1  0.936023  0.236473  0.807182  1
  Cr  Cr4  1  0.063977  0.763527  0.192818  1
  Cr  Cr5  1  0.936023  0.263527  0.307182  1
  Cr  Cr6  1  0.563115  0.767759  0.371250  1
  Cr  Cr7  1  0.436885  0.267759  0.128750  1
  P  P8  1  0.844486  0.761837  0.909633  1
  P  P9  1  0.343969  0.747084  0.936616  1
  P  P10  1  0.343969  0.752916  0.436616  1
  P  P11  1  0.155514  0.261837  0.590367  1
  P  P12  1  0.844486  0.738163  0.409633  1
  P  P13  1  0.656031  0.247084  0.563384  1
  P  P14  1  0.656031  0.252916  0.063384  1
  P  P15  1  0.155514  0.238163  0.090367  1
  O  O16  1  0.862529  0.051336  0.878918  1
  O  O17  1  0.624089  0.060856  0.958182  1
  O  O18  1  0.708871  0.716408  0.859279  1
  O  O19  1  0.373301  0.458179  0.985831  1
  O  O20  1  0.414122  0.810421  0.870263  1
  O  O21  1  0.502788  0.483433  0.775111  1
  O  O22  1  0.497212  0.983433  0.724889  1
  O  O23  1  0.585878  0.310421  0.629737  1
  O  O24  1  0.207658  0.770170  0.848732  1
  O  O25  1  0.089243  0.276555  0.953311  1
  O  O26  1  0.291129  0.216408  0.640721  1
  O  O27  1  0.375911  0.560856  0.541818  1
  O  O28  1  0.373301  0.041821  0.485831  1
  O  O29  1  0.137471  0.551336  0.621082  1
  O  O30  1  0.109300  0.070005  0.652278  1
  O  O31  1  0.985187  0.978809  0.763751  1
  O  O32  1  0.014813  0.478809  0.736249  1
  O  O33  1  0.890700  0.570005  0.847722  1
  O  O34  1  0.207658  0.729830  0.348732  1
  O  O35  1  0.089243  0.223445  0.453311  1
  O  O36  1  0.910757  0.776555  0.546689  1
  O  O37  1  0.792342  0.270170  0.651268  1
  O  O38  1  0.109300  0.429995  0.152278  1
  O  O39  1  0.985187  0.521191  0.263751  1
  O  O40  1  0.014813  0.021191  0.236249  1
  O  O41  1  0.890700  0.929995  0.347722  1
  O  O42  1  0.862529  0.448664  0.378918  1
  O  O43  1  0.626699  0.958179  0.514169  1
  O  O44  1  0.624089  0.439144  0.458182  1
  O  O45  1  0.708871  0.783592  0.359279  1
  O  O46  1  0.910757  0.723445  0.046689  1
  O  O47  1  0.792342  0.229830  0.151268  1
  O  O48  1  0.414122  0.689579  0.370263  1
  O  O49  1  0.502788  0.016567  0.275111  1
  O  O50  1  0.497212  0.516567  0.224889  1
  O  O51  1  0.585878  0.189579  0.129737  1
  O  O52  1  0.626699  0.541821  0.014169  1
  O  O53  1  0.291129  0.283592  0.140721  1
  O  O54  1  0.375911  0.939144  0.041818  1
  O  O55  1  0.137471  0.948664  0.121082  1
