# generated using pymatgen
data_Ca4Nb2O9
_symmetry_space_group_name_H-M   'P 1'
_cell_length_a   8.02633902
_cell_length_b   5.84876667
_cell_length_c   18.60565204
_cell_angle_alpha   90.00000000
_cell_angle_beta   115.11383892
_cell_angle_gamma   90.00000000
_symmetry_Int_Tables_number   1
_chemical_formula_structural   Ca4Nb2O9
_chemical_formula_sum   'Ca16 Nb8 O36'
_cell_volume   790.85886683
_cell_formula_units_Z   4
loop_
 _symmetry_equiv_pos_site_id
 _symmetry_equiv_pos_as_xyz
  1  'x, y, z'
loop_
 _atom_site_type_symbol
 _atom_site_label
 _atom_site_symmetry_multiplicity
 _atom_site_fract_x
 _atom_site_fract_y
 _atom_site_fract_z
 _atom_site_occupancy
  Ca  Ca0  1  0.837070  0.499704  0.334587  1
  Ca  Ca1  1  0.593176  0.055438  0.337673  1
  Ca  Ca2  1  0.742970  0.551146  0.492891  1
  Ca  Ca3  1  0.257030  0.448854  0.507109  1
  Ca  Ca4  1  0.406824  0.944562  0.662327  1
  Ca  Ca5  1  0.162930  0.500296  0.665413  1
  Ca  Ca6  1  0.922223  0.064851  0.667892  1
  Ca  Ca7  1  0.077777  0.564851  0.832108  1
  Ca  Ca8  1  0.837070  0.000296  0.834587  1
  Ca  Ca9  1  0.593176  0.444562  0.837673  1
  Ca  Ca10  1  0.742970  0.948854  0.992891  1
  Ca  Ca11  1  0.257030  0.051146  0.007109  1
  Ca  Ca12  1  0.406824  0.555438  0.162327  1
  Ca  Ca13  1  0.162930  0.999704  0.165413  1
  Ca  Ca14  1  0.922223  0.435149  0.167892  1
  Ca  Ca15  1  0.077777  0.935149  0.332108  1
  Nb  Nb16  1  0.320527  0.487013  0.329952  1
  Nb  Nb17  1  0.500000  0.000000  0.500000  1
  Nb  Nb18  1  0.000000  0.000000  0.500000  1
  Nb  Nb19  1  0.679473  0.512987  0.670048  1
  Nb  Nb20  1  0.320527  0.012987  0.829952  1
  Nb  Nb21  1  0.000000  0.500000  0.000000  1
  Nb  Nb22  1  0.500000  0.500000  0.000000  1
  Nb  Nb23  1  0.679473  0.987013  0.170048  1
  O  O24  1  0.148862  0.554310  0.377850  1
  O  O25  1  0.461607  0.804854  0.404307  1
  O  O26  1  0.849199  0.829850  0.401219  1
  O  O27  1  0.490596  0.287051  0.436959  1
  O  O28  1  0.886791  0.287191  0.443982  1
  O  O29  1  0.220457  0.038780  0.466189  1
  O  O30  1  0.779543  0.961220  0.533811  1
  O  O31  1  0.113209  0.712809  0.556018  1
  O  O32  1  0.509404  0.712949  0.563041  1
  O  O33  1  0.150801  0.170150  0.598781  1
  O  O34  1  0.538393  0.195146  0.595693  1
  O  O35  1  0.851138  0.445690  0.622150  1
  O  O36  1  0.470395  0.546482  0.699406  1
  O  O37  1  0.794612  0.791730  0.721029  1
  O  O38  1  0.183593  0.822097  0.740224  1
  O  O39  1  0.816407  0.322097  0.759776  1
  O  O40  1  0.205388  0.291730  0.778971  1
  O  O41  1  0.529605  0.046482  0.800594  1
  O  O42  1  0.148862  0.945690  0.877850  1
  O  O43  1  0.461607  0.695146  0.904307  1
  O  O44  1  0.849199  0.670150  0.901219  1
  O  O45  1  0.490596  0.212949  0.936959  1
  O  O46  1  0.886791  0.212809  0.943982  1
  O  O47  1  0.220457  0.461220  0.966189  1
  O  O48  1  0.779543  0.538780  0.033811  1
  O  O49  1  0.113209  0.787191  0.056018  1
  O  O50  1  0.509404  0.787051  0.063041  1
  O  O51  1  0.150801  0.329850  0.098781  1
  O  O52  1  0.538393  0.304854  0.095693  1
  O  O53  1  0.851138  0.054310  0.122150  1
  O  O54  1  0.470395  0.953518  0.199406  1
  O  O55  1  0.794612  0.708270  0.221029  1
  O  O56  1  0.183593  0.677903  0.240224  1
  O  O57  1  0.816407  0.177903  0.259776  1
  O  O58  1  0.205388  0.208270  0.278971  1
  O  O59  1  0.529605  0.453518  0.300594  1
