# generated using pymatgen
data_TiNb2O7
_symmetry_space_group_name_H-M   'P 1'
_cell_length_a   7.67665984
_cell_length_b   10.56089084
_cell_length_c   11.46526137
_cell_angle_alpha   66.87256213
_cell_angle_beta   80.36574708
_cell_angle_gamma   79.52607718
_symmetry_Int_Tables_number   1
_chemical_formula_structural   TiNb2O7
_chemical_formula_sum   'Ti6 Nb12 O42'
_cell_volume   835.82533303
_cell_formula_units_Z   6
loop_
 _symmetry_equiv_pos_site_id
 _symmetry_equiv_pos_as_xyz
  1  'x, y, z'
loop_
 _atom_site_type_symbol
 _atom_site_label
 _atom_site_symmetry_multiplicity
 _atom_site_fract_x
 _atom_site_fract_y
 _atom_site_fract_z
 _atom_site_occupancy
  Ti  Ti0  1  0.408498  0.368674  0.002288  1
  Ti  Ti1  1  0.541218  0.478811  0.359511  1
  Ti  Ti2  1  0.646380  0.780585  0.636779  1
  Ti  Ti3  1  0.144681  0.791062  0.627383  1
  Ti  Ti4  1  0.852039  0.218464  0.373092  1
  Ti  Ti5  1  0.056761  0.144436  0.627178  1
  Nb  Nb6  1  0.942609  0.859319  0.367101  1
  Nb  Nb7  1  0.448488  0.839404  0.371097  1
  Nb  Nb8  1  0.904588  0.359707  0.016037  1
  Nb  Nb9  1  0.037628  0.481635  0.361062  1
  Nb  Nb10  1  0.002907  0.004094  0.984071  1
  Nb  Nb11  1  0.497455  0.011265  0.998894  1
  Nb  Nb12  1  0.354831  0.216424  0.364817  1
  Nb  Nb13  1  0.961023  0.519033  0.640172  1
  Nb  Nb14  1  0.459637  0.519239  0.639520  1
  Nb  Nb15  1  0.590361  0.636192  0.997727  1
  Nb  Nb16  1  0.096634  0.634895  0.984657  1
  Nb  Nb17  1  0.557460  0.143977  0.629612  1
  O  O18  1  0.973268  0.912358  0.196326  1
  O  O19  1  0.472966  0.908769  0.197607  1
  O  O20  1  0.854504  0.583014  0.997339  1
  O  O21  1  0.355849  0.581584  0.997081  1
  O  O22  1  0.564284  0.552970  0.190419  1
  O  O23  1  0.063749  0.555648  0.187352  1
  O  O24  1  0.686210  0.834112  0.418831  1
  O  O25  1  0.186578  0.834217  0.421751  1
  O  O26  1  0.951744  0.186166  0.006579  1
  O  O27  1  0.450250  0.192225  0.006570  1
  O  O28  1  0.605352  0.966826  0.611172  1
  O  O29  1  0.105018  0.969114  0.611744  1
  O  O30  1  0.986950  0.636380  0.413858  1
  O  O31  1  0.489033  0.631877  0.412927  1
  O  O32  1  0.876878  0.294615  0.199675  1
  O  O33  1  0.378034  0.296356  0.190793  1
  O  O34  1  0.750169  0.996531  0.004046  1
  O  O35  1  0.249462  0.997397  0.003431  1
  O  O36  1  0.912824  0.751753  0.598586  1
  O  O37  1  0.412611  0.750414  0.597721  1
  O  O38  1  0.797124  0.426316  0.376523  1
  O  O39  1  0.300940  0.427043  0.376201  1
  O  O40  1  0.699661  0.577156  0.622452  1
  O  O41  1  0.201383  0.574720  0.622060  1
  O  O42  1  0.587731  0.249470  0.403709  1
  O  O43  1  0.085656  0.250073  0.403179  1
  O  O44  1  0.622500  0.704500  0.805476  1
  O  O45  1  0.123137  0.705593  0.802305  1
  O  O46  1  0.512416  0.366227  0.586605  1
  O  O47  1  0.011235  0.366740  0.585813  1
  O  O48  1  0.893175  0.036936  0.388453  1
  O  O49  1  0.395600  0.028623  0.390496  1
  O  O50  1  0.546703  0.813151  0.994872  1
  O  O51  1  0.049868  0.809018  0.996311  1
  O  O52  1  0.815242  0.166322  0.579917  1
  O  O53  1  0.311287  0.165914  0.581795  1
  O  O54  1  0.936089  0.443203  0.813502  1
  O  O55  1  0.435561  0.443151  0.814319  1
  O  O56  1  0.644460  0.412636  0.004062  1
  O  O57  1  0.146458  0.414781  0.003707  1
  O  O58  1  0.027061  0.089330  0.798894  1
  O  O59  1  0.527783  0.089553  0.804548  1
