# generated using pymatgen
data_Li2TiFeO4
_symmetry_space_group_name_H-M   'P 1'
_cell_length_a   4.15049242
_cell_length_b   4.15049242
_cell_length_c   8.95670207
_cell_angle_alpha   89.94897804
_cell_angle_beta   90.05102196
_cell_angle_gamma   90.07565556
_symmetry_Int_Tables_number   1
_chemical_formula_structural   Li2TiFeO4
_chemical_formula_sum   'Li4 Ti2 Fe2 O8'
_cell_volume   154.29315326
_cell_formula_units_Z   2
loop_
 _symmetry_equiv_pos_site_id
 _symmetry_equiv_pos_as_xyz
  1  'x, y, z'
loop_
 _atom_site_type_symbol
 _atom_site_label
 _atom_site_symmetry_multiplicity
 _atom_site_fract_x
 _atom_site_fract_y
 _atom_site_fract_z
 _atom_site_occupancy
  Li  Li0  1  0.001369  0.001181  0.751532  1
  Li  Li1  1  0.998819  0.998631  0.251532  1
  Li  Li2  1  0.990211  0.499626  0.983797  1
  Li  Li3  1  0.500374  0.009789  0.483797  1
  Ti  Ti4  1  0.457108  0.000622  0.005255  1
  Ti  Ti5  1  0.999378  0.542892  0.505255  1
  Fe  Fe6  1  0.505143  0.499708  0.747473  1
  Fe  Fe7  1  0.500292  0.494857  0.247473  1
  O  O8  1  0.017711  0.999696  0.002706  1
  O  O9  1  0.000304  0.982289  0.502706  1
  O  O10  1  0.509670  0.997974  0.787716  1
  O  O11  1  0.005940  0.491884  0.720006  1
  O  O12  1  0.508116  0.994060  0.220006  1
  O  O13  1  0.002026  0.490330  0.287716  1
  O  O14  1  0.498277  0.499283  0.001084  1
  O  O15  1  0.500717  0.501723  0.501084  1
