# generated using pymatgen
data_Li4Ti4V4CoO18
_symmetry_space_group_name_H-M   'P 1'
_cell_length_a   2.97834795
_cell_length_b   9.28099891
_cell_length_c   24.36862441
_cell_angle_alpha   90.00000000
_cell_angle_beta   90.00000000
_cell_angle_gamma   90.00000000
_symmetry_Int_Tables_number   1
_chemical_formula_structural   Li4Ti4V4CoO18
_chemical_formula_sum   'Li8 Ti8 V8 Co2 O36'
_cell_volume   673.59859014
_cell_formula_units_Z   2
loop_
 _symmetry_equiv_pos_site_id
 _symmetry_equiv_pos_as_xyz
  1  'x, y, z'
loop_
 _atom_site_type_symbol
 _atom_site_label
 _atom_site_symmetry_multiplicity
 _atom_site_fract_x
 _atom_site_fract_y
 _atom_site_fract_z
 _atom_site_occupancy
  Li  Li0  1  0.000000  0.196399  0.492765  1
  Li  Li1  1  0.000000  0.186563  0.689946  1
  Li  Li2  1  0.000000  0.313437  0.189946  1
  Li  Li3  1  0.000000  0.303601  0.992765  1
  Li  Li4  1  0.000000  0.696399  0.007235  1
  Li  Li5  1  0.000000  0.686563  0.810054  1
  Li  Li6  1  0.000000  0.813437  0.310054  1
  Li  Li7  1  0.000000  0.803601  0.507235  1
  Ti  Ti8  1  0.000000  0.985605  0.600726  1
  Ti  Ti9  1  0.500000  0.168776  0.305579  1
  Ti  Ti10  1  0.500000  0.331224  0.805579  1
  Ti  Ti11  1  0.000000  0.514395  0.100726  1
  Ti  Ti12  1  0.000000  0.485605  0.899274  1
  Ti  Ti13  1  0.500000  0.668776  0.194421  1
  Ti  Ti14  1  0.500000  0.831224  0.694421  1
  Ti  Ti15  1  0.000000  0.014395  0.399274  1
  V  V16  1  0.000000  0.989528  0.818341  1
  V  V17  1  0.500000  0.162033  0.087586  1
  V  V18  1  0.500000  0.337967  0.587586  1
  V  V19  1  0.000000  0.510472  0.318341  1
  V  V20  1  0.000000  0.489528  0.681659  1
  V  V21  1  0.500000  0.662033  0.412414  1
  V  V22  1  0.500000  0.837967  0.912414  1
  V  V23  1  0.000000  0.010472  0.181659  1
  Co  Co24  1  0.000000  0.000000  0.000000  1
  Co  Co25  1  0.000000  0.500000  0.500000  1
  O  O26  1  0.000000  0.979085  0.904191  1
  O  O27  1  0.000000  0.020915  0.095809  1
  O  O28  1  0.500000  0.068265  0.444849  1
  O  O29  1  0.500000  0.029998  0.658025  1
  O  O30  1  0.500000  0.162410  0.165349  1
  O  O31  1  0.000000  0.120870  0.255298  1
  O  O32  1  0.500000  0.148465  0.010379  1
  O  O33  1  0.500000  0.124554  0.795663  1
  O  O34  1  0.000000  0.194473  0.358162  1
  O  O35  1  0.000000  0.191843  0.582378  1
  O  O36  1  0.000000  0.308157  0.082378  1
  O  O37  1  0.000000  0.305527  0.858162  1
  O  O38  1  0.500000  0.375446  0.295663  1
  O  O39  1  0.500000  0.351535  0.510379  1
  O  O40  1  0.000000  0.379130  0.755298  1
  O  O41  1  0.500000  0.337590  0.665349  1
  O  O42  1  0.500000  0.470002  0.158025  1
  O  O43  1  0.500000  0.431735  0.944849  1
  O  O44  1  0.000000  0.479085  0.595809  1
  O  O45  1  0.000000  0.520915  0.404191  1
  O  O46  1  0.500000  0.568265  0.055151  1
  O  O47  1  0.500000  0.529998  0.841975  1
  O  O48  1  0.500000  0.662410  0.334651  1
  O  O49  1  0.000000  0.620870  0.244702  1
  O  O50  1  0.500000  0.648465  0.489621  1
  O  O51  1  0.500000  0.624554  0.704337  1
  O  O52  1  0.000000  0.694473  0.141838  1
  O  O53  1  0.000000  0.691843  0.917622  1
  O  O54  1  0.000000  0.808157  0.417622  1
  O  O55  1  0.000000  0.805527  0.641838  1
  O  O56  1  0.500000  0.875446  0.204337  1
  O  O57  1  0.500000  0.851535  0.989621  1
  O  O58  1  0.000000  0.879130  0.744702  1
  O  O59  1  0.500000  0.837590  0.834651  1
  O  O60  1  0.500000  0.970002  0.341975  1
  O  O61  1  0.500000  0.931735  0.555151  1
