# generated using pymatgen
data_Li3Fe5(CoO6)2
_symmetry_space_group_name_H-M   'P 1'
_cell_length_a   5.14601781
_cell_length_b   5.14601781
_cell_length_c   9.83422487
_cell_angle_alpha   84.76512531
_cell_angle_beta   95.23487469
_cell_angle_gamma   58.79811661
_symmetry_Int_Tables_number   1
_chemical_formula_structural   Li3Fe5(CoO6)2
_chemical_formula_sum   'Li3 Fe5 Co2 O12'
_cell_volume   218.87243521
_cell_formula_units_Z   1
loop_
 _symmetry_equiv_pos_site_id
 _symmetry_equiv_pos_as_xyz
  1  'x, y, z'
loop_
 _atom_site_type_symbol
 _atom_site_label
 _atom_site_symmetry_multiplicity
 _atom_site_fract_x
 _atom_site_fract_y
 _atom_site_fract_z
 _atom_site_occupancy
  Li  Li0  1  0.149802  0.672830  0.241411  1
  Li  Li1  1  0.672830  0.149802  0.758589  1
  Li  Li2  1  0.079417  0.079417  0.000000  1
  Fe  Fe3  1  0.921214  0.921214  0.500000  1
  Fe  Fe4  1  0.474459  0.013083  0.234531  1
  Fe  Fe5  1  0.013083  0.474459  0.765469  1
  Fe  Fe6  1  0.583973  0.583973  0.500000  1
  Fe  Fe7  1  0.432124  0.432124  0.000000  1
  Co  Co8  1  0.745516  0.745516  0.000000  1
  Co  Co9  1  0.248456  0.248456  0.500000  1
  O  O10  1  0.630328  0.879061  0.611952  1
  O  O11  1  0.879061  0.630328  0.388048  1
  O  O12  1  0.453317  0.726887  0.118832  1
  O  O13  1  0.225882  0.961259  0.387097  1
  O  O14  1  0.726887  0.453317  0.881168  1
  O  O15  1  0.032499  0.766201  0.876609  1
  O  O16  1  0.281147  0.520362  0.611341  1
  O  O17  1  0.961259  0.225882  0.612903  1
  O  O18  1  0.139678  0.392101  0.117281  1
  O  O19  1  0.766201  0.032499  0.123391  1
  O  O20  1  0.520362  0.281147  0.388659  1
  O  O21  1  0.392101  0.139678  0.882719  1
