# generated using pymatgen
data_Li2Fe(BO3)2
_symmetry_space_group_name_H-M   'P 1'
_cell_length_a   5.24010714
_cell_length_b   8.99771127
_cell_length_c   11.09208000
_cell_angle_alpha   90.00000000
_cell_angle_beta   115.20499765
_cell_angle_gamma   90.00000000
_symmetry_Int_Tables_number   1
_chemical_formula_structural   Li2Fe(BO3)2
_chemical_formula_sum   'Li8 Fe4 B8 O24'
_cell_volume   473.18717095
_cell_formula_units_Z   4
loop_
 _symmetry_equiv_pos_site_id
 _symmetry_equiv_pos_as_xyz
  1  'x, y, z'
loop_
 _atom_site_type_symbol
 _atom_site_label
 _atom_site_symmetry_multiplicity
 _atom_site_fract_x
 _atom_site_fract_y
 _atom_site_fract_z
 _atom_site_occupancy
  Li  Li0  1  0.950793  0.664823  0.630039  1
  Li  Li1  1  0.444451  0.990395  0.113249  1
  Li  Li2  1  0.049207  0.164823  0.869961  1
  Li  Li3  1  0.555549  0.490395  0.386751  1
  Li  Li4  1  0.444451  0.509605  0.613249  1
  Li  Li5  1  0.950793  0.835177  0.130039  1
  Li  Li6  1  0.555549  0.009605  0.886751  1
  Li  Li7  1  0.049207  0.335177  0.369961  1
  Fe  Fe8  1  0.477785  0.326632  0.127061  1
  Fe  Fe9  1  0.522215  0.826632  0.372939  1
  Fe  Fe10  1  0.477785  0.173368  0.627061  1
  Fe  Fe11  1  0.522215  0.673368  0.872939  1
  B  B12  1  0.949282  0.330759  0.619130  1
  B  B13  1  0.466045  0.661736  0.130505  1
  B  B14  1  0.050718  0.830759  0.880870  1
  B  B15  1  0.533955  0.161736  0.369495  1
  B  B16  1  0.466045  0.838264  0.630505  1
  B  B17  1  0.949282  0.169241  0.119130  1
  B  B18  1  0.533955  0.338264  0.869495  1
  B  B19  1  0.050718  0.669241  0.380870  1
  O  O20  1  0.365137  0.314992  0.934851  1
  O  O21  1  0.810386  0.672688  0.403513  1
  O  O22  1  0.209971  0.955623  0.905224  1
  O  O23  1  0.624343  0.288637  0.327111  1
  O  O24  1  0.125679  0.701840  0.835518  1
  O  O25  1  0.604326  0.024058  0.342416  1
  O  O26  1  0.874321  0.201840  0.664482  1
  O  O27  1  0.395674  0.524058  0.157584  1
  O  O28  1  0.375657  0.788637  0.172889  1
  O  O29  1  0.790029  0.455623  0.594776  1
  O  O30  1  0.634863  0.814992  0.565149  1
  O  O31  1  0.189614  0.172688  0.096487  1
  O  O32  1  0.810386  0.827312  0.903513  1
  O  O33  1  0.365137  0.185008  0.434851  1
  O  O34  1  0.209971  0.544377  0.405224  1
  O  O35  1  0.624343  0.211363  0.827111  1
  O  O36  1  0.604326  0.475942  0.842416  1
  O  O37  1  0.125679  0.798160  0.335518  1
  O  O38  1  0.395674  0.975942  0.657584  1
  O  O39  1  0.874321  0.298160  0.164482  1
  O  O40  1  0.375657  0.711363  0.672889  1
  O  O41  1  0.790029  0.044377  0.094776  1
  O  O42  1  0.189614  0.327312  0.596487  1
  O  O43  1  0.634863  0.685008  0.065149  1
