# generated using pymatgen
data_LiCuH4Cl3O2
_symmetry_space_group_name_H-M   'P 1'
_cell_length_a   6.19088754
_cell_length_b   11.22982595
_cell_length_c   9.31361295
_cell_angle_alpha   90.00000000
_cell_angle_beta   107.60781717
_cell_angle_gamma   90.00000000
_symmetry_Int_Tables_number   1
_chemical_formula_structural   LiCuH4Cl3O2
_chemical_formula_sum   'Li4 Cu4 H16 Cl12 O8'
_cell_volume   617.17042615
_cell_formula_units_Z   4
loop_
 _symmetry_equiv_pos_site_id
 _symmetry_equiv_pos_as_xyz
  1  'x, y, z'
loop_
 _atom_site_type_symbol
 _atom_site_label
 _atom_site_symmetry_multiplicity
 _atom_site_fract_x
 _atom_site_fract_y
 _atom_site_fract_z
 _atom_site_occupancy
  Li  Li0  1  0.439988  0.516567  0.336986  1
  Li  Li1  1  0.560012  0.016567  0.163014  1
  Li  Li2  1  0.560012  0.483433  0.663014  1
  Li  Li3  1  0.439988  0.983433  0.836986  1
  Cu  Cu4  1  0.831580  0.509129  0.115999  1
  Cu  Cu5  1  0.168420  0.009129  0.384001  1
  Cu  Cu6  1  0.168420  0.490871  0.884001  1
  Cu  Cu7  1  0.831580  0.990871  0.615999  1
  H  H8  1  0.112967  0.647294  0.384597  1
  H  H9  1  0.887033  0.147294  0.115403  1
  H  H10  1  0.887033  0.352706  0.615403  1
  H  H11  1  0.112967  0.852706  0.884597  1
  H  H12  1  0.203824  0.700825  0.260428  1
  H  H13  1  0.796176  0.200825  0.239572  1
  H  H14  1  0.796176  0.299175  0.739572  1
  H  H15  1  0.203824  0.799175  0.760428  1
  H  H16  1  0.609121  0.811315  0.050752  1
  H  H17  1  0.390879  0.311315  0.449248  1
  H  H18  1  0.390879  0.188685  0.949248  1
  H  H19  1  0.609121  0.688685  0.550752  1
  H  H20  1  0.806168  0.893302  0.036797  1
  H  H21  1  0.193832  0.393302  0.463203  1
  H  H22  1  0.193832  0.106698  0.963203  1
  H  H23  1  0.806168  0.606698  0.536797  1
  Cl  Cl24  1  0.544071  0.631670  0.121831  1
  Cl  Cl25  1  0.455929  0.131670  0.378169  1
  Cl  Cl26  1  0.455929  0.368330  0.878169  1
  Cl  Cl27  1  0.544071  0.868330  0.621831  1
  Cl  Cl28  1  0.204810  0.898624  0.181946  1
  Cl  Cl29  1  0.795190  0.398624  0.318054  1
  Cl  Cl30  1  0.795190  0.101376  0.818054  1
  Cl  Cl31  1  0.204810  0.601376  0.681946  1
  Cl  Cl32  1  0.891081  0.884710  0.416092  1
  Cl  Cl33  1  0.108919  0.384710  0.083908  1
  Cl  Cl34  1  0.108919  0.115290  0.583908  1
  Cl  Cl35  1  0.891081  0.615290  0.916092  1
  O  O36  1  0.169961  0.625257  0.301847  1
  O  O37  1  0.830039  0.125257  0.198153  1
  O  O38  1  0.830039  0.374743  0.698153  1
  O  O39  1  0.169961  0.874743  0.801847  1
  O  O40  1  0.641777  0.893297  0.023671  1
  O  O41  1  0.358223  0.393297  0.476329  1
  O  O42  1  0.358223  0.106703  0.976329  1
  O  O43  1  0.641777  0.606703  0.523671  1
