# generated using pymatgen
data_Li9V5(SiO8)2
_symmetry_space_group_name_H-M   'P 1'
_cell_length_a   5.10471759
_cell_length_b   5.11518558
_cell_length_c   11.31757526
_cell_angle_alpha   80.90081213
_cell_angle_beta   85.31680802
_cell_angle_gamma   80.34114683
_symmetry_Int_Tables_number   1
_chemical_formula_structural   Li9V5(SiO8)2
_chemical_formula_sum   'Li9 V5 Si2 O16'
_cell_volume   287.20300419
_cell_formula_units_Z   1
loop_
 _symmetry_equiv_pos_site_id
 _symmetry_equiv_pos_as_xyz
  1  'x, y, z'
loop_
 _atom_site_type_symbol
 _atom_site_label
 _atom_site_symmetry_multiplicity
 _atom_site_fract_x
 _atom_site_fract_y
 _atom_site_fract_z
 _atom_site_occupancy
  Li  Li0  1  0.747146  0.927246  0.559511  1
  Li  Li1  1  0.241202  0.816191  0.676451  1
  Li  Li2  1  0.747369  0.684320  0.807620  1
  Li  Li3  1  0.252907  0.564347  0.940767  1
  Li  Li4  1  0.747093  0.435653  0.059233  1
  Li  Li5  1  0.252631  0.315680  0.192380  1
  Li  Li6  1  0.758798  0.183809  0.323549  1
  Li  Li7  1  0.252854  0.072754  0.440489  1
  Li  Li8  1  0.500000  0.500000  0.500000  1
  V  V9  1  0.497377  0.261710  0.737387  1
  V  V10  1  0.001488  0.130564  0.867729  1
  V  V11  1  0.500000  0.000000  0.000000  1
  V  V12  1  0.998512  0.869436  0.132271  1
  V  V13  1  0.502623  0.738290  0.262613  1
  Si  Si14  1  0.996345  0.380238  0.615988  1
  Si  Si15  1  0.003655  0.619762  0.384012  1
  O  O16  1  0.664855  0.562419  0.651623  1
  O  O17  1  0.329995  0.183521  0.598645  1
  O  O18  1  0.373391  0.926032  0.843954  1
  O  O19  1  0.883255  0.080030  0.700298  1
  O  O20  1  0.108499  0.459342  0.758635  1
  O  O21  1  0.872697  0.801212  0.967199  1
  O  O22  1  0.629890  0.331542  0.896819  1
  O  O23  1  0.127303  0.198788  0.032801  1
  O  O24  1  0.370110  0.668458  0.103181  1
  O  O25  1  0.891501  0.540658  0.241365  1
  O  O26  1  0.626609  0.073968  0.156046  1
  O  O27  1  0.335145  0.437581  0.348377  1
  O  O28  1  0.670005  0.816479  0.401355  1
  O  O29  1  0.116745  0.919970  0.299702  1
  O  O30  1  0.098955  0.678688  0.527286  1
  O  O31  1  0.901045  0.321312  0.472714  1
