# generated using pymatgen
data_CrFe(PO4)2
_symmetry_space_group_name_H-M   'P 1'
_cell_length_a   8.39419807
_cell_length_b   8.39419807
_cell_length_c   8.39419807
_cell_angle_alpha   61.67432411
_cell_angle_beta   61.67432411
_cell_angle_gamma   61.67432411
_symmetry_Int_Tables_number   1
_chemical_formula_structural   CrFe(PO4)2
_chemical_formula_sum   'Cr3 Fe3 P6 O24'
_cell_volume   433.93702036
_cell_formula_units_Z   3
loop_
 _symmetry_equiv_pos_site_id
 _symmetry_equiv_pos_as_xyz
  1  'x, y, z'
loop_
 _atom_site_type_symbol
 _atom_site_label
 _atom_site_symmetry_multiplicity
 _atom_site_fract_x
 _atom_site_fract_y
 _atom_site_fract_z
 _atom_site_occupancy
  Cr  Cr0  1  0.998891  0.998891  0.998891  1
  Cr  Cr1  1  0.142173  0.142173  0.142173  1
  Cr  Cr2  1  0.500571  0.500571  0.500571  1
  Fe  Fe3  1  0.646979  0.646979  0.646979  1
  Fe  Fe4  1  0.853568  0.853568  0.853568  1
  Fe  Fe5  1  0.352973  0.352973  0.352973  1
  P  P6  1  0.952209  0.250260  0.546021  1
  P  P7  1  0.546021  0.952209  0.250260  1
  P  P8  1  0.250260  0.546021  0.952209  1
  P  P9  1  0.750202  0.451665  0.049977  1
  P  P10  1  0.451665  0.049977  0.750202  1
  P  P11  1  0.049977  0.750202  0.451665  1
  O  O12  1  0.505991  0.105606  0.324686  1
  O  O13  1  0.324686  0.505991  0.105606  1
  O  O14  1  0.105606  0.324686  0.505991  1
  O  O15  1  0.939459  0.093928  0.749888  1
  O  O16  1  0.992909  0.179912  0.390259  1
  O  O17  1  0.747906  0.405409  0.563192  1
  O  O18  1  0.749888  0.939459  0.093928  1
  O  O19  1  0.563192  0.747906  0.405409  1
  O  O20  1  0.824742  0.605963  0.006316  1
  O  O21  1  0.405409  0.563192  0.747906  1
  O  O22  1  0.906991  0.247928  0.062734  1
  O  O23  1  0.605963  0.006316  0.824742  1
  O  O24  1  0.390259  0.992909  0.179912  1
  O  O25  1  0.093928  0.749888  0.939459  1
  O  O26  1  0.594941  0.437838  0.252685  1
  O  O27  1  0.179912  0.390259  0.992909  1
  O  O28  1  0.437838  0.252685  0.594941  1
  O  O29  1  0.247928  0.062734  0.906991  1
  O  O30  1  0.252685  0.594941  0.437838  1
  O  O31  1  0.006316  0.824742  0.605963  1
  O  O32  1  0.062734  0.906991  0.247928  1
  O  O33  1  0.894646  0.678183  0.492387  1
  O  O34  1  0.678183  0.492387  0.894646  1
  O  O35  1  0.492387  0.894646  0.678183  1
