# generated using pymatgen
data_LiFe2(BO3)2
_symmetry_space_group_name_H-M   'P 1'
_cell_length_a   5.21643627
_cell_length_b   9.14071685
_cell_length_c   10.17925138
_cell_angle_alpha   88.84217130
_cell_angle_beta   88.88603990
_cell_angle_gamma   89.54309416
_symmetry_Int_Tables_number   1
_chemical_formula_structural   LiFe2(BO3)2
_chemical_formula_sum   'Li4 Fe8 B8 O24'
_cell_volume   485.16196003
_cell_formula_units_Z   4
loop_
 _symmetry_equiv_pos_site_id
 _symmetry_equiv_pos_as_xyz
  1  'x, y, z'
loop_
 _atom_site_type_symbol
 _atom_site_label
 _atom_site_symmetry_multiplicity
 _atom_site_fract_x
 _atom_site_fract_y
 _atom_site_fract_z
 _atom_site_occupancy
  Li  Li0  1  0.152245  0.173184  0.651110  1
  Li  Li1  1  0.332195  0.329927  0.400340  1
  Li  Li2  1  0.332011  0.315717  0.925140  1
  Li  Li3  1  0.660857  0.675169  0.654905  1
  Fe  Fe4  1  0.160778  0.837340  0.629530  1
  Fe  Fe5  1  0.176083  0.503110  0.137831  1
  Fe  Fe6  1  0.314094  0.989410  0.881704  1
  Fe  Fe7  1  0.334843  0.671921  0.371255  1
  Fe  Fe8  1  0.662861  0.342031  0.628118  1
  Fe  Fe9  1  0.670298  0.003245  0.125931  1
  Fe  Fe10  1  0.843626  0.150902  0.372688  1
  Fe  Fe11  1  0.829092  0.499813  0.888832  1
  B  B12  1  0.161243  0.505053  0.623865  1
  B  B13  1  0.165791  0.836580  0.131909  1
  B  B14  1  0.344126  0.001192  0.384311  1
  B  B15  1  0.325351  0.656892  0.864462  1
  B  B16  1  0.665014  0.000118  0.631857  1
  B  B17  1  0.668730  0.327912  0.123421  1
  B  B18  1  0.827258  0.494948  0.382378  1
  B  B19  1  0.827409  0.175478  0.878163  1
  O  O20  1  0.095680  0.498931  0.355806  1
  O  O21  1  0.088880  0.171204  0.857367  1
  O  O22  1  0.199053  0.782803  0.822201  1
  O  O23  1  0.236181  0.868417  0.432604  1
  O  O24  1  0.215864  0.130302  0.402613  1
  O  O25  1  0.191492  0.536160  0.915627  1
  O  O26  1  0.285232  0.372519  0.613509  1
  O  O27  1  0.323644  0.946209  0.081202  1
  O  O28  1  0.289529  0.635378  0.586028  1
  O  O29  1  0.281865  0.709611  0.183816  1
  O  O30  1  0.407668  0.334697  0.118126  1
  O  O31  1  0.399449  0.000938  0.662845  1
  O  O32  1  0.583696  0.994536  0.324539  1
  O  O33  1  0.585959  0.647416  0.849895  1
  O  O34  1  0.691368  0.307087  0.844757  1
  O  O35  1  0.714774  0.361351  0.415575  1
  O  O36  1  0.684672  0.620238  0.381147  1
  O  O37  1  0.683609  0.060455  0.926730  1
  O  O38  1  0.814670  0.448996  0.079894  1
  O  O39  1  0.796862  0.868950  0.632858  1
  O  O40  1  0.787564  0.129503  0.599960  1
  O  O41  1  0.796475  0.201310  0.164101  1
  O  O42  1  0.908216  0.848758  0.127791  1
  O  O43  1  0.910660  0.513872  0.671751  1
