# generated using pymatgen
data_AlH11SO10
_symmetry_space_group_name_H-M   'P 1'
_cell_length_a   8.15689909
_cell_length_b   12.62794585
_cell_length_c   10.47914081
_cell_angle_alpha   90.00000000
_cell_angle_beta   128.19979618
_cell_angle_gamma   90.00000000
_symmetry_Int_Tables_number   1
_chemical_formula_structural   AlH11SO10
_chemical_formula_sum   'Al4 H44 S4 O40'
_cell_volume   848.25838080
_cell_formula_units_Z   4
loop_
 _symmetry_equiv_pos_site_id
 _symmetry_equiv_pos_as_xyz
  1  'x, y, z'
loop_
 _atom_site_type_symbol
 _atom_site_label
 _atom_site_symmetry_multiplicity
 _atom_site_fract_x
 _atom_site_fract_y
 _atom_site_fract_z
 _atom_site_occupancy
  Al  Al0  1  0.039836  0.991784  0.883633  1
  Al  Al1  1  0.039836  0.508216  0.383633  1
  Al  Al2  1  0.960164  0.008216  0.116367  1
  Al  Al3  1  0.960164  0.491784  0.616367  1
  H  H4  1  0.016987  0.166450  0.990749  1
  H  H5  1  0.016987  0.333550  0.490749  1
  H  H6  1  0.983013  0.833550  0.009251  1
  H  H7  1  0.983013  0.666450  0.509251  1
  H  H8  1  0.174691  0.102158  0.757540  1
  H  H9  1  0.174691  0.397842  0.257540  1
  H  H10  1  0.825309  0.897842  0.242460  1
  H  H11  1  0.825309  0.602158  0.742460  1
  H  H12  1  0.919387  0.120966  0.646122  1
  H  H13  1  0.919387  0.379034  0.146122  1
  H  H14  1  0.080613  0.879034  0.353878  1
  H  H15  1  0.080613  0.620966  0.853878  1
  H  H16  1  0.177952  0.807357  0.876751  1
  H  H17  1  0.177952  0.692643  0.376751  1
  H  H18  1  0.822048  0.192643  0.123249  1
  H  H19  1  0.822048  0.307357  0.623249  1
  H  H20  1  0.031151  0.854965  0.692897  1
  H  H21  1  0.031151  0.645035  0.192897  1
  H  H22  1  0.968849  0.145035  0.307103  1
  H  H23  1  0.968849  0.354965  0.807103  1
  H  H24  1  0.439877  0.969348  0.102967  1
  H  H25  1  0.439877  0.530652  0.602967  1
  H  H26  1  0.560123  0.030652  0.897033  1
  H  H27  1  0.560123  0.469348  0.397033  1
  H  H28  1  0.381224  0.093890  0.094737  1
  H  H29  1  0.381224  0.406110  0.594737  1
  H  H30  1  0.618776  0.906110  0.905263  1
  H  H31  1  0.618776  0.593890  0.405263  1
  H  H32  1  0.690307  0.934688  0.602907  1
  H  H33  1  0.690307  0.565312  0.102907  1
  H  H34  1  0.309693  0.065312  0.397093  1
  H  H35  1  0.309693  0.434688  0.897093  1
  H  H36  1  0.644604  0.024501  0.685913  1
  H  H37  1  0.644604  0.475499  0.185913  1
  H  H38  1  0.355396  0.975499  0.314087  1
  H  H39  1  0.355396  0.524501  0.814087  1
  H  H40  1  0.374213  0.703041  0.095438  1
  H  H41  1  0.374213  0.796959  0.595438  1
  H  H42  1  0.625787  0.296959  0.904562  1
  H  H43  1  0.625787  0.203041  0.404562  1
  H  H44  1  0.391063  0.678327  0.955633  1
  H  H45  1  0.391063  0.821673  0.455633  1
  H  H46  1  0.608937  0.321673  0.044367  1
  H  H47  1  0.608937  0.178327  0.544367  1
  S  S48  1  0.649388  0.684553  0.860750  1
  S  S49  1  0.649388  0.815447  0.360750  1
  S  S50  1  0.350612  0.315447  0.139250  1
  S  S51  1  0.350612  0.184553  0.639250  1
  O  O52  1  0.963824  0.093055  0.969319  1
  O  O53  1  0.963824  0.406945  0.469319  1
  O  O54  1  0.036176  0.906945  0.030681  1
  O  O55  1  0.036176  0.593055  0.530681  1
  O  O56  1  0.042745  0.081637  0.739425  1
  O  O57  1  0.042745  0.418363  0.239425  1
  O  O58  1  0.957255  0.918363  0.260575  1
  O  O59  1  0.957255  0.581637  0.760575  1
  O  O60  1  0.108370  0.873333  0.809279  1
  O  O61  1  0.108370  0.626667  0.309279  1
  O  O62  1  0.891630  0.126667  0.190721  1
  O  O63  1  0.891630  0.373333  0.690721  1
  O  O64  1  0.334066  0.025236  0.034840  1
  O  O65  1  0.334066  0.474764  0.534840  1
  O  O66  1  0.665934  0.974764  0.965160  1
  O  O67  1  0.665934  0.525236  0.465160  1
  O  O68  1  0.746116  0.969479  0.708534  1
  O  O69  1  0.746116  0.530521  0.208534  1
  O  O70  1  0.253884  0.030521  0.291466  1
  O  O71  1  0.253884  0.469479  0.791466  1
  O  O72  1  0.535812  0.787474  0.803995  1
  O  O73  1  0.535812  0.712526  0.303995  1
  O  O74  1  0.464188  0.212526  0.196005  1
  O  O75  1  0.464188  0.287474  0.696005  1
  O  O76  1  0.557812  0.616443  0.921947  1
  O  O77  1  0.557812  0.883557  0.421947  1
  O  O78  1  0.442188  0.383557  0.078053  1
  O  O79  1  0.442188  0.116443  0.578053  1
  O  O80  1  0.616813  0.629182  0.721028  1
  O  O81  1  0.616813  0.870818  0.221028  1
  O  O82  1  0.383187  0.370818  0.278972  1
  O  O83  1  0.383187  0.129182  0.778972  1
  O  O84  1  0.875633  0.700420  0.993933  1
  O  O85  1  0.875633  0.799580  0.493933  1
  O  O86  1  0.124367  0.299580  0.006067  1
  O  O87  1  0.124367  0.200420  0.506067  1
  O  O88  1  0.290191  0.697613  0.974867  1
  O  O89  1  0.290191  0.802387  0.474867  1
  O  O90  1  0.709809  0.302387  0.025133  1
  O  O91  1  0.709809  0.197613  0.525133  1
