# generated using pymatgen
data_Lu(CuO2)2
_symmetry_space_group_name_H-M   'P 1'
_cell_length_a   6.18874979
_cell_length_b   6.18874979
_cell_length_c   6.18874979
_cell_angle_alpha   126.25999011
_cell_angle_beta   126.25999011
_cell_angle_gamma   79.46124832
_symmetry_Int_Tables_number   1
_chemical_formula_structural   Lu(CuO2)2
_chemical_formula_sum   'Lu2 Cu4 O8'
_cell_volume   148.95079575
_cell_formula_units_Z   2
loop_
 _symmetry_equiv_pos_site_id
 _symmetry_equiv_pos_as_xyz
  1  'x, y, z'
loop_
 _atom_site_type_symbol
 _atom_site_label
 _atom_site_symmetry_multiplicity
 _atom_site_fract_x
 _atom_site_fract_y
 _atom_site_fract_z
 _atom_site_occupancy
  Lu  Lu0  1  0.000000  0.000000  0.000000  1
  Lu  Lu1  1  0.750000  0.250000  0.500000  1
  Cu  Cu2  1  0.875000  0.625000  0.250000  1
  Cu  Cu3  1  0.375000  0.625000  0.750000  1
  Cu  Cu4  1  0.375000  0.125000  0.750000  1
  Cu  Cu5  1  0.375000  0.625000  0.250000  1
  O  O6  1  0.404903  0.256026  0.554430  1
  O  O7  1  0.048405  0.399527  0.054430  1
  O  O8  1  0.006026  0.951595  0.351123  1
  O  O9  1  0.149527  0.595097  0.851123  1
  O  O10  1  0.600473  0.654903  0.648877  1
  O  O11  1  0.743974  0.298405  0.148877  1
  O  O12  1  0.701595  0.850473  0.445570  1
  O  O13  1  0.345097  0.993974  0.945570  1
