# generated using pymatgen
data_V6O5F8
_symmetry_space_group_name_H-M   'P 1'
_cell_length_a   4.97214164
_cell_length_b   5.10341401
_cell_length_c   31.02273776
_cell_angle_alpha   90.00000000
_cell_angle_beta   91.88226256
_cell_angle_gamma   90.00000000
_symmetry_Int_Tables_number   1
_chemical_formula_structural   V6O5F8
_chemical_formula_sum   'V24 O20 F32'
_cell_volume   786.77403691
_cell_formula_units_Z   4
loop_
 _symmetry_equiv_pos_site_id
 _symmetry_equiv_pos_as_xyz
  1  'x, y, z'
loop_
 _atom_site_type_symbol
 _atom_site_label
 _atom_site_symmetry_multiplicity
 _atom_site_fract_x
 _atom_site_fract_y
 _atom_site_fract_z
 _atom_site_occupancy
  V  V0  1  0.705861  0.254913  0.000647  1
  V  V1  1  0.705861  0.245087  0.500647  1
  V  V2  1  0.709317  0.713527  0.256562  1
  V  V3  1  0.709317  0.786473  0.756562  1
  V  V4  1  0.728931  0.205445  0.661690  1
  V  V5  1  0.692531  0.268284  0.339164  1
  V  V6  1  0.692531  0.231716  0.839164  1
  V  V7  1  0.728931  0.294555  0.161690  1
  V  V8  1  0.708586  0.708794  0.081398  1
  V  V9  1  0.708586  0.791206  0.581398  1
  V  V10  1  0.696603  0.706554  0.418439  1
  V  V11  1  0.696603  0.793446  0.918439  1
  V  V12  1  0.303397  0.206554  0.081561  1
  V  V13  1  0.291414  0.291206  0.918602  1
  V  V14  1  0.291414  0.208794  0.418602  1
  V  V15  1  0.303397  0.293446  0.581561  1
  V  V16  1  0.307469  0.768284  0.160836  1
  V  V17  1  0.271069  0.705445  0.838310  1
  V  V18  1  0.307469  0.731716  0.660836  1
  V  V19  1  0.271069  0.794555  0.338310  1
  V  V20  1  0.290683  0.286473  0.743438  1
  V  V21  1  0.290683  0.213527  0.243438  1
  V  V22  1  0.294139  0.754913  0.499353  1
  V  V23  1  0.294139  0.745087  0.999353  1
  O  O24  1  0.514595  0.000253  0.291142  1
  O  O25  1  0.514595  0.499747  0.791142  1
  O  O26  1  0.527175  0.503572  0.877051  1
  O  O27  1  0.550124  0.501616  0.626236  1
  O  O28  1  0.527175  0.996428  0.377051  1
  O  O29  1  0.550124  0.998384  0.126236  1
  O  O30  1  0.519878  0.528249  0.541607  1
  O  O31  1  0.520488  0.529652  0.958967  1
  O  O32  1  0.519878  0.971751  0.041607  1
  O  O33  1  0.520488  0.970348  0.458967  1
  O  O34  1  0.479512  0.029652  0.541033  1
  O  O35  1  0.479512  0.470348  0.041033  1
  O  O36  1  0.480122  0.471751  0.458393  1
  O  O37  1  0.480122  0.028249  0.958393  1
  O  O38  1  0.449876  0.001616  0.873764  1
  O  O39  1  0.449876  0.498384  0.373764  1
  O  O40  1  0.472825  0.003572  0.622949  1
  O  O41  1  0.472825  0.496428  0.122949  1
  O  O42  1  0.485405  0.500253  0.208858  1
  O  O43  1  0.485405  0.999747  0.708858  1
  F  F44  1  0.966623  0.614302  0.034878  1
  F  F45  1  0.972036  0.613337  0.464595  1
  F  F46  1  0.966623  0.885698  0.534878  1
  F  F47  1  0.972036  0.886663  0.964595  1
  F  F48  1  0.945717  0.370275  0.106903  1
  F  F49  1  0.929593  0.377197  0.392417  1
  F  F50  1  0.945717  0.129725  0.606903  1
  F  F51  1  0.929593  0.122803  0.892417  1
  F  F52  1  0.951645  0.618253  0.176107  1
  F  F53  1  0.889720  0.620949  0.317571  1
  F  F54  1  0.889720  0.879051  0.817571  1
  F  F55  1  0.951645  0.881747  0.676107  1
  F  F56  1  0.932302  0.373261  0.249725  1
  F  F57  1  0.932302  0.126739  0.749725  1
  F  F58  1  0.581464  0.506055  0.709135  1
  F  F59  1  0.581464  0.993945  0.209135  1
  F  F60  1  0.418536  0.493945  0.290865  1
  F  F61  1  0.418536  0.006055  0.790865  1
  F  F62  1  0.067698  0.626739  0.750275  1
  F  F63  1  0.067698  0.873261  0.250275  1
  F  F64  1  0.110280  0.120949  0.182429  1
  F  F65  1  0.048355  0.381747  0.823893  1
  F  F66  1  0.048355  0.118253  0.323893  1
  F  F67  1  0.110280  0.379051  0.682429  1
  F  F68  1  0.070407  0.622803  0.607583  1
  F  F69  1  0.070407  0.877197  0.107583  1
  F  F70  1  0.054283  0.629725  0.893097  1
  F  F71  1  0.054283  0.870275  0.393097  1
  F  F72  1  0.033377  0.114302  0.465122  1
  F  F73  1  0.027964  0.113337  0.035405  1
  F  F74  1  0.027964  0.386663  0.535405  1
  F  F75  1  0.033377  0.385698  0.965122  1
