# generated using pymatgen
data_Rb4FeO4
_symmetry_space_group_name_H-M   'P 1'
_cell_length_a   6.73424521
_cell_length_b   6.74297502
_cell_length_c   9.96107431
_cell_angle_alpha   86.77156784
_cell_angle_beta   109.56042940
_cell_angle_gamma   112.62462695
_symmetry_Int_Tables_number   1
_chemical_formula_structural   Rb4FeO4
_chemical_formula_sum   'Rb8 Fe2 O8'
_cell_volume   392.04911955
_cell_formula_units_Z   2
loop_
 _symmetry_equiv_pos_site_id
 _symmetry_equiv_pos_as_xyz
  1  'x, y, z'
loop_
 _atom_site_type_symbol
 _atom_site_label
 _atom_site_symmetry_multiplicity
 _atom_site_fract_x
 _atom_site_fract_y
 _atom_site_fract_z
 _atom_site_occupancy
  Rb  Rb0  1  0.797785  0.752853  0.029957  1
  Rb  Rb1  1  0.950539  0.723632  0.435699  1
  Rb  Rb2  1  0.246770  0.752709  0.846624  1
  Rb  Rb3  1  0.590316  0.785072  0.624578  1
  Rb  Rb4  1  0.409684  0.214928  0.375422  1
  Rb  Rb5  1  0.753230  0.247291  0.153376  1
  Rb  Rb6  1  0.049461  0.276368  0.564301  1
  Rb  Rb7  1  0.202215  0.247147  0.970043  1
  Fe  Fe8  1  0.408776  0.732374  0.248045  1
  Fe  Fe9  1  0.591224  0.267626  0.751955  1
  O  O10  1  0.267948  0.886767  0.122055  1
  O  O11  1  0.675566  0.954224  0.359551  1
  O  O12  1  0.525911  0.551285  0.196226  1
  O  O13  1  0.797948  0.447285  0.669586  1
  O  O14  1  0.202052  0.552715  0.330414  1
  O  O15  1  0.474089  0.448715  0.803774  1
  O  O16  1  0.324434  0.045776  0.640449  1
  O  O17  1  0.732052  0.113233  0.877945  1
