# generated using pymatgen
data_Li2Fe2B2O7
_symmetry_space_group_name_H-M   'P 1'
_cell_length_a   5.28990337
_cell_length_b   12.12774383
_cell_length_c   9.45928327
_cell_angle_alpha   90.00000000
_cell_angle_beta   123.48305382
_cell_angle_gamma   90.00000000
_symmetry_Int_Tables_number   1
_chemical_formula_structural   Li2Fe2B2O7
_chemical_formula_sum   'Li8 Fe8 B8 O28'
_cell_volume   506.14804820
_cell_formula_units_Z   4
loop_
 _symmetry_equiv_pos_site_id
 _symmetry_equiv_pos_as_xyz
  1  'x, y, z'
loop_
 _atom_site_type_symbol
 _atom_site_label
 _atom_site_symmetry_multiplicity
 _atom_site_fract_x
 _atom_site_fract_y
 _atom_site_fract_z
 _atom_site_occupancy
  Li  Li0  1  0.729107  0.341257  0.873593  1
  Li  Li1  1  0.014026  0.745460  0.818280  1
  Li  Li2  1  0.985974  0.245460  0.681720  1
  Li  Li3  1  0.270893  0.841257  0.626407  1
  Li  Li4  1  0.729107  0.158743  0.373593  1
  Li  Li5  1  0.014026  0.754540  0.318280  1
  Li  Li6  1  0.985974  0.254540  0.181720  1
  Li  Li7  1  0.270893  0.658743  0.126407  1
  Fe  Fe8  1  0.551647  0.094807  0.894217  1
  Fe  Fe9  1  0.185962  0.488336  0.802954  1
  Fe  Fe10  1  0.814038  0.988336  0.697046  1
  Fe  Fe11  1  0.448353  0.594807  0.605783  1
  Fe  Fe12  1  0.551647  0.405193  0.394217  1
  Fe  Fe13  1  0.185962  0.011664  0.302954  1
  Fe  Fe14  1  0.814038  0.511664  0.197046  1
  Fe  Fe15  1  0.448353  0.905193  0.105783  1
  B  B16  1  0.779700  0.881400  0.970520  1
  B  B17  1  0.626221  0.678224  0.958100  1
  B  B18  1  0.373779  0.178224  0.541900  1
  B  B19  1  0.220300  0.381400  0.529480  1
  B  B20  1  0.779700  0.618600  0.470520  1
  B  B21  1  0.626221  0.821776  0.458100  1
  B  B22  1  0.373779  0.321776  0.041900  1
  B  B23  1  0.220300  0.118600  0.029480  1
  O  O24  1  0.567018  0.799325  0.969088  1
  O  O25  1  0.939489  0.164695  0.989552  1
  O  O26  1  0.196549  0.032843  0.902529  1
  O  O27  1  0.356060  0.618348  0.936996  1
  O  O28  1  0.098440  0.358214  0.876437  1
  O  O29  1  0.671799  0.663085  0.820323  1
  O  O30  1  0.607549  0.944782  0.804723  1
  O  O31  1  0.392451  0.444782  0.695277  1
  O  O32  1  0.328201  0.163085  0.679677  1
  O  O33  1  0.901560  0.858214  0.623563  1
  O  O34  1  0.643940  0.118348  0.563004  1
  O  O35  1  0.803451  0.532843  0.597471  1
  O  O36  1  0.060511  0.664695  0.510448  1
  O  O37  1  0.432982  0.299325  0.530912  1
  O  O38  1  0.567018  0.700675  0.469088  1
  O  O39  1  0.939489  0.335305  0.489552  1
  O  O40  1  0.196549  0.467157  0.402529  1
  O  O41  1  0.356060  0.881652  0.436996  1
  O  O42  1  0.098440  0.141786  0.376437  1
  O  O43  1  0.671799  0.836915  0.320323  1
  O  O44  1  0.607549  0.555218  0.304723  1
  O  O45  1  0.392451  0.055218  0.195277  1
  O  O46  1  0.328201  0.336915  0.179677  1
  O  O47  1  0.901560  0.641786  0.123563  1
  O  O48  1  0.643940  0.381652  0.063004  1
  O  O49  1  0.803451  0.967157  0.097471  1
  O  O50  1  0.060511  0.835305  0.010448  1
  O  O51  1  0.432982  0.200675  0.030912  1
