# generated using pymatgen
data_V(CO3)2
_symmetry_space_group_name_H-M   'P 1'
_cell_length_a   4.62585553
_cell_length_b   6.15939970
_cell_length_c   8.66506364
_cell_angle_alpha   90.00000000
_cell_angle_beta   119.84505700
_cell_angle_gamma   90.00000000
_symmetry_Int_Tables_number   1
_chemical_formula_structural   V(CO3)2
_chemical_formula_sum   'V2 C4 O12'
_cell_volume   214.14542160
_cell_formula_units_Z   2
loop_
 _symmetry_equiv_pos_site_id
 _symmetry_equiv_pos_as_xyz
  1  'x, y, z'
loop_
 _atom_site_type_symbol
 _atom_site_label
 _atom_site_symmetry_multiplicity
 _atom_site_fract_x
 _atom_site_fract_y
 _atom_site_fract_z
 _atom_site_occupancy
  V  V0  1  0.500000  0.500000  0.500000  1
  V  V1  1  0.500000  0.000000  0.000000  1
  C  C2  1  0.769628  0.858293  0.760809  1
  C  C3  1  0.769628  0.641707  0.260809  1
  C  C4  1  0.230372  0.358293  0.739191  1
  C  C5  1  0.230372  0.141707  0.239191  1
  O  O6  1  0.707108  0.775897  0.610666  1
  O  O7  1  0.079695  0.862038  0.888733  1
  O  O8  1  0.538291  0.565735  0.284229  1
  O  O9  1  0.461709  0.065735  0.215771  1
  O  O10  1  0.920305  0.362038  0.611267  1
  O  O11  1  0.292892  0.275897  0.889334  1
  O  O12  1  0.707108  0.724103  0.110666  1
  O  O13  1  0.079695  0.637962  0.388733  1
  O  O14  1  0.538291  0.934265  0.784229  1
  O  O15  1  0.461709  0.434265  0.715771  1
  O  O16  1  0.920305  0.137962  0.111267  1
  O  O17  1  0.292892  0.224103  0.389334  1
