# generated using pymatgen
data_Na3FeSiBO7
_symmetry_space_group_name_H-M   'P 1'
_cell_length_a   5.27729725
_cell_length_b   6.69508361
_cell_length_c   8.96209528
_cell_angle_alpha   90.00000000
_cell_angle_beta   91.93078803
_cell_angle_gamma   90.00000000
_symmetry_Int_Tables_number   1
_chemical_formula_structural   Na3FeSiBO7
_chemical_formula_sum   'Na6 Fe2 Si2 B2 O14'
_cell_volume   316.46849412
_cell_formula_units_Z   2
loop_
 _symmetry_equiv_pos_site_id
 _symmetry_equiv_pos_as_xyz
  1  'x, y, z'
loop_
 _atom_site_type_symbol
 _atom_site_label
 _atom_site_symmetry_multiplicity
 _atom_site_fract_x
 _atom_site_fract_y
 _atom_site_fract_z
 _atom_site_occupancy
  Na  Na0  1  0.232554  0.750000  0.089001  1
  Na  Na1  1  0.741081  0.990995  0.266705  1
  Na  Na2  1  0.741081  0.509005  0.266705  1
  Na  Na3  1  0.258919  0.490995  0.733295  1
  Na  Na4  1  0.258919  0.009005  0.733295  1
  Na  Na5  1  0.767446  0.250000  0.910999  1
  Fe  Fe6  1  0.212005  0.250000  0.342575  1
  Fe  Fe7  1  0.787995  0.750000  0.657425  1
  Si  Si8  1  0.279183  0.750000  0.422912  1
  Si  Si9  1  0.720817  0.250000  0.577088  1
  B  B10  1  0.269831  0.250000  0.065169  1
  B  B11  1  0.730169  0.750000  0.934831  1
  O  O12  1  0.688432  0.750000  0.082210  1
  O  O13  1  0.033318  0.250000  0.126631  1
  O  O14  1  0.464747  0.250000  0.174327  1
  O  O15  1  0.214687  0.945118  0.317125  1
  O  O16  1  0.214687  0.554882  0.317125  1
  O  O17  1  0.586258  0.750000  0.471382  1
  O  O18  1  0.878728  0.250000  0.422449  1
  O  O19  1  0.121272  0.750000  0.577551  1
  O  O20  1  0.413742  0.250000  0.528618  1
  O  O21  1  0.785313  0.445118  0.682875  1
  O  O22  1  0.785313  0.054882  0.682875  1
  O  O23  1  0.535253  0.750000  0.825673  1
  O  O24  1  0.966682  0.750000  0.873369  1
  O  O25  1  0.311568  0.250000  0.917790  1
