# generated using pymatgen
data_BaB2H2O5
_symmetry_space_group_name_H-M   'P 1'
_cell_length_a   7.05629264
_cell_length_b   7.24335224
_cell_length_c   11.98664900
_cell_angle_alpha   90.00000000
_cell_angle_beta   90.98564548
_cell_angle_gamma   90.00000000
_symmetry_Int_Tables_number   1
_chemical_formula_structural   BaB2H2O5
_chemical_formula_sum   'Ba6 B12 H12 O30'
_cell_volume   612.56152130
_cell_formula_units_Z   6
loop_
 _symmetry_equiv_pos_site_id
 _symmetry_equiv_pos_as_xyz
  1  'x, y, z'
loop_
 _atom_site_type_symbol
 _atom_site_label
 _atom_site_symmetry_multiplicity
 _atom_site_fract_x
 _atom_site_fract_y
 _atom_site_fract_z
 _atom_site_occupancy
  Ba  Ba0  1  0.000000  0.370745  0.250000  1
  Ba  Ba1  1  0.000000  0.629255  0.750000  1
  Ba  Ba2  1  0.680448  0.774052  0.446319  1
  Ba  Ba3  1  0.680448  0.225948  0.946319  1
  Ba  Ba4  1  0.319552  0.774052  0.053681  1
  Ba  Ba5  1  0.319552  0.225948  0.553681  1
  B  B6  1  0.000000  0.860620  0.250000  1
  B  B7  1  0.000000  0.139380  0.750000  1
  B  B8  1  0.826210  0.763257  0.066322  1
  B  B9  1  0.826210  0.236743  0.566322  1
  B  B10  1  0.663671  0.001267  0.198280  1
  B  B11  1  0.663671  0.998733  0.698280  1
  B  B12  1  0.500000  0.308982  0.250000  1
  B  B13  1  0.500000  0.691018  0.750000  1
  B  B14  1  0.336329  0.001267  0.301720  1
  B  B15  1  0.336329  0.998733  0.801720  1
  B  B16  1  0.173790  0.763257  0.433678  1
  B  B17  1  0.173790  0.236743  0.933678  1
  H  H18  1  0.882910  0.114506  0.409799  1
  H  H19  1  0.882910  0.885494  0.909799  1
  H  H20  1  0.644041  0.552526  0.118660  1
  H  H21  1  0.644041  0.447474  0.618660  1
  H  H22  1  0.644380  0.383242  0.395208  1
  H  H23  1  0.644380  0.616758  0.895208  1
  H  H24  1  0.355620  0.383242  0.104792  1
  H  H25  1  0.355620  0.616758  0.604792  1
  H  H26  1  0.355959  0.552526  0.381340  1
  H  H27  1  0.355959  0.447474  0.881340  1
  H  H28  1  0.117090  0.114506  0.090201  1
  H  H29  1  0.117090  0.885494  0.590201  1
  O  O30  1  0.965841  0.733847  0.154525  1
  O  O31  1  0.965841  0.266153  0.654525  1
  O  O32  1  0.928185  0.216589  0.457593  1
  O  O33  1  0.928185  0.783411  0.957593  1
  O  O34  1  0.834111  0.981338  0.272784  1
  O  O35  1  0.834111  0.018662  0.772784  1
  O  O36  1  0.712486  0.583833  0.050697  1
  O  O37  1  0.698519  0.918515  0.085489  1
  O  O38  1  0.712486  0.416167  0.550697  1
  O  O39  1  0.698519  0.081485  0.585489  1
  O  O40  1  0.622948  0.200303  0.178314  1
  O  O41  1  0.615214  0.440992  0.322790  1
  O  O42  1  0.622948  0.799697  0.678314  1
  O  O43  1  0.615214  0.559008  0.822790  1
  O  O44  1  0.500000  0.907902  0.250000  1
  O  O45  1  0.500000  0.092098  0.750000  1
  O  O46  1  0.384786  0.440992  0.177210  1
  O  O47  1  0.377052  0.200303  0.321686  1
  O  O48  1  0.384786  0.559008  0.677210  1
  O  O49  1  0.377052  0.799697  0.821686  1
  O  O50  1  0.301481  0.918515  0.414511  1
  O  O51  1  0.287514  0.583833  0.449303  1
  O  O52  1  0.301481  0.081485  0.914511  1
  O  O53  1  0.287514  0.416167  0.949303  1
  O  O54  1  0.165889  0.981338  0.227216  1
  O  O55  1  0.165889  0.018662  0.727216  1
  O  O56  1  0.071815  0.216589  0.042407  1
  O  O57  1  0.071815  0.783411  0.542407  1
  O  O58  1  0.034159  0.733847  0.345475  1
  O  O59  1  0.034159  0.266153  0.845475  1
