# generated using pymatgen
data_Li24Ti7Cr5O36
_symmetry_space_group_name_H-M   'P 1'
_cell_length_a   5.06417984
_cell_length_b   9.81643836
_cell_length_c   13.43608650
_cell_angle_alpha   97.30500107
_cell_angle_beta   100.76394467
_cell_angle_gamma   94.74427339
_symmetry_Int_Tables_number   1
_chemical_formula_structural   Li24Ti7Cr5O36
_chemical_formula_sum   'Li24 Ti7 Cr5 O36'
_cell_volume   646.96335456
_cell_formula_units_Z   1
loop_
 _symmetry_equiv_pos_site_id
 _symmetry_equiv_pos_as_xyz
  1  'x, y, z'
loop_
 _atom_site_type_symbol
 _atom_site_label
 _atom_site_symmetry_multiplicity
 _atom_site_fract_x
 _atom_site_fract_y
 _atom_site_fract_z
 _atom_site_occupancy
  Li  Li0  1  0.163991  0.998545  0.834395  1
  Li  Li1  1  0.048175  0.998459  0.610877  1
  Li  Li2  1  0.999928  0.749725  0.250496  1
  Li  Li3  1  0.334587  0.749503  0.916302  1
  Li  Li4  1  0.049074  0.498958  0.113299  1
  Li  Li5  1  0.383954  0.499333  0.779787  1
  Li  Li6  1  0.168285  0.500079  0.333524  1
  Li  Li7  1  0.502614  0.499167  0.999505  1
  Li  Li8  1  0.287049  0.499661  0.552872  1
  Li  Li9  1  0.331517  0.249471  0.416945  1
  Li  Li10  1  0.494332  0.001363  0.501694  1
  Li  Li11  1  0.288284  0.001544  0.055312  1
  Li  Li12  1  0.624307  0.000905  0.720572  1
  Li  Li13  1  0.380773  0.002847  0.278929  1
  Li  Li14  1  0.710766  0.999734  0.945112  1
  Li  Li15  1  0.666936  0.750684  0.583659  1
  Li  Li16  1  0.717923  0.500686  0.447195  1
  Li  Li17  1  0.826147  0.501039  0.667285  1
  Li  Li18  1  0.612281  0.498252  0.218341  1
  Li  Li19  1  0.950398  0.501923  0.888047  1
  Li  Li20  1  0.665476  0.250366  0.082381  1
  Li  Li21  1  0.838313  0.000036  0.166180  1
  Li  Li22  1  0.999864  0.249920  0.750066  1
  Li  Li23  1  0.951136  0.997780  0.387089  1
  Ti  Ti24  1  0.117134  0.255717  0.973577  1
  Ti  Ti25  1  0.225806  0.753404  0.693311  1
  Ti  Ti26  1  0.442538  0.751592  0.140384  1
  Ti  Ti27  1  0.556011  0.749665  0.363781  1
  Ti  Ti28  1  0.776153  0.247977  0.305695  1
  Ti  Ti29  1  0.887928  0.247566  0.527622  1
  Ti  Ti30  1  0.885352  0.746721  0.025996  1
  Cr  Cr31  1  0.107437  0.748868  0.471770  1
  Cr  Cr32  1  0.218247  0.249879  0.193301  1
  Cr  Cr33  1  0.438140  0.249345  0.640886  1
  Cr  Cr34  1  0.563023  0.249964  0.859306  1
  Cr  Cr35  1  0.782113  0.750092  0.805803  1
  O  O36  1  0.999015  0.862122  0.925285  1
  O  O37  1  0.061158  0.635668  0.784553  1
  O  O38  1  0.997176  0.363633  0.428757  1
  O  O39  1  0.151573  0.363263  0.644791  1
  O  O40  1  0.265981  0.363834  0.880780  1
  O  O41  1  0.334416  0.862210  0.594091  1
  O  O42  1  0.068201  0.134453  0.285878  1
  O  O43  1  0.186935  0.136581  0.523005  1
  O  O44  1  0.403081  0.135215  0.949259  1
  O  O45  1  0.143672  0.863359  0.143164  1
  O  O46  1  0.258872  0.863514  0.384267  1
  O  O47  1  0.480672  0.861684  0.809718  1
  O  O48  1  0.331821  0.138737  0.734066  1
  O  O49  1  0.189494  0.636745  0.022342  1
  O  O50  1  0.406667  0.634037  0.452698  1
  O  O51  1  0.526698  0.637674  0.691426  1
  O  O52  1  0.332539  0.636934  0.238151  1
  O  O53  1  0.661549  0.636903  0.904407  1
  O  O54  1  0.337956  0.364255  0.094876  1
  O  O55  1  0.669077  0.360600  0.765780  1
  O  O56  1  0.473242  0.361595  0.308554  1
  O  O57  1  0.595900  0.364110  0.550637  1
  O  O58  1  0.813337  0.363706  0.977176  1
  O  O59  1  0.667898  0.863530  0.263229  1
  O  O60  1  0.518722  0.138986  0.188470  1
  O  O61  1  0.734784  0.136427  0.619796  1
  O  O62  1  0.848232  0.136998  0.856470  1
  O  O63  1  0.596908  0.865929  0.048011  1
  O  O64  1  0.809708  0.863092  0.477855  1
  O  O65  1  0.933061  0.866063  0.714299  1
  O  O66  1  0.665420  0.135278  0.404263  1
  O  O67  1  0.737155  0.634454  0.117979  1
  O  O68  1  0.861980  0.637977  0.358225  1
  O  O69  1  0.000669  0.637764  0.568965  1
  O  O70  1  0.937028  0.363923  0.213454  1
  O  O71  1  0.003408  0.137972  0.074024  1
