# generated using pymatgen
data_Li4Mn3Fe5O16
_symmetry_space_group_name_H-M   'P 1'
_cell_length_a   5.85239254
_cell_length_b   5.85239254
_cell_length_c   9.54030582
_cell_angle_alpha   89.83182742
_cell_angle_beta   90.16817258
_cell_angle_gamma   120.03155260
_symmetry_Int_Tables_number   1
_chemical_formula_structural   Li4Mn3Fe5O16
_chemical_formula_sum   'Li4 Mn3 Fe5 O16'
_cell_volume   282.89101942
_cell_formula_units_Z   1
loop_
 _symmetry_equiv_pos_site_id
 _symmetry_equiv_pos_as_xyz
  1  'x, y, z'
loop_
 _atom_site_type_symbol
 _atom_site_label
 _atom_site_symmetry_multiplicity
 _atom_site_fract_x
 _atom_site_fract_y
 _atom_site_fract_z
 _atom_site_occupancy
  Li  Li0  1  0.669475  0.330525  0.108568  1
  Li  Li1  1  0.998338  0.001662  0.003861  1
  Li  Li2  1  0.000767  0.999233  0.502481  1
  Li  Li3  1  0.333837  0.666163  0.607306  1
  Mn  Mn4  1  0.829850  0.170150  0.785177  1
  Mn  Mn5  1  0.662246  0.830997  0.285117  1
  Mn  Mn6  1  0.169003  0.337754  0.285117  1
  Fe  Fe7  1  0.829503  0.661211  0.785470  1
  Fe  Fe8  1  0.663879  0.336121  0.507363  1
  Fe  Fe9  1  0.338789  0.170497  0.785470  1
  Fe  Fe10  1  0.169586  0.830414  0.286160  1
  Fe  Fe11  1  0.330652  0.669348  0.011017  1
  O  O12  1  0.838004  0.677718  0.396357  1
  O  O13  1  0.517842  0.482158  0.658556  1
  O  O14  1  0.672049  0.327951  0.897284  1
  O  O15  1  0.994115  0.005885  0.688627  1
  O  O16  1  0.996892  0.003108  0.190941  1
  O  O17  1  0.322282  0.161996  0.396357  1
  O  O18  1  0.964174  0.473201  0.661722  1
  O  O19  1  0.526799  0.035826  0.661722  1
  O  O20  1  0.162573  0.837427  0.901880  1
  O  O21  1  0.838708  0.161292  0.396043  1
  O  O22  1  0.483843  0.960908  0.166772  1
  O  O23  1  0.039092  0.516157  0.166772  1
  O  O24  1  0.337750  0.662250  0.391086  1
  O  O25  1  0.671696  0.844444  0.899476  1
  O  O26  1  0.481921  0.518079  0.165970  1
  O  O27  1  0.155556  0.328304  0.899476  1
