# generated using pymatgen
data_Cu6OF11
_symmetry_space_group_name_H-M   'P 1'
_cell_length_a   3.29600599
_cell_length_b   6.63451604
_cell_length_c   10.17695853
_cell_angle_alpha   108.05264911
_cell_angle_beta   92.41093813
_cell_angle_gamma   95.51825200
_symmetry_Int_Tables_number   1
_chemical_formula_structural   Cu6OF11
_chemical_formula_sum   'Cu6 O1 F11'
_cell_volume   209.99960188
_cell_formula_units_Z   1
loop_
 _symmetry_equiv_pos_site_id
 _symmetry_equiv_pos_as_xyz
  1  'x, y, z'
loop_
 _atom_site_type_symbol
 _atom_site_label
 _atom_site_symmetry_multiplicity
 _atom_site_fract_x
 _atom_site_fract_y
 _atom_site_fract_z
 _atom_site_occupancy
  Cu  Cu0  1  0.498073  0.831583  0.663511  1
  Cu  Cu1  1  0.504506  0.505718  0.011283  1
  Cu  Cu2  1  0.498789  0.166677  0.333771  1
  Cu  Cu3  1  0.001079  0.335134  0.670329  1
  Cu  Cu4  1  0.015784  0.656702  0.312516  1
  Cu  Cu5  1  0.000716  0.000049  0.999655  1
  O  O6  1  0.525046  0.599196  0.200081  1
  F  F7  1  0.038293  0.627337  0.667052  1
  F  F8  1  0.043030  0.961844  0.331659  1
  F  F9  1  0.050526  0.295342  0.000974  1
  F  F10  1  0.533554  0.931826  0.863761  1
  F  F11  1  0.457012  0.733594  0.465899  1
  F  F12  1  0.463776  0.405751  0.810206  1
  F  F13  1  0.538634  0.265946  0.532910  1
  F  F14  1  0.465071  0.067454  0.134618  1
  F  F15  1  0.960176  0.039744  0.667345  1
  F  F16  1  0.952424  0.706207  0.001666  1
  F  F17  1  0.953509  0.369897  0.332765  1
