# generated using pymatgen
data_Na2BiPCO7
_symmetry_space_group_name_H-M   'P 1'
_cell_length_a   5.30161853
_cell_length_b   6.99734826
_cell_length_c   9.42033950
_cell_angle_alpha   90.00000000
_cell_angle_beta   91.85852769
_cell_angle_gamma   90.00000000
_symmetry_Int_Tables_number   1
_chemical_formula_structural   Na2BiPCO7
_chemical_formula_sum   'Na4 Bi2 P2 C2 O14'
_cell_volume   349.28505196
_cell_formula_units_Z   2
loop_
 _symmetry_equiv_pos_site_id
 _symmetry_equiv_pos_as_xyz
  1  'x, y, z'
loop_
 _atom_site_type_symbol
 _atom_site_label
 _atom_site_symmetry_multiplicity
 _atom_site_fract_x
 _atom_site_fract_y
 _atom_site_fract_z
 _atom_site_occupancy
  Na  Na0  1  0.233208  0.489780  0.213236  1
  Na  Na1  1  0.233208  0.010220  0.213236  1
  Na  Na2  1  0.766792  0.510220  0.786764  1
  Na  Na3  1  0.766792  0.989780  0.786764  1
  Bi  Bi4  1  0.776036  0.750000  0.380587  1
  Bi  Bi5  1  0.223964  0.250000  0.619413  1
  P  P6  1  0.723407  0.250000  0.402585  1
  P  P7  1  0.276593  0.750000  0.597415  1
  C  C8  1  0.729011  0.750000  0.085390  1
  C  C9  1  0.270989  0.250000  0.914610  1
  O  O10  1  0.284876  0.250000  0.047369  1
  O  O11  1  0.948214  0.750000  0.157877  1
  O  O12  1  0.528273  0.750000  0.165964  1
  O  O13  1  0.856230  0.072188  0.339413  1
  O  O14  1  0.856230  0.427812  0.339413  1
  O  O15  1  0.232870  0.750000  0.430186  1
  O  O16  1  0.436410  0.250000  0.369941  1
  O  O17  1  0.563590  0.750000  0.630059  1
  O  O18  1  0.767130  0.250000  0.569814  1
  O  O19  1  0.143770  0.572188  0.660587  1
  O  O20  1  0.143770  0.927812  0.660587  1
  O  O21  1  0.471727  0.250000  0.834036  1
  O  O22  1  0.051786  0.250000  0.842123  1
  O  O23  1  0.715124  0.750000  0.952631  1
