# generated using pymatgen
data_CaB2(H2O3)2
_symmetry_space_group_name_H-M   'P 1'
_cell_length_a   7.02523326
_cell_length_b   12.45747361
_cell_length_c   11.40489555
_cell_angle_alpha   90.00000000
_cell_angle_beta   120.39737906
_cell_angle_gamma   90.00000000
_symmetry_Int_Tables_number   1
_chemical_formula_structural   CaB2(H2O3)2
_chemical_formula_sum   'Ca8 B16 H32 O48'
_cell_volume   860.91381747
_cell_formula_units_Z   8
loop_
 _symmetry_equiv_pos_site_id
 _symmetry_equiv_pos_as_xyz
  1  'x, y, z'
loop_
 _atom_site_type_symbol
 _atom_site_label
 _atom_site_symmetry_multiplicity
 _atom_site_fract_x
 _atom_site_fract_y
 _atom_site_fract_z
 _atom_site_occupancy
  Ca  Ca0  1  0.415431  0.899291  0.635500  1
  Ca  Ca1  1  0.584569  0.399291  0.864500  1
  Ca  Ca2  1  0.063305  0.760971  0.261561  1
  Ca  Ca3  1  0.936695  0.260971  0.238439  1
  Ca  Ca4  1  0.063305  0.739029  0.761561  1
  Ca  Ca5  1  0.936695  0.239029  0.738439  1
  Ca  Ca6  1  0.415431  0.600709  0.135500  1
  Ca  Ca7  1  0.584569  0.100709  0.364500  1
  B  B8  1  0.806399  0.802709  0.904906  1
  B  B9  1  0.550785  0.664629  0.734808  1
  B  B10  1  0.345477  0.151403  0.520103  1
  B  B11  1  0.654523  0.651403  0.979897  1
  B  B12  1  0.449215  0.164629  0.765192  1
  B  B13  1  0.079782  0.008998  0.336713  1
  B  B14  1  0.920218  0.508998  0.163287  1
  B  B15  1  0.193601  0.302709  0.595094  1
  B  B16  1  0.806399  0.697291  0.404906  1
  B  B17  1  0.079782  0.491002  0.836713  1
  B  B18  1  0.920218  0.991002  0.663287  1
  B  B19  1  0.550785  0.835371  0.234808  1
  B  B20  1  0.345477  0.348597  0.020103  1
  B  B21  1  0.654523  0.848597  0.479897  1
  B  B22  1  0.449215  0.335371  0.265192  1
  B  B23  1  0.193601  0.197291  0.095094  1
  H  H24  1  0.489325  0.725014  0.510348  1
  H  H25  1  0.781967  0.189669  0.913716  1
  H  H26  1  0.229887  0.947188  0.237699  1
  H  H27  1  0.243161  0.523447  0.292146  1
  H  H28  1  0.066802  0.414825  0.081239  1
  H  H29  1  0.429507  0.549582  0.589878  1
  H  H30  1  0.988824  0.079987  0.091719  1
  H  H31  1  0.351348  0.403340  0.533001  1
  H  H32  1  0.648652  0.903340  0.966999  1
  H  H33  1  0.570493  0.049582  0.910122  1
  H  H34  1  0.218033  0.689669  0.586284  1
  H  H35  1  0.510675  0.225014  0.989652  1
  H  H36  1  0.011176  0.579987  0.408281  1
  H  H37  1  0.229887  0.552812  0.737699  1
  H  H38  1  0.933198  0.914825  0.418761  1
  H  H39  1  0.243161  0.976553  0.792146  1
  H  H40  1  0.756839  0.023447  0.207854  1
  H  H41  1  0.066802  0.085175  0.581239  1
  H  H42  1  0.770113  0.447188  0.262301  1
  H  H43  1  0.988824  0.420013  0.591719  1
  H  H44  1  0.489325  0.774986  0.010348  1
  H  H45  1  0.781967  0.310331  0.413716  1
  H  H46  1  0.429507  0.950418  0.089878  1
  H  H47  1  0.351348  0.096660  0.033001  1
  H  H48  1  0.648652  0.596660  0.466999  1
  H  H49  1  0.011176  0.920013  0.908281  1
  H  H50  1  0.570493  0.450418  0.410122  1
  H  H51  1  0.933198  0.585175  0.918761  1
  H  H52  1  0.756839  0.476553  0.707854  1
  H  H53  1  0.770113  0.052812  0.762301  1
  H  H54  1  0.218033  0.810331  0.086284  1
  H  H55  1  0.510675  0.274986  0.489652  1
  O  O56  1  0.717754  0.747737  0.773046  1
  O  O57  1  0.446624  0.794770  0.463008  1
  O  O58  1  0.552094  0.600464  0.623089  1
  O  O59  1  0.671674  0.218346  0.821233  1
  O  O60  1  0.132408  0.571135  0.221286  1
  O  O61  1  0.276140  0.074429  0.407633  1
  O  O62  1  0.659763  0.898503  0.884991  1
  O  O63  1  0.971523  0.155785  0.063207  1
  O  O64  1  0.597058  0.594457  0.851193  1
  O  O65  1  0.077553  0.956457  0.217195  1
  O  O66  1  0.402942  0.094457  0.648807  1
  O  O67  1  0.922214  0.420739  0.074485  1
  O  O68  1  0.340237  0.398503  0.615009  1
  O  O69  1  0.826569  0.733626  0.013763  1
  O  O70  1  0.328326  0.718346  0.678767  1
  O  O71  1  0.173431  0.233626  0.486237  1
  O  O72  1  0.447906  0.100464  0.876911  1
  O  O73  1  0.077786  0.920739  0.425515  1
  O  O74  1  0.282246  0.247737  0.726954  1
  O  O75  1  0.922447  0.456457  0.282805  1
  O  O76  1  0.028477  0.655785  0.436793  1
  O  O77  1  0.446624  0.705230  0.963008  1
  O  O78  1  0.723860  0.574429  0.092367  1
  O  O79  1  0.867592  0.071135  0.278714  1
  O  O80  1  0.132408  0.928865  0.721286  1
  O  O81  1  0.276140  0.425571  0.907633  1
  O  O82  1  0.553376  0.294770  0.036992  1
  O  O83  1  0.971523  0.344215  0.563207  1
  O  O84  1  0.077553  0.543543  0.717195  1
  O  O85  1  0.717754  0.752263  0.273046  1
  O  O86  1  0.922214  0.079261  0.574485  1
  O  O87  1  0.552094  0.899536  0.123089  1
  O  O88  1  0.826569  0.766374  0.513763  1
  O  O89  1  0.671674  0.281654  0.321233  1
  O  O90  1  0.173431  0.266374  0.986237  1
  O  O91  1  0.659763  0.601497  0.384991  1
  O  O92  1  0.077786  0.579261  0.925515  1
  O  O93  1  0.597058  0.905543  0.351193  1
  O  O94  1  0.922447  0.043543  0.782805  1
  O  O95  1  0.402942  0.405543  0.148807  1
  O  O96  1  0.028477  0.844215  0.936793  1
  O  O97  1  0.340237  0.101497  0.115009  1
  O  O98  1  0.723860  0.925571  0.592367  1
  O  O99  1  0.867592  0.428865  0.778714  1
  O  O100  1  0.328326  0.781654  0.178767  1
  O  O101  1  0.447906  0.399536  0.376911  1
  O  O102  1  0.553376  0.205230  0.536992  1
  O  O103  1  0.282246  0.252263  0.226954  1
