# generated using pymatgen
data_K3ErSi3(HO5)2
_symmetry_space_group_name_H-M   'P 1'
_cell_length_a   5.93454657
_cell_length_b   13.24106380
_cell_length_c   13.74903643
_cell_angle_alpha   90.00000000
_cell_angle_beta   90.00000000
_cell_angle_gamma   90.00000000
_symmetry_Int_Tables_number   1
_chemical_formula_structural   K3ErSi3(HO5)2
_chemical_formula_sum   'K12 Er4 Si12 H8 O40'
_cell_volume   1080.39529211
_cell_formula_units_Z   4
loop_
 _symmetry_equiv_pos_site_id
 _symmetry_equiv_pos_as_xyz
  1  'x, y, z'
loop_
 _atom_site_type_symbol
 _atom_site_label
 _atom_site_symmetry_multiplicity
 _atom_site_fract_x
 _atom_site_fract_y
 _atom_site_fract_z
 _atom_site_occupancy
  K  K0  1  0.418789  0.125528  0.750000  1
  K  K1  1  0.089172  0.138488  0.513804  1
  K  K2  1  0.089172  0.138488  0.986196  1
  K  K3  1  0.589172  0.361512  0.486196  1
  K  K4  1  0.589172  0.361512  0.013804  1
  K  K5  1  0.918789  0.374472  0.250000  1
  K  K6  1  0.081211  0.625528  0.750000  1
  K  K7  1  0.410828  0.638488  0.986196  1
  K  K8  1  0.410828  0.638488  0.513804  1
  K  K9  1  0.910828  0.861512  0.013804  1
  K  K10  1  0.910828  0.861512  0.486196  1
  K  K11  1  0.581211  0.874472  0.250000  1
  Er  Er12  1  0.090941  0.041932  0.250000  1
  Er  Er13  1  0.590942  0.458068  0.750000  1
  Er  Er14  1  0.409058  0.541932  0.250000  1
  Er  Er15  1  0.909058  0.958068  0.750000  1
  Si  Si16  1  0.591721  0.099355  0.105337  1
  Si  Si17  1  0.591721  0.099355  0.394663  1
  Si  Si18  1  0.916904  0.245658  0.750000  1
  Si  Si19  1  0.416904  0.254342  0.250000  1
  Si  Si20  1  0.091721  0.400645  0.605337  1
  Si  Si21  1  0.091721  0.400645  0.894663  1
  Si  Si22  1  0.908279  0.599355  0.105337  1
  Si  Si23  1  0.908279  0.599355  0.394663  1
  Si  Si24  1  0.583096  0.745658  0.750000  1
  Si  Si25  1  0.083096  0.754342  0.250000  1
  Si  Si26  1  0.408279  0.900645  0.894663  1
  Si  Si27  1  0.408279  0.900645  0.605337  1
  H  H28  1  0.613394  0.069640  0.559381  1
  H  H29  1  0.613394  0.069640  0.940619  1
  H  H30  1  0.113394  0.430360  0.059381  1
  H  H31  1  0.113394  0.430360  0.440619  1
  H  H32  1  0.886606  0.569640  0.940619  1
  H  H33  1  0.886606  0.569640  0.559381  1
  H  H34  1  0.386606  0.930360  0.059381  1
  H  H35  1  0.386606  0.930360  0.440619  1
  O  O36  1  0.371608  0.030379  0.131973  1
  O  O37  1  0.371608  0.030379  0.368027  1
  O  O38  1  0.829964  0.046588  0.132596  1
  O  O39  1  0.829964  0.046588  0.367404  1
  O  O40  1  0.928712  0.124193  0.750000  1
  O  O41  1  0.591299  0.129303  0.513983  1
  O  O42  1  0.591299  0.129303  0.986017  1
  O  O43  1  0.168220  0.205458  0.250000  1
  O  O44  1  0.566301  0.214417  0.153464  1
  O  O45  1  0.566301  0.214417  0.346536  1
  O  O46  1  0.066301  0.285583  0.653464  1
  O  O47  1  0.066301  0.285583  0.846536  1
  O  O48  1  0.668220  0.294542  0.750000  1
  O  O49  1  0.091299  0.370697  0.486017  1
  O  O50  1  0.091299  0.370697  0.013983  1
  O  O51  1  0.428712  0.375807  0.250000  1
  O  O52  1  0.329964  0.453412  0.632596  1
  O  O53  1  0.329964  0.453412  0.867404  1
  O  O54  1  0.871608  0.469621  0.631973  1
  O  O55  1  0.871608  0.469621  0.868027  1
  O  O56  1  0.128392  0.530379  0.131973  1
  O  O57  1  0.128392  0.530379  0.368027  1
  O  O58  1  0.670036  0.546588  0.132596  1
  O  O59  1  0.670036  0.546588  0.367404  1
  O  O60  1  0.571288  0.624193  0.750000  1
  O  O61  1  0.908701  0.629303  0.986017  1
  O  O62  1  0.908701  0.629303  0.513983  1
  O  O63  1  0.331780  0.705458  0.250000  1
  O  O64  1  0.933699  0.714417  0.153464  1
  O  O65  1  0.933699  0.714417  0.346536  1
  O  O66  1  0.433699  0.785583  0.653464  1
  O  O67  1  0.433699  0.785583  0.846536  1
  O  O68  1  0.831780  0.794542  0.750000  1
  O  O69  1  0.408701  0.870697  0.013983  1
  O  O70  1  0.408701  0.870697  0.486017  1
  O  O71  1  0.071288  0.875807  0.250000  1
  O  O72  1  0.170036  0.953412  0.632596  1
  O  O73  1  0.170036  0.953412  0.867404  1
  O  O74  1  0.628392  0.969621  0.631973  1
  O  O75  1  0.628392  0.969621  0.868027  1
