# generated using pymatgen
data_VOF3
_symmetry_space_group_name_H-M   'P 1'
_cell_length_a   5.29216761
_cell_length_b   5.49951631
_cell_length_c   9.33048720
_cell_angle_alpha   88.81727505
_cell_angle_beta   89.92567653
_cell_angle_gamma   88.90873012
_symmetry_Int_Tables_number   1
_chemical_formula_structural   VOF3
_chemical_formula_sum   'V4 O4 F12'
_cell_volume   271.45066882
_cell_formula_units_Z   4
loop_
 _symmetry_equiv_pos_site_id
 _symmetry_equiv_pos_as_xyz
  1  'x, y, z'
loop_
 _atom_site_type_symbol
 _atom_site_label
 _atom_site_symmetry_multiplicity
 _atom_site_fract_x
 _atom_site_fract_y
 _atom_site_fract_z
 _atom_site_occupancy
  V  V0  1  0.568256  0.770548  0.250460  1
  V  V1  1  0.000000  0.500000  0.500000  1
  V  V2  1  0.431744  0.229452  0.749540  1
  V  V3  1  0.000000  0.000000  0.000000  1
  O  O4  1  0.722201  0.947714  0.125294  1
  O  O5  1  0.801664  0.698564  0.372187  1
  O  O6  1  0.198336  0.301436  0.627813  1
  O  O7  1  0.277799  0.052286  0.874706  1
  F  F8  1  0.609407  0.007848  0.656048  1
  F  F9  1  0.202330  0.806777  0.118956  1
  F  F10  1  0.086213  0.761246  0.596450  1
  F  F11  1  0.917423  0.739252  0.902562  1
  F  F12  1  0.279510  0.538943  0.383799  1
  F  F13  1  0.441327  0.506970  0.840197  1
  F  F14  1  0.558673  0.493030  0.159803  1
  F  F15  1  0.720490  0.461057  0.616201  1
  F  F16  1  0.082577  0.260748  0.097438  1
  F  F17  1  0.913787  0.238754  0.403550  1
  F  F18  1  0.797670  0.193223  0.881044  1
  F  F19  1  0.390593  0.992152  0.343952  1
