# generated using pymatgen
data_Na3LiMo2(H6O7)2
_symmetry_space_group_name_H-M   'P 1'
_cell_length_a   11.72990103
_cell_length_b   11.72990103
_cell_length_c   11.72990103
_cell_angle_alpha   44.06667692
_cell_angle_beta   44.06667692
_cell_angle_gamma   44.06667692
_symmetry_Int_Tables_number   1
_chemical_formula_structural   Na3LiMo2(H6O7)2
_chemical_formula_sum   'Na6 Li2 Mo4 H24 O28'
_cell_volume   709.16454521
_cell_formula_units_Z   2
loop_
 _symmetry_equiv_pos_site_id
 _symmetry_equiv_pos_as_xyz
  1  'x, y, z'
loop_
 _atom_site_type_symbol
 _atom_site_label
 _atom_site_symmetry_multiplicity
 _atom_site_fract_x
 _atom_site_fract_y
 _atom_site_fract_z
 _atom_site_occupancy
  Na  Na0  1  0.956224  0.760951  0.468619  1
  Na  Na1  1  0.760951  0.468619  0.956224  1
  Na  Na2  1  0.468619  0.956224  0.760951  1
  Na  Na3  1  0.260951  0.456224  0.968619  1
  Na  Na4  1  0.456224  0.968619  0.260951  1
  Na  Na5  1  0.968619  0.260951  0.456224  1
  Li  Li6  1  0.490817  0.490817  0.490817  1
  Li  Li7  1  0.990817  0.990817  0.990817  1
  Mo  Mo8  1  0.373682  0.373682  0.373682  1
  Mo  Mo9  1  0.873682  0.873682  0.873682  1
  Mo  Mo10  1  0.128476  0.128476  0.128476  1
  Mo  Mo11  1  0.628476  0.628476  0.628476  1
  H  H12  1  0.401886  0.263215  0.796288  1
  H  H13  1  0.263215  0.796288  0.401886  1
  H  H14  1  0.796288  0.401886  0.263215  1
  H  H15  1  0.763215  0.901886  0.296288  1
  H  H16  1  0.901886  0.296288  0.763215  1
  H  H17  1  0.296288  0.763215  0.901886  1
  H  H18  1  0.231863  0.730532  0.593457  1
  H  H19  1  0.730532  0.593457  0.231863  1
  H  H20  1  0.593457  0.231863  0.730532  1
  H  H21  1  0.230532  0.731863  0.093457  1
  H  H22  1  0.731863  0.093457  0.230532  1
  H  H23  1  0.093457  0.230532  0.731863  1
  H  H24  1  0.427357  0.767275  0.106926  1
  H  H25  1  0.767275  0.106926  0.427357  1
  H  H26  1  0.106926  0.427357  0.767275  1
  H  H27  1  0.267275  0.927357  0.606926  1
  H  H28  1  0.927357  0.606926  0.267275  1
  H  H29  1  0.606926  0.267275  0.927357  1
  H  H30  1  0.022137  0.605744  0.768061  1
  H  H31  1  0.605744  0.768061  0.022137  1
  H  H32  1  0.768061  0.022137  0.605744  1
  H  H33  1  0.105744  0.522137  0.268061  1
  H  H34  1  0.522137  0.268061  0.105744  1
  H  H35  1  0.268061  0.105744  0.522137  1
  O  O36  1  0.429351  0.429351  0.429351  1
  O  O37  1  0.929351  0.929351  0.929351  1
  O  O38  1  0.182520  0.563608  0.316589  1
  O  O39  1  0.563608  0.316589  0.182520  1
  O  O40  1  0.316589  0.182520  0.563608  1
  O  O41  1  0.063608  0.682520  0.816589  1
  O  O42  1  0.682520  0.816589  0.063608  1
  O  O43  1  0.816589  0.063608  0.682520  1
  O  O44  1  0.184823  0.184823  0.184823  1
  O  O45  1  0.684823  0.684823  0.684823  1
  O  O46  1  0.889596  0.258233  0.183832  1
  O  O47  1  0.258233  0.183832  0.889596  1
  O  O48  1  0.183832  0.889596  0.258233  1
  O  O49  1  0.758233  0.389596  0.683832  1
  O  O50  1  0.389596  0.683832  0.758233  1
  O  O51  1  0.683832  0.758233  0.389596  1
  O  O52  1  0.468851  0.325644  0.742009  1
  O  O53  1  0.325644  0.742009  0.468851  1
  O  O54  1  0.742009  0.468851  0.325644  1
  O  O55  1  0.825644  0.968851  0.242009  1
  O  O56  1  0.968851  0.242009  0.825644  1
  O  O57  1  0.242009  0.825644  0.968851  1
  O  O58  1  0.010095  0.550552  0.743086  1
  O  O59  1  0.550552  0.743086  0.010095  1
  O  O60  1  0.743086  0.010095  0.550552  1
  O  O61  1  0.050552  0.510095  0.243086  1
  O  O62  1  0.510095  0.243086  0.050552  1
  O  O63  1  0.243086  0.050552  0.510095  1
