# generated using pymatgen
data_LiMn7(OF3)3
_symmetry_space_group_name_H-M   'P 1'
_cell_length_a   6.37121811
_cell_length_b   6.41921688
_cell_length_c   6.45250589
_cell_angle_alpha   89.83255162
_cell_angle_beta   89.60939540
_cell_angle_gamma   89.93765365
_symmetry_Int_Tables_number   1
_chemical_formula_structural   LiMn7(OF3)3
_chemical_formula_sum   'Li1 Mn7 O3 F9'
_cell_volume   263.88866525
_cell_formula_units_Z   1
loop_
 _symmetry_equiv_pos_site_id
 _symmetry_equiv_pos_as_xyz
  1  'x, y, z'
loop_
 _atom_site_type_symbol
 _atom_site_label
 _atom_site_symmetry_multiplicity
 _atom_site_fract_x
 _atom_site_fract_y
 _atom_site_fract_z
 _atom_site_occupancy
  Li  Li0  1  0.509309  0.493323  0.510457  1
  Mn  Mn1  1  0.062437  0.564257  0.247036  1
  Mn  Mn2  1  0.432392  0.261083  0.060513  1
  Mn  Mn3  1  0.241880  0.928183  0.543304  1
  Mn  Mn4  1  0.988419  0.027203  0.027117  1
  Mn  Mn5  1  0.745828  0.038346  0.413444  1
  Mn  Mn6  1  0.567108  0.767400  0.948299  1
  Mn  Mn7  1  0.957551  0.427651  0.756557  1
  O  O8  1  0.114628  0.330196  0.031806  1
  O  O9  1  0.029895  0.878560  0.315103  1
  O  O10  1  0.661166  0.042070  0.096986  1
  F  F11  1  0.440893  0.581371  0.201342  1
  F  F12  1  0.202540  0.568496  0.575609  1
  F  F13  1  0.424970  0.192498  0.441213  1
  F  F14  1  0.569833  0.809688  0.589015  1
  F  F15  1  0.289088  0.937580  0.872609  1
  F  F16  1  0.818883  0.409293  0.437992  1
  F  F17  1  0.595354  0.442720  0.817899  1
  F  F18  1  0.946935  0.097094  0.683297  1
  F  F19  1  0.900888  0.702988  0.930402  1
