# generated using pymatgen
data_LiAg2F6
_symmetry_space_group_name_H-M   'P 1'
_cell_length_a   4.91988515
_cell_length_b   4.91988515
_cell_length_c   10.23238081
_cell_angle_alpha   90.00000000
_cell_angle_beta   90.00000000
_cell_angle_gamma   90.00000000
_symmetry_Int_Tables_number   1
_chemical_formula_structural   LiAg2F6
_chemical_formula_sum   'Li2 Ag4 F12'
_cell_volume   247.67753947
_cell_formula_units_Z   2
loop_
 _symmetry_equiv_pos_site_id
 _symmetry_equiv_pos_as_xyz
  1  'x, y, z'
loop_
 _atom_site_type_symbol
 _atom_site_label
 _atom_site_symmetry_multiplicity
 _atom_site_fract_x
 _atom_site_fract_y
 _atom_site_fract_z
 _atom_site_occupancy
  Li  Li0  1  0.500000  0.000000  0.752204  1
  Li  Li1  1  0.000000  0.500000  0.247796  1
  Ag  Ag2  1  0.500000  0.000000  0.414986  1
  Ag  Ag3  1  0.500000  0.000000  0.083337  1
  Ag  Ag4  1  0.000000  0.500000  0.585014  1
  Ag  Ag5  1  0.000000  0.500000  0.916663  1
  F  F6  1  0.695796  0.195796  0.920565  1
  F  F7  1  0.698383  0.198383  0.581436  1
  F  F8  1  0.701234  0.201234  0.247127  1
  F  F9  1  0.201234  0.298766  0.752873  1
  F  F10  1  0.198383  0.301617  0.418564  1
  F  F11  1  0.195796  0.304204  0.079435  1
  F  F12  1  0.804204  0.695796  0.079435  1
  F  F13  1  0.801617  0.698383  0.418564  1
  F  F14  1  0.798766  0.701234  0.752873  1
  F  F15  1  0.298766  0.798766  0.247127  1
  F  F16  1  0.301617  0.801617  0.581436  1
  F  F17  1  0.304204  0.804204  0.920565  1
