# generated using pymatgen
data_BSbO3
_symmetry_space_group_name_H-M   'P 1'
_cell_length_a   5.02064069
_cell_length_b   5.02064069
_cell_length_c   13.02491162
_cell_angle_alpha   82.23303039
_cell_angle_beta   97.76696961
_cell_angle_gamma   77.72164038
_symmetry_Int_Tables_number   1
_chemical_formula_structural   BSbO3
_chemical_formula_sum   'B4 Sb4 O12'
_cell_volume   313.27666333
_cell_formula_units_Z   4
loop_
 _symmetry_equiv_pos_site_id
 _symmetry_equiv_pos_as_xyz
  1  'x, y, z'
loop_
 _atom_site_type_symbol
 _atom_site_label
 _atom_site_symmetry_multiplicity
 _atom_site_fract_x
 _atom_site_fract_y
 _atom_site_fract_z
 _atom_site_occupancy
  B  B0  1  0.656425  0.937531  0.852802  1
  B  B1  1  0.937531  0.656425  0.647198  1
  B  B2  1  0.062469  0.343575  0.352802  1
  B  B3  1  0.343575  0.062469  0.147198  1
  Sb  Sb4  1  0.985275  0.667078  0.128415  1
  Sb  Sb5  1  0.332922  0.014725  0.628415  1
  Sb  Sb6  1  0.014725  0.332922  0.871585  1
  Sb  Sb7  1  0.667078  0.985275  0.371585  1
  O  O8  1  0.715419  0.872817  0.596760  1
  O  O9  1  0.872817  0.715419  0.903240  1
  O  O10  1  0.437430  0.898008  0.785743  1
  O  O11  1  0.898008  0.437430  0.714257  1
  O  O12  1  0.336776  0.798611  0.125856  1
  O  O13  1  0.201389  0.663224  0.625856  1
  O  O14  1  0.798611  0.336776  0.374144  1
  O  O15  1  0.663224  0.201389  0.874144  1
  O  O16  1  0.101992  0.562570  0.285743  1
  O  O17  1  0.562570  0.101992  0.214257  1
  O  O18  1  0.127183  0.284581  0.096760  1
  O  O19  1  0.284581  0.127183  0.403240  1
