# generated using pymatgen
data_Na3V(BO3)2
_symmetry_space_group_name_H-M   'P 1'
_cell_length_a   5.54207229
_cell_length_b   9.55649719
_cell_length_c   11.73652406
_cell_angle_alpha   90.00000000
_cell_angle_beta   114.67020840
_cell_angle_gamma   90.00000000
_symmetry_Int_Tables_number   1
_chemical_formula_structural   Na3V(BO3)2
_chemical_formula_sum   'Na12 V4 B8 O24'
_cell_volume   564.86289852
_cell_formula_units_Z   4
loop_
 _symmetry_equiv_pos_site_id
 _symmetry_equiv_pos_as_xyz
  1  'x, y, z'
loop_
 _atom_site_type_symbol
 _atom_site_label
 _atom_site_symmetry_multiplicity
 _atom_site_fract_x
 _atom_site_fract_y
 _atom_site_fract_z
 _atom_site_occupancy
  Na  Na0  1  0.512695  0.963128  0.660299  1
  Na  Na1  1  0.456057  0.658528  0.623473  1
  Na  Na2  1  0.923905  0.981641  0.113690  1
  Na  Na3  1  0.543943  0.158528  0.876527  1
  Na  Na4  1  0.076095  0.481641  0.386310  1
  Na  Na5  1  0.487305  0.463128  0.839701  1
  Na  Na6  1  0.512695  0.536872  0.160299  1
  Na  Na7  1  0.923905  0.518359  0.613690  1
  Na  Na8  1  0.456057  0.841472  0.123473  1
  Na  Na9  1  0.076095  0.018359  0.886310  1
  Na  Na10  1  0.543943  0.341472  0.376527  1
  Na  Na11  1  0.487305  0.036872  0.339701  1
  V  V12  1  0.986458  0.316893  0.122878  1
  V  V13  1  0.013542  0.816893  0.377122  1
  V  V14  1  0.986458  0.183107  0.622878  1
  V  V15  1  0.013542  0.683107  0.877122  1
  B  B16  1  0.451920  0.309440  0.618277  1
  B  B17  1  0.978959  0.649064  0.134632  1
  B  B18  1  0.548080  0.809440  0.881723  1
  B  B19  1  0.021041  0.149064  0.365368  1
  B  B20  1  0.978959  0.850936  0.634632  1
  B  B21  1  0.451920  0.190560  0.118277  1
  B  B22  1  0.021041  0.350936  0.865368  1
  B  B23  1  0.548080  0.690560  0.381723  1
  O  O24  1  0.869795  0.327248  0.932283  1
  O  O25  1  0.324874  0.696494  0.408119  1
  O  O26  1  0.684403  0.931721  0.890523  1
  O  O27  1  0.117541  0.256991  0.318282  1
  O  O28  1  0.074421  0.010134  0.340641  1
  O  O29  1  0.632915  0.686761  0.844451  1
  O  O30  1  0.367085  0.186761  0.655549  1
  O  O31  1  0.925579  0.510134  0.159359  1
  O  O32  1  0.882459  0.756991  0.181718  1
  O  O33  1  0.315597  0.431721  0.609477  1
  O  O34  1  0.130205  0.827248  0.567717  1
  O  O35  1  0.675126  0.196494  0.091881  1
  O  O36  1  0.324874  0.803506  0.908119  1
  O  O37  1  0.869795  0.172752  0.432283  1
  O  O38  1  0.684403  0.568279  0.390523  1
  O  O39  1  0.117541  0.243009  0.818282  1
  O  O40  1  0.074421  0.489866  0.840641  1
  O  O41  1  0.632915  0.813239  0.344451  1
  O  O42  1  0.367085  0.313239  0.155549  1
  O  O43  1  0.925579  0.989866  0.659359  1
  O  O44  1  0.882459  0.743009  0.681718  1
  O  O45  1  0.315597  0.068279  0.109477  1
  O  O46  1  0.675126  0.303506  0.591881  1
  O  O47  1  0.130205  0.672752  0.067717  1
