# generated using pymatgen
data_TeP4H26(NO5)4
_symmetry_space_group_name_H-M   'P 1'
_cell_length_a   6.88645533
_cell_length_b   22.32792809
_cell_length_c   7.94975746
_cell_angle_alpha   90.00000000
_cell_angle_beta   116.23115671
_cell_angle_gamma   90.00000000
_symmetry_Int_Tables_number   1
_chemical_formula_structural   TeP4H26(NO5)4
_chemical_formula_sum   'Te2 P8 H52 N8 O40'
_cell_volume   1096.47635379
_cell_formula_units_Z   2
loop_
 _symmetry_equiv_pos_site_id
 _symmetry_equiv_pos_as_xyz
  1  'x, y, z'
loop_
 _atom_site_type_symbol
 _atom_site_label
 _atom_site_symmetry_multiplicity
 _atom_site_fract_x
 _atom_site_fract_y
 _atom_site_fract_z
 _atom_site_occupancy
  Te  Te0  1  0.000000  0.500000  0.500000  1
  Te  Te1  1  0.000000  0.000000  0.000000  1
  P  P2  1  0.489056  0.713450  0.982859  1
  P  P3  1  0.489056  0.786550  0.482859  1
  P  P4  1  0.510944  0.286550  0.017141  1
  P  P5  1  0.510944  0.213450  0.517141  1
  P  P6  1  0.716009  0.621387  0.863254  1
  P  P7  1  0.716009  0.878613  0.363254  1
  P  P8  1  0.283991  0.378613  0.136746  1
  P  P9  1  0.283991  0.121387  0.636746  1
  H  H10  1  0.856081  0.708237  0.463477  1
  H  H11  1  0.856081  0.791763  0.963477  1
  H  H12  1  0.143919  0.291763  0.536523  1
  H  H13  1  0.143919  0.208237  0.036523  1
  H  H14  1  0.093536  0.367274  0.517712  1
  H  H15  1  0.093536  0.132726  0.017712  1
  H  H16  1  0.906464  0.632726  0.482288  1
  H  H17  1  0.906464  0.867274  0.982288  1
  H  H18  1  0.954371  0.673290  0.326174  1
  H  H19  1  0.954371  0.826710  0.826174  1
  H  H20  1  0.045629  0.326710  0.673826  1
  H  H21  1  0.045629  0.173290  0.173826  1
  H  H22  1  0.887570  0.183342  0.944050  1
  H  H23  1  0.887570  0.316658  0.444050  1
  H  H24  1  0.112430  0.816658  0.055950  1
  H  H25  1  0.112430  0.683342  0.555950  1
  H  H26  1  0.750289  0.448420  0.019471  1
  H  H27  1  0.750289  0.051580  0.519471  1
  H  H28  1  0.249711  0.551580  0.980529  1
  H  H29  1  0.249711  0.948420  0.480529  1
  H  H30  1  0.125623  0.921498  0.606540  1
  H  H31  1  0.125623  0.578502  0.106540  1
  H  H32  1  0.874377  0.078502  0.393460  1
  H  H33  1  0.874377  0.421498  0.893460  1
  H  H34  1  0.629210  0.455707  0.783885  1
  H  H35  1  0.629210  0.044293  0.283885  1
  H  H36  1  0.370790  0.544293  0.216115  1
  H  H37  1  0.370790  0.955707  0.716115  1
  H  H38  1  0.651504  0.385997  0.881155  1
  H  H39  1  0.651504  0.114003  0.381155  1
  H  H40  1  0.348496  0.614003  0.118845  1
  H  H41  1  0.348496  0.885997  0.618845  1
  H  H42  1  0.847353  0.535866  0.169391  1
  H  H43  1  0.847353  0.964134  0.669391  1
  H  H44  1  0.152647  0.464134  0.830609  1
  H  H45  1  0.152647  0.035866  0.330609  1
  H  H46  1  0.255747  0.436296  0.417215  1
  H  H47  1  0.255747  0.063704  0.917215  1
  H  H48  1  0.744253  0.563704  0.582785  1
  H  H49  1  0.744253  0.936296  0.082785  1
  H  H50  1  0.340701  0.560048  0.576472  1
  H  H51  1  0.340701  0.939952  0.076472  1
  H  H52  1  0.659299  0.439952  0.423528  1
  H  H53  1  0.659299  0.060048  0.923528  1
  H  H54  1  0.654655  0.275761  0.754704  1
  H  H55  1  0.654655  0.224239  0.254704  1
  H  H56  1  0.345345  0.724239  0.245296  1
  H  H57  1  0.345345  0.775761  0.745296  1
  H  H58  1  0.225857  0.298906  0.283693  1
  H  H59  1  0.225857  0.201094  0.783693  1
  H  H60  1  0.774143  0.701094  0.716307  1
  H  H61  1  0.774143  0.798906  0.216307  1
  N  N62  1  0.957899  0.825057  0.956353  1
  N  N63  1  0.957899  0.674943  0.456353  1
  N  N64  1  0.042101  0.174943  0.043647  1
  N  N65  1  0.042101  0.325057  0.543647  1
  N  N66  1  0.723488  0.428364  0.892849  1
  N  N67  1  0.723488  0.071636  0.392849  1
  N  N68  1  0.276512  0.571636  0.107151  1
  N  N69  1  0.276512  0.928364  0.607151  1
  O  O70  1  0.848767  0.495201  0.226181  1
  O  O71  1  0.848767  0.004799  0.726181  1
  O  O72  1  0.151233  0.504799  0.773819  1
  O  O73  1  0.151233  0.995201  0.273819  1
  O  O74  1  0.803268  0.934514  0.985936  1
  O  O75  1  0.803268  0.565486  0.485936  1
  O  O76  1  0.196732  0.065486  0.014064  1
  O  O77  1  0.196732  0.434514  0.514064  1
  O  O78  1  0.189598  0.559848  0.472587  1
  O  O79  1  0.189598  0.940152  0.972587  1
  O  O80  1  0.810402  0.440152  0.527413  1
  O  O81  1  0.810402  0.059848  0.027413  1
  O  O82  1  0.416495  0.812370  0.621728  1
  O  O83  1  0.416495  0.687630  0.121728  1
  O  O84  1  0.583505  0.187630  0.378272  1
  O  O85  1  0.583505  0.312370  0.878272  1
  O  O86  1  0.699193  0.748357  0.063763  1
  O  O87  1  0.699193  0.751643  0.563763  1
  O  O88  1  0.300807  0.251643  0.936237  1
  O  O89  1  0.300807  0.248357  0.436237  1
  O  O90  1  0.296616  0.750513  0.829237  1
  O  O91  1  0.296616  0.749487  0.329237  1
  O  O92  1  0.703384  0.249487  0.170763  1
  O  O93  1  0.703384  0.250513  0.670763  1
  O  O94  1  0.383263  0.074795  0.790787  1
  O  O95  1  0.383263  0.425205  0.290787  1
  O  O96  1  0.616737  0.925205  0.209213  1
  O  O97  1  0.616737  0.574795  0.709213  1
  O  O98  1  0.855980  0.598157  0.059056  1
  O  O99  1  0.855980  0.901843  0.559056  1
  O  O100  1  0.144020  0.401843  0.940944  1
  O  O101  1  0.144020  0.098157  0.440944  1
  O  O102  1  0.852949  0.669843  0.817852  1
  O  O103  1  0.852949  0.830157  0.317852  1
  O  O104  1  0.147051  0.330157  0.182148  1
  O  O105  1  0.147051  0.169843  0.682148  1
  O  O106  1  0.507711  0.657270  0.859604  1
  O  O107  1  0.507711  0.842730  0.359604  1
  O  O108  1  0.492289  0.342730  0.140396  1
  O  O109  1  0.492289  0.157270  0.640396  1
