# generated using pymatgen
data_Li5Cr2Co5O12
_symmetry_space_group_name_H-M   'P 1'
_cell_length_a   5.14431686
_cell_length_b   5.14431686
_cell_length_c   9.85505943
_cell_angle_alpha   84.89023940
_cell_angle_beta   95.10976060
_cell_angle_gamma   59.45210234
_symmetry_Int_Tables_number   1
_chemical_formula_structural   Li5Cr2Co5O12
_chemical_formula_sum   'Li5 Cr2 Co5 O12'
_cell_volume   220.95294432
_cell_formula_units_Z   1
loop_
 _symmetry_equiv_pos_site_id
 _symmetry_equiv_pos_as_xyz
  1  'x, y, z'
loop_
 _atom_site_type_symbol
 _atom_site_label
 _atom_site_symmetry_multiplicity
 _atom_site_fract_x
 _atom_site_fract_y
 _atom_site_fract_z
 _atom_site_occupancy
  Li  Li0  1  0.329157  0.828774  0.754844  1
  Li  Li1  1  0.174588  0.675403  0.241329  1
  Li  Li2  1  0.828774  0.329157  0.245156  1
  Li  Li3  1  0.675403  0.174588  0.758671  1
  Li  Li4  1  0.086511  0.086511  0.000000  1
  Cr  Cr5  1  0.752989  0.752989  0.000000  1
  Cr  Cr6  1  0.244785  0.244785  0.500000  1
  Co  Co7  1  0.914318  0.914318  0.500000  1
  Co  Co8  1  0.491481  0.003765  0.243779  1
  Co  Co9  1  0.003765  0.491481  0.756221  1
  Co  Co10  1  0.577804  0.577804  0.500000  1
  Co  Co11  1  0.422369  0.422369  0.000000  1
  O  O12  1  0.767332  0.047901  0.119201  1
  O  O13  1  0.047901  0.767332  0.880799  1
  O  O14  1  0.613427  0.864669  0.615100  1
  O  O15  1  0.864669  0.613427  0.384900  1
  O  O16  1  0.473609  0.704341  0.116263  1
  O  O17  1  0.704341  0.473609  0.883737  1
  O  O18  1  0.290350  0.527726  0.615370  1
  O  O19  1  0.527726  0.290350  0.384630  1
  O  O20  1  0.132521  0.396955  0.115500  1
  O  O21  1  0.396955  0.132521  0.884500  1
  O  O22  1  0.960110  0.219113  0.620849  1
  O  O23  1  0.219113  0.960110  0.379151  1
