# generated using pymatgen
data_Na3Bi(BO3)2
_symmetry_space_group_name_H-M   'P 1'
_cell_length_a   9.01002123
_cell_length_b   7.33233336
_cell_length_c   10.87965819
_cell_angle_alpha   90.00000000
_cell_angle_beta   113.48757353
_cell_angle_gamma   90.00000000
_symmetry_Int_Tables_number   1
_chemical_formula_structural   Na3Bi(BO3)2
_chemical_formula_sum   'Na12 Bi4 B8 O24'
_cell_volume   659.20728272
_cell_formula_units_Z   4
loop_
 _symmetry_equiv_pos_site_id
 _symmetry_equiv_pos_as_xyz
  1  'x, y, z'
loop_
 _atom_site_type_symbol
 _atom_site_label
 _atom_site_symmetry_multiplicity
 _atom_site_fract_x
 _atom_site_fract_y
 _atom_site_fract_z
 _atom_site_occupancy
  Na  Na0  1  0.719299  0.458344  0.678875  1
  Na  Na1  1  0.591253  0.745000  0.472844  1
  Na  Na2  1  0.408747  0.245000  0.027156  1
  Na  Na3  1  0.835577  0.205374  0.529987  1
  Na  Na4  1  0.719299  0.041656  0.178875  1
  Na  Na5  1  0.164423  0.705374  0.970013  1
  Na  Na6  1  0.835577  0.294626  0.029987  1
  Na  Na7  1  0.280701  0.958344  0.821125  1
  Na  Na8  1  0.164423  0.794626  0.470013  1
  Na  Na9  1  0.591253  0.755000  0.972844  1
  Na  Na10  1  0.408747  0.255000  0.527156  1
  Na  Na11  1  0.280701  0.541656  0.321125  1
  Bi  Bi12  1  0.814833  0.971007  0.803034  1
  Bi  Bi13  1  0.814833  0.528993  0.303034  1
  Bi  Bi14  1  0.185167  0.471007  0.696966  1
  Bi  Bi15  1  0.185167  0.028993  0.196966  1
  B  B16  1  0.457725  0.832102  0.181475  1
  B  B17  1  0.542275  0.332102  0.318525  1
  B  B18  1  0.057605  0.304606  0.876242  1
  B  B19  1  0.942395  0.804606  0.623758  1
  B  B20  1  0.057605  0.195394  0.376242  1
  B  B21  1  0.942395  0.695394  0.123758  1
  B  B22  1  0.457725  0.667898  0.681475  1
  B  B23  1  0.542275  0.167898  0.818525  1
  O  O24  1  0.388534  0.267205  0.293634  1
  O  O25  1  0.385190  0.807066  0.273561  1
  O  O26  1  0.367986  0.928599  0.064995  1
  O  O27  1  0.632014  0.428599  0.435005  1
  O  O28  1  0.614810  0.307066  0.226439  1
  O  O29  1  0.027039  0.189779  0.964690  1
  O  O30  1  0.808394  0.920929  0.584015  1
  O  O31  1  0.611466  0.767205  0.206366  1
  O  O32  1  0.956465  0.300816  0.741789  1
  O  O33  1  0.043535  0.800816  0.758211  1
  O  O34  1  0.191606  0.420929  0.915985  1
  O  O35  1  0.972961  0.689779  0.535310  1
  O  O36  1  0.027039  0.310221  0.464690  1
  O  O37  1  0.808394  0.579071  0.084015  1
  O  O38  1  0.956465  0.199184  0.241789  1
  O  O39  1  0.043535  0.699184  0.258211  1
  O  O40  1  0.388534  0.232795  0.793634  1
  O  O41  1  0.191606  0.079071  0.415985  1
  O  O42  1  0.972961  0.810221  0.035310  1
  O  O43  1  0.385190  0.692934  0.773561  1
  O  O44  1  0.367986  0.571401  0.564995  1
  O  O45  1  0.632014  0.071401  0.935005  1
  O  O46  1  0.614810  0.192934  0.726439  1
  O  O47  1  0.611466  0.732795  0.706366  1
