# generated using pymatgen
data_Li4V3Co2Sb3O16
_symmetry_space_group_name_H-M   'P 1'
_cell_length_a   6.14499169
_cell_length_b   6.14499169
_cell_length_c   9.86087847
_cell_angle_alpha   89.55626099
_cell_angle_beta   90.44373901
_cell_angle_gamma   120.06878944
_symmetry_Int_Tables_number   1
_chemical_formula_structural   Li4V3Co2Sb3O16
_chemical_formula_sum   'Li4 V3 Co2 Sb3 O16'
_cell_volume   322.23300883
_cell_formula_units_Z   1
loop_
 _symmetry_equiv_pos_site_id
 _symmetry_equiv_pos_as_xyz
  1  'x, y, z'
loop_
 _atom_site_type_symbol
 _atom_site_label
 _atom_site_symmetry_multiplicity
 _atom_site_fract_x
 _atom_site_fract_y
 _atom_site_fract_z
 _atom_site_occupancy
  Li  Li0  1  0.335499  0.664501  0.122479  1
  Li  Li1  1  0.010706  0.989294  0.009137  1
  Li  Li2  1  0.007732  0.992268  0.495173  1
  Li  Li3  1  0.672100  0.327900  0.600007  1
  V  V4  1  0.168159  0.831841  0.783797  1
  V  V5  1  0.336575  0.171133  0.285186  1
  V  V6  1  0.828867  0.663425  0.285186  1
  Co  Co7  1  0.327116  0.672884  0.480869  1
  Co  Co8  1  0.656441  0.343559  0.023878  1
  Sb  Sb9  1  0.168263  0.337766  0.784734  1
  Sb  Sb10  1  0.662234  0.831737  0.784734  1
  Sb  Sb11  1  0.829392  0.170608  0.284867  1
  O  O12  1  0.153804  0.315279  0.398408  1
  O  O13  1  0.485955  0.514045  0.669268  1
  O  O14  1  0.338200  0.661800  0.898685  1
  O  O15  1  0.995110  0.004890  0.679417  1
  O  O16  1  0.993009  0.006991  0.186846  1
  O  O17  1  0.684721  0.846196  0.398408  1
  O  O18  1  0.031499  0.512707  0.674711  1
  O  O19  1  0.487293  0.968501  0.674711  1
  O  O20  1  0.845797  0.154203  0.898015  1
  O  O21  1  0.157211  0.842789  0.392161  1
  O  O22  1  0.519021  0.034702  0.165037  1
  O  O23  1  0.965298  0.480979  0.165037  1
  O  O24  1  0.672328  0.327672  0.398029  1
  O  O25  1  0.309735  0.158949  0.892364  1
  O  O26  1  0.517441  0.482559  0.168676  1
  O  O27  1  0.841051  0.690265  0.892364  1
