# generated using pymatgen
data_NaLi3Ti2Al2(PO4)6
_symmetry_space_group_name_H-M   'P 1'
_cell_length_a   8.55418565
_cell_length_b   8.56474180
_cell_length_c   8.59205139
_cell_angle_alpha   60.68431566
_cell_angle_beta   60.18554039
_cell_angle_gamma   60.05931809
_symmetry_Int_Tables_number   1
_chemical_formula_structural   NaLi3Ti2Al2(PO4)6
_chemical_formula_sum   'Na1 Li3 Ti2 Al2 P6 O24'
_cell_volume   448.20756253
_cell_formula_units_Z   1
loop_
 _symmetry_equiv_pos_site_id
 _symmetry_equiv_pos_as_xyz
  1  'x, y, z'
loop_
 _atom_site_type_symbol
 _atom_site_label
 _atom_site_symmetry_multiplicity
 _atom_site_fract_x
 _atom_site_fract_y
 _atom_site_fract_z
 _atom_site_occupancy
  Na  Na0  1  0.002012  0.978642  0.000773  1
  Li  Li1  1  0.745804  0.362002  0.740193  1
  Li  Li2  1  0.354757  0.143917  0.748544  1
  Li  Li3  1  0.484198  0.526893  0.489486  1
  Ti  Ti4  1  0.641429  0.640848  0.078132  1
  Ti  Ti5  1  0.860795  0.858229  0.422822  1
  Al  Al6  1  0.144208  0.145451  0.561892  1
  Al  Al7  1  0.351293  0.354868  0.937178  1
  P  P8  1  0.457230  0.748770  0.748904  1
  P  P9  1  0.962102  0.528123  0.257979  1
  P  P10  1  0.749830  0.042014  0.751542  1
  P  P11  1  0.251440  0.968148  0.245826  1
  P  P12  1  0.045106  0.459391  0.747935  1
  P  P13  1  0.532358  0.251423  0.251285  1
  O  O14  1  0.276615  0.927451  0.737766  1
  O  O15  1  0.635279  0.781063  0.574696  1
  O  O16  1  0.942429  0.719509  0.255723  1
  O  O17  1  0.442317  0.572157  0.755833  1
  O  O18  1  0.128665  0.487840  0.081244  1
  O  O19  1  0.506118  0.297728  0.066791  1
  O  O20  1  0.982449  0.373181  0.445626  1
  O  O21  1  0.769208  0.554118  0.256327  1
  O  O22  1  0.913855  0.080223  0.740320  1
  O  O23  1  0.575560  0.230506  0.755435  1
  O  O24  1  0.305327  0.122106  0.055397  1
  O  O25  1  0.202847  0.011613  0.418670  1
  O  O26  1  0.785136  0.006027  0.576296  1
  O  O27  1  0.713005  0.871157  0.929411  1
  O  O28  1  0.418539  0.773343  0.253717  1
  O  O29  1  0.080861  0.942720  0.251372  1
  O  O30  1  0.238869  0.421597  0.754807  1
  O  O31  1  0.013419  0.631381  0.572540  1
  O  O32  1  0.490834  0.712790  0.927016  1
  O  O33  1  0.871097  0.494198  0.925722  1
  O  O34  1  0.555059  0.421154  0.250889  1
  O  O35  1  0.062413  0.272006  0.742916  1
  O  O36  1  0.366756  0.207468  0.433572  1
  O  O37  1  0.721778  0.079951  0.255424  1
