# generated using pymatgen
data_LiFeF4
_symmetry_space_group_name_H-M   'P 1'
_cell_length_a   4.77599710
_cell_length_b   5.65517865
_cell_length_c   10.27187874
_cell_angle_alpha   90.00000000
_cell_angle_beta   90.00000000
_cell_angle_gamma   90.00000000
_symmetry_Int_Tables_number   1
_chemical_formula_structural   LiFeF4
_chemical_formula_sum   'Li4 Fe4 F16'
_cell_volume   277.43437298
_cell_formula_units_Z   4
loop_
 _symmetry_equiv_pos_site_id
 _symmetry_equiv_pos_as_xyz
  1  'x, y, z'
loop_
 _atom_site_type_symbol
 _atom_site_label
 _atom_site_symmetry_multiplicity
 _atom_site_fract_x
 _atom_site_fract_y
 _atom_site_fract_z
 _atom_site_occupancy
  Li  Li0  1  0.000000  0.500000  0.000000  1
  Li  Li1  1  0.000000  0.500000  0.500000  1
  Li  Li2  1  0.500000  0.000000  0.000000  1
  Li  Li3  1  0.500000  0.000000  0.500000  1
  Fe  Fe4  1  0.000000  0.832300  0.250000  1
  Fe  Fe5  1  0.000000  0.167700  0.750000  1
  Fe  Fe6  1  0.500000  0.332300  0.250000  1
  Fe  Fe7  1  0.500000  0.667700  0.750000  1
  F  F8  1  0.197067  0.194684  0.589683  1
  F  F9  1  0.197067  0.805316  0.089683  1
  F  F10  1  0.238052  0.433830  0.824507  1
  F  F11  1  0.238052  0.566170  0.324507  1
  F  F12  1  0.261948  0.066170  0.324507  1
  F  F13  1  0.261948  0.933830  0.824507  1
  F  F14  1  0.302933  0.305316  0.089683  1
  F  F15  1  0.302933  0.694684  0.589683  1
  F  F16  1  0.697067  0.305316  0.410317  1
  F  F17  1  0.697067  0.694684  0.910317  1
  F  F18  1  0.738052  0.933830  0.675493  1
  F  F19  1  0.738052  0.066170  0.175493  1
  F  F20  1  0.761948  0.566170  0.175493  1
  F  F21  1  0.761948  0.433830  0.675493  1
  F  F22  1  0.802933  0.805316  0.410317  1
  F  F23  1  0.802933  0.194684  0.910317  1
