# generated using pymatgen
data_Na4NiO4
_symmetry_space_group_name_H-M   'P 1'
_cell_length_a   10.12560286
_cell_length_b   6.04007027
_cell_length_c   17.54579135
_cell_angle_alpha   90.00000000
_cell_angle_beta   91.05327124
_cell_angle_gamma   90.00000000
_symmetry_Int_Tables_number   1
_chemical_formula_structural   Na4NiO4
_chemical_formula_sum   'Na32 Ni8 O32'
_cell_volume   1072.90793005
_cell_formula_units_Z   8
loop_
 _symmetry_equiv_pos_site_id
 _symmetry_equiv_pos_as_xyz
  1  'x, y, z'
loop_
 _atom_site_type_symbol
 _atom_site_label
 _atom_site_symmetry_multiplicity
 _atom_site_fract_x
 _atom_site_fract_y
 _atom_site_fract_z
 _atom_site_occupancy
  Na  Na0  1  0.149920  0.903905  0.352368  1
  Na  Na1  1  0.149920  0.096095  0.852368  1
  Na  Na2  1  0.196500  0.613118  0.147959  1
  Na  Na3  1  0.196500  0.386882  0.647959  1
  Na  Na4  1  0.288319  0.670216  0.806366  1
  Na  Na5  1  0.288319  0.329784  0.306366  1
  Na  Na6  1  0.324467  0.165512  0.499937  1
  Na  Na7  1  0.324467  0.834488  0.999937  1
  Na  Na8  1  0.395385  0.900071  0.240341  1
  Na  Na9  1  0.395385  0.099929  0.740341  1
  Na  Na10  1  0.397898  0.343247  0.923551  1
  Na  Na11  1  0.397898  0.656753  0.423551  1
  Na  Na12  1  0.548188  0.182709  0.061794  1
  Na  Na13  1  0.548188  0.817291  0.561794  1
  Na  Na14  1  0.590778  0.370414  0.253226  1
  Na  Na15  1  0.590778  0.629586  0.753226  1
  Na  Na16  1  0.649473  0.660171  0.001339  1
  Na  Na17  1  0.649473  0.339829  0.501339  1
  Na  Na18  1  0.685866  0.851407  0.175166  1
  Na  Na19  1  0.685866  0.148593  0.675166  1
  Na  Na20  1  0.697856  0.309654  0.867259  1
  Na  Na21  1  0.697856  0.690346  0.367259  1
  Na  Na22  1  0.805284  0.166128  0.363224  1
  Na  Na23  1  0.805284  0.833872  0.863224  1
  Na  Na24  1  0.841002  0.664752  0.675225  1
  Na  Na25  1  0.841002  0.335248  0.175225  1
  Na  Na26  1  0.866159  0.841006  0.504285  1
  Na  Na27  1  0.866159  0.158994  0.004285  1
  Na  Na28  1  0.937488  0.181742  0.745471  1
  Na  Na29  1  0.937488  0.818258  0.245471  1
  Na  Na30  1  0.968794  0.331619  0.547624  1
  Na  Na31  1  0.968794  0.668381  0.047624  1
  Ni  Ni32  1  0.065313  0.073804  0.129911  1
  Ni  Ni33  1  0.065313  0.926196  0.629911  1
  Ni  Ni34  1  0.472651  0.417024  0.624866  1
  Ni  Ni35  1  0.472651  0.582976  0.124866  1
  Ni  Ni36  1  0.534737  0.087264  0.376544  1
  Ni  Ni37  1  0.534737  0.912736  0.876544  1
  Ni  Ni38  1  0.957479  0.556840  0.375880  1
  Ni  Ni39  1  0.957479  0.443160  0.875880  1
  O  O40  1  0.036636  0.637876  0.617548  1
  O  O41  1  0.036636  0.362124  0.117548  1
  O  O42  1  0.143387  0.964595  0.214690  1
  O  O43  1  0.143387  0.035405  0.714690  1
  O  O44  1  0.134776  0.912227  0.058885  1
  O  O45  1  0.134776  0.087773  0.558885  1
  O  O46  1  0.127591  0.512194  0.368713  1
  O  O47  1  0.127591  0.487806  0.868713  1
  O  O48  1  0.358654  0.997582  0.873201  1
  O  O49  1  0.358654  0.002418  0.373201  1
  O  O50  1  0.393384  0.472981  0.041633  1
  O  O51  1  0.393384  0.527019  0.541633  1
  O  O52  1  0.388752  0.484406  0.712228  1
  O  O53  1  0.388752  0.515594  0.212228  1
  O  O54  1  0.479345  0.877250  0.115279  1
  O  O55  1  0.479345  0.122750  0.615279  1
  O  O56  1  0.541567  0.392740  0.381177  1
  O  O57  1  0.541567  0.607260  0.881177  1
  O  O58  1  0.621747  0.000877  0.787777  1
  O  O59  1  0.621747  0.999123  0.287777  1
  O  O60  1  0.635456  0.034892  0.955720  1
  O  O61  1  0.635456  0.965108  0.455720  1
  O  O62  1  0.645419  0.518346  0.628477  1
  O  O63  1  0.645419  0.481654  0.128477  1
  O  O64  1  0.885308  0.026450  0.627595  1
  O  O65  1  0.885308  0.973550  0.127595  1
  O  O66  1  0.850667  0.466609  0.450039  1
  O  O67  1  0.850667  0.533391  0.950039  1
  O  O68  1  0.852742  0.516547  0.792694  1
  O  O69  1  0.852742  0.483453  0.292694  1
  O  O70  1  0.933371  0.858137  0.378017  1
  O  O71  1  0.933371  0.141863  0.878017  1
