# generated using pymatgen
data_Co2O3F
_symmetry_space_group_name_H-M   'P 1'
_cell_length_a   9.25208997
_cell_length_b   9.25208997
_cell_length_c   4.38752127
_cell_angle_alpha   87.46388733
_cell_angle_beta   92.53611267
_cell_angle_gamma   143.00125286
_symmetry_Int_Tables_number   1
_chemical_formula_structural   Co2O3F
_chemical_formula_sum   'Co8 O12 F4'
_cell_volume   225.77511415
_cell_formula_units_Z   4
loop_
 _symmetry_equiv_pos_site_id
 _symmetry_equiv_pos_as_xyz
  1  'x, y, z'
loop_
 _atom_site_type_symbol
 _atom_site_label
 _atom_site_symmetry_multiplicity
 _atom_site_fract_x
 _atom_site_fract_y
 _atom_site_fract_z
 _atom_site_occupancy
  Co  Co0  1  0.743183  0.256817  0.525930  1
  Co  Co1  1  0.256817  0.743183  0.474070  1
  Co  Co2  1  1.000000  0.000000  0.500000  1
  Co  Co3  1  0.500000  0.500000  0.500000  1
  Co  Co4  1  0.370690  0.121116  0.999127  1
  Co  Co5  1  0.121116  0.370690  0.000873  1
  Co  Co6  1  0.878884  0.629310  0.999127  1
  Co  Co7  1  0.629310  0.878884  0.000873  1
  O  O8  1  0.076929  0.923071  0.188206  1
  O  O9  1  0.328291  0.671709  0.190995  1
  O  O10  1  0.953051  0.549191  0.304963  1
  O  O11  1  0.702171  0.800163  0.306927  1
  O  O12  1  0.450809  0.046949  0.304963  1
  O  O13  1  0.199837  0.297829  0.306927  1
  O  O14  1  0.800163  0.702171  0.693073  1
  O  O15  1  0.046949  0.450809  0.695037  1
  O  O16  1  0.549191  0.953051  0.695037  1
  O  O17  1  0.297829  0.199837  0.693073  1
  O  O18  1  0.923071  0.076929  0.811794  1
  O  O19  1  0.671709  0.328291  0.809005  1
  F  F20  1  0.819003  0.180997  0.220532  1
  F  F21  1  0.572333  0.427667  0.213407  1
  F  F22  1  0.427667  0.572333  0.786593  1
  F  F23  1  0.180997  0.819003  0.779468  1
