# generated using pymatgen
data_LiVOF4
_symmetry_space_group_name_H-M   'P 1'
_cell_length_a   5.03805563
_cell_length_b   7.82287562
_cell_length_c   10.20362017
_cell_angle_alpha   111.90950244
_cell_angle_beta   90.58895817
_cell_angle_gamma   91.80584550
_symmetry_Int_Tables_number   1
_chemical_formula_structural   LiVOF4
_chemical_formula_sum   'Li4 V4 O4 F16'
_cell_volume   372.81005916
_cell_formula_units_Z   4
loop_
 _symmetry_equiv_pos_site_id
 _symmetry_equiv_pos_as_xyz
  1  'x, y, z'
loop_
 _atom_site_type_symbol
 _atom_site_label
 _atom_site_symmetry_multiplicity
 _atom_site_fract_x
 _atom_site_fract_y
 _atom_site_fract_z
 _atom_site_occupancy
  Li  Li0  1  0.031111  0.634921  0.312853  1
  Li  Li1  1  0.436706  0.653545  0.801275  1
  Li  Li2  1  0.988488  0.129327  0.365297  1
  Li  Li3  1  0.520900  0.130788  0.863999  1
  V  V4  1  0.535064  0.949582  0.497206  1
  V  V5  1  0.507037  0.464176  0.491953  1
  V  V6  1  0.965672  0.542518  0.997588  1
  V  V7  1  0.023372  0.044906  0.002934  1
  O  O8  1  0.647978  0.752026  0.488973  1
  O  O9  1  0.841674  0.723823  0.983342  1
  O  O10  1  0.165062  0.233141  0.000709  1
  O  O11  1  0.759977  0.378340  0.392871  1
  F  F12  1  0.654670  0.962562  0.331369  1
  F  F13  1  0.201005  0.887954  0.410145  1
  F  F14  1  0.236419  0.635641  0.126767  1
  F  F15  1  0.831833  0.959952  0.833844  1
  F  F16  1  0.792815  0.525569  0.151965  1
  F  F17  1  0.291862  0.888614  0.913069  1
  F  F18  1  0.277922  0.633373  0.623672  1
  F  F19  1  0.284328  0.486415  0.355668  1
  F  F20  1  0.701077  0.521317  0.657391  1
  F  F21  1  0.706863  0.122076  0.080070  1
  F  F22  1  0.216020  0.481694  0.859389  1
  F  F23  1  0.329571  0.255806  0.490153  1
  F  F24  1  0.130611  0.041352  0.174425  1
  F  F25  1  0.738390  0.354946  0.887156  1
  F  F26  1  0.801938  0.117086  0.575946  1
  F  F27  1  0.372945  0.040211  0.667488  1
