# generated using pymatgen
data_Li6Mn2P(CO4)4
_symmetry_space_group_name_H-M   'P 1'
_cell_length_a   9.51563165
_cell_length_b   9.51563165
_cell_length_c   9.51563165
_cell_angle_alpha   60.00000000
_cell_angle_beta   60.00000000
_cell_angle_gamma   60.00000000
_symmetry_Int_Tables_number   1
_chemical_formula_structural   Li6Mn2P(CO4)4
_chemical_formula_sum   'Li12 Mn4 P2 C8 O32'
_cell_volume   609.25326938
_cell_formula_units_Z   2
loop_
 _symmetry_equiv_pos_site_id
 _symmetry_equiv_pos_as_xyz
  1  'x, y, z'
loop_
 _atom_site_type_symbol
 _atom_site_label
 _atom_site_symmetry_multiplicity
 _atom_site_fract_x
 _atom_site_fract_y
 _atom_site_fract_z
 _atom_site_occupancy
  Li  Li0  1  0.801352  0.198648  0.198648  1
  Li  Li1  1  0.448648  0.051352  0.448648  1
  Li  Li2  1  0.801352  0.801352  0.198648  1
  Li  Li3  1  0.198648  0.198648  0.801352  1
  Li  Li4  1  0.051352  0.448648  0.051352  1
  Li  Li5  1  0.051352  0.448648  0.448648  1
  Li  Li6  1  0.198648  0.801352  0.198648  1
  Li  Li7  1  0.198648  0.801352  0.801352  1
  Li  Li8  1  0.448648  0.448648  0.051352  1
  Li  Li9  1  0.051352  0.051352  0.448648  1
  Li  Li10  1  0.801352  0.198648  0.801352  1
  Li  Li11  1  0.448648  0.051352  0.051352  1
  Mn  Mn12  1  0.125000  0.625000  0.625000  1
  Mn  Mn13  1  0.625000  0.625000  0.125000  1
  Mn  Mn14  1  0.625000  0.125000  0.625000  1
  Mn  Mn15  1  0.625000  0.625000  0.625000  1
  P  P16  1  1.000000  1.000000  1.000000  1
  P  P17  1  0.250000  0.250000  0.250000  1
  C  C18  1  0.795002  0.401666  0.401666  1
  C  C19  1  0.401666  0.401666  0.795002  1
  C  C20  1  0.401666  0.401666  0.401666  1
  C  C21  1  0.401666  0.795002  0.401666  1
  C  C22  1  0.848334  0.454998  0.848334  1
  C  C23  1  0.848334  0.848334  0.848334  1
  C  C24  1  0.848334  0.848334  0.454998  1
  C  C25  1  0.454998  0.848334  0.848334  1
  O  O26  1  0.716882  0.839663  0.454301  1
  O  O27  1  0.454301  0.989154  0.716882  1
  O  O28  1  0.795699  0.410337  0.260846  1
  O  O29  1  0.533118  0.260846  0.410337  1
  O  O30  1  0.795699  0.533118  0.410337  1
  O  O31  1  0.066719  0.799842  0.066719  1
  O  O32  1  0.410337  0.260846  0.795699  1
  O  O33  1  0.066719  0.066719  0.799842  1
  O  O34  1  0.066719  0.066719  0.066719  1
  O  O35  1  0.410337  0.533118  0.260846  1
  O  O36  1  0.260846  0.410337  0.533118  1
  O  O37  1  0.799842  0.066719  0.066719  1
  O  O38  1  0.533118  0.795699  0.260846  1
  O  O39  1  0.260846  0.533118  0.795699  1
  O  O40  1  0.410337  0.795699  0.533118  1
  O  O41  1  0.989154  0.454301  0.839663  1
  O  O42  1  0.260846  0.795699  0.410337  1
  O  O43  1  0.839663  0.454301  0.716882  1
  O  O44  1  0.989154  0.716882  0.454301  1
  O  O45  1  0.716882  0.454301  0.989154  1
  O  O46  1  0.450158  0.183281  0.183281  1
  O  O47  1  0.989154  0.839663  0.716882  1
  O  O48  1  0.839663  0.716882  0.989154  1
  O  O49  1  0.183281  0.183281  0.450158  1
  O  O50  1  0.183281  0.183281  0.183281  1
  O  O51  1  0.839663  0.989154  0.454301  1
  O  O52  1  0.183281  0.450158  0.183281  1
  O  O53  1  0.454301  0.716882  0.839663  1
  O  O54  1  0.716882  0.989154  0.839663  1
  O  O55  1  0.454301  0.839663  0.989154  1
  O  O56  1  0.795699  0.260846  0.533118  1
  O  O57  1  0.533118  0.410337  0.795699  1
