# generated using pymatgen
data_Li11(NiO4)2
_symmetry_space_group_name_H-M   'P 1'
_cell_length_a   6.55803729
_cell_length_b   6.55803729
_cell_length_c   9.37127924
_cell_angle_alpha   89.97679045
_cell_angle_beta   90.02320955
_cell_angle_gamma   88.52887196
_symmetry_Int_Tables_number   1
_chemical_formula_structural   Li11(NiO4)2
_chemical_formula_sum   'Li22 Ni4 O16'
_cell_volume   402.90568654
_cell_formula_units_Z   2
loop_
 _symmetry_equiv_pos_site_id
 _symmetry_equiv_pos_as_xyz
  1  'x, y, z'
loop_
 _atom_site_type_symbol
 _atom_site_label
 _atom_site_symmetry_multiplicity
 _atom_site_fract_x
 _atom_site_fract_y
 _atom_site_fract_z
 _atom_site_occupancy
  Li  Li0  1  0.542741  0.950023  0.001229  1
  Li  Li1  1  0.541646  0.966034  0.496159  1
  Li  Li2  1  0.973340  0.973340  0.000000  1
  Li  Li3  1  0.269228  0.723194  0.030431  1
  Li  Li4  1  0.253775  0.751985  0.277651  1
  Li  Li5  1  0.230090  0.773784  0.525139  1
  Li  Li6  1  0.249066  0.749840  0.781079  1
  Li  Li7  1  0.520329  0.520329  0.500000  1
  Li  Li8  1  0.950023  0.542741  0.998771  1
  Li  Li9  1  0.966034  0.541646  0.503841  1
  Li  Li10  1  0.034662  0.469660  0.250597  1
  Li  Li11  1  0.472777  0.477073  0.234791  1
  Li  Li12  1  0.030435  0.469423  0.749178  1
  Li  Li13  1  0.477073  0.472777  0.765209  1
  Li  Li14  1  0.749840  0.249066  0.218921  1
  Li  Li15  1  0.723194  0.269228  0.969569  1
  Li  Li16  1  0.751985  0.253775  0.722349  1
  Li  Li17  1  0.773784  0.230090  0.474860  1
  Li  Li18  1  0.027734  0.024734  0.269109  1
  Li  Li19  1  0.024734  0.027734  0.730891  1
  Li  Li20  1  0.469423  0.030435  0.250822  1
  Li  Li21  1  0.469660  0.034662  0.749403  1
  Ni  Ni22  1  0.751281  0.750358  0.251790  1
  Ni  Ni23  1  0.750358  0.751281  0.748210  1
  Ni  Ni24  1  0.253215  0.253215  0.000000  1
  Ni  Ni25  1  0.245251  0.245251  0.500000  1
  O  O26  1  0.250854  0.999551  0.895684  1
  O  O27  1  0.269382  0.992622  0.392377  1
  O  O28  1  0.483290  0.752995  0.648611  1
  O  O29  1  0.015528  0.750015  0.145451  1
  O  O30  1  0.014871  0.744228  0.658051  1
  O  O31  1  0.489557  0.755301  0.154916  1
  O  O32  1  0.247137  0.514669  0.396150  1
  O  O33  1  0.234972  0.496176  0.894621  1
  O  O34  1  0.752995  0.483290  0.351389  1
  O  O35  1  0.755301  0.489557  0.845084  1
  O  O36  1  0.992622  0.269382  0.607623  1
  O  O37  1  0.999551  0.250854  0.104316  1
  O  O38  1  0.496176  0.234972  0.105379  1
  O  O39  1  0.514669  0.247137  0.603850  1
  O  O40  1  0.744228  0.014871  0.341949  1
  O  O41  1  0.750015  0.015528  0.854549  1
