# generated using pymatgen
data_Li3Ti6Co3O16
_symmetry_space_group_name_H-M   'P 1'
_cell_length_a   8.45390077
_cell_length_b   8.45530123
_cell_length_c   11.96205889
_cell_angle_alpha   90.00000000
_cell_angle_beta   135.01451964
_cell_angle_gamma   90.00000000
_symmetry_Int_Tables_number   1
_chemical_formula_structural   Li3Ti6Co3O16
_chemical_formula_sum   'Li6 Ti12 Co6 O32'
_cell_volume   604.45932780
_cell_formula_units_Z   2
loop_
 _symmetry_equiv_pos_site_id
 _symmetry_equiv_pos_as_xyz
  1  'x, y, z'
loop_
 _atom_site_type_symbol
 _atom_site_label
 _atom_site_symmetry_multiplicity
 _atom_site_fract_x
 _atom_site_fract_y
 _atom_site_fract_z
 _atom_site_occupancy
  Li  Li0  1  0.250349  0.997787  0.248525  1
  Li  Li1  1  0.500376  0.875055  0.625330  1
  Li  Li2  1  0.750030  0.125002  0.125146  1
  Li  Li3  1  0.249970  0.625002  0.874854  1
  Li  Li4  1  0.499624  0.375055  0.374670  1
  Li  Li5  1  0.749651  0.497787  0.751475  1
  Ti  Ti6  1  0.750269  0.121631  0.880312  1
  Ti  Ti7  1  0.269349  0.627393  0.385206  1
  Ti  Ti8  1  0.006024  0.366004  0.130071  1
  Ti  Ti9  1  0.500886  0.376368  0.879491  1
  Ti  Ti10  1  0.258519  0.630444  0.630923  1
  Ti  Ti11  1  0.009762  0.881036  0.374281  1
  Ti  Ti12  1  0.741481  0.130444  0.369077  1
  Ti  Ti13  1  0.990238  0.381036  0.625719  1
  Ti  Ti14  1  0.499114  0.876368  0.120509  1
  Ti  Ti15  1  0.730651  0.127393  0.614794  1
  Ti  Ti16  1  0.249731  0.621631  0.119688  1
  Ti  Ti17  1  0.993976  0.866004  0.869929  1
  Co  Co18  1  0.248953  0.252006  0.500811  1
  Co  Co19  1  0.753590  0.749135  0.002303  1
  Co  Co20  1  0.752534  0.500370  0.251442  1
  Co  Co21  1  0.247466  0.000370  0.748558  1
  Co  Co22  1  0.246410  0.249135  0.997697  1
  Co  Co23  1  0.751047  0.752006  0.499189  1
  O  O24  1  0.229250  0.390610  0.357172  1
  O  O25  1  0.750473  0.360440  0.889987  1
  O  O26  1  0.230169  0.857255  0.374076  1
  O  O27  1  0.767618  0.892376  0.877509  1
  O  O28  1  0.463137  0.623422  0.605116  1
  O  O29  1  0.531969  0.127404  0.639654  1
  O  O30  1  0.985242  0.143877  0.109043  1
  O  O31  1  0.026330  0.612495  0.137679  1
  O  O32  1  0.988172  0.107388  0.377711  1
  O  O33  1  0.514517  0.138501  0.871615  1
  O  O34  1  0.251029  0.386905  0.637229  1
  O  O35  1  0.747776  0.377837  0.108316  1
  O  O36  1  0.023230  0.637400  0.386456  1
  O  O37  1  0.231405  0.858549  0.610193  1
  O  O38  1  0.488002  0.611133  0.859268  1
  O  O39  1  0.747237  0.872177  0.139674  1
  O  O40  1  0.976770  0.137400  0.613544  1
  O  O41  1  0.768595  0.358549  0.389807  1
  O  O42  1  0.252763  0.372177  0.860326  1
  O  O43  1  0.011828  0.607388  0.622289  1
  O  O44  1  0.511998  0.111133  0.140732  1
  O  O45  1  0.485483  0.638501  0.128385  1
  O  O46  1  0.748971  0.886905  0.362771  1
  O  O47  1  0.252224  0.877837  0.891684  1
  O  O48  1  0.536863  0.123422  0.394884  1
  O  O49  1  0.973670  0.112495  0.862321  1
  O  O50  1  0.769831  0.357255  0.625924  1
  O  O51  1  0.468031  0.627404  0.360346  1
  O  O52  1  0.014758  0.643877  0.890957  1
  O  O53  1  0.232382  0.392376  0.122491  1
  O  O54  1  0.770750  0.890610  0.642828  1
  O  O55  1  0.249527  0.860440  0.110013  1
