# generated using pymatgen
data_YErO3
_symmetry_space_group_name_H-M   'P 1'
_cell_length_a   5.68258085
_cell_length_b   5.94374926
_cell_length_c   8.37516959
_cell_angle_alpha   90.00000000
_cell_angle_beta   90.00000000
_cell_angle_gamma   90.00000000
_symmetry_Int_Tables_number   1
_chemical_formula_structural   YErO3
_chemical_formula_sum   'Y4 Er4 O12'
_cell_volume   282.87835222
_cell_formula_units_Z   4
loop_
 _symmetry_equiv_pos_site_id
 _symmetry_equiv_pos_as_xyz
  1  'x, y, z'
loop_
 _atom_site_type_symbol
 _atom_site_label
 _atom_site_symmetry_multiplicity
 _atom_site_fract_x
 _atom_site_fract_y
 _atom_site_fract_z
 _atom_site_occupancy
  Y  Y0  1  0.013834  0.947781  0.750000  1
  Y  Y1  1  0.486166  0.447781  0.750000  1
  Y  Y2  1  0.513834  0.552219  0.250000  1
  Y  Y3  1  0.986166  0.052219  0.250000  1
  Er  Er4  1  0.000000  0.500000  0.000000  1
  Er  Er5  1  0.000000  0.500000  0.500000  1
  Er  Er6  1  0.500000  0.000000  0.000000  1
  Er  Er7  1  0.500000  0.000000  0.500000  1
  O  O8  1  0.144664  0.421713  0.250000  1
  O  O9  1  0.179271  0.182956  0.575630  1
  O  O10  1  0.179271  0.182956  0.924370  1
  O  O11  1  0.320729  0.682956  0.924370  1
  O  O12  1  0.320729  0.682956  0.575630  1
  O  O13  1  0.355336  0.921713  0.250000  1
  O  O14  1  0.644664  0.078287  0.750000  1
  O  O15  1  0.679271  0.317044  0.424370  1
  O  O16  1  0.679271  0.317044  0.075630  1
  O  O17  1  0.820729  0.817044  0.075630  1
  O  O18  1  0.820729  0.817044  0.424370  1
  O  O19  1  0.855336  0.578287  0.750000  1
