# generated using pymatgen
data_LiMnP4(H2O7)2
_symmetry_space_group_name_H-M   'P 1'
_cell_length_a   5.03887122
_cell_length_b   7.27133568
_cell_length_c   7.88317527
_cell_angle_alpha   83.63815275
_cell_angle_beta   81.02069375
_cell_angle_gamma   73.26167441
_symmetry_Int_Tables_number   1
_chemical_formula_structural   LiMnP4(H2O7)2
_chemical_formula_sum   'Li1 Mn1 P4 H4 O14'
_cell_volume   272.54359411
_cell_formula_units_Z   1
loop_
 _symmetry_equiv_pos_site_id
 _symmetry_equiv_pos_as_xyz
  1  'x, y, z'
loop_
 _atom_site_type_symbol
 _atom_site_label
 _atom_site_symmetry_multiplicity
 _atom_site_fract_x
 _atom_site_fract_y
 _atom_site_fract_z
 _atom_site_occupancy
  Li  Li0  1  0.000000  0.000000  0.000000  1
  Mn  Mn1  1  0.000000  0.500000  0.000000  1
  P  P2  1  0.323686  0.215980  0.308712  1
  P  P3  1  0.402569  0.612357  0.228827  1
  P  P4  1  0.597431  0.387643  0.771173  1
  P  P5  1  0.676314  0.784020  0.691288  1
  H  H6  1  0.098310  0.790216  0.427485  1
  H  H7  1  0.697373  0.995673  0.376567  1
  H  H8  1  0.302627  0.004327  0.623433  1
  H  H9  1  0.901690  0.209784  0.572515  1
  O  O10  1  0.175799  0.238098  0.151944  1
  O  O11  1  0.183743  0.152532  0.480844  1
  O  O12  1  0.236849  0.654866  0.074904  1
  O  O13  1  0.284985  0.408402  0.814792  1
  O  O14  1  0.354803  0.425449  0.340971  1
  O  O15  1  0.293583  0.774495  0.354226  1
  O  O16  1  0.632468  0.084228  0.271050  1
  O  O17  1  0.367532  0.915772  0.728950  1
  O  O18  1  0.706417  0.225505  0.645774  1
  O  O19  1  0.645197  0.574551  0.659029  1
  O  O20  1  0.715015  0.591598  0.185208  1
  O  O21  1  0.763151  0.345134  0.925096  1
  O  O22  1  0.816257  0.847468  0.519156  1
  O  O23  1  0.824201  0.761902  0.848056  1
