# generated using pymatgen
data_LiVF5
_symmetry_space_group_name_H-M   'P 1'
_cell_length_a   6.49120048
_cell_length_b   7.46263237
_cell_length_c   14.81682063
_cell_angle_alpha   90.00000000
_cell_angle_beta   94.74393170
_cell_angle_gamma   90.00000000
_symmetry_Int_Tables_number   1
_chemical_formula_structural   LiVF5
_chemical_formula_sum   'Li8 V8 F40'
_cell_volume   715.28935632
_cell_formula_units_Z   8
loop_
 _symmetry_equiv_pos_site_id
 _symmetry_equiv_pos_as_xyz
  1  'x, y, z'
loop_
 _atom_site_type_symbol
 _atom_site_label
 _atom_site_symmetry_multiplicity
 _atom_site_fract_x
 _atom_site_fract_y
 _atom_site_fract_z
 _atom_site_occupancy
  Li  Li0  1  0.497940  0.730865  0.599190  1
  Li  Li1  1  0.497940  0.769135  0.099190  1
  Li  Li2  1  0.170612  0.054461  0.567011  1
  Li  Li3  1  0.170612  0.445539  0.067011  1
  Li  Li4  1  0.829388  0.554461  0.932989  1
  Li  Li5  1  0.829388  0.945539  0.432989  1
  Li  Li6  1  0.502060  0.230865  0.900810  1
  Li  Li7  1  0.502060  0.269135  0.400810  1
  V  V8  1  0.320782  0.691570  0.871952  1
  V  V9  1  0.320782  0.808430  0.371952  1
  V  V10  1  0.005569  0.626512  0.655367  1
  V  V11  1  0.994431  0.126512  0.844633  1
  V  V12  1  0.005569  0.873488  0.155367  1
  V  V13  1  0.994431  0.373488  0.344633  1
  V  V14  1  0.679218  0.191570  0.628048  1
  V  V15  1  0.679218  0.308430  0.128048  1
  F  F16  1  0.483427  0.002618  0.603389  1
  F  F17  1  0.466016  0.800858  0.792180  1
  F  F18  1  0.483427  0.497382  0.103389  1
  F  F19  1  0.440029  0.808049  0.972323  1
  F  F20  1  0.466016  0.699142  0.292180  1
  F  F21  1  0.440029  0.691951  0.472323  1
  F  F22  1  0.220686  0.536961  0.599045  1
  F  F23  1  0.184426  0.558146  0.771135  1
  F  F24  1  0.185027  0.167694  0.765942  1
  F  F25  1  0.134900  0.848483  0.651953  1
  F  F26  1  0.185682  0.196546  0.938310  1
  F  F27  1  0.220686  0.963039  0.099045  1
  F  F28  1  0.138389  0.580431  0.949794  1
  F  F29  1  0.103690  0.872927  0.855448  1
  F  F30  1  0.184426  0.941854  0.271135  1
  F  F31  1  0.185027  0.332306  0.265942  1
  F  F32  1  0.134900  0.651517  0.151953  1
  F  F33  1  0.185682  0.303454  0.438310  1
  F  F34  1  0.138389  0.919569  0.449794  1
  F  F35  1  0.103690  0.627073  0.355448  1
  F  F36  1  0.896310  0.372927  0.644552  1
  F  F37  1  0.861611  0.080431  0.550206  1
  F  F38  1  0.814318  0.696546  0.561690  1
  F  F39  1  0.865100  0.348483  0.848047  1
  F  F40  1  0.814973  0.667694  0.734058  1
  F  F41  1  0.815574  0.058146  0.728865  1
  F  F42  1  0.896310  0.127073  0.144552  1
  F  F43  1  0.861611  0.419569  0.050206  1
  F  F44  1  0.779314  0.036961  0.900955  1
  F  F45  1  0.814318  0.803454  0.061690  1
  F  F46  1  0.865100  0.151517  0.348047  1
  F  F47  1  0.814973  0.832306  0.234058  1
  F  F48  1  0.815574  0.441854  0.228865  1
  F  F49  1  0.779314  0.463039  0.400955  1
  F  F50  1  0.559971  0.308049  0.527677  1
  F  F51  1  0.533984  0.300858  0.707820  1
  F  F52  1  0.559971  0.191951  0.027677  1
  F  F53  1  0.516573  0.502618  0.896611  1
  F  F54  1  0.533984  0.199142  0.207820  1
  F  F55  1  0.516573  0.997382  0.396611  1
