# generated using pymatgen
data_SrLaCl5
_symmetry_space_group_name_H-M   'P 1'
_cell_length_a   7.67307868
_cell_length_b   4.39112326
_cell_length_c   12.86186264
_cell_angle_alpha   90.00000000
_cell_angle_beta   92.39856183
_cell_angle_gamma   90.00000000
_symmetry_Int_Tables_number   1
_chemical_formula_structural   SrLaCl5
_chemical_formula_sum   'Sr2 La2 Cl10'
_cell_volume   432.98064822
_cell_formula_units_Z   2
loop_
 _symmetry_equiv_pos_site_id
 _symmetry_equiv_pos_as_xyz
  1  'x, y, z'
loop_
 _atom_site_type_symbol
 _atom_site_label
 _atom_site_symmetry_multiplicity
 _atom_site_fract_x
 _atom_site_fract_y
 _atom_site_fract_z
 _atom_site_occupancy
  Sr  Sr0  1  0.056201  0.250000  0.850951  1
  Sr  Sr1  1  0.943799  0.750000  0.149049  1
  La  La2  1  0.431512  0.750000  0.657886  1
  La  La3  1  0.568488  0.250000  0.342114  1
  Cl  Cl4  1  0.068659  0.750000  0.670547  1
  Cl  Cl5  1  0.147108  0.250000  0.074776  1
  Cl  Cl6  1  0.323335  0.250000  0.519606  1
  Cl  Cl7  1  0.352925  0.750000  0.866585  1
  Cl  Cl8  1  0.354835  0.750000  0.280465  1
  Cl  Cl9  1  0.645165  0.250000  0.719535  1
  Cl  Cl10  1  0.647075  0.250000  0.133415  1
  Cl  Cl11  1  0.676665  0.750000  0.480394  1
  Cl  Cl12  1  0.852892  0.750000  0.925224  1
  Cl  Cl13  1  0.931341  0.250000  0.329453  1
