# generated using pymatgen
data_Li6VO4F
_symmetry_space_group_name_H-M   'P 1'
_cell_length_a   5.01674017
_cell_length_b   9.60035318
_cell_length_c   5.24991640
_cell_angle_alpha   90.00000000
_cell_angle_beta   115.52273272
_cell_angle_gamma   90.00000000
_symmetry_Int_Tables_number   1
_chemical_formula_structural   Li6VO4F
_chemical_formula_sum   'Li12 V2 O8 F2'
_cell_volume   228.17456152
_cell_formula_units_Z   2
loop_
 _symmetry_equiv_pos_site_id
 _symmetry_equiv_pos_as_xyz
  1  'x, y, z'
loop_
 _atom_site_type_symbol
 _atom_site_label
 _atom_site_symmetry_multiplicity
 _atom_site_fract_x
 _atom_site_fract_y
 _atom_site_fract_z
 _atom_site_occupancy
  Li  Li0  1  0.434291  0.257702  0.590028  1
  Li  Li1  1  0.194808  0.756385  0.621718  1
  Li  Li2  1  0.725660  0.998848  0.518982  1
  Li  Li3  1  0.784020  0.496535  0.555778  1
  Li  Li4  1  0.215980  0.996535  0.444222  1
  Li  Li5  1  0.274340  0.498848  0.481018  1
  Li  Li6  1  0.565709  0.757702  0.409972  1
  Li  Li7  1  0.805192  0.256385  0.378282  1
  Li  Li8  1  0.277454  0.550410  0.983271  1
  Li  Li9  1  0.332985  0.937615  0.995453  1
  Li  Li10  1  0.722546  0.050410  0.016729  1
  Li  Li11  1  0.667015  0.437615  0.004547  1
  V  V12  1  0.182633  0.258496  0.003391  1
  V  V13  1  0.817367  0.758496  0.996609  1
  O  O14  1  0.541385  0.900388  0.718049  1
  O  O15  1  0.587816  0.608843  0.742729  1
  O  O16  1  0.153260  0.382952  0.699950  1
  O  O17  1  0.846740  0.882952  0.300050  1
  O  O18  1  0.458615  0.400388  0.281951  1
  O  O19  1  0.412184  0.108843  0.257271  1
  O  O20  1  0.210727  0.747169  0.020241  1
  O  O21  1  0.789273  0.247169  0.979759  1
  F  F22  1  0.072158  0.104658  0.664141  1
  F  F23  1  0.927842  0.604658  0.335859  1
