# generated using pymatgen
data_Li6NiOF6
_symmetry_space_group_name_H-M   'P 1'
_cell_length_a   10.62152143
_cell_length_b   10.62152143
_cell_length_c   10.62152143
_cell_angle_alpha   163.95578624
_cell_angle_beta   158.39871953
_cell_angle_gamma   27.02391340
_symmetry_Int_Tables_number   1
_chemical_formula_structural   Li6NiOF6
_chemical_formula_sum   'Li6 Ni1 O1 F6'
_cell_volume   121.87863730
_cell_formula_units_Z   1
loop_
 _symmetry_equiv_pos_site_id
 _symmetry_equiv_pos_as_xyz
  1  'x, y, z'
loop_
 _atom_site_type_symbol
 _atom_site_label
 _atom_site_symmetry_multiplicity
 _atom_site_fract_x
 _atom_site_fract_y
 _atom_site_fract_z
 _atom_site_occupancy
  Li  Li0  1  0.567566  0.567566  0.000000  1
  Li  Li1  1  0.148862  0.148862  0.000000  1
  Li  Li2  1  0.713242  0.713242  0.000000  1
  Li  Li3  1  0.286758  0.286758  0.000000  1
  Li  Li4  1  0.851138  0.851138  0.000000  1
  Li  Li5  1  0.432434  0.432434  0.000000  1
  Ni  Ni6  1  0.000000  0.000000  0.000000  1
  O  O7  1  0.500000  0.000000  0.500000  1
  F  F8  1  0.074692  0.574692  0.500000  1
  F  F9  1  0.646206  0.146206  0.500000  1
  F  F10  1  0.215176  0.715176  0.500000  1
  F  F11  1  0.784824  0.284824  0.500000  1
  F  F12  1  0.353794  0.853794  0.500000  1
  F  F13  1  0.925308  0.425308  0.500000  1
