# generated using pymatgen
data_Nb2OF8
_symmetry_space_group_name_H-M   'P 1'
_cell_length_a   9.39014702
_cell_length_b   5.45735130
_cell_length_c   15.69637023
_cell_angle_alpha   90.00000000
_cell_angle_beta   104.35650704
_cell_angle_gamma   90.00000000
_symmetry_Int_Tables_number   1
_chemical_formula_structural   Nb2OF8
_chemical_formula_sum   'Nb8 O4 F32'
_cell_volume   779.24668459
_cell_formula_units_Z   4
loop_
 _symmetry_equiv_pos_site_id
 _symmetry_equiv_pos_as_xyz
  1  'x, y, z'
loop_
 _atom_site_type_symbol
 _atom_site_label
 _atom_site_symmetry_multiplicity
 _atom_site_fract_x
 _atom_site_fract_y
 _atom_site_fract_z
 _atom_site_occupancy
  Nb  Nb0  1  0.093351  0.801291  0.377127  1
  Nb  Nb1  1  0.093351  0.198709  0.877127  1
  Nb  Nb2  1  0.463947  0.066371  0.344744  1
  Nb  Nb3  1  0.536053  0.066371  0.155256  1
  Nb  Nb4  1  0.463947  0.933629  0.844744  1
  Nb  Nb5  1  0.536053  0.933629  0.655256  1
  Nb  Nb6  1  0.906649  0.801291  0.122873  1
  Nb  Nb7  1  0.906649  0.198709  0.622873  1
  O  O8  1  0.295017  0.944512  0.360440  1
  O  O9  1  0.295017  0.055488  0.860440  1
  O  O10  1  0.704983  0.944512  0.139560  1
  O  O11  1  0.704983  0.055488  0.639560  1
  F  F12  1  0.000000  0.949827  0.250000  1
  F  F13  1  0.067485  0.124079  0.415849  1
  F  F14  1  0.196836  0.672896  0.485764  1
  F  F15  1  0.139386  0.541605  0.307659  1
  F  F16  1  0.094826  0.695261  0.117867  1
  F  F17  1  0.000000  0.050173  0.750000  1
  F  F18  1  0.067485  0.875921  0.915849  1
  F  F19  1  0.196836  0.327104  0.985764  1
  F  F20  1  0.139386  0.458395  0.807659  1
  F  F21  1  0.094826  0.304739  0.617867  1
  F  F22  1  0.365126  0.197515  0.220386  1
  F  F23  1  0.473054  0.376348  0.398244  1
  F  F24  1  0.395553  0.896091  0.068502  1
  F  F25  1  0.500000  0.808212  0.250000  1
  F  F26  1  0.365126  0.802485  0.720386  1
  F  F27  1  0.604447  0.896091  0.431498  1
  F  F28  1  0.473054  0.623652  0.898244  1
  F  F29  1  0.526946  0.376348  0.101756  1
  F  F30  1  0.395553  0.103909  0.568502  1
  F  F31  1  0.634874  0.197515  0.279614  1
  F  F32  1  0.500000  0.191788  0.750000  1
  F  F33  1  0.604447  0.103909  0.931498  1
  F  F34  1  0.526946  0.623652  0.601756  1
  F  F35  1  0.634874  0.802485  0.779614  1
  F  F36  1  0.905174  0.695261  0.382133  1
  F  F37  1  0.860614  0.541605  0.192341  1
  F  F38  1  0.803164  0.672896  0.014236  1
  F  F39  1  0.932515  0.124079  0.084151  1
  F  F40  1  0.905174  0.304739  0.882133  1
  F  F41  1  0.860614  0.458395  0.692341  1
  F  F42  1  0.803164  0.327104  0.514236  1
  F  F43  1  0.932515  0.875921  0.584151  1
