# generated using pymatgen
data_Ti2Mn(PO4)3
_symmetry_space_group_name_H-M   'P 1'
_cell_length_a   8.67012541
_cell_length_b   8.67012541
_cell_length_c   8.67012541
_cell_angle_alpha   60.05992219
_cell_angle_beta   60.05992219
_cell_angle_gamma   60.05992219
_symmetry_Int_Tables_number   1
_chemical_formula_structural   Ti2Mn(PO4)3
_chemical_formula_sum   'Ti4 Mn2 P6 O24'
_cell_volume   461.47751334
_cell_formula_units_Z   2
loop_
 _symmetry_equiv_pos_site_id
 _symmetry_equiv_pos_as_xyz
  1  'x, y, z'
loop_
 _atom_site_type_symbol
 _atom_site_label
 _atom_site_symmetry_multiplicity
 _atom_site_fract_x
 _atom_site_fract_y
 _atom_site_fract_z
 _atom_site_occupancy
  Ti  Ti0  1  0.854563  0.854563  0.854563  1
  Ti  Ti1  1  0.645437  0.645437  0.645437  1
  Ti  Ti2  1  0.354563  0.354563  0.354563  1
  Ti  Ti3  1  0.145437  0.145437  0.145437  1
  Mn  Mn4  1  0.000000  0.000000  0.000000  1
  Mn  Mn5  1  0.500000  0.500000  0.500000  1
  P  P6  1  0.543364  0.956636  0.250000  1
  P  P7  1  0.250000  0.543364  0.956636  1
  P  P8  1  0.956636  0.250000  0.543364  1
  P  P9  1  0.043364  0.750000  0.456636  1
  P  P10  1  0.750000  0.456636  0.043364  1
  P  P11  1  0.456636  0.043364  0.750000  1
  O  O12  1  0.497030  0.882983  0.690713  1
  O  O13  1  0.882983  0.690713  0.497030  1
  O  O14  1  0.735986  0.941341  0.086231  1
  O  O15  1  0.690713  0.497030  0.882983  1
  O  O16  1  0.382983  0.997030  0.190713  1
  O  O17  1  0.558659  0.764014  0.413769  1
  O  O18  1  0.086231  0.735986  0.941341  1
  O  O19  1  0.413769  0.558659  0.764014  1
  O  O20  1  0.002970  0.809287  0.617017  1
  O  O21  1  0.764014  0.413769  0.558659  1
  O  O22  1  0.058659  0.913769  0.264014  1
  O  O23  1  0.809287  0.617017  0.002970  1
  O  O24  1  0.190713  0.382983  0.997030  1
  O  O25  1  0.941341  0.086231  0.735986  1
  O  O26  1  0.235986  0.586231  0.441341  1
  O  O27  1  0.997030  0.190713  0.382983  1
  O  O28  1  0.586231  0.441341  0.235986  1
  O  O29  1  0.913769  0.264014  0.058659  1
  O  O30  1  0.441341  0.235986  0.586231  1
  O  O31  1  0.617017  0.002970  0.809287  1
  O  O32  1  0.309287  0.502970  0.117017  1
  O  O33  1  0.264014  0.058659  0.913769  1
  O  O34  1  0.117017  0.309287  0.502970  1
  O  O35  1  0.502970  0.117017  0.309287  1
