# generated using pymatgen
data_Li4Co2(PO4)3
_symmetry_space_group_name_H-M   'P 1'
_cell_length_a   8.33911042
_cell_length_b   8.38508362
_cell_length_c   9.10950475
_cell_angle_alpha   116.55684347
_cell_angle_beta   91.22996364
_cell_angle_gamma   118.75514131
_symmetry_Int_Tables_number   1
_chemical_formula_structural   Li4Co2(PO4)3
_chemical_formula_sum   'Li8 Co4 P6 O24'
_cell_volume   476.23977812
_cell_formula_units_Z   2
loop_
 _symmetry_equiv_pos_site_id
 _symmetry_equiv_pos_as_xyz
  1  'x, y, z'
loop_
 _atom_site_type_symbol
 _atom_site_label
 _atom_site_symmetry_multiplicity
 _atom_site_fract_x
 _atom_site_fract_y
 _atom_site_fract_z
 _atom_site_occupancy
  Li  Li0  1  0.190439  0.916451  0.145242  1
  Li  Li1  1  0.590846  0.671621  0.138594  1
  Li  Li2  1  0.968454  0.277536  0.102672  1
  Li  Li3  1  0.203465  0.737674  0.583538  1
  Li  Li4  1  0.796535  0.262326  0.416462  1
  Li  Li5  1  0.031546  0.722464  0.897328  1
  Li  Li6  1  0.409154  0.328379  0.861406  1
  Li  Li7  1  0.809561  0.083549  0.854758  1
  Co  Co8  1  0.311941  0.651338  0.040167  1
  Co  Co9  1  0.295872  0.154128  0.559353  1
  Co  Co10  1  0.704128  0.845872  0.440647  1
  Co  Co11  1  0.688059  0.348662  0.959833  1
  P  P12  1  0.515983  0.962846  0.239238  1
  P  P13  1  0.794234  0.538466  0.253258  1
  P  P14  1  0.203485  0.249538  0.251967  1
  P  P15  1  0.796515  0.750462  0.748033  1
  P  P16  1  0.205766  0.461534  0.746742  1
  P  P17  1  0.484017  0.037154  0.760762  1
  O  O18  1  0.744963  0.542378  0.106452  1
  O  O19  1  0.340218  0.197787  0.103771  1
  O  O20  1  0.705419  0.157871  0.089888  1
  O  O21  1  0.348802  0.836755  0.192612  1
  O  O22  1  0.623425  0.861557  0.257682  1
  O  O23  1  0.404514  0.993855  0.410729  1
  O  O24  1  0.878966  0.740511  0.271841  1
  O  O25  1  0.969729  0.491441  0.200130  1
  O  O26  1  0.307690  0.469111  0.199306  1
  O  O27  1  0.823488  0.822991  0.577779  1
  O  O28  1  0.028697  0.853868  0.716871  1
  O  O29  1  0.399371  0.619434  0.576304  1
  O  O30  1  0.600629  0.380566  0.423696  1
  O  O31  1  0.971303  0.146132  0.283129  1
  O  O32  1  0.176512  0.177009  0.422221  1
  O  O33  1  0.692310  0.530889  0.800694  1
  O  O34  1  0.030271  0.508559  0.799870  1
  O  O35  1  0.121034  0.259489  0.728159  1
  O  O36  1  0.595486  0.006145  0.589271  1
  O  O37  1  0.376575  0.138443  0.742318  1
  O  O38  1  0.651198  0.163245  0.807388  1
  O  O39  1  0.294581  0.842129  0.910112  1
  O  O40  1  0.659782  0.802213  0.896229  1
  O  O41  1  0.255037  0.457622  0.893548  1
