# generated using pymatgen
data_Li2MnFe(BO3)2
_symmetry_space_group_name_H-M   'P 1'
_cell_length_a   5.27416462
_cell_length_b   6.04388919
_cell_length_c   8.97382846
_cell_angle_alpha   102.31774591
_cell_angle_beta   90.80584159
_cell_angle_gamma   114.01137678
_symmetry_Int_Tables_number   1
_chemical_formula_structural   Li2MnFe(BO3)2
_chemical_formula_sum   'Li4 Mn2 Fe2 B4 O12'
_cell_volume   253.64891429
_cell_formula_units_Z   2
loop_
 _symmetry_equiv_pos_site_id
 _symmetry_equiv_pos_as_xyz
  1  'x, y, z'
loop_
 _atom_site_type_symbol
 _atom_site_label
 _atom_site_symmetry_multiplicity
 _atom_site_fract_x
 _atom_site_fract_y
 _atom_site_fract_z
 _atom_site_occupancy
  Li  Li0  1  0.343547  0.325096  0.715102  1
  Li  Li1  1  0.848452  0.329656  0.218207  1
  Li  Li2  1  0.656453  0.674904  0.284898  1
  Li  Li3  1  0.151548  0.670344  0.781793  1
  Mn  Mn4  1  0.295701  0.235050  0.044204  1
  Mn  Mn5  1  0.704299  0.764950  0.955796  1
  Fe  Fe6  1  0.793176  0.231734  0.537950  1
  Fe  Fe7  1  0.206824  0.768266  0.462050  1
  B  B8  1  0.308790  0.259047  0.384834  1
  B  B9  1  0.691210  0.740953  0.615166  1
  B  B10  1  0.806936  0.262258  0.880099  1
  B  B11  1  0.193064  0.737742  0.119901  1
  O  O12  1  0.379808  0.174216  0.506424  1
  O  O13  1  0.476812  0.297745  0.267879  1
  O  O14  1  0.579264  0.324447  0.884250  1
  O  O15  1  0.076561  0.314472  0.388216  1
  O  O16  1  0.872720  0.176110  0.003012  1
  O  O17  1  0.523188  0.702255  0.732121  1
  O  O18  1  0.971416  0.293807  0.761738  1
  O  O19  1  0.620192  0.825784  0.493576  1
  O  O20  1  0.420736  0.675553  0.115750  1
  O  O21  1  0.923439  0.685528  0.611784  1
  O  O22  1  0.028584  0.706193  0.238262  1
  O  O23  1  0.127280  0.823890  0.996988  1
