# generated using pymatgen
data_V6O5F19
_symmetry_space_group_name_H-M   'P 1'
_cell_length_a   5.38316038
_cell_length_b   5.58729692
_cell_length_c   14.94140517
_cell_angle_alpha   100.53832735
_cell_angle_beta   89.59683189
_cell_angle_gamma   93.59669595
_symmetry_Int_Tables_number   1
_chemical_formula_structural   V6O5F19
_chemical_formula_sum   'V6 O5 F19'
_cell_volume   440.94253861
_cell_formula_units_Z   1
loop_
 _symmetry_equiv_pos_site_id
 _symmetry_equiv_pos_as_xyz
  1  'x, y, z'
loop_
 _atom_site_type_symbol
 _atom_site_label
 _atom_site_symmetry_multiplicity
 _atom_site_fract_x
 _atom_site_fract_y
 _atom_site_fract_z
 _atom_site_occupancy
  V  V0  1  0.035751  0.955815  0.996023  1
  V  V1  1  0.542049  0.797925  0.670029  1
  V  V2  1  0.963027  0.723141  0.338993  1
  V  V3  1  0.541480  0.465014  0.003145  1
  V  V4  1  0.036223  0.289775  0.664031  1
  V  V5  1  0.480198  0.183094  0.330943  1
  O  O6  1  0.809859  0.968211  0.364757  1
  O  O7  1  0.758877  0.622839  0.683938  1
  O  O8  1  0.759188  0.292102  0.018305  1
  O  O9  1  0.215515  0.732920  0.981286  1
  O  O10  1  0.218085  0.068303  0.650206  1
  F  F11  1  0.732215  0.780042  0.026967  1
  F  F12  1  0.286281  0.863344  0.310981  1
  F  F13  1  0.907339  0.948236  0.886161  1
  F  F14  1  0.562844  0.816895  0.552896  1
  F  F15  1  0.921485  0.624411  0.220575  1
  F  F16  1  0.410667  0.877966  0.779863  1
  F  F17  1  0.094877  0.673843  0.441885  1
  F  F18  1  0.410195  0.545348  0.113071  1
  F  F19  1  0.690789  0.490740  0.355584  1
  F  F20  1  0.270466  0.550356  0.638136  1
  F  F21  1  0.209327  0.332001  0.301244  1
  F  F22  1  0.561195  0.477623  0.885426  1
  F  F23  1  0.907852  0.275931  0.553968  1
  F  F24  1  0.608410  0.107184  0.221213  1
  F  F25  1  0.065160  0.420223  0.781165  1
  F  F26  1  0.424175  0.208404  0.448741  1
  F  F27  1  0.069135  0.081463  0.113395  1
  F  F28  1  0.733928  0.112920  0.695581  1
  F  F29  1  0.273407  0.213935  0.971494  1
