# generated using pymatgen
data_Li4Ti4Mn4VO18
_symmetry_space_group_name_H-M   'P 1'
_cell_length_a   2.91115024
_cell_length_b   9.13961176
_cell_length_c   26.53602769
_cell_angle_alpha   90.00000000
_cell_angle_beta   90.00000000
_cell_angle_gamma   90.00000000
_symmetry_Int_Tables_number   1
_chemical_formula_structural   Li4Ti4Mn4VO18
_chemical_formula_sum   'Li8 Ti8 Mn8 V2 O36'
_cell_volume   706.03832960
_cell_formula_units_Z   2
loop_
 _symmetry_equiv_pos_site_id
 _symmetry_equiv_pos_as_xyz
  1  'x, y, z'
loop_
 _atom_site_type_symbol
 _atom_site_label
 _atom_site_symmetry_multiplicity
 _atom_site_fract_x
 _atom_site_fract_y
 _atom_site_fract_z
 _atom_site_occupancy
  Li  Li0  1  0.000000  0.191065  0.485919  1
  Li  Li1  1  0.000000  0.201485  0.678781  1
  Li  Li2  1  0.000000  0.298515  0.178781  1
  Li  Li3  1  0.000000  0.308935  0.985919  1
  Li  Li4  1  0.000000  0.691065  0.014081  1
  Li  Li5  1  0.000000  0.701485  0.821219  1
  Li  Li6  1  0.000000  0.798515  0.321219  1
  Li  Li7  1  0.000000  0.808935  0.514081  1
  Ti  Ti8  1  0.000000  0.989966  0.602009  1
  Ti  Ti9  1  0.500000  0.151806  0.307999  1
  Ti  Ti10  1  0.500000  0.348194  0.807999  1
  Ti  Ti11  1  0.000000  0.510034  0.102009  1
  Ti  Ti12  1  0.000000  0.489966  0.897991  1
  Ti  Ti13  1  0.500000  0.651806  0.192001  1
  Ti  Ti14  1  0.500000  0.848194  0.692001  1
  Ti  Ti15  1  0.000000  0.010034  0.397991  1
  Mn  Mn16  1  0.000000  0.004157  0.808888  1
  Mn  Mn17  1  0.500000  0.155842  0.086420  1
  Mn  Mn18  1  0.500000  0.344158  0.586420  1
  Mn  Mn19  1  0.000000  0.495843  0.308888  1
  Mn  Mn20  1  0.000000  0.504157  0.691112  1
  Mn  Mn21  1  0.500000  0.655842  0.413580  1
  Mn  Mn22  1  0.500000  0.844158  0.913580  1
  Mn  Mn23  1  0.000000  0.995843  0.191112  1
  V  V24  1  0.000000  0.000000  0.000000  1
  V  V25  1  0.000000  0.500000  0.500000  1
  O  O26  1  0.000000  0.980597  0.926102  1
  O  O27  1  0.000000  0.019403  0.073898  1
  O  O28  1  0.500000  0.062387  0.441925  1
  O  O29  1  0.500000  0.043682  0.654790  1
  O  O30  1  0.500000  0.125403  0.168275  1
  O  O31  1  0.000000  0.103982  0.264063  1
  O  O32  1  0.500000  0.146758  0.997913  1
  O  O33  1  0.500000  0.138194  0.793644  1
  O  O34  1  0.000000  0.186882  0.358769  1
  O  O35  1  0.000000  0.200747  0.585734  1
  O  O36  1  0.000000  0.299253  0.085734  1
  O  O37  1  0.000000  0.313118  0.858769  1
  O  O38  1  0.500000  0.361806  0.293644  1
  O  O39  1  0.500000  0.353242  0.497913  1
  O  O40  1  0.000000  0.396018  0.764063  1
  O  O41  1  0.500000  0.374597  0.668275  1
  O  O42  1  0.500000  0.456318  0.154790  1
  O  O43  1  0.500000  0.437613  0.941925  1
  O  O44  1  0.000000  0.480597  0.573898  1
  O  O45  1  0.000000  0.519403  0.426102  1
  O  O46  1  0.500000  0.562387  0.058075  1
  O  O47  1  0.500000  0.543682  0.845210  1
  O  O48  1  0.500000  0.625403  0.331725  1
  O  O49  1  0.000000  0.603982  0.235937  1
  O  O50  1  0.500000  0.646758  0.502087  1
  O  O51  1  0.500000  0.638194  0.706356  1
  O  O52  1  0.000000  0.686882  0.141231  1
  O  O53  1  0.000000  0.700747  0.914266  1
  O  O54  1  0.000000  0.799253  0.414266  1
  O  O55  1  0.000000  0.813118  0.641231  1
  O  O56  1  0.500000  0.861806  0.206356  1
  O  O57  1  0.500000  0.853242  0.002087  1
  O  O58  1  0.000000  0.896018  0.735937  1
  O  O59  1  0.500000  0.874597  0.831725  1
  O  O60  1  0.500000  0.956318  0.345210  1
  O  O61  1  0.500000  0.937613  0.558075  1
