# generated using pymatgen
data_La2Si2O7
_symmetry_space_group_name_H-M   'P 1'
_cell_length_a   6.53473361
_cell_length_b   8.59356478
_cell_length_c   15.74548038
_cell_angle_alpha   90.00000000
_cell_angle_beta   90.87526569
_cell_angle_gamma   90.00000000
_symmetry_Int_Tables_number   1
_chemical_formula_structural   La2Si2O7
_chemical_formula_sum   'La8 Si8 O28'
_cell_volume   884.11036551
_cell_formula_units_Z   4
loop_
 _symmetry_equiv_pos_site_id
 _symmetry_equiv_pos_as_xyz
  1  'x, y, z'
loop_
 _atom_site_type_symbol
 _atom_site_label
 _atom_site_symmetry_multiplicity
 _atom_site_fract_x
 _atom_site_fract_y
 _atom_site_fract_z
 _atom_site_occupancy
  La  La0  1  0.821310  0.599238  0.415571  1
  La  La1  1  0.178690  0.099238  0.084429  1
  La  La2  1  0.425810  0.722936  0.724472  1
  La  La3  1  0.574190  0.222936  0.775528  1
  La  La4  1  0.574190  0.277064  0.275528  1
  La  La5  1  0.425810  0.777064  0.224472  1
  La  La6  1  0.821310  0.900762  0.915571  1
  La  La7  1  0.178690  0.400762  0.584429  1
  Si  Si8  1  0.341626  0.950194  0.878300  1
  Si  Si9  1  0.900211  0.511999  0.801135  1
  Si  Si10  1  0.341626  0.549806  0.378300  1
  Si  Si11  1  0.658374  0.450194  0.621700  1
  Si  Si12  1  0.900211  0.988001  0.301135  1
  Si  Si13  1  0.658374  0.049806  0.121700  1
  Si  Si14  1  0.099789  0.011999  0.698865  1
  Si  Si15  1  0.099789  0.488001  0.198865  1
  O  O16  1  0.534749  0.424086  0.401213  1
  O  O17  1  0.263002  0.456907  0.280947  1
  O  O18  1  0.877478  0.013902  0.762160  1
  O  O19  1  0.122522  0.513902  0.737840  1
  O  O20  1  0.892873  0.658417  0.863781  1
  O  O21  1  0.465251  0.924086  0.098787  1
  O  O22  1  0.678729  0.552667  0.232420  1
  O  O23  1  0.107127  0.341583  0.136219  1
  O  O24  1  0.850335  0.342068  0.838134  1
  O  O25  1  0.321271  0.447333  0.767580  1
  O  O26  1  0.321271  0.052667  0.267580  1
  O  O27  1  0.892873  0.841583  0.363781  1
  O  O28  1  0.151543  0.502421  0.442286  1
  O  O29  1  0.848457  0.002421  0.057714  1
  O  O30  1  0.151543  0.997579  0.942286  1
  O  O31  1  0.534749  0.075914  0.901213  1
  O  O32  1  0.678729  0.947333  0.732420  1
  O  O33  1  0.263002  0.043093  0.780947  1
  O  O34  1  0.877478  0.486098  0.262160  1
  O  O35  1  0.848457  0.497579  0.557714  1
  O  O36  1  0.465251  0.575914  0.598787  1
  O  O37  1  0.107127  0.158417  0.636219  1
  O  O38  1  0.149665  0.657932  0.161866  1
  O  O39  1  0.149665  0.842068  0.661866  1
  O  O40  1  0.122522  0.986098  0.237840  1
  O  O41  1  0.736998  0.543093  0.719053  1
  O  O42  1  0.850335  0.157932  0.338134  1
  O  O43  1  0.736998  0.956907  0.219053  1
