# generated using pymatgen
data_Li4FeNi3O8
_symmetry_space_group_name_H-M   'P 1'
_cell_length_a   5.78690282
_cell_length_b   5.83360953
_cell_length_c   5.83615360
_cell_angle_alpha   119.27018277
_cell_angle_beta   90.94781581
_cell_angle_gamma   118.96915479
_symmetry_Int_Tables_number   1
_chemical_formula_structural   Li4FeNi3O8
_chemical_formula_sum   'Li4 Fe1 Ni3 O8'
_cell_volume   141.83479632
_cell_formula_units_Z   1
loop_
 _symmetry_equiv_pos_site_id
 _symmetry_equiv_pos_as_xyz
  1  'x, y, z'
loop_
 _atom_site_type_symbol
 _atom_site_label
 _atom_site_symmetry_multiplicity
 _atom_site_fract_x
 _atom_site_fract_y
 _atom_site_fract_z
 _atom_site_occupancy
  Li  Li0  1  0.000000  0.500000  0.500000  1
  Li  Li1  1  0.500000  0.500000  0.500000  1
  Li  Li2  1  0.000000  0.000000  0.500000  1
  Li  Li3  1  0.500000  0.000000  0.500000  1
  Fe  Fe4  1  0.500000  0.000000  0.000000  1
  Ni  Ni5  1  0.500000  0.500000  0.000000  1
  Ni  Ni6  1  0.000000  0.500000  0.000000  1
  Ni  Ni7  1  0.000000  0.000000  0.000000  1
  O  O8  1  0.512155  0.748359  0.767645  1
  O  O9  1  0.969642  0.719383  0.777021  1
  O  O10  1  0.007387  0.744242  0.218291  1
  O  O11  1  0.463319  0.223420  0.767778  1
  O  O12  1  0.536680  0.776580  0.232222  1
  O  O13  1  0.992613  0.255758  0.781709  1
  O  O14  1  0.030358  0.280617  0.222979  1
  O  O15  1  0.487845  0.251641  0.232355  1
