# generated using pymatgen
data_Li3Mn3NiO8
_symmetry_space_group_name_H-M   'P 1'
_cell_length_a   5.81080622
_cell_length_b   5.81080622
_cell_length_c   9.49562845
_cell_angle_alpha   89.68053661
_cell_angle_beta   90.31946339
_cell_angle_gamma   60.86253367
_symmetry_Int_Tables_number   1
_chemical_formula_structural   Li3Mn3NiO8
_chemical_formula_sum   'Li6 Mn6 Ni2 O16'
_cell_volume   280.03365553
_cell_formula_units_Z   2
loop_
 _symmetry_equiv_pos_site_id
 _symmetry_equiv_pos_as_xyz
  1  'x, y, z'
loop_
 _atom_site_type_symbol
 _atom_site_label
 _atom_site_symmetry_multiplicity
 _atom_site_fract_x
 _atom_site_fract_y
 _atom_site_fract_z
 _atom_site_occupancy
  Li  Li0  1  0.168147  0.178532  0.556159  1
  Li  Li1  1  0.170893  0.650842  0.556267  1
  Li  Li2  1  0.652113  0.175829  0.556025  1
  Li  Li3  1  0.349158  0.829107  0.056267  1
  Li  Li4  1  0.824171  0.347887  0.056025  1
  Li  Li5  1  0.821468  0.831853  0.056159  1
  Mn  Mn6  1  0.167376  0.166934  0.286242  1
  Mn  Mn7  1  0.167386  0.665015  0.285424  1
  Mn  Mn8  1  0.664302  0.168027  0.285371  1
  Mn  Mn9  1  0.334985  0.832614  0.785424  1
  Mn  Mn10  1  0.831973  0.335698  0.785371  1
  Mn  Mn11  1  0.833066  0.832624  0.786242  1
  Ni  Ni12  1  0.335622  0.329516  0.006972  1
  Ni  Ni13  1  0.670484  0.664378  0.506972  1
  O  O14  1  0.162259  0.150858  0.896586  1
  O  O15  1  0.030028  0.483575  0.163904  1
  O  O16  1  0.157645  0.683769  0.898237  1
  O  O17  1  0.302448  0.348520  0.405801  1
  O  O18  1  0.478470  0.034396  0.166759  1
  O  O19  1  0.480623  0.488351  0.164372  1
  O  O20  1  0.316231  0.842355  0.398237  1
  O  O21  1  0.690675  0.150483  0.899688  1
  O  O22  1  0.511649  0.519377  0.664372  1
  O  O23  1  0.516425  0.969972  0.663904  1
  O  O24  1  0.015542  0.969467  0.670848  1
  O  O25  1  0.651480  0.697552  0.905801  1
  O  O26  1  0.030533  0.984458  0.170848  1
  O  O27  1  0.849517  0.309325  0.399688  1
  O  O28  1  0.965604  0.521530  0.666759  1
  O  O29  1  0.849142  0.837741  0.396586  1
