# generated using pymatgen
data_BaYI5
_symmetry_space_group_name_H-M   'P 1'
_cell_length_a   8.20213907
_cell_length_b   14.58451993
_cell_length_c   11.02754977
_cell_angle_alpha   90.00000000
_cell_angle_beta   94.90946666
_cell_angle_gamma   90.00000000
_symmetry_Int_Tables_number   1
_chemical_formula_structural   BaYI5
_chemical_formula_sum   'Ba4 Y4 I20'
_cell_volume   1314.32270553
_cell_formula_units_Z   4
loop_
 _symmetry_equiv_pos_site_id
 _symmetry_equiv_pos_as_xyz
  1  'x, y, z'
loop_
 _atom_site_type_symbol
 _atom_site_label
 _atom_site_symmetry_multiplicity
 _atom_site_fract_x
 _atom_site_fract_y
 _atom_site_fract_z
 _atom_site_occupancy
  Ba  Ba0  1  0.054710  0.043328  0.178143  1
  Ba  Ba1  1  0.401851  0.377033  0.372662  1
  Ba  Ba2  1  0.598149  0.877033  0.627338  1
  Ba  Ba3  1  0.945290  0.543328  0.821857  1
  Y  Y4  1  0.001233  0.623386  0.404782  1
  Y  Y5  1  0.504670  0.232402  0.873353  1
  Y  Y6  1  0.495330  0.732402  0.126647  1
  Y  Y7  1  0.998767  0.123386  0.595218  1
  I  I8  1  0.976099  0.758433  0.612697  1
  I  I9  1  0.078444  0.499417  0.200016  1
  I  I10  1  0.147223  0.278173  0.761765  1
  I  I11  1  0.236263  0.520358  0.587290  1
  I  I12  1  0.323982  0.228739  0.112903  1
  I  I13  1  0.259038  0.019183  0.467885  1
  I  I14  1  0.200527  0.710317  0.954420  1
  I  I15  1  0.339507  0.735466  0.378405  1
  I  I16  1  0.417522  0.038082  0.810378  1
  I  I17  1  0.433382  0.934183  0.137109  1
  I  I18  1  0.566618  0.434183  0.862891  1
  I  I19  1  0.582478  0.538082  0.189622  1
  I  I20  1  0.660493  0.235466  0.621595  1
  I  I21  1  0.799473  0.210317  0.045580  1
  I  I22  1  0.740962  0.519183  0.532115  1
  I  I23  1  0.676018  0.728739  0.887097  1
  I  I24  1  0.763737  0.020358  0.412710  1
  I  I25  1  0.852777  0.778173  0.238235  1
  I  I26  1  0.921556  0.999417  0.799984  1
  I  I27  1  0.023901  0.258433  0.387303  1
