# generated using pymatgen
data_Li5InO4
_symmetry_space_group_name_H-M   'P 1'
_cell_length_a   9.42133913
_cell_length_b   9.50534900
_cell_length_c   9.61009363
_cell_angle_alpha   90.00000000
_cell_angle_beta   90.00000000
_cell_angle_gamma   90.00000000
_symmetry_Int_Tables_number   1
_chemical_formula_structural   Li5InO4
_chemical_formula_sum   'Li40 In8 O32'
_cell_volume   860.61383421
_cell_formula_units_Z   8
loop_
 _symmetry_equiv_pos_site_id
 _symmetry_equiv_pos_as_xyz
  1  'x, y, z'
loop_
 _atom_site_type_symbol
 _atom_site_label
 _atom_site_symmetry_multiplicity
 _atom_site_fract_x
 _atom_site_fract_y
 _atom_site_fract_z
 _atom_site_occupancy
  Li  Li0  1  0.111665  0.600150  0.138921  1
  Li  Li1  1  0.111665  0.899850  0.638921  1
  Li  Li2  1  0.124846  0.108245  0.835758  1
  Li  Li3  1  0.124846  0.391755  0.335758  1
  Li  Li4  1  0.124300  0.860429  0.384566  1
  Li  Li5  1  0.124300  0.639571  0.884566  1
  Li  Li6  1  0.146490  0.865908  0.118121  1
  Li  Li7  1  0.146490  0.634092  0.618121  1
  Li  Li8  1  0.156718  0.118838  0.398177  1
  Li  Li9  1  0.156718  0.381162  0.898177  1
  Li  Li10  1  0.343282  0.881162  0.898177  1
  Li  Li11  1  0.343282  0.618838  0.398177  1
  Li  Li12  1  0.353510  0.365908  0.118121  1
  Li  Li13  1  0.353510  0.134092  0.618121  1
  Li  Li14  1  0.375700  0.360429  0.384566  1
  Li  Li15  1  0.375700  0.139571  0.884566  1
  Li  Li16  1  0.375154  0.891755  0.335758  1
  Li  Li17  1  0.375154  0.608245  0.835758  1
  Li  Li18  1  0.388335  0.100150  0.138921  1
  Li  Li19  1  0.388335  0.399850  0.638921  1
  Li  Li20  1  0.611665  0.600150  0.361079  1
  Li  Li21  1  0.611665  0.899850  0.861079  1
  Li  Li22  1  0.624846  0.108245  0.664242  1
  Li  Li23  1  0.624846  0.391755  0.164242  1
  Li  Li24  1  0.624300  0.639571  0.615434  1
  Li  Li25  1  0.624300  0.860429  0.115434  1
  Li  Li26  1  0.646490  0.634092  0.881879  1
  Li  Li27  1  0.646490  0.865908  0.381879  1
  Li  Li28  1  0.656718  0.118838  0.101823  1
  Li  Li29  1  0.656718  0.381162  0.601823  1
  Li  Li30  1  0.843282  0.618838  0.101823  1
  Li  Li31  1  0.843282  0.881162  0.601823  1
  Li  Li32  1  0.853510  0.365908  0.381879  1
  Li  Li33  1  0.853510  0.134092  0.881879  1
  Li  Li34  1  0.875700  0.139571  0.615434  1
  Li  Li35  1  0.875700  0.360429  0.115434  1
  Li  Li36  1  0.875154  0.608245  0.664242  1
  Li  Li37  1  0.875154  0.891755  0.164242  1
  Li  Li38  1  0.888335  0.100150  0.361079  1
  Li  Li39  1  0.888335  0.399850  0.861079  1
  In  In40  1  0.101618  0.148750  0.121297  1
  In  In41  1  0.101618  0.351250  0.621297  1
  In  In42  1  0.398382  0.648750  0.121297  1
  In  In43  1  0.398382  0.851250  0.621297  1
  In  In44  1  0.601618  0.148750  0.378703  1
  In  In45  1  0.601618  0.351250  0.878703  1
  In  In46  1  0.898382  0.648750  0.378703  1
  In  In47  1  0.898382  0.851250  0.878703  1
  O  O48  1  0.995559  0.239667  0.471325  1
  O  O49  1  0.995559  0.260333  0.971325  1
  O  O50  1  0.026517  0.993582  0.256271  1
  O  O51  1  0.026517  0.506418  0.756271  1
  O  O52  1  0.240666  0.023067  0.999922  1
  O  O53  1  0.240666  0.476933  0.499922  1
  O  O54  1  0.250686  0.247318  0.252156  1
  O  O55  1  0.250686  0.252682  0.752156  1
  O  O56  1  0.249314  0.747318  0.252156  1
  O  O57  1  0.249314  0.752682  0.752156  1
  O  O58  1  0.259334  0.523067  0.999922  1
  O  O59  1  0.259334  0.976933  0.499922  1
  O  O60  1  0.473483  0.493582  0.256271  1
  O  O61  1  0.473483  0.006418  0.756271  1
  O  O62  1  0.504441  0.739667  0.471325  1
  O  O63  1  0.504441  0.760333  0.971325  1
  O  O64  1  0.495559  0.239667  0.028675  1
  O  O65  1  0.495559  0.260333  0.528675  1
  O  O66  1  0.526517  0.993582  0.243729  1
  O  O67  1  0.526517  0.506418  0.743729  1
  O  O68  1  0.740666  0.023067  0.500078  1
  O  O69  1  0.740666  0.476933  0.000078  1
  O  O70  1  0.750686  0.247318  0.247844  1
  O  O71  1  0.750686  0.252682  0.747844  1
  O  O72  1  0.749314  0.747318  0.247844  1
  O  O73  1  0.749314  0.752682  0.747844  1
  O  O74  1  0.759334  0.523067  0.500078  1
  O  O75  1  0.759334  0.976933  0.000078  1
  O  O76  1  0.973483  0.493582  0.243729  1
  O  O77  1  0.973483  0.006418  0.743729  1
  O  O78  1  0.004441  0.739667  0.028675  1
  O  O79  1  0.004441  0.760333  0.528675  1
