# generated using pymatgen
data_Mn6O5F7
_symmetry_space_group_name_H-M   'P 1'
_cell_length_a   5.71587972
_cell_length_b   5.79116015
_cell_length_c   7.15261279
_cell_angle_alpha   74.27945225
_cell_angle_beta   73.87602691
_cell_angle_gamma   76.21632170
_symmetry_Int_Tables_number   1
_chemical_formula_structural   Mn6O5F7
_chemical_formula_sum   'Mn6 O5 F7'
_cell_volume   215.51281617
_cell_formula_units_Z   1
loop_
 _symmetry_equiv_pos_site_id
 _symmetry_equiv_pos_as_xyz
  1  'x, y, z'
loop_
 _atom_site_type_symbol
 _atom_site_label
 _atom_site_symmetry_multiplicity
 _atom_site_fract_x
 _atom_site_fract_y
 _atom_site_fract_z
 _atom_site_occupancy
  Mn  Mn0  1  0.313206  0.338873  0.168373  1
  Mn  Mn1  1  0.669734  0.627715  0.331191  1
  Mn  Mn2  1  0.346902  0.352646  0.670501  1
  Mn  Mn3  1  0.668545  0.667892  0.836877  1
  Mn  Mn4  1  0.005083  0.014179  0.489837  1
  Mn  Mn5  1  0.992598  0.006653  0.002548  1
  O  O6  1  0.427526  0.424935  0.375777  1
  O  O7  1  0.765607  0.752398  0.041493  1
  O  O8  1  0.230013  0.251258  0.956356  1
  O  O9  1  0.581639  0.562164  0.628680  1
  O  O10  1  0.978603  0.328319  0.329467  1
  F  F11  1  0.358154  0.953167  0.336857  1
  F  F12  1  0.028410  0.675772  0.661176  1
  F  F13  1  0.113980  0.128485  0.691481  1
  F  F14  1  0.885723  0.868321  0.310430  1
  F  F15  1  0.652985  0.029136  0.668182  1
  F  F16  1  0.307802  0.710076  0.992217  1
  F  F17  1  0.673494  0.308014  0.008555  1
