# generated using pymatgen
data_Bi19O30
_symmetry_space_group_name_H-M   'P 1'
_cell_length_a   14.72580840
_cell_length_b   14.72580840
_cell_length_c   9.00257446
_cell_angle_alpha   90.00000000
_cell_angle_beta   90.00000000
_cell_angle_gamma   120.00000000
_symmetry_Int_Tables_number   1
_chemical_formula_structural   Bi19O30
_chemical_formula_sum   'Bi38 O60'
_cell_volume   1690.65753608
_cell_formula_units_Z   2
loop_
 _symmetry_equiv_pos_site_id
 _symmetry_equiv_pos_as_xyz
  1  'x, y, z'
loop_
 _atom_site_type_symbol
 _atom_site_label
 _atom_site_symmetry_multiplicity
 _atom_site_fract_x
 _atom_site_fract_y
 _atom_site_fract_z
 _atom_site_occupancy
  Bi  Bi0  1  0.145223  0.988736  0.319214  1
  Bi  Bi1  1  0.369569  0.933650  0.223061  1
  Bi  Bi2  1  0.512190  0.829884  0.016915  1
  Bi  Bi3  1  0.843513  0.854777  0.319214  1
  Bi  Bi4  1  0.954009  0.738210  0.083019  1
  Bi  Bi5  1  0.617866  0.888875  0.427106  1
  Bi  Bi6  1  0.170116  0.682307  0.016915  1
  Bi  Bi7  1  0.564080  0.630431  0.223061  1
  Bi  Bi8  1  0.218669  0.959543  0.907212  1
  Bi  Bi9  1  0.111125  0.728990  0.427106  1
  Bi  Bi10  1  0.333333  0.666667  0.339101  1
  Bi  Bi11  1  0.982434  0.837491  0.673369  1
  Bi  Bi12  1  0.336045  0.822619  0.685771  1
  Bi  Bi13  1  0.677712  0.492427  0.014416  1
  Bi  Bi14  1  0.317693  0.487810  0.016915  1
  Bi  Bi15  1  0.486574  0.663955  0.685771  1
  Bi  Bi16  1  0.066350  0.435920  0.223061  1
  Bi  Bi17  1  0.740874  0.781331  0.907212  1
  Bi  Bi18  1  0.814715  0.322288  0.014416  1
  Bi  Bi19  1  0.704641  0.610163  0.561095  1
  Bi  Bi20  1  0.848592  0.499577  0.340620  1
  Bi  Bi21  1  0.177381  0.513426  0.685771  1
  Bi  Bi22  1  0.507573  0.185285  0.014416  1
  Bi  Bi23  1  0.271010  0.382134  0.427106  1
  Bi  Bi24  1  0.947828  0.556250  0.746867  1
  Bi  Bi25  1  0.500423  0.349014  0.340620  1
  Bi  Bi26  1  0.261790  0.215799  0.083019  1
  Bi  Bi27  1  0.784201  0.045991  0.083019  1
  Bi  Bi28  1  0.905523  0.295359  0.561095  1
  Bi  Bi29  1  0.443750  0.391578  0.746867  1
  Bi  Bi30  1  0.666667  0.333333  0.661916  1
  Bi  Bi31  1  0.011264  0.156487  0.319214  1
  Bi  Bi32  1  0.650986  0.151408  0.340620  1
  Bi  Bi33  1  0.389837  0.094477  0.561095  1
  Bi  Bi34  1  0.040457  0.259126  0.907212  1
  Bi  Bi35  1  0.162509  0.144943  0.673369  1
  Bi  Bi36  1  0.608422  0.052172  0.746867  1
  Bi  Bi37  1  0.855057  0.017566  0.673369  1
  O  O38  1  0.812499  0.905131  0.093431  1
  O  O39  1  0.094869  0.907368  0.093431  1
  O  O40  1  0.790120  0.953719  0.404870  1
  O  O41  1  0.299269  0.957925  0.411816  1
  O  O42  1  0.574619  0.787457  0.214649  1
  O  O43  1  0.212543  0.787162  0.214649  1
  O  O44  1  0.706819  0.674648  0.084983  1
  O  O45  1  0.046281  0.836401  0.404870  1
  O  O46  1  0.408862  0.818907  0.410758  1
  O  O47  1  0.333333  0.666667  0.111068  1
  O  O48  1  0.494950  0.879405  0.743118  1
  O  O49  1  0.833274  0.550158  0.083364  1
  O  O50  1  0.838467  0.799389  0.575150  1
  O  O51  1  0.005070  0.626380  0.265500  1
  O  O52  1  0.658656  0.700731  0.411816  1
  O  O53  1  0.666833  0.951573  0.928659  1
  O  O54  1  0.410045  0.591138  0.410758  1
  O  O55  1  0.181093  0.589955  0.410758  1
  O  O56  1  0.289271  0.822459  0.920531  1
  O  O57  1  0.960235  0.668875  0.591519  1
  O  O58  1  0.619906  0.489780  0.244592  1
  O  O59  1  0.880371  0.759268  0.876779  1
  O  O60  1  0.212838  0.425381  0.214649  1
  O  O61  1  0.666667  0.333333  0.037156  1
  O  O62  1  0.333333  0.666667  0.704246  1
  O  O63  1  0.373620  0.378690  0.265500  1
  O  O64  1  0.048427  0.715260  0.928659  1
  O  O65  1  0.120595  0.615546  0.743118  1
  O  O66  1  0.449842  0.283117  0.083364  1
  O  O67  1  0.634470  0.633956  0.749223  1
  O  O68  1  0.967829  0.293181  0.084983  1
  O  O69  1  0.869875  0.380094  0.244592  1
  O  O70  1  0.533188  0.710729  0.920531  1
  O  O71  1  0.914240  0.455923  0.543941  1
  O  O72  1  0.544077  0.458317  0.543941  1
  O  O73  1  0.716883  0.166726  0.083364  1
  O  O74  1  0.042075  0.341344  0.411816  1
  O  O75  1  0.384454  0.505050  0.743118  1
  O  O76  1  0.666667  0.333333  0.435213  1
  O  O77  1  0.092632  0.187501  0.093431  1
  O  O78  1  0.743773  0.484143  0.740627  1
  O  O79  1  0.163599  0.209880  0.404870  1
  O  O80  1  0.510220  0.130125  0.244592  1
  O  O81  1  0.177541  0.466812  0.920531  1
  O  O82  1  0.999486  0.365530  0.749223  1
  O  O83  1  0.325352  0.032171  0.084983  1
  O  O84  1  0.331125  0.291360  0.591519  1
  O  O85  1  0.740370  0.256227  0.740627  1
  O  O86  1  0.515857  0.259630  0.740627  1
  O  O87  1  0.960923  0.161533  0.575150  1
  O  O88  1  0.284740  0.333167  0.928659  1
  O  O89  1  0.621310  0.994930  0.265500  1
  O  O90  1  0.000000  0.000000  0.350733  1
  O  O91  1  0.541683  0.085760  0.543941  1
  O  O92  1  0.708640  0.039765  0.591519  1
  O  O93  1  0.200611  0.039077  0.575150  1
  O  O94  1  0.240732  0.121102  0.876779  1
  O  O95  1  0.878898  0.119629  0.876779  1
  O  O96  1  0.366044  0.000514  0.749223  1
  O  O97  1  0.000000  0.000000  0.714045  1
