# generated using pymatgen
data_Li2VO2
_symmetry_space_group_name_H-M   'P 1'
_cell_length_a   3.23017360
_cell_length_b   3.23017360
_cell_length_c   5.19309919
_cell_angle_alpha   90.00000000
_cell_angle_beta   90.00000000
_cell_angle_gamma   120.00000000
_symmetry_Int_Tables_number   1
_chemical_formula_structural   Li2VO2
_chemical_formula_sum   'Li2 V1 O2'
_cell_volume   46.92550738
_cell_formula_units_Z   1
loop_
 _symmetry_equiv_pos_site_id
 _symmetry_equiv_pos_as_xyz
  1  'x, y, z'
loop_
 _atom_site_type_symbol
 _atom_site_label
 _atom_site_symmetry_multiplicity
 _atom_site_fract_x
 _atom_site_fract_y
 _atom_site_fract_z
 _atom_site_occupancy
  Li  Li0  1  0.333333  0.666667  0.134648  1
  Li  Li1  1  0.666667  0.333333  0.865352  1
  V  V2  1  0.000000  0.000000  0.500000  1
  O  O3  1  0.333333  0.666667  0.740153  1
  O  O4  1  0.666667  0.333333  0.259847  1
