# generated using pymatgen
data_Li4Fe3Co3(NiO8)2
_symmetry_space_group_name_H-M   'P 1'
_cell_length_a   5.77423030
_cell_length_b   5.77423030
_cell_length_c   9.56036731
_cell_angle_alpha   89.76839775
_cell_angle_beta   90.23160225
_cell_angle_gamma   120.08283697
_symmetry_Int_Tables_number   1
_chemical_formula_structural   Li4Fe3Co3(NiO8)2
_chemical_formula_sum   'Li4 Fe3 Co3 Ni2 O16'
_cell_volume   275.81988017
_cell_formula_units_Z   1
loop_
 _symmetry_equiv_pos_site_id
 _symmetry_equiv_pos_as_xyz
  1  'x, y, z'
loop_
 _atom_site_type_symbol
 _atom_site_label
 _atom_site_symmetry_multiplicity
 _atom_site_fract_x
 _atom_site_fract_y
 _atom_site_fract_z
 _atom_site_occupancy
  Li  Li0  1  0.335865  0.664135  0.105022  1
  Li  Li1  1  0.994902  0.005098  0.000591  1
  Li  Li2  1  0.994261  0.005739  0.502507  1
  Li  Li3  1  0.669374  0.330626  0.609217  1
  Fe  Fe4  1  0.169994  0.830006  0.784779  1
  Fe  Fe5  1  0.339245  0.168108  0.284871  1
  Fe  Fe6  1  0.831892  0.660755  0.284871  1
  Co  Co7  1  0.169585  0.336680  0.786852  1
  Co  Co8  1  0.663320  0.830415  0.786852  1
  Co  Co9  1  0.830977  0.169023  0.287914  1
  Ni  Ni10  1  0.331964  0.668036  0.512452  1
  Ni  Ni11  1  0.667378  0.332622  0.010383  1
  O  O12  1  0.151184  0.323027  0.392484  1
  O  O13  1  0.481259  0.518741  0.675062  1
  O  O14  1  0.340842  0.659158  0.894242  1
  O  O15  1  0.993060  0.006940  0.688100  1
  O  O16  1  0.993186  0.006814  0.186339  1
  O  O17  1  0.676973  0.848816  0.392484  1
  O  O18  1  0.037603  0.509463  0.670212  1
  O  O19  1  0.490537  0.962397  0.670212  1
  O  O20  1  0.840709  0.159291  0.886017  1
  O  O21  1  0.159621  0.840379  0.397306  1
  O  O22  1  0.528208  0.034478  0.168100  1
  O  O23  1  0.965522  0.471792  0.168100  1
  O  O24  1  0.671180  0.328820  0.398789  1
  O  O25  1  0.318873  0.166928  0.891973  1
  O  O26  1  0.519151  0.480849  0.164404  1
  O  O27  1  0.833072  0.681127  0.891973  1
