# generated using pymatgen
data_SrSm2O4
_symmetry_space_group_name_H-M   'P 1'
_cell_length_a   6.02552858
_cell_length_b   6.02552858
_cell_length_c   11.39719645
_cell_angle_alpha   90.00000000
_cell_angle_beta   90.00000000
_cell_angle_gamma   146.52452713
_symmetry_Int_Tables_number   1
_chemical_formula_structural   SrSm2O4
_chemical_formula_sum   'Sr2 Sm4 O8'
_cell_volume   228.24265967
_cell_formula_units_Z   2
loop_
 _symmetry_equiv_pos_site_id
 _symmetry_equiv_pos_as_xyz
  1  'x, y, z'
loop_
 _atom_site_type_symbol
 _atom_site_label
 _atom_site_symmetry_multiplicity
 _atom_site_fract_x
 _atom_site_fract_y
 _atom_site_fract_z
 _atom_site_occupancy
  Sr  Sr0  1  0.888112  0.111888  0.250000  1
  Sr  Sr1  1  0.111888  0.888112  0.750000  1
  Sm  Sm2  1  0.632690  0.367310  0.426308  1
  Sm  Sm3  1  0.632690  0.367310  0.073692  1
  Sm  Sm4  1  0.367310  0.632690  0.573692  1
  Sm  Sm5  1  0.367310  0.632690  0.926308  1
  O  O6  1  0.000000  0.000000  0.000000  1
  O  O7  1  0.000000  0.000000  0.500000  1
  O  O8  1  0.538418  0.461582  0.250000  1
  O  O9  1  0.735911  0.264089  0.610545  1
  O  O10  1  0.735911  0.264089  0.889455  1
  O  O11  1  0.461582  0.538418  0.750000  1
  O  O12  1  0.264089  0.735911  0.389455  1
  O  O13  1  0.264089  0.735911  0.110545  1
