# generated using pymatgen
data_ScNiGe
_symmetry_space_group_name_H-M   'P 1'
_cell_length_a   4.08977845
_cell_length_b   6.47687408
_cell_length_c   7.08698386
_cell_angle_alpha   90.00000000
_cell_angle_beta   90.00000000
_cell_angle_gamma   90.00000000
_symmetry_Int_Tables_number   1
_chemical_formula_structural   ScNiGe
_chemical_formula_sum   'Sc4 Ni4 Ge4'
_cell_volume   187.72697398
_cell_formula_units_Z   4
loop_
 _symmetry_equiv_pos_site_id
 _symmetry_equiv_pos_as_xyz
  1  'x, y, z'
loop_
 _atom_site_type_symbol
 _atom_site_label
 _atom_site_symmetry_multiplicity
 _atom_site_fract_x
 _atom_site_fract_y
 _atom_site_fract_z
 _atom_site_occupancy
  Sc  Sc0  1  0.750000  0.504860  0.792932  1
  Sc  Sc1  1  0.750000  0.004860  0.707068  1
  Sc  Sc2  1  0.250000  0.495140  0.207068  1
  Sc  Sc3  1  0.250000  0.995140  0.292932  1
  Ni  Ni4  1  0.750000  0.313111  0.421728  1
  Ni  Ni5  1  0.750000  0.813111  0.078272  1
  Ni  Ni6  1  0.250000  0.686889  0.578272  1
  Ni  Ni7  1  0.250000  0.186889  0.921728  1
  Ge  Ge8  1  0.750000  0.205987  0.093948  1
  Ge  Ge9  1  0.750000  0.705987  0.406052  1
  Ge  Ge10  1  0.250000  0.794013  0.906052  1
  Ge  Ge11  1  0.250000  0.294013  0.593948  1
