# generated using pymatgen
data_Ho2Ti2O7
_symmetry_space_group_name_H-M   'P 1'
_cell_length_a   7.53884836
_cell_length_b   5.34150861
_cell_length_c   13.14851034
_cell_angle_alpha   90.00000000
_cell_angle_beta   98.34879219
_cell_angle_gamma   90.00000000
_symmetry_Int_Tables_number   1
_chemical_formula_structural   Ho2Ti2O7
_chemical_formula_sum   'Ho8 Ti8 O28'
_cell_volume   523.86392847
_cell_formula_units_Z   4
loop_
 _symmetry_equiv_pos_site_id
 _symmetry_equiv_pos_as_xyz
  1  'x, y, z'
loop_
 _atom_site_type_symbol
 _atom_site_label
 _atom_site_symmetry_multiplicity
 _atom_site_fract_x
 _atom_site_fract_y
 _atom_site_fract_z
 _atom_site_occupancy
  Ho  Ho0  1  0.766956  0.772551  0.078773  1
  Ho  Ho1  1  0.857529  0.359328  0.436328  1
  Ho  Ho2  1  0.714661  0.248121  0.866817  1
  Ho  Ho3  1  0.645570  0.779357  0.613522  1
  Ho  Ho4  1  0.354430  0.279357  0.386478  1
  Ho  Ho5  1  0.285339  0.748121  0.133183  1
  Ho  Ho6  1  0.142471  0.859328  0.563672  1
  Ho  Ho7  1  0.233044  0.272551  0.921227  1
  Ti  Ti8  1  0.929678  0.284200  0.678950  1
  Ti  Ti9  1  0.969144  0.770497  0.879228  1
  Ti  Ti10  1  0.589714  0.795972  0.327672  1
  Ti  Ti11  1  0.529170  0.269217  0.124002  1
  Ti  Ti12  1  0.470830  0.769217  0.875998  1
  Ti  Ti13  1  0.410286  0.295972  0.672328  1
  Ti  Ti14  1  0.030856  0.270497  0.120772  1
  Ti  Ti15  1  0.070322  0.784200  0.321050  1
  O  O16  1  0.988105  0.433826  0.821043  1
  O  O17  1  0.925564  0.563255  0.591559  1
  O  O18  1  0.827349  0.673669  0.313215  1
  O  O19  1  0.778945  0.349754  0.116388  1
  O  O20  1  0.862789  0.066391  0.568287  1
  O  O21  1  0.938937  0.043053  0.975219  1
  O  O22  1  0.870236  0.952608  0.767689  1
  O  O23  1  0.633592  0.095042  0.385029  1
  O  O24  1  0.575259  0.932108  0.177741  1
  O  O25  1  0.672875  0.378647  0.693865  1
  O  O26  1  0.728564  0.651317  0.912703  1
  O  O27  1  0.589016  0.586868  0.447030  1
  O  O28  1  0.452170  0.540763  0.025993  1
  O  O29  1  0.484801  0.451799  0.234768  1
  O  O30  1  0.515199  0.951799  0.765232  1
  O  O31  1  0.547830  0.040763  0.974007  1
  O  O32  1  0.410984  0.086868  0.552970  1
  O  O33  1  0.271436  0.151317  0.087297  1
  O  O34  1  0.327125  0.878647  0.306135  1
  O  O35  1  0.424741  0.432108  0.822259  1
  O  O36  1  0.366408  0.595042  0.614971  1
  O  O37  1  0.129764  0.452608  0.232311  1
  O  O38  1  0.061063  0.543053  0.024781  1
  O  O39  1  0.137211  0.566391  0.431713  1
  O  O40  1  0.221055  0.849754  0.883612  1
  O  O41  1  0.172651  0.173669  0.686785  1
  O  O42  1  0.074436  0.063255  0.408441  1
  O  O43  1  0.011895  0.933826  0.178957  1
