# generated using pymatgen
data_Li2NbV3O8
_symmetry_space_group_name_H-M   'P 1'
_cell_length_a   6.01159706
_cell_length_b   6.01159706
_cell_length_c   9.76651939
_cell_angle_alpha   90.00000000
_cell_angle_beta   90.00000000
_cell_angle_gamma   120.00000000
_symmetry_Int_Tables_number   1
_chemical_formula_structural   Li2NbV3O8
_chemical_formula_sum   'Li4 Nb2 V6 O16'
_cell_volume   305.66814076
_cell_formula_units_Z   2
loop_
 _symmetry_equiv_pos_site_id
 _symmetry_equiv_pos_as_xyz
  1  'x, y, z'
loop_
 _atom_site_type_symbol
 _atom_site_label
 _atom_site_symmetry_multiplicity
 _atom_site_fract_x
 _atom_site_fract_y
 _atom_site_fract_z
 _atom_site_occupancy
  Li  Li0  1  0.333333  0.666667  0.898942  1
  Li  Li1  1  0.000000  0.000000  0.992870  1
  Li  Li2  1  0.000000  0.000000  0.492870  1
  Li  Li3  1  0.666667  0.333333  0.398942  1
  Nb  Nb4  1  0.333333  0.666667  0.490885  1
  Nb  Nb5  1  0.666667  0.333333  0.990885  1
  V  V6  1  0.170527  0.829473  0.215025  1
  V  V7  1  0.170527  0.341054  0.215025  1
  V  V8  1  0.658946  0.829473  0.215025  1
  V  V9  1  0.341054  0.170527  0.715025  1
  V  V10  1  0.829473  0.658946  0.715025  1
  V  V11  1  0.829473  0.170527  0.715025  1
  O  O12  1  0.167908  0.832092  0.592482  1
  O  O13  1  0.037949  0.518974  0.344108  1
  O  O14  1  0.333333  0.666667  0.107804  1
  O  O15  1  0.000000  0.000000  0.308569  1
  O  O16  1  0.000000  0.000000  0.808569  1
  O  O17  1  0.167908  0.335816  0.592482  1
  O  O18  1  0.481026  0.962051  0.344108  1
  O  O19  1  0.481026  0.518974  0.344108  1
  O  O20  1  0.335816  0.167908  0.092482  1
  O  O21  1  0.664184  0.832092  0.592482  1
  O  O22  1  0.518974  0.481026  0.844108  1
  O  O23  1  0.518974  0.037949  0.844108  1
  O  O24  1  0.666667  0.333333  0.607804  1
  O  O25  1  0.832092  0.664184  0.092482  1
  O  O26  1  0.962051  0.481026  0.844108  1
  O  O27  1  0.832092  0.167908  0.092482  1
