# generated using pymatgen
data_LiZn6Fe17O32
_symmetry_space_group_name_H-M   'P 1'
_cell_length_a   6.04746279
_cell_length_b   6.04746279
_cell_length_c   19.92422182
_cell_angle_alpha   81.45914983
_cell_angle_beta   98.54085017
_cell_angle_gamma   119.92404164
_symmetry_Int_Tables_number   1
_chemical_formula_structural   LiZn6Fe17O32
_chemical_formula_sum   'Li1 Zn6 Fe17 O32'
_cell_volume   622.16196519
_cell_formula_units_Z   1
loop_
 _symmetry_equiv_pos_site_id
 _symmetry_equiv_pos_as_xyz
  1  'x, y, z'
loop_
 _atom_site_type_symbol
 _atom_site_label
 _atom_site_symmetry_multiplicity
 _atom_site_fract_x
 _atom_site_fract_y
 _atom_site_fract_z
 _atom_site_occupancy
  Li  Li0  1  0.936939  0.063061  0.810838  1
  Zn  Zn1  1  0.342162  0.657838  0.029724  1
  Zn  Zn2  1  0.218911  0.781089  0.155832  1
  Zn  Zn3  1  0.844810  0.155190  0.532997  1
  Zn  Zn4  1  0.968820  0.031180  0.406774  1
  Zn  Zn5  1  0.093944  0.906056  0.281386  1
  Zn  Zn6  1  0.721158  0.278842  0.658338  1
  Fe  Fe7  1  0.692769  0.307231  0.065550  1
  Fe  Fe8  1  0.744687  0.255313  0.248329  1
  Fe  Fe9  1  0.997974  0.002026  0.996355  1
  Fe  Fe10  1  0.968891  0.530610  0.406766  1
  Fe  Fe11  1  0.469390  0.031109  0.406766  1
  Fe  Fe12  1  0.218779  0.281211  0.155890  1
  Fe  Fe13  1  0.718789  0.781221  0.155890  1
  Fe  Fe14  1  0.442723  0.557277  0.314559  1
  Fe  Fe15  1  0.495839  0.504161  0.500539  1
  Fe  Fe16  1  0.214488  0.276981  0.658553  1
  Fe  Fe17  1  0.723019  0.785512  0.658553  1
  Fe  Fe18  1  0.193136  0.806864  0.563467  1
  Fe  Fe19  1  0.469916  0.530084  0.903755  1
  Fe  Fe20  1  0.593204  0.406796  0.783783  1
  Fe  Fe21  1  0.245305  0.754695  0.749573  1
  Fe  Fe22  1  0.470298  0.038999  0.903247  1
  Fe  Fe23  1  0.961001  0.529702  0.903247  1
  O  O24  1  0.390118  0.096508  0.214606  1
  O  O25  1  0.903492  0.609882  0.214606  1
  O  O26  1  0.048989  0.466650  0.095834  1
  O  O27  1  0.533350  0.951011  0.095834  1
  O  O28  1  0.525943  0.474057  0.096621  1
  O  O29  1  0.276984  0.723016  0.347308  1
  O  O30  1  0.410187  0.589813  0.214244  1
  O  O31  1  0.777587  0.222413  0.347612  1
  O  O32  1  0.909748  0.090252  0.213917  1
  O  O33  1  0.026857  0.973143  0.095990  1
  O  O34  1  0.140852  0.346595  0.466240  1
  O  O35  1  0.653405  0.859148  0.466240  1
  O  O36  1  0.797657  0.716044  0.346495  1
  O  O37  1  0.283956  0.202343  0.346495  1
  O  O38  1  0.908814  0.091186  0.709660  1
  O  O39  1  0.159503  0.840497  0.463656  1
  O  O40  1  0.030989  0.969011  0.598805  1
  O  O41  1  0.530272  0.469728  0.600157  1
  O  O42  1  0.660440  0.339560  0.465314  1
  O  O43  1  0.416912  0.583088  0.720735  1
  O  O44  1  0.881549  0.589315  0.722247  1
  O  O45  1  0.410685  0.118451  0.722247  1
  O  O46  1  0.543573  0.961935  0.597521  1
  O  O47  1  0.319106  0.237364  0.845689  1
  O  O48  1  0.762636  0.680894  0.845689  1
  O  O49  1  0.038065  0.456427  0.597521  1
  O  O50  1  0.761276  0.238724  0.844823  1
  O  O51  1  0.655769  0.344231  0.965430  1
  O  O52  1  0.283038  0.716962  0.849277  1
  O  O53  1  0.161245  0.838755  0.963708  1
  O  O54  1  0.159898  0.359881  0.962382  1
  O  O55  1  0.640119  0.840102  0.962382  1
