# generated using pymatgen
data_Na8Gd2O7
_symmetry_space_group_name_H-M   'P 1'
_cell_length_a   9.22865056
_cell_length_b   11.69995556
_cell_length_c   10.92419281
_cell_angle_alpha   90.00000000
_cell_angle_beta   108.36050717
_cell_angle_gamma   90.00000000
_symmetry_Int_Tables_number   1
_chemical_formula_structural   Na8Gd2O7
_chemical_formula_sum   'Na32 Gd8 O28'
_cell_volume   1119.49125236
_cell_formula_units_Z   4
loop_
 _symmetry_equiv_pos_site_id
 _symmetry_equiv_pos_as_xyz
  1  'x, y, z'
loop_
 _atom_site_type_symbol
 _atom_site_label
 _atom_site_symmetry_multiplicity
 _atom_site_fract_x
 _atom_site_fract_y
 _atom_site_fract_z
 _atom_site_occupancy
  Na  Na0  1  0.129007  0.523112  0.433763  1
  Na  Na1  1  0.086145  0.531871  0.138654  1
  Na  Na2  1  0.107063  0.265037  0.034327  1
  Na  Na3  1  0.129007  0.976888  0.933763  1
  Na  Na4  1  0.251632  0.049015  0.201051  1
  Na  Na5  1  0.086145  0.968129  0.638654  1
  Na  Na6  1  0.283705  0.742154  0.071936  1
  Na  Na7  1  0.107063  0.234963  0.534327  1
  Na  Na8  1  0.442398  0.532207  0.344630  1
  Na  Na9  1  0.341892  0.496393  0.021542  1
  Na  Na10  1  0.251632  0.450985  0.701051  1
  Na  Na11  1  0.498521  0.771690  0.372582  1
  Na  Na12  1  0.283705  0.757846  0.571936  1
  Na  Na13  1  0.501479  0.271690  0.127418  1
  Na  Na14  1  0.442398  0.967793  0.844630  1
  Na  Na15  1  0.658108  0.996393  0.478458  1
  Na  Na16  1  0.341892  0.003607  0.521542  1
  Na  Na17  1  0.557602  0.032207  0.155370  1
  Na  Na18  1  0.498521  0.728310  0.872582  1
  Na  Na19  1  0.716295  0.242154  0.428064  1
  Na  Na20  1  0.501479  0.228310  0.627418  1
  Na  Na21  1  0.748368  0.549015  0.298949  1
  Na  Na22  1  0.658108  0.503607  0.978458  1
  Na  Na23  1  0.557602  0.467793  0.655370  1
  Na  Na24  1  0.892937  0.765037  0.465673  1
  Na  Na25  1  0.716295  0.257846  0.928064  1
  Na  Na26  1  0.913855  0.031871  0.361346  1
  Na  Na27  1  0.748368  0.950985  0.798949  1
  Na  Na28  1  0.870993  0.023112  0.066237  1
  Na  Na29  1  0.892937  0.734963  0.965673  1
  Na  Na30  1  0.913855  0.468129  0.861346  1
  Na  Na31  1  0.870993  0.476888  0.566237  1
  Gd  Gd32  1  0.096323  0.792978  0.277269  1
  Gd  Gd33  1  0.096323  0.707022  0.777269  1
  Gd  Gd34  1  0.317221  0.279714  0.352719  1
  Gd  Gd35  1  0.317221  0.220286  0.852719  1
  Gd  Gd36  1  0.682779  0.779714  0.147281  1
  Gd  Gd37  1  0.682779  0.720286  0.647281  1
  Gd  Gd38  1  0.903677  0.292978  0.222731  1
  Gd  Gd39  1  0.903677  0.207022  0.722731  1
  O  O40  1  0.100843  0.889038  0.449686  1
  O  O41  1  0.105375  0.179424  0.281308  1
  O  O42  1  0.108650  0.889583  0.112072  1
  O  O43  1  0.100843  0.610962  0.949686  1
  O  O44  1  0.271548  0.668250  0.326570  1
  O  O45  1  0.105375  0.320576  0.781308  1
  O  O46  1  0.108650  0.610417  0.612072  1
  O  O47  1  0.332064  0.385317  0.194384  1
  O  O48  1  0.271548  0.831750  0.826570  1
  O  O49  1  0.481384  0.143515  0.410602  1
  O  O50  1  0.324486  0.116746  0.021952  1
  O  O51  1  0.332064  0.114683  0.694384  1
  O  O52  1  0.481384  0.356485  0.910602  1
  O  O53  1  0.675514  0.616746  0.478048  1
  O  O54  1  0.324486  0.383254  0.521952  1
  O  O55  1  0.518616  0.643515  0.089398  1
  O  O56  1  0.667936  0.885317  0.305616  1
  O  O57  1  0.675514  0.883254  0.978048  1
  O  O58  1  0.518616  0.856485  0.589398  1
  O  O59  1  0.728452  0.168250  0.173430  1
  O  O60  1  0.667936  0.614683  0.805616  1
  O  O61  1  0.891350  0.389583  0.387928  1
  O  O62  1  0.894625  0.679424  0.218692  1
  O  O63  1  0.728452  0.331750  0.673430  1
  O  O64  1  0.899157  0.389038  0.050314  1
  O  O65  1  0.891350  0.110417  0.887928  1
  O  O66  1  0.894625  0.820576  0.718692  1
  O  O67  1  0.899157  0.110962  0.550314  1
