# generated using pymatgen
data_LiVWO6
_symmetry_space_group_name_H-M   'P 1'
_cell_length_a   5.13011693
_cell_length_b   6.81762006
_cell_length_c   7.35261347
_cell_angle_alpha   66.02613970
_cell_angle_beta   70.78037149
_cell_angle_gamma   79.15581967
_symmetry_Int_Tables_number   1
_chemical_formula_structural   LiVWO6
_chemical_formula_sum   'Li2 V2 W2 O12'
_cell_volume   221.43639492
_cell_formula_units_Z   2
loop_
 _symmetry_equiv_pos_site_id
 _symmetry_equiv_pos_as_xyz
  1  'x, y, z'
loop_
 _atom_site_type_symbol
 _atom_site_label
 _atom_site_symmetry_multiplicity
 _atom_site_fract_x
 _atom_site_fract_y
 _atom_site_fract_z
 _atom_site_occupancy
  Li  Li0  1  0.000000  0.000000  0.000000  1
  Li  Li1  1  0.500000  0.000000  0.500000  1
  V  V2  1  0.046058  0.354176  0.227853  1
  V  V3  1  0.953942  0.645824  0.772147  1
  W  W4  1  0.451451  0.640417  0.267116  1
  W  W5  1  0.548549  0.359583  0.732884  1
  O  O6  1  0.170766  0.719707  0.151749  1
  O  O7  1  0.314530  0.308373  0.336940  1
  O  O8  1  0.757279  0.562316  0.062556  1
  O  O9  1  0.257835  0.564860  0.566104  1
  O  O10  1  0.560538  0.890881  0.224438  1
  O  O11  1  0.048367  0.883489  0.721580  1
  O  O12  1  0.951633  0.116511  0.278420  1
  O  O13  1  0.439462  0.109119  0.775562  1
  O  O14  1  0.242721  0.437684  0.937444  1
  O  O15  1  0.742165  0.435140  0.433896  1
  O  O16  1  0.685470  0.691627  0.663060  1
  O  O17  1  0.829234  0.280293  0.848251  1
