# generated using pymatgen
data_LiMnF3
_symmetry_space_group_name_H-M   'P 1'
_cell_length_a   5.04817337
_cell_length_b   5.38545336
_cell_length_c   9.00696558
_cell_angle_alpha   90.00000000
_cell_angle_beta   90.00000000
_cell_angle_gamma   90.00000000
_symmetry_Int_Tables_number   1
_chemical_formula_structural   LiMnF3
_chemical_formula_sum   'Li4 Mn4 F12'
_cell_volume   244.86969129
_cell_formula_units_Z   4
loop_
 _symmetry_equiv_pos_site_id
 _symmetry_equiv_pos_as_xyz
  1  'x, y, z'
loop_
 _atom_site_type_symbol
 _atom_site_label
 _atom_site_symmetry_multiplicity
 _atom_site_fract_x
 _atom_site_fract_y
 _atom_site_fract_z
 _atom_site_occupancy
  Li  Li0  1  0.000000  0.250000  0.187767  1
  Li  Li1  1  0.000000  0.750000  0.812233  1
  Li  Li2  1  0.500000  0.750000  0.687767  1
  Li  Li3  1  0.500000  0.250000  0.312233  1
  Mn  Mn4  1  0.000000  0.750000  0.401882  1
  Mn  Mn5  1  0.000000  0.250000  0.598118  1
  Mn  Mn6  1  0.500000  0.750000  0.098118  1
  Mn  Mn7  1  0.500000  0.250000  0.901882  1
  F  F8  1  0.781222  0.914748  0.587347  1
  F  F9  1  0.781222  0.414748  0.412653  1
  F  F10  1  0.750000  0.452254  0.750000  1
  F  F11  1  0.750000  0.952254  0.250000  1
  F  F12  1  0.718778  0.414748  0.087347  1
  F  F13  1  0.718778  0.914748  0.912653  1
  F  F14  1  0.281222  0.085252  0.087347  1
  F  F15  1  0.281222  0.585252  0.912653  1
  F  F16  1  0.250000  0.547746  0.250000  1
  F  F17  1  0.250000  0.047746  0.750000  1
  F  F18  1  0.218778  0.085252  0.412653  1
  F  F19  1  0.218778  0.585252  0.587347  1
