# generated using pymatgen
data_Li5FeO4
_symmetry_space_group_name_H-M   'P 1'
_cell_length_a   5.62089375
_cell_length_b   6.82796593
_cell_length_c   11.03082240
_cell_angle_alpha   89.48215623
_cell_angle_beta   77.51323636
_cell_angle_gamma   89.63572334
_symmetry_Int_Tables_number   1
_chemical_formula_structural   Li5FeO4
_chemical_formula_sum   'Li20 Fe4 O16'
_cell_volume   413.31979119
_cell_formula_units_Z   4
loop_
 _symmetry_equiv_pos_site_id
 _symmetry_equiv_pos_as_xyz
  1  'x, y, z'
loop_
 _atom_site_type_symbol
 _atom_site_label
 _atom_site_symmetry_multiplicity
 _atom_site_fract_x
 _atom_site_fract_y
 _atom_site_fract_z
 _atom_site_occupancy
  Li  Li0  1  0.897611  0.246030  0.696660  1
  Li  Li1  1  0.977884  0.255583  0.345892  1
  Li  Li2  1  0.900981  0.980193  0.199942  1
  Li  Li3  1  0.894855  0.529338  0.195126  1
  Li  Li4  1  0.740042  0.979742  0.915757  1
  Li  Li5  1  0.686917  0.534910  0.937357  1
  Li  Li6  1  0.806440  0.021957  0.556274  1
  Li  Li7  1  0.617536  0.750395  0.790491  1
  Li  Li8  1  0.491898  0.246385  0.831843  1
  Li  Li9  1  0.493887  0.516178  0.661871  1
  Li  Li10  1  0.392854  0.965947  0.696568  1
  Li  Li11  1  0.517072  0.751454  0.178847  1
  Li  Li12  1  0.449324  0.260698  0.230548  1
  Li  Li13  1  0.215629  0.975146  0.426104  1
  Li  Li14  1  0.326476  0.035205  0.063298  1
  Li  Li15  1  0.085714  0.470093  0.807327  1
  Li  Li16  1  0.182873  0.523213  0.441724  1
  Li  Li17  1  0.305670  0.469279  0.067516  1
  Li  Li18  1  0.011648  0.743547  0.653469  1
  Li  Li19  1  0.111668  0.747340  0.295998  1
  Fe  Fe20  1  0.829789  0.253131  0.049917  1
  Fe  Fe21  1  0.324598  0.242062  0.557946  1
  Fe  Fe22  1  0.180162  0.760546  0.936240  1
  Fe  Fe23  1  0.676224  0.738372  0.434146  1
  O  O24  1  0.911153  0.733720  0.857552  1
  O  O25  1  0.834892  0.270750  0.878001  1
  O  O26  1  0.889654  0.961813  0.375583  1
  O  O27  1  0.895334  0.536860  0.364753  1
  O  O28  1  0.648826  0.763956  0.614619  1
  O  O29  1  0.585168  0.226014  0.645461  1
  O  O30  1  0.640960  0.027534  0.110024  1
  O  O31  1  0.625997  0.473533  0.114648  1
  O  O32  1  0.379887  0.531984  0.875834  1
  O  O33  1  0.405616  0.965742  0.878788  1
  O  O34  1  0.396907  0.745165  0.363129  1
  O  O35  1  0.299074  0.251700  0.393395  1
  O  O36  1  0.157948  0.473455  0.629162  1
  O  O37  1  0.119341  0.021127  0.615425  1
  O  O38  1  0.146360  0.752783  0.114103  1
  O  O39  1  0.094689  0.249734  0.133285  1
