# generated using pymatgen
data_LiLa4FeO8
_symmetry_space_group_name_H-M   'P 1'
_cell_length_a   7.00848854
_cell_length_b   7.00848854
_cell_length_c   5.39743925
_cell_angle_alpha   90.00000000
_cell_angle_beta   90.00000000
_cell_angle_gamma   134.88411326
_symmetry_Int_Tables_number   1
_chemical_formula_structural   LiLa4FeO8
_chemical_formula_sum   'Li1 La4 Fe1 O8'
_cell_volume   187.84434770
_cell_formula_units_Z   1
loop_
 _symmetry_equiv_pos_site_id
 _symmetry_equiv_pos_as_xyz
  1  'x, y, z'
loop_
 _atom_site_type_symbol
 _atom_site_label
 _atom_site_symmetry_multiplicity
 _atom_site_fract_x
 _atom_site_fract_y
 _atom_site_fract_z
 _atom_site_occupancy
  Li  Li0  1  0.500000  0.500000  0.500000  1
  La  La1  1  0.363916  0.636084  0.000000  1
  La  La2  1  0.862628  0.137372  0.500000  1
  La  La3  1  0.137372  0.862628  0.500000  1
  La  La4  1  0.636084  0.363916  0.000000  1
  Fe  Fe5  1  0.000000  0.000000  0.000000  1
  O  O6  1  0.245671  0.245671  0.244394  1
  O  O7  1  0.245671  0.245671  0.755606  1
  O  O8  1  0.754329  0.754329  0.244394  1
  O  O9  1  0.754329  0.754329  0.755606  1
  O  O10  1  0.319923  0.680077  0.500000  1
  O  O11  1  0.821143  0.178857  1.000000  1
  O  O12  1  0.178857  0.821143  0.000000  1
  O  O13  1  0.680077  0.319923  0.500000  1
