# generated using pymatgen
data_Li3CoPCO7
_symmetry_space_group_name_H-M   'P 1'
_cell_length_a   8.64973892
_cell_length_b   6.37032213
_cell_length_c   9.66695933
_cell_angle_alpha   90.00000000
_cell_angle_beta   95.26210779
_cell_angle_gamma   90.00000000
_symmetry_Int_Tables_number   1
_chemical_formula_structural   Li3CoPCO7
_chemical_formula_sum   'Li12 Co4 P4 C4 O28'
_cell_volume   530.42027074
_cell_formula_units_Z   4
loop_
 _symmetry_equiv_pos_site_id
 _symmetry_equiv_pos_as_xyz
  1  'x, y, z'
loop_
 _atom_site_type_symbol
 _atom_site_label
 _atom_site_symmetry_multiplicity
 _atom_site_fract_x
 _atom_site_fract_y
 _atom_site_fract_z
 _atom_site_occupancy
  Li  Li0  1  0.886945  0.758398  0.644653  1
  Li  Li1  1  0.886945  0.741602  0.144653  1
  Li  Li2  1  0.718780  0.492969  0.377244  1
  Li  Li3  1  0.718780  0.007031  0.877244  1
  Li  Li4  1  0.639123  0.250290  0.637489  1
  Li  Li5  1  0.639123  0.249710  0.137489  1
  Li  Li6  1  0.360877  0.749710  0.362511  1
  Li  Li7  1  0.360877  0.750290  0.862511  1
  Li  Li8  1  0.281220  0.507031  0.622756  1
  Li  Li9  1  0.281220  0.992969  0.122756  1
  Li  Li10  1  0.113055  0.241602  0.355347  1
  Li  Li11  1  0.113055  0.258398  0.855347  1
  Co  Co12  1  0.739512  0.996807  0.378246  1
  Co  Co13  1  0.739512  0.503193  0.878246  1
  Co  Co14  1  0.260488  0.003193  0.621754  1
  Co  Co15  1  0.260488  0.496807  0.121754  1
  P  P16  1  0.593144  0.762227  0.613596  1
  P  P17  1  0.593144  0.737773  0.113596  1
  P  P18  1  0.406856  0.237773  0.386404  1
  P  P19  1  0.406856  0.262227  0.886404  1
  C  C20  1  0.952227  0.245662  0.598150  1
  C  C21  1  0.952227  0.254338  0.098150  1
  C  C22  1  0.047773  0.754338  0.401850  1
  C  C23  1  0.047773  0.745662  0.901850  1
  O  O24  1  0.935598  0.269636  0.726560  1
  O  O25  1  0.907468  0.781876  0.443858  1
  O  O26  1  0.935598  0.230364  0.226560  1
  O  O27  1  0.833886  0.251909  0.504699  1
  O  O28  1  0.907468  0.718124  0.943858  1
  O  O29  1  0.833886  0.248091  0.004699  1
  O  O30  1  0.694172  0.947273  0.672271  1
  O  O31  1  0.684589  0.561891  0.667073  1
  O  O32  1  0.684589  0.938109  0.167073  1
  O  O33  1  0.694172  0.552727  0.172271  1
  O  O34  1  0.574272  0.238666  0.343039  1
  O  O35  1  0.586634  0.766132  0.450989  1
  O  O36  1  0.574272  0.261334  0.843039  1
  O  O37  1  0.586634  0.733868  0.950989  1
  O  O38  1  0.413366  0.233868  0.549011  1
  O  O39  1  0.425728  0.761334  0.656961  1
  O  O40  1  0.413366  0.266132  0.049011  1
  O  O41  1  0.425728  0.738666  0.156961  1
  O  O42  1  0.305828  0.052727  0.327729  1
  O  O43  1  0.315411  0.438109  0.332927  1
  O  O44  1  0.305828  0.447273  0.827729  1
  O  O45  1  0.315411  0.061891  0.832927  1
  O  O46  1  0.166114  0.748091  0.495301  1
  O  O47  1  0.092532  0.218124  0.556142  1
  O  O48  1  0.166114  0.751909  0.995301  1
  O  O49  1  0.064402  0.730364  0.273440  1
  O  O50  1  0.092532  0.281876  0.056142  1
  O  O51  1  0.064402  0.769636  0.773440  1
