# generated using pymatgen
data_Li2MnP4(H4O5)4
_symmetry_space_group_name_H-M   'P 1'
_cell_length_a   7.18232374
_cell_length_b   10.67853776
_cell_length_c   12.06495646
_cell_angle_alpha   90.00000000
_cell_angle_beta   115.61437108
_cell_angle_gamma   90.00000000
_symmetry_Int_Tables_number   1
_chemical_formula_structural   Li2MnP4(H4O5)4
_chemical_formula_sum   'Li4 Mn2 P8 H32 O40'
_cell_volume   834.40367991
_cell_formula_units_Z   2
loop_
 _symmetry_equiv_pos_site_id
 _symmetry_equiv_pos_as_xyz
  1  'x, y, z'
loop_
 _atom_site_type_symbol
 _atom_site_label
 _atom_site_symmetry_multiplicity
 _atom_site_fract_x
 _atom_site_fract_y
 _atom_site_fract_z
 _atom_site_occupancy
  Li  Li0  1  0.796293  0.339945  0.544358  1
  Li  Li1  1  0.203707  0.839945  0.955642  1
  Li  Li2  1  0.796293  0.160055  0.044358  1
  Li  Li3  1  0.203707  0.660055  0.455642  1
  Mn  Mn4  1  0.500000  0.000000  0.500000  1
  Mn  Mn5  1  0.500000  0.500000  0.000000  1
  P  P6  1  0.315392  0.238711  0.084012  1
  P  P7  1  0.684608  0.738711  0.415988  1
  P  P8  1  0.962884  0.044601  0.724771  1
  P  P9  1  0.037116  0.544601  0.775229  1
  P  P10  1  0.962884  0.455399  0.224771  1
  P  P11  1  0.037116  0.955399  0.275229  1
  P  P12  1  0.315392  0.261289  0.584012  1
  P  P13  1  0.684608  0.761289  0.915988  1
  H  H14  1  0.255213  0.598219  0.106598  1
  H  H15  1  0.332486  0.960184  0.191120  1
  H  H16  1  0.518367  0.565639  0.395975  1
  H  H17  1  0.493637  0.377526  0.311990  1
  H  H18  1  0.534189  0.172932  0.341557  1
  H  H19  1  0.862292  0.710443  0.788041  1
  H  H20  1  0.465811  0.672932  0.158443  1
  H  H21  1  0.506363  0.877526  0.188010  1
  H  H22  1  0.089755  0.413540  0.923932  1
  H  H23  1  0.100548  0.104516  0.946184  1
  H  H24  1  0.481633  0.065639  0.104025  1
  H  H25  1  0.667514  0.460184  0.308880  1
  H  H26  1  0.744787  0.098219  0.393402  1
  H  H27  1  0.899452  0.604516  0.553816  1
  H  H28  1  0.910245  0.913540  0.576068  1
  H  H29  1  0.137708  0.210443  0.711959  1
  H  H30  1  0.862292  0.789557  0.288041  1
  H  H31  1  0.089755  0.086460  0.423932  1
  H  H32  1  0.100548  0.395484  0.446184  1
  H  H33  1  0.255213  0.901781  0.606598  1
  H  H34  1  0.332486  0.539816  0.691120  1
  H  H35  1  0.518367  0.934361  0.895975  1
  H  H36  1  0.899452  0.895484  0.053816  1
  H  H37  1  0.910245  0.586460  0.076068  1
  H  H38  1  0.493637  0.122474  0.811990  1
  H  H39  1  0.534189  0.327068  0.841557  1
  H  H40  1  0.137708  0.289557  0.211959  1
  H  H41  1  0.465811  0.827068  0.658443  1
  H  H42  1  0.506363  0.622474  0.688010  1
  H  H43  1  0.481633  0.434361  0.604025  1
  H  H44  1  0.667514  0.039816  0.808880  1
  H  H45  1  0.744787  0.401781  0.893402  1
  O  O46  1  0.104723  0.165118  0.016878  1
  O  O47  1  0.350799  0.257287  0.217804  1
  O  O48  1  0.504361  0.655866  0.421532  1
  O  O49  1  0.733748  0.026056  0.687822  1
  O  O50  1  0.398128  0.937829  0.135404  1
  O  O51  1  0.352900  0.640315  0.081122  1
  O  O52  1  0.303374  0.360297  0.015639  1
  O  O53  1  0.696626  0.860297  0.484361  1
  O  O54  1  0.647100  0.140315  0.418878  1
  O  O55  1  0.601872  0.437829  0.364596  1
  O  O56  1  0.965831  0.459818  0.859086  1
  O  O57  1  0.011140  0.687083  0.805156  1
  O  O58  1  0.495639  0.155866  0.078468  1
  O  O59  1  0.894300  0.514088  0.641249  1
  O  O60  1  0.649201  0.757287  0.282196  1
  O  O61  1  0.105700  0.014088  0.858751  1
  O  O62  1  0.988860  0.187083  0.694844  1
  O  O63  1  0.895277  0.665118  0.483122  1
  O  O64  1  0.034169  0.959818  0.640914  1
  O  O65  1  0.733748  0.473944  0.187822  1
  O  O66  1  0.266252  0.526056  0.812178  1
  O  O67  1  0.965831  0.040182  0.359086  1
  O  O68  1  0.104723  0.334882  0.516878  1
  O  O69  1  0.011140  0.812917  0.305156  1
  O  O70  1  0.894300  0.985912  0.141249  1
  O  O71  1  0.350799  0.242713  0.717804  1
  O  O72  1  0.105700  0.485912  0.358751  1
  O  O73  1  0.504361  0.844134  0.921532  1
  O  O74  1  0.988860  0.312917  0.194844  1
  O  O75  1  0.034169  0.540182  0.140914  1
  O  O76  1  0.398128  0.562171  0.635404  1
  O  O77  1  0.352900  0.859685  0.581122  1
  O  O78  1  0.303374  0.139703  0.515639  1
  O  O79  1  0.696626  0.639703  0.984361  1
  O  O80  1  0.647100  0.359685  0.918878  1
  O  O81  1  0.601872  0.062171  0.864596  1
  O  O82  1  0.266252  0.973944  0.312178  1
  O  O83  1  0.495639  0.344134  0.578468  1
  O  O84  1  0.649201  0.742713  0.782196  1
  O  O85  1  0.895277  0.834882  0.983122  1
