# generated using pymatgen
data_Li2TiVO4
_symmetry_space_group_name_H-M   'P 1'
_cell_length_a   5.99795318
_cell_length_b   5.99795318
_cell_length_c   5.99795318
_cell_angle_alpha   120.39400717
_cell_angle_beta   119.92293289
_cell_angle_gamma   89.72622677
_symmetry_Int_Tables_number   1
_chemical_formula_structural   Li2TiVO4
_chemical_formula_sum   'Li4 Ti2 V2 O8'
_cell_volume   152.20822203
_cell_formula_units_Z   2
loop_
 _symmetry_equiv_pos_site_id
 _symmetry_equiv_pos_as_xyz
  1  'x, y, z'
loop_
 _atom_site_type_symbol
 _atom_site_label
 _atom_site_symmetry_multiplicity
 _atom_site_fract_x
 _atom_site_fract_y
 _atom_site_fract_z
 _atom_site_occupancy
  Li  Li0  1  0.000000  0.000000  0.500000  1
  Li  Li1  1  0.500000  1.000000  0.500000  1
  Li  Li2  1  0.500000  0.000000  0.000000  1
  Li  Li3  1  0.500000  0.500000  0.000000  1
  Ti  Ti4  1  0.000000  0.500000  0.500000  1
  Ti  Ti5  1  0.000000  0.000000  0.000000  1
  V  V6  1  0.000000  0.500000  0.000000  1
  V  V7  1  0.500000  0.500000  0.500000  1
  O  O8  1  0.234052  0.237442  0.003390  1
  O  O9  1  0.235232  0.251032  0.484200  1
  O  O10  1  0.234052  0.730662  0.496610  1
  O  O11  1  0.766832  0.251032  0.015800  1
  O  O12  1  0.233168  0.748968  0.984200  1
  O  O13  1  0.765948  0.269338  0.503390  1
  O  O14  1  0.764768  0.748968  0.515800  1
  O  O15  1  0.765948  0.762558  0.996610  1
