# generated using pymatgen
data_Li6Fe2C4SO16
_symmetry_space_group_name_H-M   'P 1'
_cell_length_a   9.44081113
_cell_length_b   9.44081113
_cell_length_c   9.44081113
_cell_angle_alpha   60.00000000
_cell_angle_beta   60.00000000
_cell_angle_gamma   60.00000000
_symmetry_Int_Tables_number   1
_chemical_formula_structural   Li6Fe2C4SO16
_chemical_formula_sum   'Li12 Fe4 C8 S2 O32'
_cell_volume   594.99447127
_cell_formula_units_Z   2
loop_
 _symmetry_equiv_pos_site_id
 _symmetry_equiv_pos_as_xyz
  1  'x, y, z'
loop_
 _atom_site_type_symbol
 _atom_site_label
 _atom_site_symmetry_multiplicity
 _atom_site_fract_x
 _atom_site_fract_y
 _atom_site_fract_z
 _atom_site_occupancy
  Li  Li0  1  0.031470  0.468530  0.468530  1
  Li  Li1  1  0.781470  0.218530  0.218530  1
  Li  Li2  1  0.468530  0.468530  0.031470  1
  Li  Li3  1  0.031470  0.468530  0.031470  1
  Li  Li4  1  0.031470  0.031470  0.468530  1
  Li  Li5  1  0.468530  0.031470  0.468530  1
  Li  Li6  1  0.781470  0.218530  0.781470  1
  Li  Li7  1  0.218530  0.218530  0.781470  1
  Li  Li8  1  0.781470  0.781470  0.218530  1
  Li  Li9  1  0.218530  0.781470  0.218530  1
  Li  Li10  1  0.468530  0.031470  0.031470  1
  Li  Li11  1  0.218530  0.781470  0.781470  1
  Fe  Fe12  1  0.625000  0.625000  0.625000  1
  Fe  Fe13  1  0.125000  0.625000  0.625000  1
  Fe  Fe14  1  0.625000  0.625000  0.125000  1
  Fe  Fe15  1  0.625000  0.125000  0.625000  1
  C  C16  1  0.850322  0.850322  0.449035  1
  C  C17  1  0.850322  0.449035  0.850322  1
  C  C18  1  0.850322  0.850322  0.850322  1
  C  C19  1  0.449035  0.850322  0.850322  1
  C  C20  1  0.800965  0.399678  0.399678  1
  C  C21  1  0.399678  0.399678  0.399678  1
  C  C22  1  0.399678  0.399678  0.800965  1
  C  C23  1  0.399678  0.800965  0.399678  1
  S  S24  1  1.000000  0.000000  1.000000  1
  S  S25  1  0.250000  0.250000  0.250000  1
  O  O26  1  0.064659  0.064659  0.806023  1
  O  O27  1  0.064659  0.806023  0.064659  1
  O  O28  1  0.806023  0.064659  0.064659  1
  O  O29  1  0.064659  0.064659  0.064659  1
  O  O30  1  0.992008  0.717306  0.449353  1
  O  O31  1  0.841333  0.449353  0.717306  1
  O  O32  1  0.717306  0.841333  0.449353  1
  O  O33  1  0.992008  0.449353  0.841333  1
  O  O34  1  0.717306  0.449353  0.992008  1
  O  O35  1  0.841333  0.992008  0.449353  1
  O  O36  1  0.449353  0.717306  0.841333  1
  O  O37  1  0.992008  0.841333  0.717306  1
  O  O38  1  0.800647  0.408667  0.257992  1
  O  O39  1  0.532694  0.257992  0.408667  1
  O  O40  1  0.449353  0.992008  0.717306  1
  O  O41  1  0.841333  0.717306  0.992008  1
  O  O42  1  0.800647  0.257992  0.532694  1
  O  O43  1  0.408667  0.532694  0.257992  1
  O  O44  1  0.449353  0.841333  0.992008  1
  O  O45  1  0.717306  0.992008  0.841333  1
  O  O46  1  0.800647  0.532694  0.408667  1
  O  O47  1  0.257992  0.408667  0.532694  1
  O  O48  1  0.408667  0.257992  0.800647  1
  O  O49  1  0.532694  0.800647  0.257992  1
  O  O50  1  0.532694  0.408667  0.800647  1
  O  O51  1  0.257992  0.800647  0.408667  1
  O  O52  1  0.408667  0.800647  0.532694  1
  O  O53  1  0.257992  0.532694  0.800647  1
  O  O54  1  0.185341  0.185341  0.185341  1
  O  O55  1  0.443977  0.185341  0.185341  1
  O  O56  1  0.185341  0.443977  0.185341  1
  O  O57  1  0.185341  0.185341  0.443977  1
