# generated using pymatgen
data_BeH8(IO5)2
_symmetry_space_group_name_H-M   'P 1'
_cell_length_a   6.56898553
_cell_length_b   8.88047109
_cell_length_c   15.88971053
_cell_angle_alpha   90.00000000
_cell_angle_beta   90.00000000
_cell_angle_gamma   90.00000000
_symmetry_Int_Tables_number   1
_chemical_formula_structural   BeH8(IO5)2
_chemical_formula_sum   'Be4 H32 I8 O40'
_cell_volume   926.93716554
_cell_formula_units_Z   4
loop_
 _symmetry_equiv_pos_site_id
 _symmetry_equiv_pos_as_xyz
  1  'x, y, z'
loop_
 _atom_site_type_symbol
 _atom_site_label
 _atom_site_symmetry_multiplicity
 _atom_site_fract_x
 _atom_site_fract_y
 _atom_site_fract_z
 _atom_site_occupancy
  Be  Be0  1  0.750000  0.830998  0.750000  1
  Be  Be1  1  0.250000  0.669002  0.250000  1
  Be  Be2  1  0.250000  0.169002  0.250000  1
  Be  Be3  1  0.750000  0.330998  0.750000  1
  H  H4  1  0.021672  0.988122  0.709739  1
  H  H5  1  0.478328  0.988122  0.790261  1
  H  H6  1  0.978328  0.511878  0.209739  1
  H  H7  1  0.521672  0.511878  0.290261  1
  H  H8  1  0.978328  0.011878  0.290261  1
  H  H9  1  0.521672  0.011878  0.209739  1
  H  H10  1  0.021672  0.488122  0.790261  1
  H  H11  1  0.478328  0.488122  0.709739  1
  H  H12  1  0.006490  0.960074  0.811952  1
  H  H13  1  0.493510  0.960074  0.688048  1
  H  H14  1  0.993510  0.539926  0.311952  1
  H  H15  1  0.506490  0.539926  0.188048  1
  H  H16  1  0.993510  0.039926  0.188048  1
  H  H17  1  0.506490  0.039926  0.311952  1
  H  H18  1  0.006490  0.460074  0.688048  1
  H  H19  1  0.493510  0.460074  0.811952  1
  H  H20  1  0.863575  0.181873  0.865024  1
  H  H21  1  0.636425  0.181873  0.634976  1
  H  H22  1  0.136425  0.318127  0.365024  1
  H  H23  1  0.363575  0.318127  0.134976  1
  H  H24  1  0.136425  0.818127  0.134976  1
  H  H25  1  0.363575  0.818127  0.365024  1
  H  H26  1  0.863575  0.681873  0.634976  1
  H  H27  1  0.636425  0.681873  0.865024  1
  H  H28  1  0.616395  0.196289  0.858641  1
  H  H29  1  0.883605  0.196289  0.641359  1
  H  H30  1  0.383605  0.303711  0.358641  1
  H  H31  1  0.116395  0.303711  0.141359  1
  H  H32  1  0.383605  0.803711  0.141359  1
  H  H33  1  0.116395  0.803711  0.358641  1
  H  H34  1  0.616395  0.696289  0.641359  1
  H  H35  1  0.883605  0.696289  0.858641  1
  I  I36  1  0.263566  0.068824  0.955921  1
  I  I37  1  0.236434  0.068824  0.544079  1
  I  I38  1  0.736434  0.431176  0.455921  1
  I  I39  1  0.763566  0.431176  0.044079  1
  I  I40  1  0.736434  0.931176  0.044079  1
  I  I41  1  0.763566  0.931176  0.455921  1
  I  I42  1  0.263566  0.568824  0.544079  1
  I  I43  1  0.236434  0.568824  0.955921  1
  O  O44  1  0.402260  0.117581  0.859268  1
  O  O45  1  0.097740  0.117581  0.640732  1
  O  O46  1  0.597740  0.382419  0.359268  1
  O  O47  1  0.902260  0.382419  0.140732  1
  O  O48  1  0.597740  0.882419  0.140732  1
  O  O49  1  0.902260  0.882419  0.359268  1
  O  O50  1  0.402260  0.617581  0.640732  1
  O  O51  1  0.097740  0.617581  0.859268  1
  O  O52  1  0.013847  0.032428  0.905902  1
  O  O53  1  0.486153  0.032428  0.594098  1
  O  O54  1  0.986153  0.467572  0.405902  1
  O  O55  1  0.513847  0.467572  0.094098  1
  O  O56  1  0.986153  0.967572  0.094098  1
  O  O57  1  0.513847  0.967572  0.405902  1
  O  O58  1  0.013847  0.532428  0.594098  1
  O  O59  1  0.486153  0.532428  0.905902  1
  O  O60  1  0.356616  0.875796  0.970963  1
  O  O61  1  0.143384  0.875796  0.529037  1
  O  O62  1  0.643384  0.624204  0.470963  1
  O  O63  1  0.856616  0.624204  0.029037  1
  O  O64  1  0.643384  0.124204  0.029037  1
  O  O65  1  0.856616  0.124204  0.470963  1
  O  O66  1  0.356616  0.375796  0.529037  1
  O  O67  1  0.143384  0.375796  0.970963  1
  O  O68  1  0.965245  0.921054  0.754896  1
  O  O69  1  0.534755  0.921054  0.745104  1
  O  O70  1  0.034755  0.578946  0.254896  1
  O  O71  1  0.465245  0.578946  0.245104  1
  O  O72  1  0.034755  0.078946  0.245104  1
  O  O73  1  0.465245  0.078946  0.254896  1
  O  O74  1  0.965245  0.421054  0.745104  1
  O  O75  1  0.534755  0.421054  0.754896  1
  O  O76  1  0.750851  0.243489  0.840834  1
  O  O77  1  0.749149  0.243489  0.659166  1
  O  O78  1  0.249149  0.256511  0.340834  1
  O  O79  1  0.250851  0.256511  0.159166  1
  O  O80  1  0.249149  0.756511  0.159166  1
  O  O81  1  0.250851  0.756511  0.340834  1
  O  O82  1  0.750851  0.743489  0.659166  1
  O  O83  1  0.749149  0.743489  0.840834  1
