# generated using pymatgen
data_Rb3SbO3
_symmetry_space_group_name_H-M   'P 1'
_cell_length_a   9.23477904
_cell_length_b   6.92132218
_cell_length_c   11.23100163
_cell_angle_alpha   90.00000000
_cell_angle_beta   94.99017711
_cell_angle_gamma   90.00000000
_symmetry_Int_Tables_number   1
_chemical_formula_structural   Rb3SbO3
_chemical_formula_sum   'Rb12 Sb4 O12'
_cell_volume   715.12967228
_cell_formula_units_Z   4
loop_
 _symmetry_equiv_pos_site_id
 _symmetry_equiv_pos_as_xyz
  1  'x, y, z'
loop_
 _atom_site_type_symbol
 _atom_site_label
 _atom_site_symmetry_multiplicity
 _atom_site_fract_x
 _atom_site_fract_y
 _atom_site_fract_z
 _atom_site_occupancy
  Rb  Rb0  1  0.341194  0.305225  0.934196  1
  Rb  Rb1  1  0.921766  0.642611  0.814137  1
  Rb  Rb2  1  0.418075  0.775080  0.812202  1
  Rb  Rb3  1  0.581925  0.275080  0.687798  1
  Rb  Rb4  1  0.078234  0.142611  0.685863  1
  Rb  Rb5  1  0.658806  0.805225  0.565804  1
  Rb  Rb6  1  0.341194  0.194775  0.434196  1
  Rb  Rb7  1  0.921766  0.857389  0.314137  1
  Rb  Rb8  1  0.418075  0.724920  0.312202  1
  Rb  Rb9  1  0.581925  0.224920  0.187798  1
  Rb  Rb10  1  0.078234  0.357389  0.185863  1
  Rb  Rb11  1  0.658806  0.694775  0.065804  1
  Sb  Sb12  1  0.813822  0.148996  0.939187  1
  Sb  Sb13  1  0.186178  0.648996  0.560813  1
  Sb  Sb14  1  0.813822  0.351004  0.439187  1
  Sb  Sb15  1  0.186178  0.851004  0.060813  1
  O  O16  1  0.657804  0.345307  0.942826  1
  O  O17  1  0.182147  0.956937  0.897268  1
  O  O18  1  0.711449  0.942813  0.840901  1
  O  O19  1  0.288551  0.442813  0.659099  1
  O  O20  1  0.817853  0.456937  0.602732  1
  O  O21  1  0.342196  0.845307  0.557174  1
  O  O22  1  0.657804  0.154693  0.442826  1
  O  O23  1  0.182147  0.543063  0.397268  1
  O  O24  1  0.711449  0.557187  0.340901  1
  O  O25  1  0.288551  0.057187  0.159099  1
  O  O26  1  0.817853  0.043063  0.102732  1
  O  O27  1  0.342196  0.654693  0.057174  1
