# generated using pymatgen
data_Li2MnV3O8
_symmetry_space_group_name_H-M   'P 1'
_cell_length_a   6.04153038
_cell_length_b   6.04153038
_cell_length_c   6.04153038
_cell_angle_alpha   59.10785410
_cell_angle_beta   59.10785410
_cell_angle_gamma   59.10785410
_symmetry_Int_Tables_number   1
_chemical_formula_structural   Li2MnV3O8
_chemical_formula_sum   'Li2 Mn1 V3 O8'
_cell_volume   152.75745755
_cell_formula_units_Z   1
loop_
 _symmetry_equiv_pos_site_id
 _symmetry_equiv_pos_as_xyz
  1  'x, y, z'
loop_
 _atom_site_type_symbol
 _atom_site_label
 _atom_site_symmetry_multiplicity
 _atom_site_fract_x
 _atom_site_fract_y
 _atom_site_fract_z
 _atom_site_occupancy
  Li  Li0  1  0.880011  0.880011  0.880011  1
  Li  Li1  1  0.498327  0.498327  0.498327  1
  Mn  Mn2  1  0.121811  0.121811  0.121811  1
  V  V3  1  0.501986  0.501986  0.992683  1
  V  V4  1  0.992683  0.501986  0.501986  1
  V  V5  1  0.501986  0.992683  0.501986  1
  O  O6  1  0.740216  0.740216  0.740216  1
  O  O7  1  0.752296  0.289908  0.752296  1
  O  O8  1  0.289908  0.752296  0.752296  1
  O  O9  1  0.752296  0.752296  0.289908  1
  O  O10  1  0.251067  0.251067  0.705867  1
  O  O11  1  0.705867  0.251067  0.251067  1
  O  O12  1  0.251067  0.705867  0.251067  1
  O  O13  1  0.260477  0.260477  0.260477  1
