# generated using pymatgen
data_Li5MnO5
_symmetry_space_group_name_H-M   'P 1'
_cell_length_a   5.14700600
_cell_length_b   5.14700600
_cell_length_c   5.78243193
_cell_angle_alpha   72.60088928
_cell_angle_beta   107.39911072
_cell_angle_gamma   135.19034421
_symmetry_Int_Tables_number   1
_chemical_formula_structural   Li5MnO5
_chemical_formula_sum   'Li5 Mn1 O5'
_cell_volume   102.15564636
_cell_formula_units_Z   1
loop_
 _symmetry_equiv_pos_site_id
 _symmetry_equiv_pos_as_xyz
  1  'x, y, z'
loop_
 _atom_site_type_symbol
 _atom_site_label
 _atom_site_symmetry_multiplicity
 _atom_site_fract_x
 _atom_site_fract_y
 _atom_site_fract_z
 _atom_site_occupancy
  Li  Li0  1  0.315909  0.684091  0.135476  1
  Li  Li1  1  0.298740  0.701260  0.668504  1
  Li  Li2  1  0.701260  0.298740  0.331496  1
  Li  Li3  1  0.684091  0.315909  0.864524  1
  Li  Li4  1  0.000000  0.000000  0.500000  1
  Mn  Mn5  1  0.000000  0.000000  0.000000  1
  O  O6  1  0.857716  0.142284  0.172763  1
  O  O7  1  0.500000  0.500000  0.000000  1
  O  O8  1  0.845666  0.154334  0.686715  1
  O  O9  1  0.154334  0.845666  0.313285  1
  O  O10  1  0.142284  0.857716  0.827237  1
