# generated using pymatgen
data_Li2FeBO4
_symmetry_space_group_name_H-M   'P 1'
_cell_length_a   6.44545836
_cell_length_b   5.20657438
_cell_length_c   10.71563136
_cell_angle_alpha   90.00000000
_cell_angle_beta   94.77523614
_cell_angle_gamma   90.00000000
_symmetry_Int_Tables_number   1
_chemical_formula_structural   Li2FeBO4
_chemical_formula_sum   'Li8 Fe4 B4 O16'
_cell_volume   358.35507631
_cell_formula_units_Z   4
loop_
 _symmetry_equiv_pos_site_id
 _symmetry_equiv_pos_as_xyz
  1  'x, y, z'
loop_
 _atom_site_type_symbol
 _atom_site_label
 _atom_site_symmetry_multiplicity
 _atom_site_fract_x
 _atom_site_fract_y
 _atom_site_fract_z
 _atom_site_occupancy
  Li  Li0  1  0.095418  0.648743  0.790631  1
  Li  Li1  1  0.095418  0.851257  0.290631  1
  Li  Li2  1  0.216402  0.826948  0.571953  1
  Li  Li3  1  0.216402  0.673052  0.071953  1
  Li  Li4  1  0.783598  0.326948  0.928047  1
  Li  Li5  1  0.783598  0.173052  0.428047  1
  Li  Li6  1  0.904582  0.148743  0.709369  1
  Li  Li7  1  0.904582  0.351257  0.209369  1
  Fe  Fe8  1  0.505159  0.852851  0.847300  1
  Fe  Fe9  1  0.494841  0.352851  0.652700  1
  Fe  Fe10  1  0.505159  0.647149  0.347300  1
  Fe  Fe11  1  0.494841  0.147149  0.152700  1
  B  B12  1  0.194698  0.183810  0.939164  1
  B  B13  1  0.194698  0.316190  0.439164  1
  B  B14  1  0.805302  0.683810  0.560836  1
  B  B15  1  0.805302  0.816190  0.060836  1
  O  O16  1  0.057741  0.303408  0.855375  1
  O  O17  1  0.057741  0.196592  0.355375  1
  O  O18  1  0.248956  0.920121  0.926267  1
  O  O19  1  0.248956  0.579879  0.426267  1
  O  O20  1  0.287749  0.185330  0.543681  1
  O  O21  1  0.383518  0.659516  0.711349  1
  O  O22  1  0.287749  0.314670  0.043681  1
  O  O23  1  0.383518  0.840484  0.211349  1
  O  O24  1  0.616482  0.159516  0.788651  1
  O  O25  1  0.712251  0.685330  0.956319  1
  O  O26  1  0.616482  0.340484  0.288651  1
  O  O27  1  0.712251  0.814670  0.456319  1
  O  O28  1  0.751044  0.420121  0.573733  1
  O  O29  1  0.751044  0.079879  0.073733  1
  O  O30  1  0.942259  0.803408  0.644625  1
  O  O31  1  0.942259  0.696592  0.144625  1
