# generated using pymatgen
data_Co2C2O7
_symmetry_space_group_name_H-M   'P 1'
_cell_length_a   8.52030707
_cell_length_b   8.52030707
_cell_length_c   8.24876594
_cell_angle_alpha   90.00000000
_cell_angle_beta   90.00000000
_cell_angle_gamma   120.00000000
_symmetry_Int_Tables_number   1
_chemical_formula_structural   Co2C2O7
_chemical_formula_sum   'Co6 C6 O21'
_cell_volume   518.59712635
_cell_formula_units_Z   3
loop_
 _symmetry_equiv_pos_site_id
 _symmetry_equiv_pos_as_xyz
  1  'x, y, z'
loop_
 _atom_site_type_symbol
 _atom_site_label
 _atom_site_symmetry_multiplicity
 _atom_site_fract_x
 _atom_site_fract_y
 _atom_site_fract_z
 _atom_site_occupancy
  Co  Co0  1  0.000000  0.000000  0.284419  1
  Co  Co1  1  0.000000  0.000000  0.715581  1
  Co  Co2  1  0.666667  0.333333  0.824541  1
  Co  Co3  1  0.666667  0.333333  0.258996  1
  Co  Co4  1  0.333333  0.666667  0.175459  1
  Co  Co5  1  0.333333  0.666667  0.741004  1
  C  C6  1  0.656914  0.997908  0.266243  1
  C  C7  1  0.340994  0.343086  0.266243  1
  C  C8  1  0.002092  0.659006  0.266243  1
  C  C9  1  0.343086  0.340994  0.733757  1
  C  C10  1  0.659006  0.002092  0.733757  1
  C  C11  1  0.997908  0.656914  0.733757  1
  O  O12  1  0.000000  0.000000  0.500000  1
  O  O13  1  0.825901  0.066435  0.779974  1
  O  O14  1  0.734031  0.162193  0.324120  1
  O  O15  1  0.580837  0.095257  0.739958  1
  O  O16  1  0.666667  0.333333  0.040794  1
  O  O17  1  0.428162  0.265969  0.324120  1
  O  O18  1  0.904743  0.485579  0.739958  1
  O  O19  1  0.240534  0.174099  0.779974  1
  O  O20  1  0.174099  0.240534  0.220026  1
  O  O21  1  0.514421  0.419163  0.739958  1
  O  O22  1  0.837807  0.571838  0.324120  1
  O  O23  1  0.933565  0.759466  0.779974  1
  O  O24  1  0.265969  0.428162  0.675880  1
  O  O25  1  0.419163  0.514421  0.260042  1
  O  O26  1  0.333333  0.666667  0.959206  1
  O  O27  1  0.571838  0.837807  0.675880  1
  O  O28  1  0.095257  0.580837  0.260042  1
  O  O29  1  0.759466  0.933565  0.220026  1
  O  O30  1  0.485579  0.904743  0.260042  1
  O  O31  1  0.162193  0.734031  0.675880  1
  O  O32  1  0.066435  0.825901  0.220026  1
