# generated using pymatgen
data_V6Cu2O15
_symmetry_space_group_name_H-M   'P 1'
_cell_length_a   3.70227981
_cell_length_b   7.87674376
_cell_length_c   10.19622915
_cell_angle_alpha   105.45595265
_cell_angle_beta   90.37638185
_cell_angle_gamma   103.35422601
_symmetry_Int_Tables_number   1
_chemical_formula_structural   V6Cu2O15
_chemical_formula_sum   'V6 Cu2 O15'
_cell_volume   278.10251395
_cell_formula_units_Z   1
loop_
 _symmetry_equiv_pos_site_id
 _symmetry_equiv_pos_as_xyz
  1  'x, y, z'
loop_
 _atom_site_type_symbol
 _atom_site_label
 _atom_site_symmetry_multiplicity
 _atom_site_fract_x
 _atom_site_fract_y
 _atom_site_fract_z
 _atom_site_occupancy
  V  V0  1  0.331974  0.662541  0.088395  1
  V  V1  1  0.885078  0.774454  0.881732  1
  V  V2  1  0.285047  0.572395  0.406153  1
  V  V3  1  0.714953  0.427605  0.593847  1
  V  V4  1  0.114922  0.225546  0.118268  1
  V  V5  1  0.668026  0.337459  0.911605  1
  Cu  Cu6  1  0.517408  0.939028  0.645668  1
  Cu  Cu7  1  0.482592  0.060972  0.354332  1
  O  O8  1  0.432461  0.865412  0.204086  1
  O  O9  1  0.000000  0.000000  0.000000  1
  O  O10  1  0.401895  0.801070  0.465261  1
  O  O11  1  0.810245  0.620537  0.036636  1
  O  O12  1  0.891644  0.810170  0.726291  1
  O  O13  1  0.258356  0.517854  0.225956  1
  O  O14  1  0.367619  0.738327  0.913927  1
  O  O15  1  0.757451  0.516202  0.428477  1
  O  O16  1  0.242549  0.483798  0.571523  1
  O  O17  1  0.632381  0.261673  0.086073  1
  O  O18  1  0.741644  0.482146  0.774044  1
  O  O19  1  0.108356  0.189830  0.273709  1
  O  O20  1  0.189755  0.379463  0.963364  1
  O  O21  1  0.598105  0.198930  0.534739  1
  O  O22  1  0.567539  0.134588  0.795914  1
