# generated using pymatgen
data_Li4Ti3Nb3Cr2O16
_symmetry_space_group_name_H-M   'P 1'
_cell_length_a   6.00472680
_cell_length_b   6.00472680
_cell_length_c   9.93942957
_cell_angle_alpha   89.48554421
_cell_angle_beta   90.51445579
_cell_angle_gamma   120.43225001
_symmetry_Int_Tables_number   1
_chemical_formula_structural   Li4Ti3Nb3Cr2O16
_chemical_formula_sum   'Li4 Ti3 Nb3 Cr2 O16'
_cell_volume   308.99197521
_cell_formula_units_Z   1
loop_
 _symmetry_equiv_pos_site_id
 _symmetry_equiv_pos_as_xyz
  1  'x, y, z'
loop_
 _atom_site_type_symbol
 _atom_site_label
 _atom_site_symmetry_multiplicity
 _atom_site_fract_x
 _atom_site_fract_y
 _atom_site_fract_z
 _atom_site_occupancy
  Li  Li0  1  0.665860  0.334140  0.100313  1
  Li  Li1  1  0.011480  0.988520  0.006619  1
  Li  Li2  1  0.006249  0.993751  0.503015  1
  Li  Li3  1  0.331043  0.668957  0.608899  1
  Ti  Ti4  1  0.831240  0.661862  0.783336  1
  Ti  Ti5  1  0.338138  0.168760  0.783336  1
  Ti  Ti6  1  0.164981  0.835019  0.281697  1
  Nb  Nb7  1  0.833612  0.166388  0.788611  1
  Nb  Nb8  1  0.640587  0.812580  0.290173  1
  Nb  Nb9  1  0.187420  0.359413  0.290173  1
  Cr  Cr10  1  0.669368  0.330632  0.516298  1
  Cr  Cr11  1  0.332260  0.667740  0.010635  1
  O  O12  1  0.832546  0.669408  0.397713  1
  O  O13  1  0.521350  0.478650  0.665139  1
  O  O14  1  0.664797  0.335203  0.895478  1
  O  O15  1  0.005768  0.994232  0.683650  1
  O  O16  1  0.000711  0.999289  0.187727  1
  O  O17  1  0.330592  0.167454  0.397713  1
  O  O18  1  0.960863  0.482020  0.661233  1
  O  O19  1  0.517980  0.039137  0.661233  1
  O  O20  1  0.163133  0.836867  0.892720  1
  O  O21  1  0.836765  0.163235  0.404193  1
  O  O22  1  0.477521  0.965746  0.165783  1
  O  O23  1  0.034254  0.522479  0.165783  1
  O  O24  1  0.312546  0.687454  0.411833  1
  O  O25  1  0.678395  0.834306  0.896230  1
  O  O26  1  0.483286  0.516714  0.146308  1
  O  O27  1  0.165694  0.321605  0.896230  1
