# generated using pymatgen
data_Mn2O3F
_symmetry_space_group_name_H-M   'P 1'
_cell_length_a   4.59010922
_cell_length_b   4.59010922
_cell_length_c   12.07329325
_cell_angle_alpha   90.00000000
_cell_angle_beta   90.00000000
_cell_angle_gamma   92.83920758
_symmetry_Int_Tables_number   1
_chemical_formula_structural   Mn2O3F
_chemical_formula_sum   'Mn8 O12 F4'
_cell_volume   254.06120563
_cell_formula_units_Z   4
loop_
 _symmetry_equiv_pos_site_id
 _symmetry_equiv_pos_as_xyz
  1  'x, y, z'
loop_
 _atom_site_type_symbol
 _atom_site_label
 _atom_site_symmetry_multiplicity
 _atom_site_fract_x
 _atom_site_fract_y
 _atom_site_fract_z
 _atom_site_occupancy
  Mn  Mn0  1  0.500000  0.500000  1.000000  1
  Mn  Mn1  1  0.510924  0.489076  0.750000  1
  Mn  Mn2  1  0.500000  0.500000  0.500000  1
  Mn  Mn3  1  0.489076  0.510924  0.250000  1
  Mn  Mn4  1  0.020472  0.979528  0.375076  1
  Mn  Mn5  1  0.979528  0.020472  0.875076  1
  Mn  Mn6  1  0.979528  0.020472  0.624924  1
  Mn  Mn7  1  0.020472  0.979528  0.124924  1
  O  O8  1  0.311010  0.688990  0.375578  1
  O  O9  1  0.311010  0.688990  0.124422  1
  O  O10  1  0.809439  0.809439  1.000000  1
  O  O11  1  0.792715  0.818396  0.750000  1
  O  O12  1  0.809439  0.809439  0.500000  1
  O  O13  1  0.818396  0.792715  0.250000  1
  O  O14  1  0.190561  0.190561  1.000000  1
  O  O15  1  0.181604  0.207285  0.750000  1
  O  O16  1  0.190561  0.190561  0.500000  1
  O  O17  1  0.207285  0.181604  0.250000  1
  O  O18  1  0.688990  0.311010  0.875578  1
  O  O19  1  0.688990  0.311010  0.624422  1
  F  F20  1  0.289591  0.710409  0.868754  1
  F  F21  1  0.289591  0.710409  0.631246  1
  F  F22  1  0.710409  0.289591  0.368754  1
  F  F23  1  0.710409  0.289591  0.131246  1
