# generated using pymatgen
data_LiCr2O4
_symmetry_space_group_name_H-M   'P 1'
_cell_length_a   5.79505224
_cell_length_b   5.79505224
_cell_length_c   5.08743607
_cell_angle_alpha   89.70293030
_cell_angle_beta   90.29706970
_cell_angle_gamma   119.11058814
_symmetry_Int_Tables_number   1
_chemical_formula_structural   LiCr2O4
_chemical_formula_sum   'Li2 Cr4 O8'
_cell_volume   149.26547797
_cell_formula_units_Z   2
loop_
 _symmetry_equiv_pos_site_id
 _symmetry_equiv_pos_as_xyz
  1  'x, y, z'
loop_
 _atom_site_type_symbol
 _atom_site_label
 _atom_site_symmetry_multiplicity
 _atom_site_fract_x
 _atom_site_fract_y
 _atom_site_fract_z
 _atom_site_occupancy
  Li  Li0  1  0.859481  0.859481  0.750000  1
  Li  Li1  1  0.140519  0.140519  0.250000  1
  Cr  Cr2  1  0.389938  0.858815  0.249187  1
  Cr  Cr3  1  0.610062  0.141185  0.750813  1
  Cr  Cr4  1  0.858815  0.389938  0.250813  1
  Cr  Cr5  1  0.141185  0.610062  0.749187  1
  O  O6  1  0.735324  0.037479  0.429041  1
  O  O7  1  0.509051  0.219127  0.092497  1
  O  O8  1  0.264676  0.962521  0.570959  1
  O  O9  1  0.780873  0.490949  0.592497  1
  O  O10  1  0.962521  0.264676  0.929041  1
  O  O11  1  0.490949  0.780873  0.907503  1
  O  O12  1  0.219127  0.509051  0.407503  1
  O  O13  1  0.037479  0.735324  0.070959  1
