# generated using pymatgen
data_Li2VF6
_symmetry_space_group_name_H-M   'P 1'
_cell_length_a   5.80893310
_cell_length_b   5.80893310
_cell_length_c   4.87355860
_cell_angle_alpha   90.00000000
_cell_angle_beta   90.00000000
_cell_angle_gamma   120.00000000
_symmetry_Int_Tables_number   1
_chemical_formula_structural   Li2VF6
_chemical_formula_sum   'Li2 V1 F6'
_cell_volume   142.41953838
_cell_formula_units_Z   1
loop_
 _symmetry_equiv_pos_site_id
 _symmetry_equiv_pos_as_xyz
  1  'x, y, z'
loop_
 _atom_site_type_symbol
 _atom_site_label
 _atom_site_symmetry_multiplicity
 _atom_site_fract_x
 _atom_site_fract_y
 _atom_site_fract_z
 _atom_site_occupancy
  Li  Li0  1  0.333333  0.666667  0.712036  1
  Li  Li1  1  0.666667  0.333333  0.287964  1
  V  V2  1  0.000000  0.000000  0.000000  1
  F  F3  1  0.154462  0.845538  0.778010  1
  F  F4  1  0.845538  0.691077  0.221990  1
  F  F5  1  0.308923  0.154462  0.221990  1
  F  F6  1  0.691077  0.845538  0.778010  1
  F  F7  1  0.154462  0.308923  0.778010  1
  F  F8  1  0.845538  0.154462  0.221990  1
