# generated using pymatgen
data_LiVCo3(PO4)6
_symmetry_space_group_name_H-M   'P 1'
_cell_length_a   8.64964961
_cell_length_b   8.64964961
_cell_length_c   8.64964961
_cell_angle_alpha   59.26091875
_cell_angle_beta   59.26091875
_cell_angle_gamma   59.26091875
_symmetry_Int_Tables_number   1
_chemical_formula_structural   LiVCo3(PO4)6
_chemical_formula_sum   'Li1 V1 Co3 P6 O24'
_cell_volume   449.89161413
_cell_formula_units_Z   1
loop_
 _symmetry_equiv_pos_site_id
 _symmetry_equiv_pos_as_xyz
  1  'x, y, z'
loop_
 _atom_site_type_symbol
 _atom_site_label
 _atom_site_symmetry_multiplicity
 _atom_site_fract_x
 _atom_site_fract_y
 _atom_site_fract_z
 _atom_site_occupancy
  Li  Li0  1  0.988192  0.988192  0.988192  1
  V  V1  1  0.143013  0.143013  0.143013  1
  Co  Co2  1  0.856114  0.856114  0.856114  1
  Co  Co3  1  0.637458  0.637458  0.637458  1
  Co  Co4  1  0.363316  0.363316  0.363316  1
  P  P5  1  0.244533  0.541612  0.966308  1
  P  P6  1  0.966308  0.244533  0.541612  1
  P  P7  1  0.541612  0.966308  0.244533  1
  P  P8  1  0.465672  0.029425  0.755373  1
  P  P9  1  0.029425  0.755373  0.465672  1
  P  P10  1  0.755373  0.465672  0.029425  1
  O  O11  1  0.728947  0.485372  0.857125  1
  O  O12  1  0.485372  0.857125  0.728947  1
  O  O13  1  0.077038  0.734502  0.935696  1
  O  O14  1  0.857125  0.728947  0.485372  1
  O  O15  1  0.421482  0.546492  0.782966  1
  O  O16  1  0.192372  0.372287  0.008659  1
  O  O17  1  0.935696  0.077038  0.734502  1
  O  O18  1  0.782966  0.421482  0.546492  1
  O  O19  1  0.546492  0.782966  0.421482  1
  O  O20  1  0.630589  0.006723  0.796076  1
  O  O21  1  0.271593  0.066234  0.924116  1
  O  O22  1  0.006723  0.796076  0.630589  1
  O  O23  1  0.008659  0.192372  0.372287  1
  O  O24  1  0.734502  0.935696  0.077038  1
  O  O25  1  0.372287  0.008659  0.192372  1
  O  O26  1  0.441448  0.215273  0.584433  1
  O  O27  1  0.215273  0.584433  0.441448  1
  O  O28  1  0.066234  0.924116  0.271593  1
  O  O29  1  0.796076  0.630589  0.006723  1
  O  O30  1  0.584433  0.441448  0.215273  1
  O  O31  1  0.134218  0.281501  0.513843  1
  O  O32  1  0.924116  0.271593  0.066234  1
  O  O33  1  0.513843  0.134218  0.281501  1
  O  O34  1  0.281501  0.513843  0.134218  1
