# generated using pymatgen
data_LiV4OF11
_symmetry_space_group_name_H-M   'P 1'
_cell_length_a   5.25769185
_cell_length_b   5.52291099
_cell_length_c   9.03582467
_cell_angle_alpha   106.68181786
_cell_angle_beta   89.56694680
_cell_angle_gamma   118.04093133
_symmetry_Int_Tables_number   1
_chemical_formula_structural   LiV4OF11
_chemical_formula_sum   'Li1 V4 O1 F11'
_cell_volume   219.30102369
_cell_formula_units_Z   1
loop_
 _symmetry_equiv_pos_site_id
 _symmetry_equiv_pos_as_xyz
  1  'x, y, z'
loop_
 _atom_site_type_symbol
 _atom_site_label
 _atom_site_symmetry_multiplicity
 _atom_site_fract_x
 _atom_site_fract_y
 _atom_site_fract_z
 _atom_site_occupancy
  Li  Li0  1  0.858129  0.085091  0.629714  1
  V  V1  1  0.751272  0.250705  0.242874  1
  V  V2  1  0.500766  0.500299  0.498851  1
  V  V3  1  0.239024  0.755663  0.761683  1
  V  V4  1  0.004993  0.996440  0.991536  1
  O  O5  1  0.068714  0.933003  0.816878  1
  F  F6  1  0.930648  0.687016  0.569565  1
  F  F7  1  0.931828  0.075294  0.176953  1
  F  F8  1  0.989419  0.626857  0.134192  1
  F  F9  1  0.525771  0.876052  0.379191  1
  F  F10  1  0.427015  0.583801  0.672451  1
  F  F11  1  0.436537  0.182184  0.069443  1
  F  F12  1  0.566803  0.808132  0.930600  1
  F  F13  1  0.570930  0.420151  0.323383  1
  F  F14  1  0.508451  0.134804  0.622894  1
  F  F15  1  0.998980  0.363192  0.870417  1
  F  F16  1  0.057772  0.302083  0.441744  1
