# generated using pymatgen
data_LiVF3
_symmetry_space_group_name_H-M   'P 1'
_cell_length_a   5.72425706
_cell_length_b   9.39906597
_cell_length_c   19.27674607
_cell_angle_alpha   90.00000000
_cell_angle_beta   90.00000000
_cell_angle_gamma   90.00000000
_symmetry_Int_Tables_number   1
_chemical_formula_structural   LiVF3
_chemical_formula_sum   'Li16 V16 F48'
_cell_volume   1037.14040239
_cell_formula_units_Z   16
loop_
 _symmetry_equiv_pos_site_id
 _symmetry_equiv_pos_as_xyz
  1  'x, y, z'
loop_
 _atom_site_type_symbol
 _atom_site_label
 _atom_site_symmetry_multiplicity
 _atom_site_fract_x
 _atom_site_fract_y
 _atom_site_fract_z
 _atom_site_occupancy
  Li  Li0  1  0.663473  0.829482  0.038034  1
  Li  Li1  1  0.163473  0.670518  0.038034  1
  Li  Li2  1  0.445889  0.829152  0.223477  1
  Li  Li3  1  0.945889  0.670848  0.223477  1
  Li  Li4  1  0.445889  0.329152  0.276523  1
  Li  Li5  1  0.945889  0.170848  0.276523  1
  Li  Li6  1  0.663473  0.329482  0.461966  1
  Li  Li7  1  0.163473  0.170518  0.461966  1
  Li  Li8  1  0.836527  0.829482  0.538034  1
  Li  Li9  1  0.336527  0.670518  0.538034  1
  Li  Li10  1  0.054111  0.829152  0.723477  1
  Li  Li11  1  0.554111  0.670848  0.723477  1
  Li  Li12  1  0.054111  0.329152  0.776523  1
  Li  Li13  1  0.554111  0.170848  0.776523  1
  Li  Li14  1  0.836527  0.329482  0.961966  1
  Li  Li15  1  0.336527  0.170518  0.961966  1
  V  V16  1  0.667889  0.520849  0.121055  1
  V  V17  1  0.167889  0.979151  0.121055  1
  V  V18  1  0.659466  0.157309  0.120427  1
  V  V19  1  0.159466  0.342691  0.120427  1
  V  V20  1  0.159466  0.842691  0.379573  1
  V  V21  1  0.659466  0.657309  0.379573  1
  V  V22  1  0.167889  0.479151  0.378945  1
  V  V23  1  0.667889  0.020849  0.378945  1
  V  V24  1  0.332111  0.979151  0.621055  1
  V  V25  1  0.832111  0.520849  0.621055  1
  V  V26  1  0.340534  0.342691  0.620427  1
  V  V27  1  0.840534  0.157309  0.620427  1
  V  V28  1  0.340534  0.842691  0.879573  1
  V  V29  1  0.840534  0.657309  0.879573  1
  V  V30  1  0.332111  0.479151  0.878945  1
  V  V31  1  0.832111  0.020849  0.878945  1
  F  F32  1  0.838621  0.663447  0.055517  1
  F  F33  1  0.338621  0.836553  0.055517  1
  F  F34  1  0.824321  0.333345  0.066464  1
  F  F35  1  0.324321  0.166655  0.066464  1
  F  F36  1  0.834459  0.988410  0.072158  1
  F  F37  1  0.334459  0.511590  0.072158  1
  F  F38  1  0.491345  0.336894  0.174114  1
  F  F39  1  0.991345  0.163106  0.174114  1
  F  F40  1  0.479896  0.008803  0.178223  1
  F  F41  1  0.979896  0.491197  0.178223  1
  F  F42  1  0.628935  0.682592  0.193313  1
  F  F43  1  0.128935  0.817408  0.193313  1
  F  F44  1  0.128935  0.317408  0.306687  1
  F  F45  1  0.628935  0.182592  0.306687  1
  F  F46  1  0.479896  0.508803  0.321777  1
  F  F47  1  0.979896  0.991197  0.321777  1
  F  F48  1  0.491345  0.836894  0.325886  1
  F  F49  1  0.991345  0.663106  0.325886  1
  F  F50  1  0.834459  0.488410  0.427842  1
  F  F51  1  0.334459  0.011590  0.427842  1
  F  F52  1  0.824321  0.833345  0.433536  1
  F  F53  1  0.324321  0.666655  0.433536  1
  F  F54  1  0.338621  0.336553  0.444483  1
  F  F55  1  0.838621  0.163447  0.444483  1
  F  F56  1  0.161379  0.836553  0.555517  1
  F  F57  1  0.661379  0.663447  0.555517  1
  F  F58  1  0.675679  0.333345  0.566464  1
  F  F59  1  0.175679  0.166655  0.566464  1
  F  F60  1  0.665541  0.988410  0.572158  1
  F  F61  1  0.165541  0.511590  0.572158  1
  F  F62  1  0.008655  0.336894  0.674114  1
  F  F63  1  0.508655  0.163106  0.674114  1
  F  F64  1  0.020104  0.008803  0.678223  1
  F  F65  1  0.520104  0.491197  0.678223  1
  F  F66  1  0.371065  0.817408  0.693313  1
  F  F67  1  0.871065  0.682592  0.693313  1
  F  F68  1  0.371065  0.317408  0.806687  1
  F  F69  1  0.871065  0.182592  0.806687  1
  F  F70  1  0.020104  0.508803  0.821777  1
  F  F71  1  0.520104  0.991197  0.821777  1
  F  F72  1  0.008655  0.836894  0.825886  1
  F  F73  1  0.508655  0.663106  0.825886  1
  F  F74  1  0.665541  0.488410  0.927842  1
  F  F75  1  0.165541  0.011590  0.927842  1
  F  F76  1  0.675679  0.833345  0.933536  1
  F  F77  1  0.175679  0.666655  0.933536  1
  F  F78  1  0.161379  0.336553  0.944483  1
  F  F79  1  0.661379  0.163447  0.944483  1
