# generated using pymatgen
data_Rb2Ga2Ge3O10
_symmetry_space_group_name_H-M   'P 1'
_cell_length_a   9.55747443
_cell_length_b   9.55747443
_cell_length_c   12.89159998
_cell_angle_alpha   50.80018598
_cell_angle_beta   129.19981402
_cell_angle_gamma   138.05450679
_symmetry_Int_Tables_number   1
_chemical_formula_structural   Rb2Ga2Ge3O10
_chemical_formula_sum   'Rb4 Ga4 Ge6 O20'
_cell_volume   579.40693880
_cell_formula_units_Z   2
loop_
 _symmetry_equiv_pos_site_id
 _symmetry_equiv_pos_as_xyz
  1  'x, y, z'
loop_
 _atom_site_type_symbol
 _atom_site_label
 _atom_site_symmetry_multiplicity
 _atom_site_fract_x
 _atom_site_fract_y
 _atom_site_fract_z
 _atom_site_occupancy
  Rb  Rb0  1  0.424294  0.877110  0.165351  1
  Rb  Rb1  1  0.733339  0.011761  0.623087  1
  Rb  Rb2  1  0.011761  0.733339  0.376913  1
  Rb  Rb3  1  0.877110  0.424294  0.834649  1
  Ga  Ga4  1  0.042306  0.307859  0.259615  1
  Ga  Ga5  1  0.307619  0.430603  0.806989  1
  Ga  Ga6  1  0.430603  0.307619  0.193011  1
  Ga  Ga7  1  0.307859  0.042306  0.740385  1
  Ge  Ge8  1  0.997753  0.997753  0.000000  1
  Ge  Ge9  1  0.751283  0.494007  0.061587  1
  Ge  Ge10  1  0.317445  0.473989  0.552832  1
  Ge  Ge11  1  0.988766  0.988766  0.500000  1
  Ge  Ge12  1  0.473989  0.317445  0.447168  1
  Ge  Ge13  1  0.494007  0.751283  0.938413  1
  O  O14  1  0.969147  0.740241  0.112650  1
  O  O15  1  0.583083  0.276759  0.171529  1
  O  O16  1  0.895912  0.415170  0.088697  1
  O  O17  1  0.068146  0.272953  0.441332  1
  O  O18  1  0.191235  0.468285  0.615864  1
  O  O19  1  0.467836  0.726768  0.449689  1
  O  O20  1  0.868516  0.990404  0.327210  1
  O  O21  1  0.323176  0.432866  0.290331  1
  O  O22  1  0.564679  0.611362  0.118218  1
  O  O23  1  0.136410  0.127112  0.888663  1
  O  O24  1  0.127112  0.136410  0.111337  1
  O  O25  1  0.611362  0.564679  0.881782  1
  O  O26  1  0.432866  0.323176  0.709669  1
  O  O27  1  0.990404  0.868516  0.672790  1
  O  O28  1  0.726768  0.467836  0.550311  1
  O  O29  1  0.468285  0.191235  0.384136  1
  O  O30  1  0.272953  0.068146  0.558668  1
  O  O31  1  0.415170  0.895912  0.911303  1
  O  O32  1  0.276759  0.583083  0.828471  1
  O  O33  1  0.740241  0.969147  0.887350  1
