# generated using pymatgen
data_Li3Co(NiO3)2
_symmetry_space_group_name_H-M   'P 1'
_cell_length_a   5.01939746
_cell_length_b   5.01939746
_cell_length_c   9.77108215
_cell_angle_alpha   85.45474552
_cell_angle_beta   94.54525448
_cell_angle_gamma   121.10656950
_symmetry_Int_Tables_number   1
_chemical_formula_structural   Li3Co(NiO3)2
_chemical_formula_sum   'Li6 Co2 Ni4 O12'
_cell_volume   209.90329144
_cell_formula_units_Z   2
loop_
 _symmetry_equiv_pos_site_id
 _symmetry_equiv_pos_as_xyz
  1  'x, y, z'
loop_
 _atom_site_type_symbol
 _atom_site_label
 _atom_site_symmetry_multiplicity
 _atom_site_fract_x
 _atom_site_fract_y
 _atom_site_fract_z
 _atom_site_occupancy
  Li  Li0  1  0.816395  0.471232  0.753003  1
  Li  Li1  1  0.138186  0.138186  0.750000  1
  Li  Li2  1  0.471232  0.816395  0.746997  1
  Li  Li3  1  0.528768  0.183605  0.253003  1
  Li  Li4  1  0.861814  0.861814  0.250000  1
  Li  Li5  1  0.183605  0.528768  0.246997  1
  Co  Co6  1  0.500000  0.000000  0.000000  1
  Co  Co7  1  1.000000  0.500000  0.500000  1
  Ni  Ni8  1  0.171116  0.336298  0.999951  1
  Ni  Ni9  1  0.663702  0.828884  0.499951  1
  Ni  Ni10  1  0.336298  0.171116  0.500049  1
  Ni  Ni11  1  0.828884  0.663702  0.000049  1
  O  O12  1  0.328029  0.494687  0.610546  1
  O  O13  1  0.995316  0.187938  0.393716  1
  O  O14  1  0.494687  0.328029  0.889454  1
  O  O15  1  0.812062  0.004684  0.893716  1
  O  O16  1  0.187938  0.995316  0.106284  1
  O  O17  1  0.828604  0.318738  0.107692  1
  O  O18  1  0.505313  0.671971  0.110546  1
  O  O19  1  0.004684  0.812062  0.606284  1
  O  O20  1  0.681262  0.171396  0.607692  1
  O  O21  1  0.671971  0.505313  0.389454  1
  O  O22  1  0.318738  0.828604  0.392308  1
  O  O23  1  0.171396  0.681262  0.892308  1
