# generated using pymatgen
data_VOF2
_symmetry_space_group_name_H-M   'P 1'
_cell_length_a   5.40947832
_cell_length_b   5.40947832
_cell_length_c   5.40947832
_cell_angle_alpha   146.85728203
_cell_angle_beta   139.61717772
_cell_angle_gamma   53.19854649
_symmetry_Int_Tables_number   1
_chemical_formula_structural   VOF2
_chemical_formula_sum   'V1 O1 F2'
_cell_volume   55.73427185
_cell_formula_units_Z   1
loop_
 _symmetry_equiv_pos_site_id
 _symmetry_equiv_pos_as_xyz
  1  'x, y, z'
loop_
 _atom_site_type_symbol
 _atom_site_label
 _atom_site_symmetry_multiplicity
 _atom_site_fract_x
 _atom_site_fract_y
 _atom_site_fract_z
 _atom_site_occupancy
  V  V0  1  0.959241  0.000000  0.959241  1
  O  O1  1  0.508188  0.000000  0.508188  1
  F  F2  1  0.142111  0.629014  0.513097  1
  F  F3  1  0.884083  0.370986  0.513097  1
