# generated using pymatgen
data_Ba6CaI14
_symmetry_space_group_name_H-M   'P 1'
_cell_length_a   13.24909769
_cell_length_b   13.24909769
_cell_length_c   19.27079995
_cell_angle_alpha   90.00000000
_cell_angle_beta   90.00000000
_cell_angle_gamma   140.11824144
_symmetry_Int_Tables_number   1
_chemical_formula_structural   Ba6CaI14
_chemical_formula_sum   'Ba12 Ca2 I28'
_cell_volume   2169.04962180
_cell_formula_units_Z   2
loop_
 _symmetry_equiv_pos_site_id
 _symmetry_equiv_pos_as_xyz
  1  'x, y, z'
loop_
 _atom_site_type_symbol
 _atom_site_label
 _atom_site_symmetry_multiplicity
 _atom_site_fract_x
 _atom_site_fract_y
 _atom_site_fract_z
 _atom_site_occupancy
  Ba  Ba0  1  0.232416  0.921956  0.367680  1
  Ba  Ba1  1  0.078044  0.767584  0.632320  1
  Ba  Ba2  1  0.267584  0.578044  0.867680  1
  Ba  Ba3  1  0.421956  0.732416  0.132320  1
  Ba  Ba4  1  0.194846  0.194846  0.179545  1
  Ba  Ba5  1  0.694846  0.694846  0.320455  1
  Ba  Ba6  1  0.805154  0.805154  0.820455  1
  Ba  Ba7  1  0.305154  0.305154  0.679545  1
  Ba  Ba8  1  0.732416  0.421956  0.132320  1
  Ba  Ba9  1  0.578044  0.267584  0.867680  1
  Ba  Ba10  1  0.921956  0.232416  0.367680  1
  Ba  Ba11  1  0.767584  0.078044  0.632320  1
  Ca  Ca12  1  0.500000  0.500000  0.000000  1
  Ca  Ca13  1  0.000000  0.000000  0.500000  1
  I  I14  1  0.002026  0.805897  0.216282  1
  I  I15  1  0.194103  0.997974  0.783718  1
  I  I16  1  0.259256  0.740744  0.000000  1
  I  I17  1  0.426822  0.926822  0.250000  1
  I  I18  1  0.073178  0.573178  0.750000  1
  I  I19  1  0.240744  0.759256  0.500000  1
  I  I20  1  0.305897  0.502026  0.283718  1
  I  I21  1  0.497974  0.694103  0.716282  1
  I  I22  1  0.140809  0.321477  0.539583  1
  I  I23  1  0.678523  0.859191  0.460417  1
  I  I24  1  0.178523  0.359191  0.039583  1
  I  I25  1  0.640809  0.821477  0.960417  1
  I  I26  1  0.590657  0.590657  0.147362  1
  I  I27  1  0.909343  0.909343  0.647362  1
  I  I28  1  0.409343  0.409343  0.852638  1
  I  I29  1  0.090657  0.090657  0.352638  1
  I  I30  1  0.859191  0.678523  0.460417  1
  I  I31  1  0.821477  0.640809  0.960417  1
  I  I32  1  0.359191  0.178523  0.039583  1
  I  I33  1  0.321477  0.140809  0.539583  1
  I  I34  1  0.694103  0.497974  0.716282  1
  I  I35  1  0.502026  0.305897  0.283718  1
  I  I36  1  0.759256  0.240744  0.500000  1
  I  I37  1  0.573178  0.073178  0.750000  1
  I  I38  1  0.926822  0.426822  0.250000  1
  I  I39  1  0.740744  0.259256  0.000000  1
  I  I40  1  0.997974  0.194103  0.783718  1
  I  I41  1  0.805897  0.002026  0.216282  1
