# generated using pymatgen
data_MnO2
_symmetry_space_group_name_H-M   'P 1'
_cell_length_a   10.31409787
_cell_length_b   10.31409787
_cell_length_c   10.31409787
_cell_angle_alpha   16.30730585
_cell_angle_beta   16.30730585
_cell_angle_gamma   16.30730585
_symmetry_Int_Tables_number   1
_chemical_formula_structural   MnO2
_chemical_formula_sum   'Mn2 O4'
_cell_volume   75.42344369
_cell_formula_units_Z   2
loop_
 _symmetry_equiv_pos_site_id
 _symmetry_equiv_pos_as_xyz
  1  'x, y, z'
loop_
 _atom_site_type_symbol
 _atom_site_label
 _atom_site_symmetry_multiplicity
 _atom_site_fract_x
 _atom_site_fract_y
 _atom_site_fract_z
 _atom_site_occupancy
  Mn  Mn0  1  0.500000  0.500000  0.500000  1
  Mn  Mn1  1  0.000000  0.000000  0.000000  1
  O  O2  1  0.635196  0.635196  0.635196  1
  O  O3  1  0.198121  0.198121  0.198121  1
  O  O4  1  0.801879  0.801879  0.801879  1
  O  O5  1  0.364804  0.364804  0.364804  1
