# generated using pymatgen
data_LiVF4
_symmetry_space_group_name_H-M   'P 1'
_cell_length_a   4.94162269
_cell_length_b   3.13065283
_cell_length_c   5.44357823
_cell_angle_alpha   90.00000000
_cell_angle_beta   112.57452360
_cell_angle_gamma   90.00000000
_symmetry_Int_Tables_number   1
_chemical_formula_structural   LiVF4
_chemical_formula_sum   'Li1 V1 F4'
_cell_volume   77.76244293
_cell_formula_units_Z   1
loop_
 _symmetry_equiv_pos_site_id
 _symmetry_equiv_pos_as_xyz
  1  'x, y, z'
loop_
 _atom_site_type_symbol
 _atom_site_label
 _atom_site_symmetry_multiplicity
 _atom_site_fract_x
 _atom_site_fract_y
 _atom_site_fract_z
 _atom_site_occupancy
  Li  Li0  1  0.000000  0.500000  0.500000  1
  V  V1  1  0.000000  0.000000  0.000000  1
  F  F2  1  0.192246  0.000000  0.752199  1
  F  F3  1  0.773704  0.500000  0.780153  1
  F  F4  1  0.226296  0.500000  0.219847  1
  F  F5  1  0.807754  0.000000  0.247801  1
