# generated using pymatgen
data_BeClO
_symmetry_space_group_name_H-M   'P 1'
_cell_length_a   13.47143639
_cell_length_b   13.47143639
_cell_length_c   13.47143639
_cell_angle_alpha   11.53560041
_cell_angle_beta   11.53560041
_cell_angle_gamma   11.53560041
_symmetry_Int_Tables_number   1
_chemical_formula_structural   BeClO
_chemical_formula_sum   'Be2 Cl2 O2'
_cell_volume   84.95636874
_cell_formula_units_Z   2
loop_
 _symmetry_equiv_pos_site_id
 _symmetry_equiv_pos_as_xyz
  1  'x, y, z'
loop_
 _atom_site_type_symbol
 _atom_site_label
 _atom_site_symmetry_multiplicity
 _atom_site_fract_x
 _atom_site_fract_y
 _atom_site_fract_z
 _atom_site_occupancy
  Be  Be0  1  0.865657  0.865657  0.865657  1
  Be  Be1  1  0.134343  0.134343  0.134343  1
  Cl  Cl2  1  0.620860  0.620860  0.620860  1
  Cl  Cl3  1  0.379140  0.379140  0.379140  1
  O  O4  1  0.800307  0.800307  0.800307  1
  O  O5  1  0.199693  0.199693  0.199693  1
