# generated using pymatgen
data_Li3(NiO2)5
_symmetry_space_group_name_H-M   'P 1'
_cell_length_a   6.47079945
_cell_length_b   7.48248138
_cell_length_c   7.56894419
_cell_angle_alpha   66.49333652
_cell_angle_beta   87.50225970
_cell_angle_gamma   88.61565504
_symmetry_Int_Tables_number   1
_chemical_formula_structural   Li3(NiO2)5
_chemical_formula_sum   'Li6 Ni10 O20'
_cell_volume   335.72990345
_cell_formula_units_Z   2
loop_
 _symmetry_equiv_pos_site_id
 _symmetry_equiv_pos_as_xyz
  1  'x, y, z'
loop_
 _atom_site_type_symbol
 _atom_site_label
 _atom_site_symmetry_multiplicity
 _atom_site_fract_x
 _atom_site_fract_y
 _atom_site_fract_z
 _atom_site_occupancy
  Li  Li0  1  0.695476  0.805509  0.308374  1
  Li  Li1  1  0.397769  0.611361  0.599193  1
  Li  Li2  1  0.104366  0.396342  0.895611  1
  Li  Li3  1  0.899872  0.615161  0.097637  1
  Li  Li4  1  0.310865  0.172734  0.690192  1
  Li  Li5  1  0.793729  0.197896  0.212025  1
  Ni  Ni6  1  0.600211  0.896618  0.903476  1
  Ni  Ni7  1  0.102286  0.900119  0.400417  1
  Ni  Ni8  1  0.801620  0.700445  0.701738  1
  Ni  Ni9  1  0.500594  0.501161  0.000767  1
  Ni  Ni10  1  0.295696  0.699367  0.197781  1
  Ni  Ni11  1  0.995433  0.499308  0.498093  1
  Ni  Ni12  1  0.700657  0.297777  0.802044  1
  Ni  Ni13  1  0.203711  0.304022  0.298384  1
  Ni  Ni14  1  0.900335  0.100537  0.600822  1
  Ni  Ni15  1  0.397136  0.101986  0.098646  1
  O  O16  1  0.328037  0.955030  0.958232  1
  O  O17  1  0.872175  0.840601  0.845231  1
  O  O18  1  0.831472  0.955365  0.457036  1
  O  O19  1  0.523055  0.735203  0.777971  1
  O  O20  1  0.371275  0.839416  0.339974  1
  O  O21  1  0.079366  0.637714  0.640621  1
  O  O22  1  0.011173  0.730963  0.277920  1
  O  O23  1  0.774630  0.440724  0.949135  1
  O  O24  1  0.723748  0.560475  0.557060  1
  O  O25  1  0.581538  0.661816  0.124788  1
  O  O26  1  0.423676  0.362692  0.854043  1
  O  O27  1  0.268935  0.443808  0.446898  1
  O  O28  1  0.224338  0.537950  0.072239  1
  O  O29  1  0.978579  0.266579  0.722321  1
  O  O30  1  0.929773  0.360623  0.347928  1
  O  O31  1  0.623123  0.131378  0.683869  1
  O  O32  1  0.478804  0.265365  0.222399  1
  O  O33  1  0.177977  0.074152  0.519119  1
  O  O34  1  0.122559  0.163843  0.157059  1
  O  O35  1  0.670648  0.039484  0.048346  1
