# generated using pymatgen
data_Mn2FeAg2(PO4)3
_symmetry_space_group_name_H-M   'P 1'
_cell_length_a   8.28732900
_cell_length_b   8.28732900
_cell_length_c   9.62652223
_cell_angle_alpha   75.07173992
_cell_angle_beta   104.92826008
_cell_angle_gamma   85.41242490
_symmetry_Int_Tables_number   1
_chemical_formula_structural   Mn2FeAg2(PO4)3
_chemical_formula_sum   'Mn4 Fe2 Ag4 P6 O24'
_cell_volume   609.64205092
_cell_formula_units_Z   2
loop_
 _symmetry_equiv_pos_site_id
 _symmetry_equiv_pos_as_xyz
  1  'x, y, z'
loop_
 _atom_site_type_symbol
 _atom_site_label
 _atom_site_symmetry_multiplicity
 _atom_site_fract_x
 _atom_site_fract_y
 _atom_site_fract_z
 _atom_site_occupancy
  Mn  Mn0  1  0.413419  0.964345  0.901410  1
  Mn  Mn1  1  0.376224  0.376224  0.000000  1
  Mn  Mn2  1  0.964345  0.413419  0.098590  1
  Mn  Mn3  1  0.526778  0.526778  0.500000  1
  Fe  Fe4  1  0.991861  0.621725  0.296609  1
  Fe  Fe5  1  0.621725  0.991861  0.703391  1
  Ag  Ag6  1  0.908198  0.908198  0.000000  1
  Ag  Ag7  1  0.391787  0.669762  0.711993  1
  Ag  Ag8  1  0.107622  0.107622  0.500000  1
  Ag  Ag9  1  0.669762  0.391787  0.288007  1
  P  P10  1  0.802364  0.585600  0.777701  1
  P  P11  1  0.149209  0.149209  0.000000  1
  P  P12  1  0.585600  0.802364  0.222299  1
  P  P13  1  0.459539  0.251794  0.367840  1
  P  P14  1  0.840291  0.840291  0.500000  1
  P  P15  1  0.251794  0.459539  0.632160  1
  O  O16  1  0.352648  0.125279  0.027791  1
  O  O17  1  0.038506  0.628037  0.116447  1
  O  O18  1  0.751004  0.712537  0.208611  1
  O  O19  1  0.282020  0.767041  0.954309  1
  O  O20  1  0.074636  0.089231  0.863759  1
  O  O21  1  0.396146  0.628930  0.976563  1
  O  O22  1  0.628930  0.396146  0.023437  1
  O  O23  1  0.089231  0.074636  0.136241  1
  O  O24  1  0.767041  0.282020  0.045691  1
  O  O25  1  0.868051  0.654897  0.619294  1
  O  O26  1  0.712537  0.751004  0.791389  1
  O  O27  1  0.628037  0.038506  0.883553  1
  O  O28  1  0.393548  0.936931  0.697726  1
  O  O29  1  0.253818  0.272576  0.682512  1
  O  O30  1  0.125279  0.352648  0.972209  1
  O  O31  1  0.223416  0.538763  0.461739  1
  O  O32  1  0.977453  0.827565  0.422355  1
  O  O33  1  0.487822  0.658628  0.288581  1
  O  O34  1  0.658628  0.487822  0.711419  1
  O  O35  1  0.827565  0.977453  0.577645  1
  O  O36  1  0.538763  0.223416  0.538261  1
  O  O37  1  0.272576  0.253818  0.317488  1
  O  O38  1  0.936931  0.393548  0.302274  1
  O  O39  1  0.654897  0.868051  0.380706  1
