# generated using pymatgen
data_GeWO4
_symmetry_space_group_name_H-M   'P 1'
_cell_length_a   5.05512857
_cell_length_b   5.58492107
_cell_length_c   11.70342712
_cell_angle_alpha   90.00000000
_cell_angle_beta   90.00000000
_cell_angle_gamma   90.00000000
_symmetry_Int_Tables_number   1
_chemical_formula_structural   GeWO4
_chemical_formula_sum   'Ge4 W4 O16'
_cell_volume   330.41693667
_cell_formula_units_Z   4
loop_
 _symmetry_equiv_pos_site_id
 _symmetry_equiv_pos_as_xyz
  1  'x, y, z'
loop_
 _atom_site_type_symbol
 _atom_site_label
 _atom_site_symmetry_multiplicity
 _atom_site_fract_x
 _atom_site_fract_y
 _atom_site_fract_z
 _atom_site_occupancy
  Ge  Ge0  1  0.170431  0.250000  0.000000  1
  Ge  Ge1  1  0.329569  0.250000  0.500000  1
  Ge  Ge2  1  0.829569  0.750000  0.000000  1
  Ge  Ge3  1  0.670431  0.750000  0.500000  1
  W  W4  1  0.750000  0.141127  0.250000  1
  W  W5  1  0.750000  0.358873  0.750000  1
  W  W6  1  0.250000  0.641127  0.250000  1
  W  W7  1  0.250000  0.858873  0.750000  1
  O  O8  1  0.899864  0.101085  0.098504  1
  O  O9  1  0.600136  0.101085  0.401496  1
  O  O10  1  0.499069  0.129635  0.796202  1
  O  O11  1  0.000931  0.129635  0.703798  1
  O  O12  1  0.499069  0.370365  0.203798  1
  O  O13  1  0.000931  0.370365  0.296202  1
  O  O14  1  0.600136  0.398915  0.598504  1
  O  O15  1  0.899864  0.398915  0.901496  1
  O  O16  1  0.100136  0.601085  0.098504  1
  O  O17  1  0.399864  0.601085  0.401496  1
  O  O18  1  0.999069  0.629635  0.703798  1
  O  O19  1  0.500931  0.629635  0.796202  1
  O  O20  1  0.500931  0.870365  0.203798  1
  O  O21  1  0.999069  0.870365  0.296202  1
  O  O22  1  0.399864  0.898915  0.598504  1
  O  O23  1  0.100136  0.898915  0.901496  1
