# generated using pymatgen
data_Li4Mn3NiO8
_symmetry_space_group_name_H-M   'P 1'
_cell_length_a   5.88853380
_cell_length_b   5.88853380
_cell_length_c   5.99557476
_cell_angle_alpha   59.67737235
_cell_angle_beta   120.32262765
_cell_angle_gamma   118.99485753
_symmetry_Int_Tables_number   1
_chemical_formula_structural   Li4Mn3NiO8
_chemical_formula_sum   'Li4 Mn3 Ni1 O8'
_cell_volume   147.35081320
_cell_formula_units_Z   1
loop_
 _symmetry_equiv_pos_site_id
 _symmetry_equiv_pos_as_xyz
  1  'x, y, z'
loop_
 _atom_site_type_symbol
 _atom_site_label
 _atom_site_symmetry_multiplicity
 _atom_site_fract_x
 _atom_site_fract_y
 _atom_site_fract_z
 _atom_site_occupancy
  Li  Li0  1  0.000000  0.500000  0.500000  1
  Li  Li1  1  0.500000  0.500000  0.000000  1
  Li  Li2  1  0.000000  0.000000  0.000000  1
  Li  Li3  1  0.500000  0.000000  0.500000  1
  Mn  Mn4  1  0.500000  0.000000  0.000000  1
  Mn  Mn5  1  0.500000  0.500000  0.500000  1
  Mn  Mn6  1  0.000000  0.500000  0.000000  1
  Ni  Ni7  1  0.000000  0.000000  0.500000  1
  O  O8  1  0.263942  0.736058  0.282833  1
  O  O9  1  0.277387  0.255824  0.740944  1
  O  O10  1  0.750378  0.249622  0.212667  1
  O  O11  1  0.744176  0.722613  0.740944  1
  O  O12  1  0.255824  0.277387  0.259056  1
  O  O13  1  0.249622  0.750378  0.787333  1
  O  O14  1  0.722613  0.744176  0.259056  1
  O  O15  1  0.736058  0.263942  0.717167  1
