# generated using pymatgen
data_Sr2MnMoO6
_symmetry_space_group_name_H-M   'P 1'
_cell_length_a   8.09607644
_cell_length_b   8.09607644
_cell_length_c   8.16243572
_cell_angle_alpha   90.00000000
_cell_angle_beta   90.00000000
_cell_angle_gamma   90.00000000
_symmetry_Int_Tables_number   1
_chemical_formula_structural   Sr2MnMoO6
_chemical_formula_sum   'Sr8 Mn4 Mo4 O24'
_cell_volume   535.01871518
_cell_formula_units_Z   4
loop_
 _symmetry_equiv_pos_site_id
 _symmetry_equiv_pos_as_xyz
  1  'x, y, z'
loop_
 _atom_site_type_symbol
 _atom_site_label
 _atom_site_symmetry_multiplicity
 _atom_site_fract_x
 _atom_site_fract_y
 _atom_site_fract_z
 _atom_site_occupancy
  Sr  Sr0  1  0.000000  0.000000  0.000000  1
  Sr  Sr1  1  0.500000  0.000000  0.012742  1
  Sr  Sr2  1  0.000000  0.500000  0.487258  1
  Sr  Sr3  1  0.500000  0.500000  0.000000  1
  Sr  Sr4  1  0.000000  0.000000  0.500000  1
  Sr  Sr5  1  0.000000  0.500000  0.987258  1
  Sr  Sr6  1  0.500000  0.500000  0.500000  1
  Sr  Sr7  1  0.500000  0.000000  0.512742  1
  Mn  Mn8  1  0.250000  0.750000  0.250000  1
  Mn  Mn9  1  0.750000  0.750000  0.750000  1
  Mn  Mn10  1  0.750000  0.250000  0.250000  1
  Mn  Mn11  1  0.250000  0.250000  0.750000  1
  Mo  Mo12  1  0.250000  0.250000  0.250000  1
  Mo  Mo13  1  0.750000  0.750000  0.250000  1
  Mo  Mo14  1  0.250000  0.750000  0.750000  1
  Mo  Mo15  1  0.750000  0.250000  0.750000  1
  O  O16  1  0.486139  0.292910  0.228467  1
  O  O17  1  0.727542  0.269505  0.512804  1
  O  O18  1  0.013861  0.207090  0.271533  1
  O  O19  1  0.292910  0.513861  0.771533  1
  O  O20  1  0.203860  0.485996  0.231809  1
  O  O21  1  0.513861  0.707090  0.228467  1
  O  O22  1  0.769505  0.772458  0.012804  1
  O  O23  1  0.792910  0.013861  0.728467  1
  O  O24  1  0.296140  0.014004  0.268191  1
  O  O25  1  0.772458  0.230495  0.987196  1
  O  O26  1  0.796140  0.514004  0.231809  1
  O  O27  1  0.986139  0.792910  0.271533  1
  O  O28  1  0.014004  0.703860  0.731809  1
  O  O29  1  0.514004  0.203860  0.768191  1
  O  O30  1  0.230495  0.227542  0.012804  1
  O  O31  1  0.730495  0.727542  0.487196  1
  O  O32  1  0.703860  0.985996  0.268191  1
  O  O33  1  0.485996  0.796140  0.768191  1
  O  O34  1  0.707090  0.486139  0.771533  1
  O  O35  1  0.985996  0.296140  0.731809  1
  O  O36  1  0.272458  0.730495  0.512804  1
  O  O37  1  0.207090  0.986139  0.728467  1
  O  O38  1  0.227542  0.769505  0.987196  1
  O  O39  1  0.269505  0.272458  0.487196  1
