# generated using pymatgen
data_P2H10S4N2O
_symmetry_space_group_name_H-M   'P 1'
_cell_length_a   8.18261002
_cell_length_b   8.78566919
_cell_length_c   14.46450943
_cell_angle_alpha   90.00000000
_cell_angle_beta   90.00000000
_cell_angle_gamma   90.00000000
_symmetry_Int_Tables_number   1
_chemical_formula_structural   P2H10S4N2O
_chemical_formula_sum   'P8 H40 S16 N8 O4'
_cell_volume   1039.84931223
_cell_formula_units_Z   4
loop_
 _symmetry_equiv_pos_site_id
 _symmetry_equiv_pos_as_xyz
  1  'x, y, z'
loop_
 _atom_site_type_symbol
 _atom_site_label
 _atom_site_symmetry_multiplicity
 _atom_site_fract_x
 _atom_site_fract_y
 _atom_site_fract_z
 _atom_site_occupancy
  P  P0  1  0.578359  0.867027  0.566922  1
  P  P1  1  0.421641  0.867027  0.433078  1
  P  P2  1  0.078359  0.132973  0.933078  1
  P  P3  1  0.921641  0.132973  0.066922  1
  P  P4  1  0.421641  0.132973  0.433078  1
  P  P5  1  0.578359  0.132973  0.566922  1
  P  P6  1  0.921641  0.867027  0.066922  1
  P  P7  1  0.078359  0.867027  0.933078  1
  H  H8  1  0.662650  0.412006  0.906863  1
  H  H9  1  0.337350  0.412006  0.093137  1
  H  H10  1  0.162650  0.587994  0.593137  1
  H  H11  1  0.837350  0.587994  0.406863  1
  H  H12  1  0.337350  0.587994  0.093137  1
  H  H13  1  0.662650  0.587994  0.906863  1
  H  H14  1  0.837350  0.412006  0.406863  1
  H  H15  1  0.162650  0.412006  0.593137  1
  H  H16  1  0.725003  0.403763  0.660824  1
  H  H17  1  0.274997  0.403763  0.339176  1
  H  H18  1  0.225003  0.596237  0.839176  1
  H  H19  1  0.774997  0.596237  0.160824  1
  H  H20  1  0.274997  0.596237  0.339176  1
  H  H21  1  0.725003  0.596237  0.660824  1
  H  H22  1  0.774997  0.403763  0.160824  1
  H  H23  1  0.225003  0.403763  0.839176  1
  H  H24  1  0.762384  0.500000  0.759816  1
  H  H25  1  0.237616  0.500000  0.240184  1
  H  H26  1  0.262384  0.500000  0.740184  1
  H  H27  1  0.737616  0.500000  0.259816  1
  H  H28  1  0.902280  0.500000  0.668946  1
  H  H29  1  0.097720  0.500000  0.331054  1
  H  H30  1  0.402280  0.500000  0.831054  1
  H  H31  1  0.597720  0.500000  0.168946  1
  H  H32  1  0.021038  0.905050  0.643431  1
  H  H33  1  0.978962  0.905050  0.356569  1
  H  H34  1  0.521038  0.094950  0.856569  1
  H  H35  1  0.478962  0.094950  0.143431  1
  H  H36  1  0.978962  0.094950  0.356569  1
  H  H37  1  0.021038  0.094950  0.643431  1
  H  H38  1  0.478962  0.905050  0.143431  1
  H  H39  1  0.521038  0.905050  0.856569  1
  H  H40  1  0.174022  0.000000  0.591800  1
  H  H41  1  0.825978  0.000000  0.408200  1
  H  H42  1  0.674022  0.000000  0.908200  1
  H  H43  1  0.325978  0.000000  0.091800  1
  H  H44  1  0.158297  0.000000  0.708846  1
  H  H45  1  0.841703  0.000000  0.291154  1
  H  H46  1  0.658297  0.000000  0.791154  1
  H  H47  1  0.341703  0.000000  0.208846  1
  S  S48  1  0.455871  0.783679  0.673929  1
  S  S49  1  0.544129  0.783679  0.326071  1
  S  S50  1  0.955871  0.216321  0.826071  1
  S  S51  1  0.044129  0.216321  0.173929  1
  S  S52  1  0.544129  0.216321  0.326071  1
  S  S53  1  0.455871  0.216321  0.673929  1
  S  S54  1  0.044129  0.783679  0.173929  1
  S  S55  1  0.955871  0.783679  0.826071  1
  S  S56  1  0.802648  0.787444  0.539094  1
  S  S57  1  0.197352  0.787444  0.460906  1
  S  S58  1  0.302648  0.212556  0.960906  1
  S  S59  1  0.697352  0.212556  0.039094  1
  S  S60  1  0.197352  0.212556  0.460906  1
  S  S61  1  0.802648  0.212556  0.539094  1
  S  S62  1  0.697352  0.787444  0.039094  1
  S  S63  1  0.302648  0.787444  0.960906  1
  N  N64  1  0.780031  0.500000  0.688396  1
  N  N65  1  0.219969  0.500000  0.311604  1
  N  N66  1  0.280031  0.500000  0.811604  1
  N  N67  1  0.719969  0.500000  0.188396  1
  N  N68  1  0.095614  0.000000  0.647489  1
  N  N69  1  0.904386  0.000000  0.352511  1
  N  N70  1  0.595614  0.000000  0.852511  1
  N  N71  1  0.404386  0.000000  0.147489  1
  O  O72  1  0.631153  0.500000  0.868761  1
  O  O73  1  0.368847  0.500000  0.131239  1
  O  O74  1  0.131153  0.500000  0.631239  1
  O  O75  1  0.868847  0.500000  0.368761  1
