# generated using pymatgen
data_LiV2F5
_symmetry_space_group_name_H-M   'P 1'
_cell_length_a   5.52449217
_cell_length_b   5.52449217
_cell_length_c   10.40709509
_cell_angle_alpha   90.00000000
_cell_angle_beta   90.00000000
_cell_angle_gamma   135.43161891
_symmetry_Int_Tables_number   1
_chemical_formula_structural   LiV2F5
_chemical_formula_sum   'Li2 V4 F10'
_cell_volume   222.89630242
_cell_formula_units_Z   2
loop_
 _symmetry_equiv_pos_site_id
 _symmetry_equiv_pos_as_xyz
  1  'x, y, z'
loop_
 _atom_site_type_symbol
 _atom_site_label
 _atom_site_symmetry_multiplicity
 _atom_site_fract_x
 _atom_site_fract_y
 _atom_site_fract_z
 _atom_site_occupancy
  Li  Li0  1  0.819384  0.180616  0.250000  1
  Li  Li1  1  0.180616  0.819384  0.750000  1
  V  V2  1  0.856691  0.143309  0.563993  1
  V  V3  1  0.856691  0.143309  0.936007  1
  V  V4  1  0.143309  0.856691  0.063993  1
  V  V5  1  0.143309  0.856691  0.436007  1
  F  F6  1  0.678454  0.321546  0.055950  1
  F  F7  1  0.678454  0.321546  0.444050  1
  F  F8  1  0.945707  0.054293  0.117818  1
  F  F9  1  0.945707  0.054293  0.382182  1
  F  F10  1  0.766109  0.233891  0.750000  1
  F  F11  1  0.233891  0.766109  0.250000  1
  F  F12  1  0.054293  0.945707  0.882182  1
  F  F13  1  0.054293  0.945707  0.617818  1
  F  F14  1  0.321546  0.678454  0.944050  1
  F  F15  1  0.321546  0.678454  0.555950  1
