# generated using pymatgen
data_Ba4Bi3O11
_symmetry_space_group_name_H-M   'P 1'
_cell_length_a   6.21683001
_cell_length_b   6.21683001
_cell_length_c   8.93525241
_cell_angle_alpha   90.00000000
_cell_angle_beta   90.00000000
_cell_angle_gamma   90.00636178
_symmetry_Int_Tables_number   1
_chemical_formula_structural   Ba4Bi3O11
_chemical_formula_sum   'Ba4 Bi3 O11'
_cell_volume   345.33834817
_cell_formula_units_Z   1
loop_
 _symmetry_equiv_pos_site_id
 _symmetry_equiv_pos_as_xyz
  1  'x, y, z'
loop_
 _atom_site_type_symbol
 _atom_site_label
 _atom_site_symmetry_multiplicity
 _atom_site_fract_x
 _atom_site_fract_y
 _atom_site_fract_z
 _atom_site_occupancy
  Ba  Ba0  1  0.507487  0.953479  0.255471  1
  Ba  Ba1  1  0.507487  0.953479  0.744529  1
  Ba  Ba2  1  0.046521  0.492513  0.744529  1
  Ba  Ba3  1  0.046521  0.492513  0.255471  1
  Bi  Bi4  1  0.009148  0.990852  1.000000  1
  Bi  Bi5  1  0.010295  0.989705  0.500000  1
  Bi  Bi6  1  0.519348  0.480652  0.500000  1
  O  O7  1  0.009958  0.990042  0.249357  1
  O  O8  1  0.009958  0.990042  0.750643  1
  O  O9  1  0.252700  0.246162  0.500000  1
  O  O10  1  0.763539  0.236461  0.500000  1
  O  O11  1  0.101534  0.304999  1.000000  1
  O  O12  1  0.507858  0.492142  0.268788  1
  O  O13  1  0.507858  0.492142  0.731212  1
  O  O14  1  0.695001  0.898466  1.000000  1
  O  O15  1  0.753838  0.747300  0.500000  1
  O  O16  1  0.239873  0.760127  1.000000  1
  O  O17  1  0.261074  0.738926  0.500000  1
