# generated using pymatgen
data_Li2Mn(SiO3)2
_symmetry_space_group_name_H-M   'P 1'
_cell_length_a   7.22742821
_cell_length_b   10.08134255
_cell_length_c   10.30425157
_cell_angle_alpha   90.00000000
_cell_angle_beta   90.00000000
_cell_angle_gamma   90.00000000
_symmetry_Int_Tables_number   1
_chemical_formula_structural   Li2Mn(SiO3)2
_chemical_formula_sum   'Li12 Mn6 Si12 O36'
_cell_volume   750.79022792
_cell_formula_units_Z   6
loop_
 _symmetry_equiv_pos_site_id
 _symmetry_equiv_pos_as_xyz
  1  'x, y, z'
loop_
 _atom_site_type_symbol
 _atom_site_label
 _atom_site_symmetry_multiplicity
 _atom_site_fract_x
 _atom_site_fract_y
 _atom_site_fract_z
 _atom_site_occupancy
  Li  Li0  1  0.782202  0.243901  0.000000  1
  Li  Li1  1  0.761480  0.762617  0.000000  1
  Li  Li2  1  0.286400  0.451752  0.233396  1
  Li  Li3  1  0.222248  0.041289  0.237689  1
  Li  Li4  1  0.777752  0.541289  0.262311  1
  Li  Li5  1  0.713600  0.951752  0.266604  1
  Li  Li6  1  0.238520  0.262617  0.500000  1
  Li  Li7  1  0.217798  0.743901  0.500000  1
  Li  Li8  1  0.713600  0.951752  0.733396  1
  Li  Li9  1  0.777752  0.541289  0.737689  1
  Li  Li10  1  0.222248  0.041289  0.762311  1
  Li  Li11  1  0.286400  0.451752  0.766604  1
  Mn  Mn12  1  0.251724  0.246698  0.000000  1
  Mn  Mn13  1  0.981449  0.011883  0.000000  1
  Mn  Mn14  1  0.521829  0.480064  0.000000  1
  Mn  Mn15  1  0.018551  0.511883  0.500000  1
  Mn  Mn16  1  0.478171  0.980064  0.500000  1
  Mn  Mn17  1  0.748276  0.746698  0.500000  1
  Si  Si18  1  0.988021  0.527121  0.000000  1
  Si  Si19  1  0.512807  0.968667  0.000000  1
  Si  Si20  1  0.024854  0.747539  0.224810  1
  Si  Si21  1  0.474282  0.748871  0.224992  1
  Si  Si22  1  0.525718  0.248871  0.275008  1
  Si  Si23  1  0.975146  0.247539  0.275190  1
  Si  Si24  1  0.487193  0.468667  0.500000  1
  Si  Si25  1  0.011979  0.027121  0.500000  1
  Si  Si26  1  0.975146  0.247539  0.724810  1
  Si  Si27  1  0.525718  0.248871  0.724992  1
  Si  Si28  1  0.474282  0.748871  0.775008  1
  Si  Si29  1  0.024854  0.747539  0.775190  1
  O  O30  1  0.302881  0.025216  0.000000  1
  O  O31  1  0.687820  0.068522  0.000000  1
  O  O32  1  0.196549  0.469641  0.000000  1
  O  O33  1  0.812014  0.428372  0.000000  1
  O  O34  1  0.042431  0.188125  0.136425  1
  O  O35  1  0.552601  0.862822  0.121344  1
  O  O36  1  0.949424  0.630538  0.123546  1
  O  O37  1  0.449076  0.309112  0.139338  1
  O  O38  1  0.942524  0.888039  0.173297  1
  O  O39  1  0.543503  0.602974  0.179019  1
  O  O40  1  0.751031  0.256000  0.278545  1
  O  O41  1  0.248969  0.756000  0.221455  1
  O  O42  1  0.456497  0.102974  0.320981  1
  O  O43  1  0.057476  0.388039  0.326703  1
  O  O44  1  0.550924  0.809112  0.360662  1
  O  O45  1  0.050576  0.130538  0.376454  1
  O  O46  1  0.447399  0.362822  0.378656  1
  O  O47  1  0.957569  0.688125  0.363575  1
  O  O48  1  0.697119  0.525216  0.500000  1
  O  O49  1  0.312180  0.568522  0.500000  1
  O  O50  1  0.187986  0.928372  0.500000  1
  O  O51  1  0.803451  0.969641  0.500000  1
  O  O52  1  0.957569  0.688125  0.636425  1
  O  O53  1  0.447399  0.362822  0.621344  1
  O  O54  1  0.050576  0.130538  0.623546  1
  O  O55  1  0.550924  0.809112  0.639338  1
  O  O56  1  0.057476  0.388039  0.673297  1
  O  O57  1  0.456497  0.102974  0.679019  1
  O  O58  1  0.248969  0.756000  0.778545  1
  O  O59  1  0.751031  0.256000  0.721455  1
  O  O60  1  0.543503  0.602974  0.820981  1
  O  O61  1  0.942524  0.888039  0.826703  1
  O  O62  1  0.449076  0.309112  0.860662  1
  O  O63  1  0.949424  0.630538  0.876454  1
  O  O64  1  0.552601  0.862822  0.878656  1
  O  O65  1  0.042431  0.188125  0.863575  1
