# generated using pymatgen
data_Li3Mn4(BO3)4
_symmetry_space_group_name_H-M   'P 1'
_cell_length_a   5.27323200
_cell_length_b   8.26842188
_cell_length_c   11.79579980
_cell_angle_alpha   102.03139684
_cell_angle_beta   89.95155921
_cell_angle_gamma   91.04865128
_symmetry_Int_Tables_number   1
_chemical_formula_structural   Li3Mn4(BO3)4
_chemical_formula_sum   'Li6 Mn8 B8 O24'
_cell_volume   502.92809172
_cell_formula_units_Z   2
loop_
 _symmetry_equiv_pos_site_id
 _symmetry_equiv_pos_as_xyz
  1  'x, y, z'
loop_
 _atom_site_type_symbol
 _atom_site_label
 _atom_site_symmetry_multiplicity
 _atom_site_fract_x
 _atom_site_fract_y
 _atom_site_fract_z
 _atom_site_occupancy
  Li  Li0  1  0.338272  0.726800  0.030828  1
  Li  Li1  1  0.841989  0.219424  0.269256  1
  Li  Li2  1  0.346068  0.727069  0.520093  1
  Li  Li3  1  0.653932  0.272931  0.479907  1
  Li  Li4  1  0.158011  0.780576  0.730744  1
  Li  Li5  1  0.661728  0.273200  0.969172  1
  Mn  Mn6  1  0.178129  0.427056  0.091808  1
  Mn  Mn7  1  0.317381  0.074892  0.163197  1
  Mn  Mn8  1  0.683405  0.910591  0.329329  1
  Mn  Mn9  1  0.831347  0.576843  0.406977  1
  Mn  Mn10  1  0.168653  0.423157  0.593023  1
  Mn  Mn11  1  0.316595  0.089409  0.670671  1
  Mn  Mn12  1  0.682619  0.925108  0.836803  1
  Mn  Mn13  1  0.821871  0.572944  0.908192  1
  B  B14  1  0.828222  0.910041  0.075486  1
  B  B15  1  0.677065  0.586394  0.163878  1
  B  B16  1  0.331418  0.402921  0.334187  1
  B  B17  1  0.176804  0.103701  0.416102  1
  B  B18  1  0.823196  0.896299  0.583898  1
  B  B19  1  0.668582  0.597079  0.665813  1
  B  B20  1  0.322935  0.413606  0.836122  1
  B  B21  1  0.171778  0.089959  0.924514  1
  O  O22  1  0.084841  0.890702  0.075249  1
  O  O23  1  0.322334  0.182650  0.015446  1
  O  O24  1  0.801101  0.477350  0.074441  1
  O  O25  1  0.424247  0.613793  0.155528  1
  O  O26  1  0.815227  0.673108  0.257935  1
  O  O27  1  0.317715  0.014130  0.325088  1
  O  O28  1  0.705219  0.013101  0.167408  1
  O  O29  1  0.182051  0.314506  0.242122  1
  O  O30  1  0.587199  0.374991  0.337541  1
  O  O31  1  0.211360  0.510915  0.424265  1
  O  O32  1  0.686119  0.812361  0.486408  1
  O  O33  1  0.918123  0.119747  0.408981  1
  O  O34  1  0.081877  0.880253  0.591019  1
  O  O35  1  0.313881  0.187639  0.513592  1
  O  O36  1  0.788640  0.489085  0.575735  1
  O  O37  1  0.412801  0.625009  0.662459  1
  O  O38  1  0.817949  0.685494  0.757878  1
  O  O39  1  0.294781  0.986899  0.832592  1
  O  O40  1  0.682285  0.985870  0.674912  1
  O  O41  1  0.184773  0.326892  0.742065  1
  O  O42  1  0.575753  0.386207  0.844472  1
  O  O43  1  0.198899  0.522650  0.925559  1
  O  O44  1  0.677666  0.817350  0.984554  1
  O  O45  1  0.915159  0.109298  0.924751  1
