# generated using pymatgen
data_YHoO3
_symmetry_space_group_name_H-M   'P 1'
_cell_length_a   6.42506453
_cell_length_b   6.42506453
_cell_length_c   12.76526025
_cell_angle_alpha   90.00000000
_cell_angle_beta   90.00000000
_cell_angle_gamma   120.00000000
_symmetry_Int_Tables_number   1
_chemical_formula_structural   YHoO3
_chemical_formula_sum   'Y6 Ho6 O18'
_cell_volume   456.36811307
_cell_formula_units_Z   6
loop_
 _symmetry_equiv_pos_site_id
 _symmetry_equiv_pos_as_xyz
  1  'x, y, z'
loop_
 _atom_site_type_symbol
 _atom_site_label
 _atom_site_symmetry_multiplicity
 _atom_site_fract_x
 _atom_site_fract_y
 _atom_site_fract_z
 _atom_site_occupancy
  Y  Y0  1  0.333333  0.666667  0.236987  1
  Y  Y1  1  0.000000  0.000000  0.269852  1
  Y  Y2  1  0.000000  0.000000  0.769852  1
  Y  Y3  1  0.333333  0.666667  0.736987  1
  Y  Y4  1  0.666667  0.333333  0.736987  1
  Y  Y5  1  0.666667  0.333333  0.236987  1
  Ho  Ho6  1  0.000000  0.666869  0.501456  1
  Ho  Ho7  1  0.000000  0.333131  0.001456  1
  Ho  Ho8  1  0.333131  0.333131  0.501456  1
  Ho  Ho9  1  0.666869  0.666869  0.001456  1
  Ho  Ho10  1  0.333131  0.000000  0.001456  1
  Ho  Ho11  1  0.666869  0.000000  0.501456  1
  O  O12  1  0.000000  0.693289  0.674945  1
  O  O13  1  0.000000  0.637772  0.329537  1
  O  O14  1  0.000000  0.362228  0.829537  1
  O  O15  1  0.000000  0.306711  0.174945  1
  O  O16  1  0.333333  0.666667  0.029039  1
  O  O17  1  0.000000  0.000000  0.467883  1
  O  O18  1  0.000000  0.000000  0.967883  1
  O  O19  1  0.333333  0.666667  0.529039  1
  O  O20  1  0.306711  0.306711  0.674945  1
  O  O21  1  0.362228  0.362228  0.329537  1
  O  O22  1  0.306711  0.000000  0.174945  1
  O  O23  1  0.637772  0.637772  0.829537  1
  O  O24  1  0.693289  0.693289  0.174945  1
  O  O25  1  0.362228  0.000000  0.829537  1
  O  O26  1  0.666667  0.333333  0.529039  1
  O  O27  1  0.666667  0.333333  0.029039  1
  O  O28  1  0.637772  0.000000  0.329537  1
  O  O29  1  0.693289  0.000000  0.674945  1
